# generated using pymatgen
data_Ba2AsPt8
_symmetry_space_group_name_H-M   'P 1'
_cell_length_a   9.64731981
_cell_length_b   9.64731849
_cell_length_c   4.32543900
_cell_angle_alpha   90.00000000
_cell_angle_beta   90.00000000
_cell_angle_gamma   146.14917925
_symmetry_Int_Tables_number   1
_chemical_formula_structural   Ba2AsPt8
_chemical_formula_sum   'Ba2 As1 Pt8'
_cell_volume   224.24563377
_cell_formula_units_Z   1
loop_
 _symmetry_equiv_pos_site_id
 _symmetry_equiv_pos_as_xyz
  1  'x, y, z'
loop_
 _atom_site_type_symbol
 _atom_site_label
 _atom_site_symmetry_multiplicity
 _atom_site_fract_x
 _atom_site_fract_y
 _atom_site_fract_z
 _atom_site_occupancy
  Ba  Ba0  1  0.616852  0.373385  0.500000  1
  Ba  Ba1  1  0.373385  0.616852  0.500000  1
  As  As2  1  0.218768  0.218768  0.000000  1
  Pt  Pt3  1  0.108126  0.879540  0.000000  1
  Pt  Pt4  1  0.879540  0.108126  0.000000  1
  Pt  Pt5  1  0.492673  0.991020  0.000000  1
  Pt  Pt6  1  0.991020  0.492673  0.000000  1
  Pt  Pt7  1  0.197620  0.790957  0.500000  1
  Pt  Pt8  1  0.790957  0.197620  0.500000  1
  Pt  Pt9  1  0.993630  0.993630  0.500000  1
  Pt  Pt10  1  0.651028  0.651028  0.000000  1
