# generated using pymatgen
data_Ta12Al3Si5(IrC)4
_symmetry_space_group_name_H-M   'P 1'
_cell_length_a   8.24079427
_cell_length_b   8.24745475
_cell_length_c   8.24079343
_cell_angle_alpha   60.05326721
_cell_angle_beta   60.03315930
_cell_angle_gamma   60.05326036
_symmetry_Int_Tables_number   1
_chemical_formula_structural   Ta12Al3Si5(IrC)4
_chemical_formula_sum   'Ta12 Al3 Si5 Ir4 C4'
_cell_volume   396.46158183
_cell_formula_units_Z   1
loop_
 _symmetry_equiv_pos_site_id
 _symmetry_equiv_pos_as_xyz
  1  'x, y, z'
loop_
 _atom_site_type_symbol
 _atom_site_label
 _atom_site_symmetry_multiplicity
 _atom_site_fract_x
 _atom_site_fract_y
 _atom_site_fract_z
 _atom_site_occupancy
  Ta  Ta0  1  0.563974  0.936085  0.563974  1
  Ta  Ta1  1  0.314319  0.687015  0.683702  1
  Ta  Ta2  1  0.688405  0.313737  0.314044  1
  Ta  Ta3  1  0.315386  0.688610  0.315386  1
  Ta  Ta4  1  0.683702  0.687015  0.314319  1
  Ta  Ta5  1  0.314044  0.313737  0.688405  1
  Ta  Ta6  1  0.568763  0.560552  0.934797  1
  Ta  Ta7  1  0.934797  0.560552  0.568763  1
  Ta  Ta8  1  0.566618  0.936398  0.935282  1
  Ta  Ta9  1  0.935282  0.936398  0.566618  1
  Ta  Ta10  1  0.685913  0.313662  0.685913  1
  Ta  Ta11  1  0.934619  0.563560  0.934619  1
  Al  Al12  1  0.918558  0.915257  0.251532  1
  Al  Al13  1  0.251532  0.915257  0.918558  1
  Al  Al14  1  0.334084  0.333987  0.334084  1
  Si  Si15  1  0.915651  0.910353  0.915651  1
  Si  Si16  1  0.988170  0.339114  0.339317  1
  Si  Si17  1  0.338058  0.991482  0.338058  1
  Si  Si18  1  0.339317  0.339114  0.988170  1
  Si  Si19  1  0.916585  0.255549  0.916585  1
  Ir  Ir20  1  0.128267  0.133044  0.128267  1
  Ir  Ir21  1  0.626241  0.124662  0.117702  1
  Ir  Ir22  1  0.121730  0.619486  0.121730  1
  Ir  Ir23  1  0.117702  0.124662  0.626241  1
  C  C24  1  0.624666  0.625134  0.624666  1
  C  C25  1  0.124072  0.625282  0.624794  1
  C  C26  1  0.624751  0.125015  0.624751  1
  C  C27  1  0.624794  0.625282  0.124072  1
