# generated using pymatgen
data_La20Si11Sb
_symmetry_space_group_name_H-M   'P 1'
_cell_length_a   7.92832400
_cell_length_b   7.92832400
_cell_length_c   14.66001800
_cell_angle_alpha   90.00000000
_cell_angle_beta   90.00000000
_cell_angle_gamma   90.00000000
_symmetry_Int_Tables_number   1
_chemical_formula_structural   La20Si11Sb
_chemical_formula_sum   'La20 Si11 Sb1'
_cell_volume   921.50412389
_cell_formula_units_Z   1
loop_
 _symmetry_equiv_pos_site_id
 _symmetry_equiv_pos_as_xyz
  1  'x, y, z'
loop_
 _atom_site_type_symbol
 _atom_site_label
 _atom_site_symmetry_multiplicity
 _atom_site_fract_x
 _atom_site_fract_y
 _atom_site_fract_z
 _atom_site_occupancy
  La  La0  1  0.500000  0.000000  0.781731  1
  La  La1  1  0.329025  0.314593  0.105662  1
  La  La2  1  0.828227  0.814742  0.894297  1
  La  La3  1  0.000000  0.500000  0.223469  1
  La  La4  1  0.822706  0.175464  0.389627  1
  La  La5  1  0.171773  0.185258  0.894297  1
  La  La6  1  0.670975  0.685407  0.105662  1
  La  La7  1  0.000000  0.500000  0.732271  1
  La  La8  1  0.810928  0.835332  0.609287  1
  La  La9  1  0.324536  0.322706  0.389627  1
  La  La10  1  0.185407  0.829025  0.105662  1
  La  La11  1  0.189072  0.164668  0.609287  1
  La  La12  1  0.814593  0.170975  0.105662  1
  La  La13  1  0.335332  0.689072  0.609287  1
  La  La14  1  0.500000  0.000000  0.271807  1
  La  La15  1  0.685258  0.328227  0.894297  1
  La  La16  1  0.664668  0.310928  0.609287  1
  La  La17  1  0.314742  0.671773  0.894297  1
  La  La18  1  0.177294  0.824536  0.389627  1
  La  La19  1  0.675464  0.677294  0.389627  1
  Si  Si20  1  0.614652  0.387345  0.248522  1
  Si  Si21  1  0.887333  0.113978  0.751490  1
  Si  Si22  1  0.500000  0.000000  0.492394  1
  Si  Si23  1  0.887345  0.885348  0.248522  1
  Si  Si24  1  0.000000  0.500000  0.003777  1
  Si  Si25  1  0.112667  0.886022  0.751490  1
  Si  Si26  1  0.386022  0.387333  0.751490  1
  Si  Si27  1  0.112655  0.114652  0.248522  1
  Si  Si28  1  0.385348  0.612655  0.248522  1
  Si  Si29  1  0.613978  0.612667  0.751490  1
  Si  Si30  1  0.500000  0.000000  0.997315  1
  Sb  Sb31  1  0.000000  0.500000  0.501688  1
