# generated using pymatgen
data_Dy8VSi16Mo11
_symmetry_space_group_name_H-M   'P 1'
_cell_length_a   6.76342600
_cell_length_b   6.95140368
_cell_length_c   12.93480200
_cell_angle_alpha   90.00000000
_cell_angle_beta   90.00000000
_cell_angle_gamma   90.11622565
_symmetry_Int_Tables_number   1
_chemical_formula_structural   Dy8VSi16Mo11
_chemical_formula_sum   'Dy8 V1 Si16 Mo11'
_cell_volume   608.13240183
_cell_formula_units_Z   1
loop_
 _symmetry_equiv_pos_site_id
 _symmetry_equiv_pos_as_xyz
  1  'x, y, z'
loop_
 _atom_site_type_symbol
 _atom_site_label
 _atom_site_symmetry_multiplicity
 _atom_site_fract_x
 _atom_site_fract_y
 _atom_site_fract_z
 _atom_site_occupancy
  Dy  Dy0  1  0.498393  0.333082  0.095095  1
  Dy  Dy1  1  0.996391  0.168513  0.404985  1
  Dy  Dy2  1  0.503457  0.665843  0.593749  1
  Dy  Dy3  1  0.003368  0.832929  0.906438  1
  Dy  Dy4  1  0.503457  0.665843  0.906251  1
  Dy  Dy5  1  0.003368  0.832929  0.593562  1
  Dy  Dy6  1  0.498393  0.333082  0.404905  1
  Dy  Dy7  1  0.996391  0.168513  0.095015  1
  V  V8  1  0.837901  0.506947  0.250000  1
  Si  Si9  1  0.805036  0.629696  0.750000  1
  Si  Si10  1  0.304855  0.871081  0.750000  1
  Si  Si11  1  0.195078  0.372494  0.250000  1
  Si  Si12  1  0.696889  0.127684  0.250000  1
  Si  Si13  1  0.534779  0.365071  0.750000  1
  Si  Si14  1  0.035522  0.135280  0.750000  1
  Si  Si15  1  0.466372  0.632545  0.250000  1
  Si  Si16  1  0.963528  0.865616  0.250000  1
  Si  Si17  1  0.658933  0.041696  0.547124  1
  Si  Si18  1  0.159107  0.456333  0.953664  1
  Si  Si19  1  0.339899  0.957842  0.047492  1
  Si  Si20  1  0.840183  0.543099  0.451933  1
  Si  Si21  1  0.339899  0.957842  0.452508  1
  Si  Si22  1  0.840183  0.543099  0.048067  1
  Si  Si23  1  0.658933  0.041696  0.952876  1
  Si  Si24  1  0.159107  0.456333  0.546336  1
  Mo  Mo25  1  0.668070  0.998211  0.750000  1
  Mo  Mo26  1  0.165727  0.499758  0.750000  1
  Mo  Mo27  1  0.331765  0.000135  0.250000  1
  Mo  Mo28  1  0.829541  0.336229  0.625586  1
  Mo  Mo29  1  0.331421  0.165146  0.874458  1
  Mo  Mo30  1  0.169224  0.663282  0.125711  1
  Mo  Mo31  1  0.667320  0.833748  0.374615  1
  Mo  Mo32  1  0.169224  0.663282  0.374289  1
  Mo  Mo33  1  0.667320  0.833748  0.125385  1
  Mo  Mo34  1  0.829541  0.336229  0.874414  1
  Mo  Mo35  1  0.331421  0.165146  0.625542  1
