# generated using pymatgen
data_TiNb15(CoTe4)4
_symmetry_space_group_name_H-M   'P 1'
_cell_length_a   4.84985900
_cell_length_b   11.17465931
_cell_length_c   19.60414122
_cell_angle_alpha   89.99520431
_cell_angle_beta   90.00000000
_cell_angle_gamma   90.00000000
_symmetry_Int_Tables_number   1
_chemical_formula_structural   TiNb15(CoTe4)4
_chemical_formula_sum   'Ti1 Nb15 Co4 Te16'
_cell_volume   1062.45666353
_cell_formula_units_Z   1
loop_
 _symmetry_equiv_pos_site_id
 _symmetry_equiv_pos_as_xyz
  1  'x, y, z'
loop_
 _atom_site_type_symbol
 _atom_site_label
 _atom_site_symmetry_multiplicity
 _atom_site_fract_x
 _atom_site_fract_y
 _atom_site_fract_z
 _atom_site_occupancy
  Ti  Ti0  1  0.500000  0.563193  0.385277  1
  Nb  Nb1  1  0.500000  0.437589  0.612408  1
  Nb  Nb2  1  0.500000  0.062884  0.113594  1
  Nb  Nb3  1  0.500000  0.938109  0.886842  1
  Nb  Nb4  1  0.500000  0.699164  0.535535  1
  Nb  Nb5  1  0.500000  0.300634  0.463984  1
  Nb  Nb6  1  0.500000  0.199098  0.964190  1
  Nb  Nb7  1  0.500000  0.800757  0.035502  1
  Nb  Nb8  1  0.000000  0.684213  0.446246  1
  Nb  Nb9  1  0.000000  0.315284  0.554261  1
  Nb  Nb10  1  0.000000  0.184884  0.055674  1
  Nb  Nb11  1  0.000000  0.814993  0.945166  1
  Nb  Nb12  1  0.000000  0.402602  0.395917  1
  Nb  Nb13  1  0.000000  0.596210  0.604483  1
  Nb  Nb14  1  0.000000  0.903973  0.105540  1
  Nb  Nb15  1  0.000000  0.096654  0.894821  1
  Co  Co16  1  0.252894  0.501207  0.497384  1
  Co  Co17  1  0.749953  0.000376  0.000274  1
  Co  Co18  1  0.747106  0.501207  0.497384  1
  Co  Co19  1  0.250047  0.000376  0.000274  1
  Te  Te20  1  0.000000  0.840614  0.562087  1
  Te  Te21  1  0.000000  0.157855  0.439745  1
  Te  Te22  1  0.000000  0.339915  0.939589  1
  Te  Te23  1  0.000000  0.660166  0.061152  1
  Te  Te24  1  0.500000  0.336110  0.321213  1
  Te  Te25  1  0.500000  0.663430  0.679709  1
  Te  Te26  1  0.500000  0.835207  0.179863  1
  Te  Te27  1  0.500000  0.165120  0.819911  1
  Te  Te28  1  0.500000  0.814180  0.406974  1
  Te  Te29  1  0.500000  0.184467  0.593782  1
  Te  Te30  1  0.500000  0.316297  0.093744  1
  Te  Te31  1  0.500000  0.684285  0.905795  1
  Te  Te32  1  0.000000  0.605694  0.308182  1
  Te  Te33  1  0.000000  0.393038  0.692751  1
  Te  Te34  1  0.000000  0.106911  0.194293  1
  Te  Te35  1  0.000000  0.893303  0.806460  1
