# generated using pymatgen
data_Sm2Al3ZnCu6
_symmetry_space_group_name_H-M   'P 1'
_cell_length_a   4.20347500
_cell_length_b   5.17155095
_cell_length_c   9.01057540
_cell_angle_alpha   90.20331116
_cell_angle_beta   90.00000000
_cell_angle_gamma   90.00000000
_symmetry_Int_Tables_number   1
_chemical_formula_structural   Sm2Al3ZnCu6
_chemical_formula_sum   'Sm2 Al3 Zn1 Cu6'
_cell_volume   195.87502622
_cell_formula_units_Z   1
loop_
 _symmetry_equiv_pos_site_id
 _symmetry_equiv_pos_as_xyz
  1  'x, y, z'
loop_
 _atom_site_type_symbol
 _atom_site_label
 _atom_site_symmetry_multiplicity
 _atom_site_fract_x
 _atom_site_fract_y
 _atom_site_fract_z
 _atom_site_occupancy
  Sm  Sm0  1  0.000000  0.004143  0.000948  1
  Sm  Sm1  1  0.000000  0.495844  0.499055  1
  Al  Al2  1  0.500000  0.523051  0.998827  1
  Al  Al3  1  0.500000  0.976926  0.501185  1
  Al  Al4  1  0.500000  0.249958  0.249986  1
  Zn  Zn5  1  0.500000  0.249996  0.749991  1
  Cu  Cu6  1  0.000000  0.997485  0.333984  1
  Cu  Cu7  1  0.000000  0.504876  0.834459  1
  Cu  Cu8  1  0.000000  0.502496  0.166062  1
  Cu  Cu9  1  0.000000  0.995081  0.665565  1
  Cu  Cu10  1  0.500000  0.750021  0.749945  1
  Cu  Cu11  1  0.500000  0.749921  0.249994  1
