# generated using pymatgen
data_TbNd7(AsI6)2
_symmetry_space_group_name_H-M   'P 1'
_cell_length_a   4.37641900
_cell_length_b   14.31851776
_cell_length_c   15.14036866
_cell_angle_alpha   90.32749269
_cell_angle_beta   90.00000000
_cell_angle_gamma   90.00000000
_symmetry_Int_Tables_number   1
_chemical_formula_structural   TbNd7(AsI6)2
_chemical_formula_sum   'Tb1 Nd7 As2 I12'
_cell_volume   948.73803784
_cell_formula_units_Z   1
loop_
 _symmetry_equiv_pos_site_id
 _symmetry_equiv_pos_as_xyz
  1  'x, y, z'
loop_
 _atom_site_type_symbol
 _atom_site_label
 _atom_site_symmetry_multiplicity
 _atom_site_fract_x
 _atom_site_fract_y
 _atom_site_fract_z
 _atom_site_occupancy
  Tb  Tb0  1  0.500000  0.385221  0.846445  1
  Nd  Nd1  1  0.500000  0.115698  0.346640  1
  Nd  Nd2  1  0.500000  0.885072  0.654006  1
  Nd  Nd3  1  0.500000  0.614138  0.152335  1
  Nd  Nd4  1  0.000000  0.112616  0.575305  1
  Nd  Nd5  1  0.000000  0.888803  0.426108  1
  Nd  Nd6  1  0.000000  0.611353  0.926235  1
  Nd  Nd7  1  0.000000  0.388710  0.074003  1
  As  As8  1  0.500000  0.000980  0.500654  1
  As  As9  1  0.500000  0.497606  0.996904  1
  I  I10  1  0.500000  0.244247  0.159536  1
  I  I11  1  0.500000  0.754202  0.838460  1
  I  I12  1  0.500000  0.744452  0.338784  1
  I  I13  1  0.500000  0.257093  0.665297  1
  I  I14  1  0.000000  0.260031  0.414953  1
  I  I15  1  0.000000  0.740577  0.585807  1
  I  I16  1  0.000000  0.759196  0.086440  1
  I  I17  1  0.000000  0.246371  0.908300  1
  I  I18  1  0.000000  0.998698  0.240499  1
  I  I19  1  0.000000  0.001587  0.760534  1
  I  I20  1  0.000000  0.499208  0.259526  1
  I  I21  1  0.000000  0.494140  0.743229  1
