# generated using pymatgen
data_YbHo2Al3Ge2Ir
_symmetry_space_group_name_H-M   'P 1'
_cell_length_a   6.98626000
_cell_length_b   6.96941771
_cell_length_c   4.24707000
_cell_angle_alpha   90.00000000
_cell_angle_beta   90.00000000
_cell_angle_gamma   120.07997270
_symmetry_Int_Tables_number   1
_chemical_formula_structural   YbHo2Al3Ge2Ir
_chemical_formula_sum   'Yb1 Ho2 Al3 Ge2 Ir1'
_cell_volume   178.94136495
_cell_formula_units_Z   1
loop_
 _symmetry_equiv_pos_site_id
 _symmetry_equiv_pos_as_xyz
  1  'x, y, z'
loop_
 _atom_site_type_symbol
 _atom_site_label
 _atom_site_symmetry_multiplicity
 _atom_site_fract_x
 _atom_site_fract_y
 _atom_site_fract_z
 _atom_site_occupancy
  Yb  Yb0  1  0.418653  0.000000  0.000000  1
  Ho  Ho1  1  0.001542  0.416910  0.000000  1
  Ho  Ho2  1  0.584631  0.583090  0.000000  1
  Al  Al3  1  0.771532  0.000000  0.500000  1
  Al  Al4  1  0.227584  0.228673  0.500000  1
  Al  Al5  1  0.998911  0.771327  0.500000  1
  Ge  Ge6  1  0.670585  0.337042  0.500000  1
  Ge  Ge7  1  0.333542  0.662958  0.500000  1
  Ir  Ir8  1  0.993018  0.000000  0.000000  1
