# generated using pymatgen
data_La3Tb3Th2(CdOs)2
_symmetry_space_group_name_H-M   'P 1'
_cell_length_a   9.93211037
_cell_length_b   9.93211088
_cell_length_c   9.93211200
_cell_angle_alpha   60.00000293
_cell_angle_beta   60.00000123
_cell_angle_gamma   60.00000444
_symmetry_Int_Tables_number   1
_chemical_formula_structural   La3Tb3Th2(CdOs)2
_chemical_formula_sum   'La6 Tb6 Th4 Cd4 Os4'
_cell_volume   692.80296046
_cell_formula_units_Z   2
loop_
 _symmetry_equiv_pos_site_id
 _symmetry_equiv_pos_as_xyz
  1  'x, y, z'
loop_
 _atom_site_type_symbol
 _atom_site_label
 _atom_site_symmetry_multiplicity
 _atom_site_fract_x
 _atom_site_fract_y
 _atom_site_fract_z
 _atom_site_occupancy
  La  La0  1  0.193583  0.806417  0.806417  1
  La  La1  1  0.806417  0.193583  0.193583  1
  La  La2  1  0.806417  0.193583  0.806417  1
  La  La3  1  0.193583  0.806417  0.193583  1
  La  La4  1  0.806417  0.806417  0.193583  1
  La  La5  1  0.193583  0.193583  0.806417  1
  Tb  Tb6  1  0.063649  0.436351  0.436351  1
  Tb  Tb7  1  0.436351  0.063649  0.063649  1
  Tb  Tb8  1  0.436351  0.063649  0.436351  1
  Tb  Tb9  1  0.063649  0.436351  0.063649  1
  Tb  Tb10  1  0.436351  0.436351  0.063649  1
  Tb  Tb11  1  0.063649  0.063649  0.436351  1
  Th  Th12  1  0.595984  0.595984  0.595984  1
  Th  Th13  1  0.595984  0.595984  0.212047  1
  Th  Th14  1  0.595984  0.212047  0.595984  1
  Th  Th15  1  0.212047  0.595984  0.595984  1
  Cd  Cd16  1  0.828899  0.828899  0.828899  1
  Cd  Cd17  1  0.828899  0.828899  0.513302  1
  Cd  Cd18  1  0.828899  0.513302  0.828899  1
  Cd  Cd19  1  0.513302  0.828899  0.828899  1
  Os  Os20  1  0.392684  0.392684  0.392684  1
  Os  Os21  1  0.392684  0.392684  0.821948  1
  Os  Os22  1  0.392684  0.821948  0.392684  1
  Os  Os23  1  0.821948  0.392684  0.392684  1
