# generated using pymatgen
data_ZrScB(Ir2Rh)2
_symmetry_space_group_name_H-M   'P 1'
_cell_length_a   5.72334064
_cell_length_b   5.72030315
_cell_length_c   5.72122771
_cell_angle_alpha   60.03496667
_cell_angle_beta   59.98777768
_cell_angle_gamma   59.98243362
_symmetry_Int_Tables_number   1
_chemical_formula_structural   ZrScB(Ir2Rh)2
_chemical_formula_sum   'Zr1 Sc1 B1 Ir4 Rh2'
_cell_volume   132.45234407
_cell_formula_units_Z   1
loop_
 _symmetry_equiv_pos_site_id
 _symmetry_equiv_pos_as_xyz
  1  'x, y, z'
loop_
 _atom_site_type_symbol
 _atom_site_label
 _atom_site_symmetry_multiplicity
 _atom_site_fract_x
 _atom_site_fract_y
 _atom_site_fract_z
 _atom_site_occupancy
  Zr  Zr0  1  0.249964  0.249890  0.250183  1
  Sc  Sc1  1  0.750029  0.749928  0.750014  1
  B  B2  1  0.000005  0.999791  0.000199  1
  Ir  Ir3  1  0.741949  0.257603  0.258498  1
  Ir  Ir4  1  0.258874  0.258580  0.741341  1
  Ir  Ir5  1  0.741206  0.258580  0.741341  1
  Ir  Ir6  1  0.258051  0.741670  0.742228  1
  Rh  Rh7  1  0.741984  0.741980  0.258099  1
  Rh  Rh8  1  0.257938  0.741980  0.258099  1
