# generated using pymatgen
data_In4Hg11As3PBr16
_symmetry_space_group_name_H-M   'P 1'
_cell_length_a   8.07008584
_cell_length_b   8.07008551
_cell_length_c   23.06479387
_cell_angle_alpha   81.81022703
_cell_angle_beta   81.81022718
_cell_angle_gamma   59.42508381
_symmetry_Int_Tables_number   1
_chemical_formula_structural   In4Hg11As3PBr16
_chemical_formula_sum   'In4 Hg11 As3 P1 Br16'
_cell_volume   1275.76203326
_cell_formula_units_Z   1
loop_
 _symmetry_equiv_pos_site_id
 _symmetry_equiv_pos_as_xyz
  1  'x, y, z'
loop_
 _atom_site_type_symbol
 _atom_site_label
 _atom_site_symmetry_multiplicity
 _atom_site_fract_x
 _atom_site_fract_y
 _atom_site_fract_z
 _atom_site_occupancy
  In  In0  1  0.639099  0.639099  0.109076  1
  In  In1  1  0.361035  0.361035  0.890825  1
  In  In2  1  0.758557  0.758557  0.612101  1
  In  In3  1  0.241395  0.241395  0.387891  1
  Hg  Hg4  1  0.030442  0.030442  0.885117  1
  Hg  Hg5  1  0.767253  0.767253  0.279953  1
  Hg  Hg6  1  0.475923  0.475923  0.556851  1
  Hg  Hg7  1  0.734081  0.235148  0.721608  1
  Hg  Hg8  1  0.261608  0.767402  0.275842  1
  Hg  Hg9  1  0.767402  0.261608  0.275842  1
  Hg  Hg10  1  0.235148  0.734081  0.721608  1
  Hg  Hg11  1  0.527573  0.527573  0.438847  1
  Hg  Hg12  1  0.967733  0.967733  0.124319  1
  Hg  Hg13  1  0.998946  0.998946  0.004901  1
  Hg  Hg14  1  0.234983  0.234983  0.716946  1
  As  As15  1  0.057856  0.057856  0.767171  1
  As  As16  1  0.585194  0.585194  0.322841  1
  As  As17  1  0.415884  0.415884  0.671966  1
  P  P18  1  0.940886  0.940886  0.236917  1
  Br  Br19  1  0.541425  0.037835  0.845270  1
  Br  Br20  1  0.061382  0.061382  0.422308  1
  Br  Br21  1  0.539844  0.539844  0.845032  1
  Br  Br22  1  0.412924  0.931850  0.583657  1
  Br  Br23  1  0.736879  0.736879  0.723584  1
  Br  Br24  1  0.333035  0.333035  0.000681  1
  Br  Br25  1  0.458481  0.961261  0.155565  1
  Br  Br26  1  0.961261  0.458481  0.155565  1
  Br  Br27  1  0.460388  0.460388  0.155750  1
  Br  Br28  1  0.587984  0.067834  0.415181  1
  Br  Br29  1  0.666662  0.666662  0.999569  1
  Br  Br30  1  0.931850  0.412924  0.583657  1
  Br  Br31  1  0.262716  0.262716  0.276191  1
  Br  Br32  1  0.067834  0.587984  0.415181  1
  Br  Br33  1  0.938503  0.938503  0.576913  1
  Br  Br34  1  0.037835  0.541425  0.845270  1
