# generated using pymatgen
data_Ho17Tm3(Cd3Ni)2
_symmetry_space_group_name_H-M   'P 1'
_cell_length_a   9.53343100
_cell_length_b   9.53341891
_cell_length_c   9.74317300
_cell_angle_alpha   90.00000000
_cell_angle_beta   90.00000000
_cell_angle_gamma   120.00081083
_symmetry_Int_Tables_number   1
_chemical_formula_structural   Ho17Tm3(Cd3Ni)2
_chemical_formula_sum   'Ho17 Tm3 Cd6 Ni2'
_cell_volume   766.87645050
_cell_formula_units_Z   1
loop_
 _symmetry_equiv_pos_site_id
 _symmetry_equiv_pos_as_xyz
  1  'x, y, z'
loop_
 _atom_site_type_symbol
 _atom_site_label
 _atom_site_symmetry_multiplicity
 _atom_site_fract_x
 _atom_site_fract_y
 _atom_site_fract_z
 _atom_site_occupancy
  Ho  Ho0  1  0.543575  0.087656  0.250000  1
  Ho  Ho1  1  0.912343  0.456425  0.250000  1
  Ho  Ho2  1  0.456330  0.543669  0.750000  1
  Ho  Ho3  1  0.456381  0.912714  0.750000  1
  Ho  Ho4  1  0.087286  0.543619  0.750000  1
  Ho  Ho5  1  0.210488  0.789511  0.437911  1
  Ho  Ho6  1  0.210854  0.420954  0.437693  1
  Ho  Ho7  1  0.579046  0.789146  0.437693  1
  Ho  Ho8  1  0.789480  0.210521  0.562092  1
  Ho  Ho9  1  0.789279  0.578917  0.561837  1
  Ho  Ho10  1  0.421083  0.210721  0.561837  1
  Ho  Ho11  1  0.789480  0.210521  0.937908  1
  Ho  Ho12  1  0.789279  0.578917  0.938163  1
  Ho  Ho13  1  0.421083  0.210721  0.938163  1
  Ho  Ho14  1  0.210488  0.789511  0.062089  1
  Ho  Ho15  1  0.210854  0.420954  0.062307  1
  Ho  Ho16  1  0.579046  0.789146  0.062307  1
  Tm  Tm17  1  0.999993  0.000008  0.500054  1
  Tm  Tm18  1  0.999993  0.000008  0.999946  1
  Tm  Tm19  1  0.543592  0.456408  0.250000  1
  Cd  Cd20  1  0.885424  0.114577  0.250000  1
  Cd  Cd21  1  0.884975  0.770478  0.250000  1
  Cd  Cd22  1  0.229522  0.115026  0.250000  1
  Cd  Cd23  1  0.114467  0.885532  0.750000  1
  Cd  Cd24  1  0.114613  0.229085  0.750000  1
  Cd  Cd25  1  0.770915  0.885387  0.750000  1
  Ni  Ni26  1  0.333422  0.666578  0.250000  1
  Ni  Ni27  1  0.666709  0.333289  0.750000  1
