# generated using pymatgen
data_PrEu2Pt9
_symmetry_space_group_name_H-M   'P 1'
_cell_length_a   9.49959967
_cell_length_b   9.49959986
_cell_length_c   9.49959800
_cell_angle_alpha   33.52583117
_cell_angle_beta   33.52582951
_cell_angle_gamma   33.52582901
_symmetry_Int_Tables_number   1
_chemical_formula_structural   PrEu2Pt9
_chemical_formula_sum   'Pr1 Eu2 Pt9'
_cell_volume   232.91990851
_cell_formula_units_Z   1
loop_
 _symmetry_equiv_pos_site_id
 _symmetry_equiv_pos_as_xyz
  1  'x, y, z'
loop_
 _atom_site_type_symbol
 _atom_site_label
 _atom_site_symmetry_multiplicity
 _atom_site_fract_x
 _atom_site_fract_y
 _atom_site_fract_z
 _atom_site_occupancy
  Pr  Pr0  1  0.000000  0.000000  0.000000  1
  Eu  Eu1  1  0.141273  0.141273  0.141273  1
  Eu  Eu2  1  0.858727  0.858727  0.858727  1
  Pt  Pt3  1  0.584675  0.584675  0.082042  1
  Pt  Pt4  1  0.332509  0.332509  0.332509  1
  Pt  Pt5  1  0.917958  0.415324  0.415326  1
  Pt  Pt6  1  0.415324  0.917958  0.415326  1
  Pt  Pt7  1  0.500000  0.500000  0.500000  1
  Pt  Pt8  1  0.584676  0.082042  0.584674  1
  Pt  Pt9  1  0.082042  0.584676  0.584674  1
  Pt  Pt10  1  0.667491  0.667491  0.667491  1
  Pt  Pt11  1  0.415325  0.415325  0.917958  1
