# generated using pymatgen
data_Mo2Ir3Ru2Rh
_symmetry_space_group_name_H-M   'P 1'
_cell_length_a   5.50546619
_cell_length_b   5.52990810
_cell_length_c   4.39874300
_cell_angle_alpha   90.00000000
_cell_angle_beta   90.00000000
_cell_angle_gamma   119.80072134
_symmetry_Int_Tables_number   1
_chemical_formula_structural   Mo2Ir3Ru2Rh
_chemical_formula_sum   'Mo2 Ir3 Ru2 Rh1'
_cell_volume   116.20901704
_cell_formula_units_Z   1
loop_
 _symmetry_equiv_pos_site_id
 _symmetry_equiv_pos_as_xyz
  1  'x, y, z'
loop_
 _atom_site_type_symbol
 _atom_site_label
 _atom_site_symmetry_multiplicity
 _atom_site_fract_x
 _atom_site_fract_y
 _atom_site_fract_z
 _atom_site_occupancy
  Mo  Mo0  1  0.667420  0.336115  0.250000  1
  Mo  Mo1  1  0.333546  0.663701  0.750000  1
  Ir  Ir2  1  0.332586  0.167792  0.750000  1
  Ir  Ir3  1  0.164859  0.832825  0.250000  1
  Ir  Ir4  1  0.668665  0.834148  0.250000  1
  Ru  Ru5  1  0.832503  0.665968  0.750000  1
  Ru  Ru6  1  0.165866  0.332493  0.250000  1
  Rh  Rh7  1  0.834555  0.166958  0.750000  1
