# generated using pymatgen
data_Ce2HoHf(Al3Ir)6
_symmetry_space_group_name_H-M   'P 1'
_cell_length_a   7.56893409
_cell_length_b   7.56021136
_cell_length_c   9.39029800
_cell_angle_alpha   90.00000000
_cell_angle_beta   90.00000000
_cell_angle_gamma   119.56688643
_symmetry_Int_Tables_number   1
_chemical_formula_structural   Ce2HoHf(Al3Ir)6
_chemical_formula_sum   'Ce2 Ho1 Hf1 Al18 Ir6'
_cell_volume   467.36649937
_cell_formula_units_Z   1
loop_
 _symmetry_equiv_pos_site_id
 _symmetry_equiv_pos_as_xyz
  1  'x, y, z'
loop_
 _atom_site_type_symbol
 _atom_site_label
 _atom_site_symmetry_multiplicity
 _atom_site_fract_x
 _atom_site_fract_y
 _atom_site_fract_z
 _atom_site_occupancy
  Ce  Ce0  1  0.004354  0.327670  0.750000  1
  Ce  Ce1  1  0.329102  0.005701  0.750000  1
  Ho  Ho2  1  0.671892  0.995875  0.250000  1
  Hf  Hf3  1  0.995095  0.672170  0.250000  1
  Al  Al4  1  0.124744  0.122949  0.250000  1
  Al  Al5  1  0.867439  0.865697  0.750000  1
  Al  Al6  1  0.999939  0.338839  0.080903  1
  Al  Al7  1  0.997755  0.664753  0.930792  1
  Al  Al8  1  0.997755  0.664753  0.569208  1
  Al  Al9  1  0.332534  0.997317  0.419021  1
  Al  Al10  1  0.999939  0.338839  0.419097  1
  Al  Al11  1  0.663987  0.995953  0.572553  1
  Al  Al12  1  0.663987  0.995953  0.927447  1
  Al  Al13  1  0.332534  0.997317  0.080979  1
  Al  Al14  1  0.335751  0.335895  0.544737  1
  Al  Al15  1  0.670581  0.667993  0.438047  1
  Al  Al16  1  0.670581  0.667993  0.061953  1
  Al  Al17  1  0.335751  0.335895  0.955263  1
  Al  Al18  1  0.336394  0.552432  0.250000  1
  Al  Al19  1  0.659360  0.454035  0.750000  1
  Al  Al20  1  0.556308  0.343580  0.250000  1
  Al  Al21  1  0.453015  0.657623  0.750000  1
  Ir  Ir22  1  0.673172  0.328246  0.000888  1
  Ir  Ir23  1  0.327764  0.672969  0.001387  1
  Ir  Ir24  1  0.327764  0.672969  0.498613  1
  Ir  Ir25  1  0.673172  0.328246  0.499112  1
  Ir  Ir26  1  0.999666  0.999168  0.000934  1
  Ir  Ir27  1  0.999666  0.999168  0.499066  1
