# generated using pymatgen
data_Li6Nd4Co9P12Rh5
_symmetry_space_group_name_H-M   'P 1'
_cell_length_a   3.77598800
_cell_length_b   10.61188319
_cell_length_c   12.56301645
_cell_angle_alpha   90.01797554
_cell_angle_beta   90.00000000
_cell_angle_gamma   90.00000000
_symmetry_Int_Tables_number   1
_chemical_formula_structural   Li6Nd4Co9P12Rh5
_chemical_formula_sum   'Li6 Nd4 Co9 P12 Rh5'
_cell_volume   503.40436098
_cell_formula_units_Z   1
loop_
 _symmetry_equiv_pos_site_id
 _symmetry_equiv_pos_as_xyz
  1  'x, y, z'
loop_
 _atom_site_type_symbol
 _atom_site_label
 _atom_site_symmetry_multiplicity
 _atom_site_fract_x
 _atom_site_fract_y
 _atom_site_fract_z
 _atom_site_occupancy
  Li  Li0  1  0.250000  0.701293  0.986900  1
  Li  Li1  1  0.250000  0.798990  0.487105  1
  Li  Li2  1  0.750000  0.295368  0.011335  1
  Li  Li3  1  0.750000  0.204159  0.510418  1
  Li  Li4  1  0.750000  0.594795  0.504230  1
  Li  Li5  1  0.750000  0.908164  0.009217  1
  Nd  Nd6  1  0.250000  0.581712  0.707584  1
  Nd  Nd7  1  0.250000  0.916205  0.208970  1
  Nd  Nd8  1  0.750000  0.419558  0.291106  1
  Nd  Nd9  1  0.750000  0.082785  0.787597  1
  Co  Co10  1  0.750000  0.714783  0.325162  1
  Co  Co11  1  0.250000  0.881733  0.691595  1
  Co  Co12  1  0.250000  0.619706  0.193827  1
  Co  Co13  1  0.750000  0.117022  0.310276  1
  Co  Co14  1  0.750000  0.380532  0.810567  1
  Co  Co15  1  0.250000  0.467784  0.935829  1
  Co  Co16  1  0.250000  0.028822  0.433051  1
  Co  Co17  1  0.750000  0.535612  0.064679  1
  Co  Co18  1  0.750000  0.963857  0.561518  1
  P  P19  1  0.250000  0.430704  0.109332  1
  P  P20  1  0.250000  0.068959  0.606436  1
  P  P21  1  0.750000  0.572330  0.890210  1
  P  P22  1  0.750000  0.919374  0.387492  1
  P  P23  1  0.250000  0.278200  0.865859  1
  P  P24  1  0.250000  0.220332  0.365990  1
  P  P25  1  0.750000  0.718020  0.148828  1
  P  P26  1  0.750000  0.781879  0.642314  1
  P  P27  1  0.250000  0.609329  0.375230  1
  P  P28  1  0.250000  0.900577  0.879627  1
  P  P29  1  0.750000  0.394464  0.619189  1
  P  P30  1  0.750000  0.105809  0.121176  1
  Rh  Rh31  1  0.250000  0.413736  0.485694  1
  Rh  Rh32  1  0.250000  0.088583  0.986306  1
  Rh  Rh33  1  0.250000  0.222732  0.179074  1
  Rh  Rh34  1  0.250000  0.277992  0.677852  1
  Rh  Rh35  1  0.750000  0.784099  0.828422  1
