# generated using pymatgen
data_LaSc(Tc2P)4
_symmetry_space_group_name_H-M   'P 1'
_cell_length_a   7.42772458
_cell_length_b   7.42772458
_cell_length_c   3.95754900
_cell_angle_alpha   90.00000000
_cell_angle_beta   90.00000000
_cell_angle_gamma   91.29128203
_symmetry_Int_Tables_number   1
_chemical_formula_structural   LaSc(Tc2P)4
_chemical_formula_sum   'La1 Sc1 Tc8 P4'
_cell_volume   218.28685380
_cell_formula_units_Z   1
loop_
 _symmetry_equiv_pos_site_id
 _symmetry_equiv_pos_as_xyz
  1  'x, y, z'
loop_
 _atom_site_type_symbol
 _atom_site_label
 _atom_site_symmetry_multiplicity
 _atom_site_fract_x
 _atom_site_fract_y
 _atom_site_fract_z
 _atom_site_occupancy
  La  La0  1  0.000000  0.000000  0.500000  1
  Sc  Sc1  1  0.500000  0.500000  0.000000  1
  Tc  Tc2  1  0.343882  0.087150  0.000000  1
  Tc  Tc3  1  0.578668  0.164560  0.500000  1
  Tc  Tc4  1  0.421332  0.835440  0.500000  1
  Tc  Tc5  1  0.656118  0.912850  0.000000  1
  Tc  Tc6  1  0.164560  0.578668  0.500000  1
  Tc  Tc7  1  0.835440  0.421332  0.500000  1
  Tc  Tc8  1  0.087150  0.343882  0.000000  1
  Tc  Tc9  1  0.912850  0.656118  0.000000  1
  P  P10  1  0.781353  0.218647  0.000000  1
  P  P11  1  0.703383  0.703383  0.500000  1
  P  P12  1  0.296617  0.296617  0.500000  1
  P  P13  1  0.218647  0.781353  0.000000  1
