# generated using pymatgen
data_Tb2YZnIn3Pt2
_symmetry_space_group_name_H-M   'P 1'
_cell_length_a   7.71729900
_cell_length_b   7.72150940
_cell_length_c   3.89539100
_cell_angle_alpha   90.00000000
_cell_angle_beta   90.00000000
_cell_angle_gamma   119.98196815
_symmetry_Int_Tables_number   1
_chemical_formula_structural   Tb2YZnIn3Pt2
_chemical_formula_sum   'Tb2 Y1 Zn1 In3 Pt2'
_cell_volume   201.06112233
_cell_formula_units_Z   1
loop_
 _symmetry_equiv_pos_site_id
 _symmetry_equiv_pos_as_xyz
  1  'x, y, z'
loop_
 _atom_site_type_symbol
 _atom_site_label
 _atom_site_symmetry_multiplicity
 _atom_site_fract_x
 _atom_site_fract_y
 _atom_site_fract_z
 _atom_site_occupancy
  Tb  Tb0  1  0.001865  0.409775  0.000000  1
  Tb  Tb1  1  0.592090  0.590225  0.000000  1
  Y  Y2  1  0.407183  0.000000  0.000000  1
  Zn  Zn3  1  0.999248  0.000000  0.000000  1
  In  In4  1  0.260344  0.259856  0.500000  1
  In  In5  1  0.000488  0.740144  0.500000  1
  In  In6  1  0.738953  0.000000  0.500000  1
  Pt  Pt7  1  0.667063  0.334295  0.500000  1
  Pt  Pt8  1  0.332767  0.665705  0.500000  1
