# generated using pymatgen
data_Ce2Mn2Fe10P7
_symmetry_space_group_name_H-M   'P 1'
_cell_length_a   9.07057029
_cell_length_b   9.05286699
_cell_length_c   3.66354900
_cell_angle_alpha   90.00000000
_cell_angle_beta   90.00000000
_cell_angle_gamma   120.01004463
_symmetry_Int_Tables_number   1
_chemical_formula_structural   Ce2Mn2Fe10P7
_chemical_formula_sum   'Ce2 Mn2 Fe10 P7'
_cell_volume   260.50100434
_cell_formula_units_Z   1
loop_
 _symmetry_equiv_pos_site_id
 _symmetry_equiv_pos_as_xyz
  1  'x, y, z'
loop_
 _atom_site_type_symbol
 _atom_site_label
 _atom_site_symmetry_multiplicity
 _atom_site_fract_x
 _atom_site_fract_y
 _atom_site_fract_z
 _atom_site_occupancy
  Ce  Ce0  1  0.667362  0.334455  0.499999  1
  Ce  Ce1  1  0.335481  0.666222  0.000000  1
  Mn  Mn2  1  0.214682  0.101947  0.499999  1
  Mn  Mn3  1  0.894417  0.110146  0.499999  1
  Fe  Fe4  1  0.883297  0.785255  0.499999  1
  Fe  Fe5  1  0.150613  0.271807  0.000000  1
  Fe  Fe6  1  0.726400  0.878225  0.000000  1
  Fe  Fe7  1  0.122464  0.848129  0.000000  1
  Fe  Fe8  1  0.427378  0.061053  0.000000  1
  Fe  Fe9  1  0.939287  0.367472  0.000000  1
  Fe  Fe10  1  0.634851  0.573686  0.000000  1
  Fe  Fe11  1  0.383138  0.436301  0.499999  1
  Fe  Fe12  1  0.564678  0.946296  0.499999  1
  Fe  Fe13  1  0.052968  0.618807  0.499999  1
  P  P14  1  0.109336  0.402324  0.499999  1
  P  P15  1  0.604648  0.709107  0.499999  1
  P  P16  1  0.292149  0.888748  0.499999  1
  P  P17  1  0.997077  0.995212  0.000000  1
  P  P18  1  0.409570  0.305584  0.000000  1
  P  P19  1  0.695088  0.104809  0.000000  1
  P  P20  1  0.895114  0.594409  0.000000  1
