# generated using pymatgen
data_Pa3Al12Re3Ru
_symmetry_space_group_name_H-M   'P 1'
_cell_length_a   8.91813300
_cell_length_b   8.91813262
_cell_length_c   9.49087900
_cell_angle_alpha   90.00000000
_cell_angle_beta   90.00000000
_cell_angle_gamma   120.00000513
_symmetry_Int_Tables_number   1
_chemical_formula_structural   Pa3Al12Re3Ru
_chemical_formula_sum   'Pa6 Al24 Re6 Ru2'
_cell_volume   653.70968136
_cell_formula_units_Z   2
loop_
 _symmetry_equiv_pos_site_id
 _symmetry_equiv_pos_as_xyz
  1  'x, y, z'
loop_
 _atom_site_type_symbol
 _atom_site_label
 _atom_site_symmetry_multiplicity
 _atom_site_fract_x
 _atom_site_fract_y
 _atom_site_fract_z
 _atom_site_occupancy
  Pa  Pa0  1  0.199201  0.398403  0.250000  1
  Pa  Pa1  1  0.800799  0.601597  0.750000  1
  Pa  Pa2  1  0.601597  0.800799  0.250000  1
  Pa  Pa3  1  0.398403  0.199201  0.750000  1
  Pa  Pa4  1  0.199201  0.800799  0.250000  1
  Pa  Pa5  1  0.800799  0.199201  0.750000  1
  Al  Al6  1  0.333333  0.666667  0.012352  1
  Al  Al7  1  0.666667  0.333333  0.987648  1
  Al  Al8  1  0.666667  0.333333  0.512352  1
  Al  Al9  1  0.333333  0.666667  0.487648  1
  Al  Al10  1  0.161107  0.322213  0.580052  1
  Al  Al11  1  0.838893  0.677787  0.419948  1
  Al  Al12  1  0.677787  0.838893  0.580052  1
  Al  Al13  1  0.838893  0.677787  0.080052  1
  Al  Al14  1  0.322213  0.161107  0.419948  1
  Al  Al15  1  0.161107  0.322213  0.919948  1
  Al  Al16  1  0.161107  0.838893  0.580052  1
  Al  Al17  1  0.322213  0.161107  0.080052  1
  Al  Al18  1  0.838893  0.161107  0.419948  1
  Al  Al19  1  0.677787  0.838893  0.919948  1
  Al  Al20  1  0.838893  0.161107  0.080052  1
  Al  Al21  1  0.161107  0.838893  0.919948  1
  Al  Al22  1  0.562497  0.124993  0.250000  1
  Al  Al23  1  0.437503  0.875007  0.750000  1
  Al  Al24  1  0.875007  0.437503  0.250000  1
  Al  Al25  1  0.124993  0.562497  0.750000  1
  Al  Al26  1  0.562497  0.437503  0.250000  1
  Al  Al27  1  0.437503  0.562497  0.750000  1
  Al  Al28  1  0.000000  0.000000  0.250000  1
  Al  Al29  1  0.000000  0.000000  0.750000  1
  Re  Re30  1  0.500000  0.000000  0.000000  1
  Re  Re31  1  0.000000  0.500000  0.000000  1
  Re  Re32  1  0.500000  0.000000  0.500000  1
  Re  Re33  1  0.500000  0.500000  0.000000  1
  Re  Re34  1  0.000000  0.500000  0.500000  1
  Re  Re35  1  0.500000  0.500000  0.500000  1
  Ru  Ru36  1  0.000000  0.000000  0.000000  1
  Ru  Ru37  1  0.000000  0.000000  0.500000  1
