# generated using pymatgen
data_Er3Cd(HgPd)2
_symmetry_space_group_name_H-M   'P 1'
_cell_length_a   7.49711000
_cell_length_b   7.64572699
_cell_length_c   3.67794100
_cell_angle_alpha   90.00000000
_cell_angle_beta   90.00000000
_cell_angle_gamma   119.35904677
_symmetry_Int_Tables_number   1
_chemical_formula_structural   Er3Cd(HgPd)2
_chemical_formula_sum   'Er3 Cd1 Hg2 Pd2'
_cell_volume   183.74559894
_cell_formula_units_Z   1
loop_
 _symmetry_equiv_pos_site_id
 _symmetry_equiv_pos_as_xyz
  1  'x, y, z'
loop_
 _atom_site_type_symbol
 _atom_site_label
 _atom_site_symmetry_multiplicity
 _atom_site_fract_x
 _atom_site_fract_y
 _atom_site_fract_z
 _atom_site_occupancy
  Er  Er0  1  0.594683  0.000000  0.500000  1
  Er  Er1  1  0.419424  0.427013  0.500000  1
  Er  Er2  1  0.992411  0.572987  0.500000  1
  Cd  Cd3  1  0.229716  0.000000  0.000000  1
  Hg  Hg4  1  0.006236  0.238880  0.000000  1
  Hg  Hg5  1  0.767356  0.761120  0.000000  1
  Pd  Pd6  1  0.656393  0.322615  0.000000  1
  Pd  Pd7  1  0.333779  0.677385  0.000000  1
