# generated using pymatgen
data_Pr6Al25Os7
_symmetry_space_group_name_H-M   'P 1'
_cell_length_a   8.96183569
_cell_length_b   8.96183495
_cell_length_c   9.68549012
_cell_angle_alpha   90.35461914
_cell_angle_beta   89.64538164
_cell_angle_gamma   119.84307357
_symmetry_Int_Tables_number   1
_chemical_formula_structural   Pr6Al25Os7
_chemical_formula_sum   'Pr6 Al25 Os7'
_cell_volume   674.71384435
_cell_formula_units_Z   1
loop_
 _symmetry_equiv_pos_site_id
 _symmetry_equiv_pos_as_xyz
  1  'x, y, z'
loop_
 _atom_site_type_symbol
 _atom_site_label
 _atom_site_symmetry_multiplicity
 _atom_site_fract_x
 _atom_site_fract_y
 _atom_site_fract_z
 _atom_site_occupancy
  Pr  Pr0  1  0.192055  0.381892  0.244237  1
  Pr  Pr1  1  0.807945  0.618108  0.755763  1
  Pr  Pr2  1  0.618108  0.807945  0.244237  1
  Pr  Pr3  1  0.381892  0.192055  0.755763  1
  Pr  Pr4  1  0.191997  0.808003  0.256761  1
  Pr  Pr5  1  0.808003  0.191997  0.743239  1
  Al  Al6  1  0.325929  0.674071  0.014166  1
  Al  Al7  1  0.674071  0.325929  0.985834  1
  Al  Al8  1  0.666061  0.333939  0.512441  1
  Al  Al9  1  0.333939  0.666061  0.487559  1
  Al  Al10  1  0.162646  0.326067  0.569651  1
  Al  Al11  1  0.837354  0.673933  0.430349  1
  Al  Al12  1  0.673933  0.837354  0.569651  1
  Al  Al13  1  0.853850  0.678768  0.080874  1
  Al  Al14  1  0.326067  0.162646  0.430349  1
  Al  Al15  1  0.146150  0.321232  0.919126  1
  Al  Al16  1  0.163018  0.836982  0.576049  1
  Al  Al17  1  0.321232  0.146150  0.080874  1
  Al  Al18  1  0.836982  0.163018  0.423951  1
  Al  Al19  1  0.678768  0.853850  0.919126  1
  Al  Al20  1  0.836950  0.163050  0.075355  1
  Al  Al21  1  0.163050  0.836950  0.924645  1
  Al  Al22  1  0.562751  0.122593  0.249435  1
  Al  Al23  1  0.437249  0.877407  0.750565  1
  Al  Al24  1  0.877407  0.437249  0.249435  1
  Al  Al25  1  0.122593  0.562751  0.750565  1
  Al  Al26  1  0.567051  0.432949  0.260380  1
  Al  Al27  1  0.432949  0.567051  0.739620  1
  Al  Al28  1  0.998588  0.001412  0.250932  1
  Al  Al29  1  0.001412  0.998588  0.749068  1
  Al  Al30  1  0.500000  0.500000  0.000000  1
  Os  Os31  1  0.500000  0.000000  0.000000  1
  Os  Os32  1  0.000000  0.500000  0.000000  1
  Os  Os33  1  0.500000  0.000000  0.500000  1
  Os  Os34  1  0.000000  0.500000  0.500000  1
  Os  Os35  1  0.500000  0.500000  0.500000  1
  Os  Os36  1  0.000000  0.000000  0.000000  1
  Os  Os37  1  0.000000  0.000000  0.500000  1
