# generated using pymatgen
data_Y4LuRh2
_symmetry_space_group_name_H-M   'P 1'
_cell_length_a   6.44284755
_cell_length_b   7.15193280
_cell_length_c   8.61701282
_cell_angle_alpha   96.81678714
_cell_angle_beta   111.95292448
_cell_angle_gamma   90.00000018
_symmetry_Int_Tables_number   1
_chemical_formula_structural   Y4LuRh2
_chemical_formula_sum   'Y8 Lu2 Rh4'
_cell_volume   365.24319331
_cell_formula_units_Z   2
loop_
 _symmetry_equiv_pos_site_id
 _symmetry_equiv_pos_as_xyz
  1  'x, y, z'
loop_
 _atom_site_type_symbol
 _atom_site_label
 _atom_site_symmetry_multiplicity
 _atom_site_fract_x
 _atom_site_fract_y
 _atom_site_fract_z
 _atom_site_occupancy
  Y  Y0  1  0.524742  0.081739  0.814457  1
  Y  Y1  1  0.475258  0.918261  0.185543  1
  Y  Y2  1  0.710284  0.418261  0.185543  1
  Y  Y3  1  0.289716  0.581739  0.814457  1
  Y  Y4  1  0.289381  0.313935  0.437816  1
  Y  Y5  1  0.710619  0.686065  0.562184  1
  Y  Y6  1  0.851566  0.186065  0.562184  1
  Y  Y7  1  0.148434  0.813935  0.437816  1
  Lu  Lu8  1  0.070751  0.250000  0.000000  1
  Lu  Lu9  1  0.929249  0.750000  0.000000  1
  Rh  Rh10  1  0.312344  0.569686  0.212986  1
  Rh  Rh11  1  0.687656  0.430314  0.787014  1
  Rh  Rh12  1  0.099359  0.930314  0.787014  1
  Rh  Rh13  1  0.900641  0.069686  0.212986  1
