# generated using pymatgen
data_TbDy(GaRu)2
_symmetry_space_group_name_H-M   'P 1'
_cell_length_a   4.01873000
_cell_length_b   7.04126321
_cell_length_c   8.08394100
_cell_angle_alpha   90.21202193
_cell_angle_beta   90.00000000
_cell_angle_gamma   90.00000000
_symmetry_Int_Tables_number   1
_chemical_formula_structural   TbDy(GaRu)2
_chemical_formula_sum   'Tb2 Dy2 Ga4 Ru4'
_cell_volume   228.74919247
_cell_formula_units_Z   2
loop_
 _symmetry_equiv_pos_site_id
 _symmetry_equiv_pos_as_xyz
  1  'x, y, z'
loop_
 _atom_site_type_symbol
 _atom_site_label
 _atom_site_symmetry_multiplicity
 _atom_site_fract_x
 _atom_site_fract_y
 _atom_site_fract_z
 _atom_site_occupancy
  Tb  Tb0  1  0.250000  0.470785  0.185126  1
  Tb  Tb1  1  0.750000  0.529215  0.814874  1
  Dy  Dy2  1  0.750000  0.028854  0.684501  1
  Dy  Dy3  1  0.250000  0.971146  0.315499  1
  Ga  Ga4  1  0.250000  0.851549  0.934850  1
  Ga  Ga5  1  0.750000  0.148451  0.065150  1
  Ga  Ga6  1  0.750000  0.650396  0.434263  1
  Ga  Ga7  1  0.250000  0.349604  0.565737  1
  Ru  Ru8  1  0.250000  0.731007  0.621494  1
  Ru  Ru9  1  0.750000  0.268993  0.378506  1
  Ru  Ru10  1  0.750000  0.769870  0.122341  1
  Ru  Ru11  1  0.250000  0.230130  0.877659  1
