# generated using pymatgen
data_Ho5Tm3(Si3Ir)4
_symmetry_space_group_name_H-M   'P 1'
_cell_length_a   8.15228500
_cell_length_b   8.14868583
_cell_length_c   7.81875400
_cell_angle_alpha   90.00007031
_cell_angle_beta   89.99969076
_cell_angle_gamma   120.04286222
_symmetry_Int_Tables_number   1
_chemical_formula_structural   Ho5Tm3(Si3Ir)4
_chemical_formula_sum   'Ho5 Tm3 Si12 Ir4'
_cell_volume   449.62181206
_cell_formula_units_Z   1
loop_
 _symmetry_equiv_pos_site_id
 _symmetry_equiv_pos_as_xyz
  1  'x, y, z'
loop_
 _atom_site_type_symbol
 _atom_site_label
 _atom_site_symmetry_multiplicity
 _atom_site_fract_x
 _atom_site_fract_y
 _atom_site_fract_z
 _atom_site_occupancy
  Ho  Ho0  1  0.510521  0.489441  0.249999  1
  Ho  Ho1  1  0.489788  0.510510  0.750000  1
  Ho  Ho2  1  0.020728  0.510515  0.750001  1
  Ho  Ho3  1  0.999954  0.000201  0.250000  1
  Ho  Ho4  1  0.999981  0.999738  0.750000  1
  Tm  Tm5  1  0.510350  0.020424  0.250002  1
  Tm  Tm6  1  0.489975  0.979978  0.750002  1
  Tm  Tm7  1  0.979598  0.489633  0.250002  1
  Si  Si8  1  0.166773  0.333665  0.002185  1
  Si  Si9  1  0.833350  0.666398  0.501203  1
  Si  Si10  1  0.666231  0.833326  0.001585  1
  Si  Si11  1  0.166937  0.833352  0.001769  1
  Si  Si12  1  0.833177  0.166693  0.500816  1
  Si  Si13  1  0.333447  0.166516  0.501428  1
  Si  Si14  1  0.833350  0.666399  0.998798  1
  Si  Si15  1  0.833175  0.166694  0.999189  1
  Si  Si16  1  0.333444  0.166513  0.998572  1
  Si  Si17  1  0.666229  0.833324  0.498414  1
  Si  Si18  1  0.166938  0.833352  0.498230  1
  Si  Si19  1  0.166777  0.333669  0.497812  1
  Ir  Ir20  1  0.333099  0.667501  0.036459  1
  Ir  Ir21  1  0.666488  0.332326  0.534366  1
  Ir  Ir22  1  0.666488  0.332332  0.965631  1
  Ir  Ir23  1  0.333095  0.667501  0.463543  1
