# generated using pymatgen
data_ZrCl30
_symmetry_space_group_name_H-M   'P 1'
_cell_length_a   13.47126104
_cell_length_b   13.47126159
_cell_length_c   16.08055351
_cell_angle_alpha   83.63309686
_cell_angle_beta   83.63309465
_cell_angle_gamma   124.30360020
_symmetry_Int_Tables_number   1
_chemical_formula_structural   ZrCl30
_chemical_formula_sum   'Zr1 Cl30'
_cell_volume   2341.71765662
_cell_formula_units_Z   1
loop_
 _symmetry_equiv_pos_site_id
 _symmetry_equiv_pos_as_xyz
  1  'x, y, z'
loop_
 _atom_site_type_symbol
 _atom_site_label
 _atom_site_symmetry_multiplicity
 _atom_site_fract_x
 _atom_site_fract_y
 _atom_site_fract_z
 _atom_site_occupancy
  Zr  Zr0  1  0.000000  0.000000  0.000000  1
  Cl  Cl1  1  0.940350  0.940350  0.164082  1
  Cl  Cl2  1  0.059650  0.059650  0.835918  1
  Cl  Cl3  1  0.062917  0.207974  0.005651  1
  Cl  Cl4  1  0.937083  0.792026  0.994349  1
  Cl  Cl5  1  0.207974  0.062917  0.005651  1
  Cl  Cl6  1  0.792026  0.937083  0.994349  1
  Cl  Cl7  1  0.202324  0.742564  0.063592  1
  Cl  Cl8  1  0.797676  0.257436  0.936408  1
  Cl  Cl9  1  0.701309  0.078462  0.259810  1
  Cl  Cl10  1  0.257436  0.797676  0.936408  1
  Cl  Cl11  1  0.298691  0.921538  0.740190  1
  Cl  Cl12  1  0.742564  0.202324  0.063592  1
  Cl  Cl13  1  0.982240  0.196248  0.777578  1
  Cl  Cl14  1  0.921538  0.298691  0.740190  1
  Cl  Cl15  1  0.017760  0.803752  0.222422  1
  Cl  Cl16  1  0.078462  0.701309  0.259810  1
  Cl  Cl17  1  0.803752  0.017760  0.222422  1
  Cl  Cl18  1  0.196248  0.982240  0.777578  1
  Cl  Cl19  1  0.464750  0.548313  0.260183  1
  Cl  Cl20  1  0.535250  0.451687  0.739817  1
  Cl  Cl21  1  0.507671  0.205957  0.451057  1
  Cl  Cl22  1  0.451687  0.535250  0.739817  1
  Cl  Cl23  1  0.492329  0.794043  0.548943  1
  Cl  Cl24  1  0.548313  0.464750  0.260183  1
  Cl  Cl25  1  0.239395  0.428489  0.545067  1
  Cl  Cl26  1  0.794043  0.492329  0.548943  1
  Cl  Cl27  1  0.760605  0.571511  0.454933  1
  Cl  Cl28  1  0.205957  0.507671  0.451057  1
  Cl  Cl29  1  0.571511  0.760605  0.454933  1
  Cl  Cl30  1  0.428489  0.239395  0.545067  1
