# generated using pymatgen
data_NdHo3Re16Si7Ge
_symmetry_space_group_name_H-M   'P 1'
_cell_length_a   4.14107400
_cell_length_b   7.33505172
_cell_length_c   15.36950740
_cell_angle_alpha   90.13114534
_cell_angle_beta   90.00000000
_cell_angle_gamma   90.00000000
_symmetry_Int_Tables_number   1
_chemical_formula_structural   NdHo3Re16Si7Ge
_chemical_formula_sum   'Nd1 Ho3 Re16 Si7 Ge1'
_cell_volume   466.84744070
_cell_formula_units_Z   1
loop_
 _symmetry_equiv_pos_site_id
 _symmetry_equiv_pos_as_xyz
  1  'x, y, z'
loop_
 _atom_site_type_symbol
 _atom_site_label
 _atom_site_symmetry_multiplicity
 _atom_site_fract_x
 _atom_site_fract_y
 _atom_site_fract_z
 _atom_site_occupancy
  Nd  Nd0  1  0.500000  0.924359  0.620734  1
  Ho  Ho1  1  0.000000  0.576781  0.118525  1
  Ho  Ho2  1  0.000000  0.419603  0.882956  1
  Ho  Ho3  1  0.500000  0.083985  0.378577  1
  Re  Re4  1  0.000000  0.140922  0.051060  1
  Re  Re5  1  0.000000  0.854359  0.949779  1
  Re  Re6  1  0.500000  0.640622  0.445340  1
  Re  Re7  1  0.500000  0.363637  0.550330  1
  Re  Re8  1  0.000000  0.732475  0.320012  1
  Re  Re9  1  0.000000  0.269995  0.680107  1
  Re  Re10  1  0.500000  0.232099  0.176297  1
  Re  Re11  1  0.500000  0.763357  0.824275  1
  Re  Re12  1  0.000000  0.429090  0.415457  1
  Re  Re13  1  0.000000  0.569454  0.581267  1
  Re  Re14  1  0.500000  0.927260  0.082360  1
  Re  Re15  1  0.500000  0.068166  0.918689  1
  Re  Re16  1  0.000000  0.983605  0.204715  1
  Re  Re17  1  0.000000  0.013097  0.796275  1
  Re  Re18  1  0.500000  0.483240  0.292261  1
  Re  Re19  1  0.500000  0.510656  0.707435  1
  Si  Si20  1  0.000000  0.177814  0.523304  1
  Si  Si21  1  0.500000  0.333633  0.022313  1
  Si  Si22  1  0.500000  0.662312  0.978608  1
  Si  Si23  1  0.000000  0.286131  0.270853  1
  Si  Si24  1  0.000000  0.707638  0.729320  1
  Si  Si25  1  0.500000  0.785075  0.226632  1
  Si  Si26  1  0.500000  0.212949  0.775749  1
  Ge  Ge27  1  0.000000  0.847686  0.476773  1
