# generated using pymatgen
data_Pr(HfSe2)4
_symmetry_space_group_name_H-M   'P 1'
_cell_length_a   8.24836568
_cell_length_b   8.24836468
_cell_length_c   8.24836572
_cell_angle_alpha   54.39944534
_cell_angle_beta   54.39945127
_cell_angle_gamma   54.39944203
_symmetry_Int_Tables_number   1
_chemical_formula_structural   Pr(HfSe2)4
_chemical_formula_sum   'Pr1 Hf4 Se8'
_cell_volume   344.98394414
_cell_formula_units_Z   1
loop_
 _symmetry_equiv_pos_site_id
 _symmetry_equiv_pos_as_xyz
  1  'x, y, z'
loop_
 _atom_site_type_symbol
 _atom_site_label
 _atom_site_symmetry_multiplicity
 _atom_site_fract_x
 _atom_site_fract_y
 _atom_site_fract_z
 _atom_site_occupancy
  Pr  Pr0  1  0.500000  0.500000  0.500000  1
  Hf  Hf1  1  0.000000  0.500000  0.500000  1
  Hf  Hf2  1  0.500000  0.000000  0.500000  1
  Hf  Hf3  1  0.500000  0.500000  0.000000  1
  Hf  Hf4  1  0.000000  0.000000  0.000000  1
  Se  Se5  1  0.245972  0.761232  0.761232  1
  Se  Se6  1  0.238768  0.238768  0.754028  1
  Se  Se7  1  0.754028  0.238768  0.238768  1
  Se  Se8  1  0.238768  0.754028  0.238768  1
  Se  Se9  1  0.259066  0.259066  0.259066  1
  Se  Se10  1  0.740934  0.740934  0.740934  1
  Se  Se11  1  0.761232  0.245972  0.761232  1
  Se  Se12  1  0.761232  0.761232  0.245972  1
