# generated using pymatgen
data_Ti4AlCo3(BiO5)4
_symmetry_space_group_name_H-M   'P 1'
_cell_length_a   5.83050000
_cell_length_b   7.61537356
_cell_length_c   8.54843465
_cell_angle_alpha   89.95576582
_cell_angle_beta   90.00000000
_cell_angle_gamma   90.00000000
_symmetry_Int_Tables_number   1
_chemical_formula_structural   Ti4AlCo3(BiO5)4
_chemical_formula_sum   'Ti4 Al1 Co3 Bi4 O20'
_cell_volume   379.56265677
_cell_formula_units_Z   1
loop_
 _symmetry_equiv_pos_site_id
 _symmetry_equiv_pos_as_xyz
  1  'x, y, z'
loop_
 _atom_site_type_symbol
 _atom_site_label
 _atom_site_symmetry_multiplicity
 _atom_site_fract_x
 _atom_site_fract_y
 _atom_site_fract_z
 _atom_site_occupancy
  Ti  Ti0  1  0.500233  0.874899  0.144428  1
  Ti  Ti1  1  0.500233  0.125101  0.855572  1
  Ti  Ti2  1  0.499470  0.374298  0.356434  1
  Ti  Ti3  1  0.499470  0.625702  0.643566  1
  Al  Al4  1  0.251478  0.500000  0.000000  1
  Co  Co5  1  0.749529  0.000000  0.500000  1
  Co  Co6  1  0.750495  0.500000  0.000000  1
  Co  Co7  1  0.250215  0.000000  0.500000  1
  Bi  Bi8  1  0.998080  0.658596  0.333507  1
  Bi  Bi9  1  0.998080  0.341404  0.666493  1
  Bi  Bi10  1  0.000046  0.157896  0.165903  1
  Bi  Bi11  1  0.000046  0.842104  0.834097  1
  O  O12  1  0.001398  0.652459  0.056447  1
  O  O13  1  0.001398  0.347541  0.943553  1
  O  O14  1  0.999628  0.151543  0.443657  1
  O  O15  1  0.999628  0.848457  0.556343  1
  O  O16  1  0.289289  0.500000  0.500000  1
  O  O17  1  0.709803  0.000000  0.000000  1
  O  O18  1  0.710211  0.500000  0.500000  1
  O  O19  1  0.289953  0.000000  0.000000  1
  O  O20  1  0.496059  0.649866  0.074412  1
  O  O21  1  0.496059  0.350134  0.925588  1
  O  O22  1  0.499916  0.150292  0.426689  1
  O  O23  1  0.499916  0.849708  0.573311  1
  O  O24  1  0.257206  0.887150  0.296804  1
  O  O25  1  0.257206  0.112850  0.703196  1
  O  O26  1  0.743981  0.387080  0.203347  1
  O  O27  1  0.743981  0.612920  0.796653  1
  O  O28  1  0.743160  0.112166  0.703139  1
  O  O29  1  0.743160  0.887834  0.296861  1
  O  O30  1  0.260336  0.613647  0.798413  1
  O  O31  1  0.260336  0.386353  0.201587  1
