# generated using pymatgen
data_HfZrFeB2Ru5
_symmetry_space_group_name_H-M   'P 1'
_cell_length_a   9.32454357
_cell_length_b   9.32454357
_cell_length_c   3.07347500
_cell_angle_alpha   90.00000000
_cell_angle_beta   90.00000000
_cell_angle_gamma   89.78394273
_symmetry_Int_Tables_number   1
_chemical_formula_structural   HfZrFeB2Ru5
_chemical_formula_sum   'Hf2 Zr2 Fe2 B4 Ru10'
_cell_volume   267.22787774
_cell_formula_units_Z   2
loop_
 _symmetry_equiv_pos_site_id
 _symmetry_equiv_pos_as_xyz
  1  'x, y, z'
loop_
 _atom_site_type_symbol
 _atom_site_label
 _atom_site_symmetry_multiplicity
 _atom_site_fract_x
 _atom_site_fract_y
 _atom_site_fract_z
 _atom_site_occupancy
  Hf  Hf0  1  0.175622  0.324378  0.000000  1
  Hf  Hf1  1  0.824378  0.675622  0.000000  1
  Zr  Zr2  1  0.676478  0.176478  0.000000  1
  Zr  Zr3  1  0.323522  0.823522  0.000000  1
  Fe  Fe4  1  0.000000  0.000000  0.000000  1
  Fe  Fe5  1  0.500000  0.500000  0.000000  1
  B  B6  1  0.123514  0.623514  0.000000  1
  B  B7  1  0.876486  0.376486  0.000000  1
  B  B8  1  0.624678  0.875322  0.000000  1
  B  B9  1  0.375322  0.124678  0.000000  1
  Ru  Ru10  1  0.212794  0.072213  0.500000  1
  Ru  Ru11  1  0.787206  0.927787  0.500000  1
  Ru  Ru12  1  0.069375  0.786208  0.500000  1
  Ru  Ru13  1  0.713792  0.430625  0.500000  1
  Ru  Ru14  1  0.930625  0.213792  0.500000  1
  Ru  Ru15  1  0.286208  0.569375  0.500000  1
  Ru  Ru16  1  0.572213  0.712794  0.500000  1
  Ru  Ru17  1  0.427787  0.287206  0.500000  1
  Ru  Ru18  1  0.500000  0.000000  0.500000  1
  Ru  Ru19  1  0.000000  0.500000  0.500000  1
