# generated using pymatgen
data_Fe7Tc5W
_symmetry_space_group_name_H-M   'P 1'
_cell_length_a   8.97029377
_cell_length_b   8.97029393
_cell_length_c   8.97029308
_cell_angle_alpha   30.24963070
_cell_angle_beta   30.24962688
_cell_angle_gamma   30.24962714
_symmetry_Int_Tables_number   1
_chemical_formula_structural   Fe7Tc5W
_chemical_formula_sum   'Fe7 Tc5 W1'
_cell_volume   162.31921758
_cell_formula_units_Z   1
loop_
 _symmetry_equiv_pos_site_id
 _symmetry_equiv_pos_as_xyz
  1  'x, y, z'
loop_
 _atom_site_type_symbol
 _atom_site_label
 _atom_site_symmetry_multiplicity
 _atom_site_fract_x
 _atom_site_fract_y
 _atom_site_fract_z
 _atom_site_occupancy
  Fe  Fe0  1  0.588049  0.090839  0.090839  1
  Fe  Fe1  1  0.090839  0.090839  0.588049  1
  Fe  Fe2  1  0.908402  0.908402  0.413307  1
  Fe  Fe3  1  0.908402  0.413307  0.908402  1
  Fe  Fe4  1  0.999517  0.999517  0.999517  1
  Fe  Fe5  1  0.090839  0.588049  0.090839  1
  Fe  Fe6  1  0.413307  0.908402  0.908402  1
  Tc  Tc7  1  0.167471  0.167471  0.167471  1
  Tc  Tc8  1  0.547625  0.547625  0.547625  1
  Tc  Tc9  1  0.652107  0.652107  0.652107  1
  Tc  Tc10  1  0.452971  0.452971  0.452971  1
  Tc  Tc11  1  0.832977  0.832977  0.832977  1
  W  W12  1  0.347492  0.347492  0.347492  1
