# generated using pymatgen
data_Sc4ReTcB12
_symmetry_space_group_name_H-M   'P 1'
_cell_length_a   3.51111900
_cell_length_b   8.91888654
_cell_length_c   11.19948494
_cell_angle_alpha   90.06735197
_cell_angle_beta   90.00000000
_cell_angle_gamma   90.00000000
_symmetry_Int_Tables_number   1
_chemical_formula_structural   Sc4ReTcB12
_chemical_formula_sum   'Sc8 Re2 Tc2 B24'
_cell_volume   350.71467457
_cell_formula_units_Z   2
loop_
 _symmetry_equiv_pos_site_id
 _symmetry_equiv_pos_as_xyz
  1  'x, y, z'
loop_
 _atom_site_type_symbol
 _atom_site_label
 _atom_site_symmetry_multiplicity
 _atom_site_fract_x
 _atom_site_fract_y
 _atom_site_fract_z
 _atom_site_occupancy
  Sc  Sc0  1  0.000000  0.322301  0.413542  1
  Sc  Sc1  1  0.000000  0.677699  0.586458  1
  Sc  Sc2  1  0.000000  0.821555  0.086850  1
  Sc  Sc3  1  0.000000  0.178445  0.913150  1
  Sc  Sc4  1  0.000000  0.943600  0.370839  1
  Sc  Sc5  1  0.000000  0.056400  0.629161  1
  Sc  Sc6  1  0.000000  0.444602  0.129657  1
  Sc  Sc7  1  0.000000  0.555398  0.870343  1
  Re  Re8  1  0.000000  0.140082  0.180069  1
  Re  Re9  1  0.000000  0.859918  0.819931  1
  Tc  Tc10  1  0.000000  0.640071  0.320501  1
  Tc  Tc11  1  0.000000  0.359929  0.679499  1
  B  B12  1  0.500000  0.553447  0.434910  1
  B  B13  1  0.500000  0.446553  0.565090  1
  B  B14  1  0.500000  0.053281  0.065060  1
  B  B15  1  0.500000  0.946719  0.934940  1
  B  B16  1  0.500000  0.753377  0.421661  1
  B  B17  1  0.500000  0.246623  0.578339  1
  B  B18  1  0.500000  0.254041  0.078158  1
  B  B19  1  0.500000  0.745959  0.921842  1
  B  B20  1  0.500000  0.795343  0.263743  1
  B  B21  1  0.500000  0.204657  0.736257  1
  B  B22  1  0.500000  0.296053  0.236320  1
  B  B23  1  0.500000  0.703947  0.763680  1
  B  B24  1  0.500000  0.630456  0.182303  1
  B  B25  1  0.500000  0.369544  0.817697  1
  B  B26  1  0.500000  0.130296  0.318014  1
  B  B27  1  0.500000  0.869704  0.681986  1
  B  B28  1  0.500000  0.979130  0.212266  1
  B  B29  1  0.500000  0.020870  0.787734  1
  B  B30  1  0.500000  0.480137  0.287816  1
  B  B31  1  0.500000  0.519863  0.712184  1
  B  B32  1  0.500000  0.597637  0.027145  1
  B  B33  1  0.500000  0.402363  0.972855  1
  B  B34  1  0.500000  0.097315  0.473019  1
  B  B35  1  0.500000  0.902685  0.526981  1
