# generated using pymatgen
data_La2Pr3Ir2
_symmetry_space_group_name_H-M   'P 1'
_cell_length_a   9.19425945
_cell_length_b   9.19425993
_cell_length_c   7.36437691
_cell_angle_alpha   84.19352757
_cell_angle_beta   84.19352901
_cell_angle_gamma   43.16152986
_symmetry_Int_Tables_number   1
_chemical_formula_structural   La2Pr3Ir2
_chemical_formula_sum   'La4 Pr6 Ir4'
_cell_volume   423.32759112
_cell_formula_units_Z   2
loop_
 _symmetry_equiv_pos_site_id
 _symmetry_equiv_pos_as_xyz
  1  'x, y, z'
loop_
 _atom_site_type_symbol
 _atom_site_label
 _atom_site_symmetry_multiplicity
 _atom_site_fract_x
 _atom_site_fract_y
 _atom_site_fract_z
 _atom_site_occupancy
  La  La0  1  0.016482  0.797093  0.915652  1
  La  La1  1  0.202907  0.983518  0.584348  1
  La  La2  1  0.983518  0.202907  0.084348  1
  La  La3  1  0.797093  0.016482  0.415652  1
  Pr  Pr4  1  0.352232  0.214035  0.817506  1
  Pr  Pr5  1  0.785965  0.647768  0.682494  1
  Pr  Pr6  1  0.647768  0.785965  0.182494  1
  Pr  Pr7  1  0.214035  0.352232  0.317506  1
  Pr  Pr8  1  0.568226  0.431774  0.750000  1
  Pr  Pr9  1  0.431774  0.568226  0.250000  1
  Ir  Ir10  1  0.176733  0.600714  0.578030  1
  Ir  Ir11  1  0.399286  0.823267  0.921970  1
  Ir  Ir12  1  0.823267  0.399286  0.421970  1
  Ir  Ir13  1  0.600714  0.176733  0.078030  1
