# generated using pymatgen
data_NaZr2PaPd12
_symmetry_space_group_name_H-M   'P 1'
_cell_length_a   5.72747200
_cell_length_b   5.72747178
_cell_length_c   9.28840400
_cell_angle_alpha   90.00000000
_cell_angle_beta   90.00000000
_cell_angle_gamma   120.00000126
_symmetry_Int_Tables_number   1
_chemical_formula_structural   NaZr2PaPd12
_chemical_formula_sum   'Na1 Zr2 Pa1 Pd12'
_cell_volume   263.87464129
_cell_formula_units_Z   1
loop_
 _symmetry_equiv_pos_site_id
 _symmetry_equiv_pos_as_xyz
  1  'x, y, z'
loop_
 _atom_site_type_symbol
 _atom_site_label
 _atom_site_symmetry_multiplicity
 _atom_site_fract_x
 _atom_site_fract_y
 _atom_site_fract_z
 _atom_site_occupancy
  Na  Na0  1  0.333333  0.666667  0.248984  1
  Zr  Zr1  1  0.000000  0.000000  0.002506  1
  Zr  Zr2  1  0.666667  0.333333  0.756429  1
  Pa  Pa3  1  0.000000  0.000000  0.489330  1
  Pd  Pd4  1  0.501347  0.498653  0.502664  1
  Pd  Pd5  1  0.501347  0.002693  0.502664  1
  Pd  Pd6  1  0.997307  0.498653  0.502664  1
  Pd  Pd7  1  0.500271  0.499729  0.998678  1
  Pd  Pd8  1  0.500271  0.000542  0.998678  1
  Pd  Pd9  1  0.999458  0.499729  0.998678  1
  Pd  Pd10  1  0.829904  0.170096  0.249373  1
  Pd  Pd11  1  0.829904  0.659806  0.249373  1
  Pd  Pd12  1  0.340194  0.170096  0.249373  1
  Pd  Pd13  1  0.168616  0.831384  0.750203  1
  Pd  Pd14  1  0.168616  0.337232  0.750203  1
  Pd  Pd15  1  0.662768  0.831384  0.750203  1
