# generated using pymatgen
data_Al3Cu3(Pd3Pt2)2
_symmetry_space_group_name_H-M   'P 1'
_cell_length_a   4.10785500
_cell_length_b   5.36566703
_cell_length_c   10.47440649
_cell_angle_alpha   89.49313602
_cell_angle_beta   90.00000000
_cell_angle_gamma   90.00000000
_symmetry_Int_Tables_number   1
_chemical_formula_structural   Al3Cu3(Pd3Pt2)2
_chemical_formula_sum   'Al3 Cu3 Pd6 Pt4'
_cell_volume   230.86136250
_cell_formula_units_Z   1
loop_
 _symmetry_equiv_pos_site_id
 _symmetry_equiv_pos_as_xyz
  1  'x, y, z'
loop_
 _atom_site_type_symbol
 _atom_site_label
 _atom_site_symmetry_multiplicity
 _atom_site_fract_x
 _atom_site_fract_y
 _atom_site_fract_z
 _atom_site_occupancy
  Al  Al0  1  0.000000  0.981343  0.006276  1
  Al  Al1  1  0.000000  0.498227  0.499042  1
  Al  Al2  1  0.500000  0.341789  0.859508  1
  Cu  Cu3  1  0.500000  0.171713  0.363384  1
  Cu  Cu4  1  0.500000  0.825531  0.632996  1
  Cu  Cu5  1  0.500000  0.674200  0.137673  1
  Pd  Pd6  1  0.000000  0.001152  0.502467  1
  Pd  Pd7  1  0.000000  0.490147  0.995947  1
  Pd  Pd8  1  0.000000  0.909370  0.241015  1
  Pd  Pd9  1  0.000000  0.100538  0.768666  1
  Pd  Pd10  1  0.000000  0.408828  0.261092  1
  Pd  Pd11  1  0.000000  0.600806  0.734916  1
  Pt  Pt12  1  0.500000  0.182250  0.104615  1
  Pt  Pt13  1  0.500000  0.820337  0.889585  1
  Pt  Pt14  1  0.500000  0.678337  0.391529  1
  Pt  Pt15  1  0.500000  0.315432  0.611291  1
