# generated using pymatgen
data_Ca6Cd3InPb2
_symmetry_space_group_name_H-M   'P 1'
_cell_length_a   5.47045503
_cell_length_b   7.65728100
_cell_length_c   16.65599308
_cell_angle_alpha   90.00000000
_cell_angle_beta   90.01157496
_cell_angle_gamma   90.00000000
_symmetry_Int_Tables_number   1
_chemical_formula_structural   Ca6Cd3InPb2
_chemical_formula_sum   'Ca12 Cd6 In2 Pb4'
_cell_volume   697.69973789
_cell_formula_units_Z   2
loop_
 _symmetry_equiv_pos_site_id
 _symmetry_equiv_pos_as_xyz
  1  'x, y, z'
loop_
 _atom_site_type_symbol
 _atom_site_label
 _atom_site_symmetry_multiplicity
 _atom_site_fract_x
 _atom_site_fract_y
 _atom_site_fract_z
 _atom_site_occupancy
  Ca  Ca0  1  0.500017  0.249906  0.001083  1
  Ca  Ca1  1  0.500017  0.750094  0.001083  1
  Ca  Ca2  1  0.000127  0.250028  0.165590  1
  Ca  Ca3  1  0.000127  0.749972  0.165590  1
  Ca  Ca4  1  0.500136  0.250837  0.331938  1
  Ca  Ca5  1  0.500136  0.749163  0.331938  1
  Ca  Ca6  1  0.000009  0.250480  0.499784  1
  Ca  Ca7  1  0.000009  0.749520  0.499784  1
  Ca  Ca8  1  0.499879  0.249584  0.666888  1
  Ca  Ca9  1  0.499879  0.750416  0.666888  1
  Ca  Ca10  1  0.999868  0.249157  0.834726  1
  Ca  Ca11  1  0.999868  0.750843  0.834726  1
  Cd  Cd12  1  0.999974  0.499999  0.003855  1
  Cd  Cd13  1  0.500192  0.000000  0.162831  1
  Cd  Cd14  1  0.000181  0.499999  0.328979  1
  Cd  Cd15  1  0.500028  0.000000  0.499654  1
  Cd  Cd16  1  0.999849  0.499999  0.667027  1
  Cd  Cd17  1  0.499844  0.000000  0.837638  1
  In  In18  1  0.999939  0.000000  0.999876  1
  In  In19  1  0.500054  0.499999  0.166769  1
  Pb  Pb20  1  0.000146  0.000000  0.333889  1
  Pb  Pb21  1  0.499983  0.499999  0.500164  1
  Pb  Pb22  1  0.999859  0.000000  0.666494  1
  Pb  Pb23  1  0.499881  0.499999  0.832809  1
