# generated using pymatgen
data_La3InHg2Rh3
_symmetry_space_group_name_H-M   'P 1'
_cell_length_a   7.72319436
_cell_length_b   7.72319444
_cell_length_c   4.11666000
_cell_angle_alpha   90.00000000
_cell_angle_beta   90.00000000
_cell_angle_gamma   120.31054602
_symmetry_Int_Tables_number   1
_chemical_formula_structural   La3InHg2Rh3
_chemical_formula_sum   'La3 In1 Hg2 Rh3'
_cell_volume   211.98348013
_cell_formula_units_Z   1
loop_
 _symmetry_equiv_pos_site_id
 _symmetry_equiv_pos_as_xyz
  1  'x, y, z'
loop_
 _atom_site_type_symbol
 _atom_site_label
 _atom_site_symmetry_multiplicity
 _atom_site_fract_x
 _atom_site_fract_y
 _atom_site_fract_z
 _atom_site_occupancy
  La  La0  1  0.998506  0.592156  0.500000  1
  La  La1  1  0.592156  0.998506  0.500000  1
  La  La2  1  0.404649  0.404649  0.500000  1
  In  In3  1  0.749920  0.749920  0.000000  1
  Hg  Hg4  1  0.999981  0.252490  0.000000  1
  Hg  Hg5  1  0.252490  0.999981  0.000000  1
  Rh  Rh6  1  0.981649  0.981649  0.500000  1
  Rh  Rh7  1  0.672176  0.348473  0.000000  1
  Rh  Rh8  1  0.348473  0.672176  0.000000  1
