# generated using pymatgen
data_Ho2TaPdPt8
_symmetry_space_group_name_H-M   'P 1'
_cell_length_a   4.06706900
_cell_length_b   4.06706900
_cell_length_c   12.28587700
_cell_angle_alpha   90.00000000
_cell_angle_beta   90.00000000
_cell_angle_gamma   90.00000000
_symmetry_Int_Tables_number   1
_chemical_formula_structural   Ho2TaPdPt8
_chemical_formula_sum   'Ho2 Ta1 Pd1 Pt8'
_cell_volume   203.22130883
_cell_formula_units_Z   1
loop_
 _symmetry_equiv_pos_site_id
 _symmetry_equiv_pos_as_xyz
  1  'x, y, z'
loop_
 _atom_site_type_symbol
 _atom_site_label
 _atom_site_symmetry_multiplicity
 _atom_site_fract_x
 _atom_site_fract_y
 _atom_site_fract_z
 _atom_site_occupancy
  Ho  Ho0  1  0.000000  0.000000  0.333519  1
  Ho  Ho1  1  0.000000  0.000000  0.666463  1
  Ta  Ta2  1  0.000000  0.000000  0.999643  1
  Pd  Pd3  1  0.500000  0.500000  0.671465  1
  Pt  Pt4  1  0.500000  0.500000  0.000440  1
  Pt  Pt5  1  0.500000  0.500000  0.328400  1
  Pt  Pt6  1  0.500000  0.000000  0.155339  1
  Pt  Pt7  1  0.500000  0.000000  0.499961  1
  Pt  Pt8  1  0.500000  0.000000  0.844734  1
  Pt  Pt9  1  0.000000  0.500000  0.155339  1
  Pt  Pt10  1  0.000000  0.500000  0.499961  1
  Pt  Pt11  1  0.000000  0.500000  0.844734  1
