# generated using pymatgen
data_DyYB24
_symmetry_space_group_name_H-M   'P 1'
_cell_length_a   5.30164300
_cell_length_b   5.30164286
_cell_length_c   9.18264000
_cell_angle_alpha   73.22119852
_cell_angle_beta   90.00000000
_cell_angle_gamma   120.00000708
_symmetry_Int_Tables_number   1
_chemical_formula_structural   DyYB24
_chemical_formula_sum   'Dy1 Y1 B24'
_cell_volume   210.73777110
_cell_formula_units_Z   1
loop_
 _symmetry_equiv_pos_site_id
 _symmetry_equiv_pos_as_xyz
  1  'x, y, z'
loop_
 _atom_site_type_symbol
 _atom_site_label
 _atom_site_symmetry_multiplicity
 _atom_site_fract_x
 _atom_site_fract_y
 _atom_site_fract_z
 _atom_site_occupancy
  Dy  Dy0  1  0.000000  0.000000  0.000000  1
  Y  Y1  1  0.500000  0.000000  0.500000  1
  B  B2  1  0.912117  0.500095  0.249913  1
  B  B3  1  0.412022  0.499905  0.750087  1
  B  B4  1  0.081086  0.500195  0.418719  1
  B  B5  1  0.581163  0.500099  0.918738  1
  B  B6  1  0.249992  0.837969  0.249913  1
  B  B7  1  0.750008  0.837891  0.750087  1
  B  B8  1  0.081086  0.162171  0.418719  1
  B  B9  1  0.581163  0.162326  0.918738  1
  B  B10  1  0.912117  0.162109  0.249913  1
  B  B11  1  0.412022  0.162031  0.750087  1
  B  B12  1  0.249992  0.162109  0.249913  1
  B  B13  1  0.750008  0.162031  0.750087  1
  B  B14  1  0.418837  0.837674  0.081262  1
  B  B15  1  0.918914  0.837829  0.581281  1
  B  B16  1  0.418837  0.499901  0.081262  1
  B  B17  1  0.918914  0.499805  0.581281  1
  B  B18  1  0.081063  0.499901  0.081262  1
  B  B19  1  0.580891  0.499805  0.581281  1
  B  B20  1  0.587978  0.500095  0.249913  1
  B  B21  1  0.087883  0.499905  0.750087  1
  B  B22  1  0.587978  0.837969  0.249913  1
  B  B23  1  0.087883  0.837891  0.750087  1
  B  B24  1  0.419109  0.500195  0.418719  1
  B  B25  1  0.918937  0.500099  0.918738  1
