# generated using pymatgen
data_TmLu3(Sc3Pt4)2
_symmetry_space_group_name_H-M   'P 1'
_cell_length_a   7.16020500
_cell_length_b   7.11293501
_cell_length_c   14.43529601
_cell_angle_alpha   90.00411007
_cell_angle_beta   90.00161787
_cell_angle_gamma   90.00170203
_symmetry_Int_Tables_number   1
_chemical_formula_structural   TmLu3(Sc3Pt4)2
_chemical_formula_sum   'Tm2 Lu6 Sc12 Pt16'
_cell_volume   735.19067422
_cell_formula_units_Z   2
loop_
 _symmetry_equiv_pos_site_id
 _symmetry_equiv_pos_as_xyz
  1  'x, y, z'
loop_
 _atom_site_type_symbol
 _atom_site_label
 _atom_site_symmetry_multiplicity
 _atom_site_fract_x
 _atom_site_fract_y
 _atom_site_fract_z
 _atom_site_occupancy
  Tm  Tm0  1  0.481951  0.675821  0.592895  1
  Tm  Tm1  1  0.981967  0.824179  0.907102  1
  Lu  Lu2  1  0.517872  0.323806  0.093066  1
  Lu  Lu3  1  0.017874  0.176158  0.406931  1
  Lu  Lu4  1  0.517951  0.323415  0.406786  1
  Lu  Lu5  1  0.017944  0.176558  0.093216  1
  Lu  Lu6  1  0.482110  0.676120  0.906956  1
  Lu  Lu7  1  0.982120  0.823900  0.593026  1
  Sc  Sc8  1  0.632565  0.169496  0.623568  1
  Sc  Sc9  1  0.132564  0.330504  0.876437  1
  Sc  Sc10  1  0.367500  0.830412  0.123600  1
  Sc  Sc11  1  0.867500  0.669586  0.376417  1
  Sc  Sc12  1  0.367213  0.830992  0.376125  1
  Sc  Sc13  1  0.867174  0.668999  0.123888  1
  Sc  Sc14  1  0.632106  0.169685  0.876277  1
  Sc  Sc15  1  0.132143  0.330337  0.623728  1
  Sc  Sc16  1  0.800365  0.503197  0.750005  1
  Sc  Sc17  1  0.300345  0.996823  0.750013  1
  Sc  Sc18  1  0.199706  0.496729  0.249986  1
  Sc  Sc19  1  0.699715  0.003271  0.250005  1
  Pt  Pt20  1  0.691920  0.961682  0.461434  1
  Pt  Pt21  1  0.191921  0.538319  0.038548  1
  Pt  Pt22  1  0.309045  0.039354  0.961724  1
  Pt  Pt23  1  0.809071  0.460628  0.538250  1
  Pt  Pt24  1  0.307968  0.039543  0.538184  1
  Pt  Pt25  1  0.807990  0.460461  0.961816  1
  Pt  Pt26  1  0.691474  0.961736  0.038756  1
  Pt  Pt27  1  0.191440  0.538279  0.461254  1
  Pt  Pt28  1  0.434048  0.382374  0.750201  1
  Pt  Pt29  1  0.934064  0.117620  0.749804  1
  Pt  Pt30  1  0.565878  0.616958  0.250029  1
  Pt  Pt31  1  0.065888  0.883058  0.249966  1
  Pt  Pt32  1  0.655706  0.853279  0.750302  1
  Pt  Pt33  1  0.155729  0.646701  0.749704  1
  Pt  Pt34  1  0.344602  0.147222  0.249981  1
  Pt  Pt35  1  0.844571  0.352797  0.250021  1
