# generated using pymatgen
data_Tm4Lu(GaSb)2
_symmetry_space_group_name_H-M   'P 1'
_cell_length_a   8.52313927
_cell_length_b   8.52313907
_cell_length_c   7.82400200
_cell_angle_alpha   90.00000000
_cell_angle_beta   90.00000000
_cell_angle_gamma   125.43305155
_symmetry_Int_Tables_number   1
_chemical_formula_structural   Tm4Lu(GaSb)2
_chemical_formula_sum   'Tm8 Lu2 Ga4 Sb4'
_cell_volume   463.10094439
_cell_formula_units_Z   2
loop_
 _symmetry_equiv_pos_site_id
 _symmetry_equiv_pos_as_xyz
  1  'x, y, z'
loop_
 _atom_site_type_symbol
 _atom_site_label
 _atom_site_symmetry_multiplicity
 _atom_site_fract_x
 _atom_site_fract_y
 _atom_site_fract_z
 _atom_site_occupancy
  Tm  Tm0  1  0.538314  0.795291  0.165958  1
  Tm  Tm1  1  0.295291  0.038314  0.334042  1
  Tm  Tm2  1  0.204709  0.461686  0.834042  1
  Tm  Tm3  1  0.961686  0.704709  0.665958  1
  Tm  Tm4  1  0.704709  0.961686  0.665958  1
  Tm  Tm5  1  0.461686  0.204709  0.834042  1
  Tm  Tm6  1  0.795291  0.538314  0.165958  1
  Tm  Tm7  1  0.038314  0.295291  0.334042  1
  Lu  Lu8  1  0.500000  0.500000  0.500000  1
  Lu  Lu9  1  0.000000  0.000000  0.000000  1
  Ga  Ga10  1  0.629160  0.629160  0.871146  1
  Ga  Ga11  1  0.129160  0.129160  0.628854  1
  Ga  Ga12  1  0.870840  0.870840  0.371146  1
  Ga  Ga13  1  0.370840  0.370840  0.128854  1
  Sb  Sb14  1  0.294619  0.705381  0.500000  1
  Sb  Sb15  1  0.205381  0.794619  0.000000  1
  Sb  Sb16  1  0.705381  0.294619  0.500000  1
  Sb  Sb17  1  0.794619  0.205381  0.000000  1
