# generated using pymatgen
data_Li4Sm3ThSi8
_symmetry_space_group_name_H-M   'P 1'
_cell_length_a   3.83848100
_cell_length_b   7.67571820
_cell_length_c   10.46840105
_cell_angle_alpha   89.97039006
_cell_angle_beta   90.00000000
_cell_angle_gamma   90.00000000
_symmetry_Int_Tables_number   1
_chemical_formula_structural   Li4Sm3ThSi8
_chemical_formula_sum   'Li4 Sm3 Th1 Si8'
_cell_volume   308.43148961
_cell_formula_units_Z   1
loop_
 _symmetry_equiv_pos_site_id
 _symmetry_equiv_pos_as_xyz
  1  'x, y, z'
loop_
 _atom_site_type_symbol
 _atom_site_label
 _atom_site_symmetry_multiplicity
 _atom_site_fract_x
 _atom_site_fract_y
 _atom_site_fract_z
 _atom_site_occupancy
  Li  Li0  1  0.250000  0.991312  0.390701  1
  Li  Li1  1  0.250000  0.494355  0.107643  1
  Li  Li2  1  0.750000  0.006462  0.609831  1
  Li  Li3  1  0.750000  0.506109  0.890382  1
  Sm  Sm4  1  0.250000  0.139645  0.864296  1
  Sm  Sm5  1  0.250000  0.638818  0.635473  1
  Sm  Sm6  1  0.750000  0.861569  0.135394  1
  Th  Th7  1  0.750000  0.358825  0.363921  1
  Si  Si8  1  0.250000  0.230991  0.569254  1
  Si  Si9  1  0.250000  0.729793  0.930481  1
  Si  Si10  1  0.750000  0.771484  0.430658  1
  Si  Si11  1  0.750000  0.270902  0.069765  1
  Si  Si12  1  0.250000  0.661630  0.319831  1
  Si  Si13  1  0.250000  0.161141  0.179996  1
  Si  Si14  1  0.750000  0.338094  0.681065  1
  Si  Si15  1  0.750000  0.838870  0.821307  1
