# generated using pymatgen
data_DyPaTe4
_symmetry_space_group_name_H-M   'P 1'
_cell_length_a   8.02164378
_cell_length_b   8.02164304
_cell_length_c   8.02164388
_cell_angle_alpha   149.68277742
_cell_angle_beta   135.33170514
_cell_angle_gamma   54.94010003
_symmetry_Int_Tables_number   1
_chemical_formula_structural   DyPaTe4
_chemical_formula_sum   'Dy1 Pa1 Te4'
_cell_volume   182.03198204
_cell_formula_units_Z   1
loop_
 _symmetry_equiv_pos_site_id
 _symmetry_equiv_pos_as_xyz
  1  'x, y, z'
loop_
 _atom_site_type_symbol
 _atom_site_label
 _atom_site_symmetry_multiplicity
 _atom_site_fract_x
 _atom_site_fract_y
 _atom_site_fract_z
 _atom_site_occupancy
  Dy  Dy0  1  0.136803  0.136803  0.000000  1
  Pa  Pa1  1  0.862952  0.862952  0.000000  1
  Te  Te2  1  0.704896  0.204896  0.500000  1
  Te  Te3  1  0.297332  0.797332  0.500000  1
  Te  Te4  1  0.752790  0.499008  0.253780  1
  Te  Te5  1  0.245228  0.499008  0.746220  1
