# generated using pymatgen
data_La4NdIr3
_symmetry_space_group_name_H-M   'P 1'
_cell_length_a   11.39749500
_cell_length_b   11.39749500
_cell_length_c   6.66899100
_cell_angle_alpha   90.00000000
_cell_angle_beta   90.00000000
_cell_angle_gamma   90.00000000
_symmetry_Int_Tables_number   1
_chemical_formula_structural   La4NdIr3
_chemical_formula_sum   'La16 Nd4 Ir12'
_cell_volume   866.32121946
_cell_formula_units_Z   4
loop_
 _symmetry_equiv_pos_site_id
 _symmetry_equiv_pos_as_xyz
  1  'x, y, z'
loop_
 _atom_site_type_symbol
 _atom_site_label
 _atom_site_symmetry_multiplicity
 _atom_site_fract_x
 _atom_site_fract_y
 _atom_site_fract_z
 _atom_site_occupancy
  La  La0  1  0.090416  0.291139  0.115065  1
  La  La1  1  0.791139  0.409584  0.115065  1
  La  La2  1  0.208861  0.590416  0.115065  1
  La  La3  1  0.909584  0.708861  0.115065  1
  La  La4  1  0.409584  0.791139  0.384935  1
  La  La5  1  0.590416  0.208861  0.384935  1
  La  La6  1  0.291139  0.090416  0.384935  1
  La  La7  1  0.708861  0.909584  0.384935  1
  La  La8  1  0.409584  0.208861  0.884935  1
  La  La9  1  0.708861  0.090416  0.884935  1
  La  La10  1  0.291139  0.909584  0.884935  1
  La  La11  1  0.590416  0.791139  0.884935  1
  La  La12  1  0.090416  0.708861  0.615065  1
  La  La13  1  0.909584  0.291139  0.615065  1
  La  La14  1  0.208861  0.409584  0.615065  1
  La  La15  1  0.791139  0.590416  0.615065  1
  Nd  Nd16  1  0.000000  0.000000  0.000000  1
  Nd  Nd17  1  0.500000  0.500000  0.000000  1
  Nd  Nd18  1  0.500000  0.500000  0.500000  1
  Nd  Nd19  1  0.000000  0.000000  0.500000  1
  Ir  Ir20  1  0.153024  0.846976  0.250000  1
  Ir  Ir21  1  0.346976  0.346976  0.250000  1
  Ir  Ir22  1  0.653024  0.653024  0.250000  1
  Ir  Ir23  1  0.846976  0.153024  0.250000  1
  Ir  Ir24  1  0.346976  0.653024  0.750000  1
  Ir  Ir25  1  0.153024  0.153024  0.750000  1
  Ir  Ir26  1  0.846976  0.846976  0.750000  1
  Ir  Ir27  1  0.653024  0.346976  0.750000  1
  Ir  Ir28  1  0.000000  0.500000  0.380305  1
  Ir  Ir29  1  0.500000  0.000000  0.119695  1
  Ir  Ir30  1  0.500000  0.000000  0.619695  1
  Ir  Ir31  1  0.000000  0.500000  0.880305  1
