# generated using pymatgen
data_Ba7SrNb3SbO18
_symmetry_space_group_name_H-M   'P 1'
_cell_length_a   6.17509400
_cell_length_b   6.17506394
_cell_length_c   16.20396800
_cell_angle_alpha   90.00068507
_cell_angle_beta   90.00004383
_cell_angle_gamma   120.00030143
_symmetry_Int_Tables_number   1
_chemical_formula_structural   Ba7SrNb3SbO18
_chemical_formula_sum   'Ba7 Sr1 Nb3 Sb1 O18'
_cell_volume   535.10094928
_cell_formula_units_Z   1
loop_
 _symmetry_equiv_pos_site_id
 _symmetry_equiv_pos_as_xyz
  1  'x, y, z'
loop_
 _atom_site_type_symbol
 _atom_site_label
 _atom_site_symmetry_multiplicity
 _atom_site_fract_x
 _atom_site_fract_y
 _atom_site_fract_z
 _atom_site_occupancy
  Ba  Ba0  1  0.999995  0.000006  0.740760  1
  Ba  Ba1  1  0.000008  0.999996  0.265077  1
  Ba  Ba2  1  0.666666  0.333333  0.610615  1
  Ba  Ba3  1  0.333340  0.666658  0.147041  1
  Ba  Ba4  1  0.333335  0.666667  0.395467  1
  Ba  Ba5  1  0.666663  0.333342  0.854347  1
  Ba  Ba6  1  0.000004  0.000003  0.998070  1
  Sr  Sr7  1  0.999998  0.999999  0.498763  1
  Nb  Nb8  1  0.333328  0.666673  0.836124  1
  Nb  Nb9  1  0.333332  0.666671  0.649120  1
  Nb  Nb10  1  0.666677  0.333330  0.159982  1
  Sb  Sb11  1  0.666662  0.333324  0.345924  1
  O  O12  1  0.530496  0.956711  0.741165  1
  O  O13  1  0.043293  0.573801  0.741165  1
  O  O14  1  0.426200  0.469511  0.741169  1
  O  O15  1  0.474287  0.046521  0.259421  1
  O  O16  1  0.953464  0.427745  0.259420  1
  O  O17  1  0.572251  0.525702  0.259417  1
  O  O18  1  0.113610  0.355317  0.594582  1
  O  O19  1  0.644679  0.758296  0.594582  1
  O  O20  1  0.241706  0.886388  0.594579  1
  O  O21  1  0.897338  0.643506  0.110602  1
  O  O22  1  0.356493  0.253800  0.110608  1
  O  O23  1  0.746197  0.102659  0.110612  1
  O  O24  1  0.884270  0.647267  0.405565  1
  O  O25  1  0.352727  0.237003  0.405566  1
  O  O26  1  0.762992  0.115727  0.405571  1
  O  O27  1  0.105544  0.356221  0.888233  1
  O  O28  1  0.643790  0.749357  0.888229  1
  O  O29  1  0.250655  0.894467  0.888224  1
