# generated using pymatgen
data_Mn18AlCr2(WC3)2
_symmetry_space_group_name_H-M   'P 1'
_cell_length_a   7.41699934
_cell_length_b   7.41704779
_cell_length_c   7.41569455
_cell_angle_alpha   60.12925719
_cell_angle_beta   60.13133853
_cell_angle_gamma   60.02279342
_symmetry_Int_Tables_number   1
_chemical_formula_structural   Mn18AlCr2(WC3)2
_chemical_formula_sum   'Mn18 Al1 Cr2 W2 C6'
_cell_volume   289.08377837
_cell_formula_units_Z   1
loop_
 _symmetry_equiv_pos_site_id
 _symmetry_equiv_pos_as_xyz
  1  'x, y, z'
loop_
 _atom_site_type_symbol
 _atom_site_label
 _atom_site_symmetry_multiplicity
 _atom_site_fract_x
 _atom_site_fract_y
 _atom_site_fract_z
 _atom_site_occupancy
  Mn  Mn0  1  0.614586  0.614592  0.153305  1
  Mn  Mn1  1  0.615952  0.153120  0.615522  1
  Mn  Mn2  1  0.153066  0.615921  0.615542  1
  Mn  Mn3  1  0.614660  0.614515  0.616132  1
  Mn  Mn4  1  0.384069  0.383886  0.847439  1
  Mn  Mn5  1  0.384536  0.846306  0.383836  1
  Mn  Mn6  1  0.846291  0.384510  0.383900  1
  Mn  Mn7  1  0.384419  0.384331  0.384413  1
  Mn  Mn8  1  0.000228  0.000399  0.342458  1
  Mn  Mn9  1  0.658682  0.999638  0.341967  1
  Mn  Mn10  1  0.999398  0.658646  0.342249  1
  Mn  Mn11  1  0.658233  0.341737  0.999220  1
  Mn  Mn12  1  0.000005  0.341949  0.000174  1
  Mn  Mn13  1  0.000578  0.342183  0.658317  1
  Mn  Mn14  1  0.342015  0.657962  0.999231  1
  Mn  Mn15  1  0.342220  0.000804  0.658074  1
  Mn  Mn16  1  0.342008  0.000136  0.000213  1
  Mn  Mn17  1  0.001509  0.001785  0.657109  1
  Al  Al18  1  0.002071  0.001921  0.000130  1
  Cr  Cr19  1  0.998310  0.658412  0.000497  1
  Cr  Cr20  1  0.658387  0.998352  0.000486  1
  W  W21  1  0.749937  0.749958  0.748801  1
  W  W22  1  0.249487  0.249519  0.251310  1
  C  C23  1  0.720502  0.720518  0.281397  1
  C  C24  1  0.275262  0.724625  0.275302  1
  C  C25  1  0.724626  0.275283  0.275290  1
  C  C26  1  0.276575  0.276612  0.723821  1
  C  C27  1  0.724706  0.277679  0.721939  1
  C  C28  1  0.277682  0.724701  0.721926  1
