# generated using pymatgen
data_TmPa3(ZnIr)4
_symmetry_space_group_name_H-M   'P 1'
_cell_length_a   3.95407700
_cell_length_b   7.00822892
_cell_length_c   8.31842514
_cell_angle_alpha   89.97655773
_cell_angle_beta   90.00000000
_cell_angle_gamma   90.00000000
_symmetry_Int_Tables_number   1
_chemical_formula_structural   TmPa3(ZnIr)4
_chemical_formula_sum   'Tm1 Pa3 Zn4 Ir4'
_cell_volume   230.51249845
_cell_formula_units_Z   1
loop_
 _symmetry_equiv_pos_site_id
 _symmetry_equiv_pos_as_xyz
  1  'x, y, z'
loop_
 _atom_site_type_symbol
 _atom_site_label
 _atom_site_symmetry_multiplicity
 _atom_site_fract_x
 _atom_site_fract_y
 _atom_site_fract_z
 _atom_site_occupancy
  Tm  Tm0  1  0.250000  0.055752  0.313450  1
  Pa  Pa1  1  0.250000  0.555473  0.189574  1
  Pa  Pa2  1  0.750000  0.449277  0.813700  1
  Pa  Pa3  1  0.750000  0.949237  0.681524  1
  Zn  Zn4  1  0.250000  0.618688  0.556113  1
  Zn  Zn5  1  0.750000  0.363980  0.440692  1
  Zn  Zn6  1  0.750000  0.885409  0.061143  1
  Zn  Zn7  1  0.250000  0.121578  0.946640  1
  Ir  Ir8  1  0.250000  0.733338  0.865957  1
  Ir  Ir9  1  0.750000  0.281897  0.123199  1
  Ir  Ir10  1  0.750000  0.753241  0.368418  1
  Ir  Ir11  1  0.250000  0.232128  0.639589  1
