# generated using pymatgen
data_Ho6Lu4Si6O
_symmetry_space_group_name_H-M   'P 1'
_cell_length_a   8.35610500
_cell_length_b   8.35610544
_cell_length_c   6.20044600
_cell_angle_alpha   90.00000000
_cell_angle_beta   90.00000000
_cell_angle_gamma   119.99999431
_symmetry_Int_Tables_number   1
_chemical_formula_structural   Ho6Lu4Si6O
_chemical_formula_sum   'Ho6 Lu4 Si6 O1'
_cell_volume   374.93966407
_cell_formula_units_Z   1
loop_
 _symmetry_equiv_pos_site_id
 _symmetry_equiv_pos_as_xyz
  1  'x, y, z'
loop_
 _atom_site_type_symbol
 _atom_site_label
 _atom_site_symmetry_multiplicity
 _atom_site_fract_x
 _atom_site_fract_y
 _atom_site_fract_z
 _atom_site_occupancy
  Ho  Ho0  1  0.000000  0.762930  0.258444  1
  Ho  Ho1  1  0.237070  0.237070  0.258444  1
  Ho  Ho2  1  0.762930  0.000000  0.258444  1
  Ho  Ho3  1  0.000000  0.237070  0.741556  1
  Ho  Ho4  1  0.762930  0.762930  0.741556  1
  Ho  Ho5  1  0.237070  0.000000  0.741556  1
  Lu  Lu6  1  0.333333  0.666667  0.500000  1
  Lu  Lu7  1  0.666667  0.333333  0.500000  1
  Lu  Lu8  1  0.666667  0.333333  0.000000  1
  Lu  Lu9  1  0.333333  0.666667  0.000000  1
  Si  Si10  1  0.000000  0.398753  0.249128  1
  Si  Si11  1  0.601247  0.601247  0.249128  1
  Si  Si12  1  0.398753  0.000000  0.249128  1
  Si  Si13  1  0.000000  0.601247  0.750872  1
  Si  Si14  1  0.398753  0.398753  0.750872  1
  Si  Si15  1  0.601247  0.000000  0.750872  1
  O  O16  1  0.000000  0.000000  0.500000  1
