# generated using pymatgen
data_Tm3Al9Si3Os3Pd
_symmetry_space_group_name_H-M   'P 1'
_cell_length_a   8.70125200
_cell_length_b   8.68267868
_cell_length_c   9.48943900
_cell_angle_alpha   90.00000000
_cell_angle_beta   90.00000000
_cell_angle_gamma   120.07078690
_symmetry_Int_Tables_number   1
_chemical_formula_structural   Tm3Al9Si3Os3Pd
_chemical_formula_sum   'Tm6 Al18 Si6 Os6 Pd2'
_cell_volume   620.43519165
_cell_formula_units_Z   2
loop_
 _symmetry_equiv_pos_site_id
 _symmetry_equiv_pos_as_xyz
  1  'x, y, z'
loop_
 _atom_site_type_symbol
 _atom_site_label
 _atom_site_symmetry_multiplicity
 _atom_site_fract_x
 _atom_site_fract_y
 _atom_site_fract_z
 _atom_site_occupancy
  Tm  Tm0  1  0.197028  0.394055  0.250000  1
  Tm  Tm1  1  0.802972  0.605945  0.750000  1
  Tm  Tm2  1  0.603420  0.804376  0.250000  1
  Tm  Tm3  1  0.396580  0.195624  0.750000  1
  Tm  Tm4  1  0.200958  0.804376  0.250000  1
  Tm  Tm5  1  0.799042  0.195624  0.750000  1
  Al  Al6  1  0.166674  0.333348  0.583245  1
  Al  Al7  1  0.833326  0.666652  0.416755  1
  Al  Al8  1  0.666772  0.833105  0.580432  1
  Al  Al9  1  0.833326  0.666652  0.083245  1
  Al  Al10  1  0.333228  0.166895  0.419568  1
  Al  Al11  1  0.166674  0.333348  0.916755  1
  Al  Al12  1  0.166332  0.833105  0.580432  1
  Al  Al13  1  0.333228  0.166895  0.080432  1
  Al  Al14  1  0.833668  0.166895  0.419568  1
  Al  Al15  1  0.666772  0.833105  0.919568  1
  Al  Al16  1  0.833668  0.166895  0.080432  1
  Al  Al17  1  0.166332  0.833105  0.919568  1
  Al  Al18  1  0.871490  0.433183  0.250000  1
  Al  Al19  1  0.128510  0.566817  0.750000  1
  Al  Al20  1  0.561695  0.433183  0.250000  1
  Al  Al21  1  0.438305  0.566817  0.750000  1
  Al  Al22  1  0.999284  0.998568  0.250000  1
  Al  Al23  1  0.000716  0.001432  0.750000  1
  Si  Si24  1  0.332069  0.664139  0.038866  1
  Si  Si25  1  0.667931  0.335861  0.961134  1
  Si  Si26  1  0.667931  0.335861  0.538866  1
  Si  Si27  1  0.332069  0.664139  0.461134  1
  Si  Si28  1  0.564116  0.128232  0.250000  1
  Si  Si29  1  0.435884  0.871768  0.750000  1
  Os  Os30  1  0.500000  0.000000  0.000000  1
  Os  Os31  1  0.000000  0.500000  0.000000  1
  Os  Os32  1  0.500000  0.000000  0.500000  1
  Os  Os33  1  0.500000  0.500000  0.000000  1
  Os  Os34  1  0.000000  0.500000  0.500000  1
  Os  Os35  1  0.500000  0.500000  0.500000  1
  Pd  Pd36  1  0.000000  0.000000  0.000000  1
  Pd  Pd37  1  0.000000  0.000000  0.500000  1
