# generated using pymatgen
data_Y20Ir9RuRh2
_symmetry_space_group_name_H-M   'P 1'
_cell_length_a   10.91431400
_cell_length_b   10.91431400
_cell_length_c   6.43342300
_cell_angle_alpha   90.00000000
_cell_angle_beta   90.00000000
_cell_angle_gamma   90.00000000
_symmetry_Int_Tables_number   1
_chemical_formula_structural   Y20Ir9RuRh2
_chemical_formula_sum   'Y20 Ir9 Ru1 Rh2'
_cell_volume   766.36382354
_cell_formula_units_Z   1
loop_
 _symmetry_equiv_pos_site_id
 _symmetry_equiv_pos_as_xyz
  1  'x, y, z'
loop_
 _atom_site_type_symbol
 _atom_site_label
 _atom_site_symmetry_multiplicity
 _atom_site_fract_x
 _atom_site_fract_y
 _atom_site_fract_z
 _atom_site_occupancy
  Y  Y0  1  0.292445  0.087389  0.379097  1
  Y  Y1  1  0.292972  0.912408  0.881920  1
  Y  Y2  1  0.707028  0.087592  0.881920  1
  Y  Y3  1  0.707555  0.912611  0.379097  1
  Y  Y4  1  0.587592  0.792972  0.881920  1
  Y  Y5  1  0.587389  0.207555  0.379097  1
  Y  Y6  1  0.412611  0.792445  0.379097  1
  Y  Y7  1  0.412408  0.207028  0.881920  1
  Y  Y8  1  0.209382  0.411152  0.620326  1
  Y  Y9  1  0.209325  0.588557  0.119939  1
  Y  Y10  1  0.790675  0.411443  0.119939  1
  Y  Y11  1  0.790618  0.588848  0.620326  1
  Y  Y12  1  0.911443  0.709325  0.119939  1
  Y  Y13  1  0.911152  0.290618  0.620326  1
  Y  Y14  1  0.088848  0.709382  0.620326  1
  Y  Y15  1  0.088557  0.290675  0.119939  1
  Y  Y16  1  0.000000  0.000000  0.498168  1
  Y  Y17  1  0.000000  0.000000  0.998177  1
  Y  Y18  1  0.500000  0.500000  0.998177  1
  Y  Y19  1  0.500000  0.500000  0.498168  1
  Ir  Ir20  1  0.847546  0.154712  0.249759  1
  Ir  Ir21  1  0.847529  0.845845  0.749705  1
  Ir  Ir22  1  0.152471  0.154155  0.749705  1
  Ir  Ir23  1  0.152454  0.845288  0.249759  1
  Ir  Ir24  1  0.654155  0.347529  0.749705  1
  Ir  Ir25  1  0.654712  0.652454  0.249759  1
  Ir  Ir26  1  0.345288  0.347546  0.249759  1
  Ir  Ir27  1  0.345845  0.652471  0.749705  1
  Ir  Ir28  1  0.500000  0.000000  0.626364  1
  Ru  Ru29  1  0.500000  0.000000  0.127887  1
  Rh  Rh30  1  0.000000  0.500000  0.874857  1
  Rh  Rh31  1  0.000000  0.500000  0.375221  1
