# generated using pymatgen
data_MgZrCrNi11P7
_symmetry_space_group_name_H-M   'P 1'
_cell_length_a   9.01333072
_cell_length_b   9.02747469
_cell_length_c   3.58017600
_cell_angle_alpha   90.00000000
_cell_angle_beta   90.00000000
_cell_angle_gamma   120.10772863
_symmetry_Int_Tables_number   1
_chemical_formula_structural   MgZrCrNi11P7
_chemical_formula_sum   'Mg1 Zr1 Cr1 Ni11 P7'
_cell_volume   252.00788186
_cell_formula_units_Z   1
loop_
 _symmetry_equiv_pos_site_id
 _symmetry_equiv_pos_as_xyz
  1  'x, y, z'
loop_
 _atom_site_type_symbol
 _atom_site_label
 _atom_site_symmetry_multiplicity
 _atom_site_fract_x
 _atom_site_fract_y
 _atom_site_fract_z
 _atom_site_occupancy
  Mg  Mg0  1  0.332205  0.666606  0.500000  1
  Zr  Zr1  1  0.002159  0.002764  0.000000  1
  Cr  Cr2  1  0.880825  0.457016  0.500000  1
  Ni  Ni3  1  0.292931  0.397212  0.000000  1
  Ni  Ni4  1  0.105040  0.708636  0.000000  1
  Ni  Ni5  1  0.537045  0.426994  0.500000  1
  Ni  Ni6  1  0.389956  0.176657  0.000000  1
  Ni  Ni7  1  0.788078  0.615982  0.000000  1
  Ni  Ni8  1  0.821112  0.206367  0.000000  1
  Ni  Ni9  1  0.233255  0.946624  0.500000  1
  Ni  Ni10  1  0.053217  0.284291  0.500000  1
  Ni  Ni11  1  0.717316  0.767806  0.500000  1
  Ni  Ni12  1  0.574781  0.116627  0.500000  1
  Ni  Ni13  1  0.603031  0.892664  0.000000  1
  P  P14  1  0.668995  0.335020  0.000000  1
  P  P15  1  0.075719  0.450927  0.000000  1
  P  P16  1  0.254403  0.212157  0.500000  1
  P  P17  1  0.786622  0.042255  0.500000  1
  P  P18  1  0.958854  0.744876  0.500000  1
  P  P19  1  0.546760  0.625193  0.000000  1
  P  P20  1  0.377692  0.923328  0.000000  1
