# generated using pymatgen
data_Ca3Sb4PbO14
_symmetry_space_group_name_H-M   'P 1'
_cell_length_a   7.48465913
_cell_length_b   7.48465962
_cell_length_c   7.42146832
_cell_angle_alpha   120.20127419
_cell_angle_beta   118.39795356
_cell_angle_gamma   91.69794586
_symmetry_Int_Tables_number   1
_chemical_formula_structural   Ca3Sb4PbO14
_chemical_formula_sum   'Ca3 Sb4 Pb1 O14'
_cell_volume   295.65389326
_cell_formula_units_Z   1
loop_
 _symmetry_equiv_pos_site_id
 _symmetry_equiv_pos_as_xyz
  1  'x, y, z'
loop_
 _atom_site_type_symbol
 _atom_site_label
 _atom_site_symmetry_multiplicity
 _atom_site_fract_x
 _atom_site_fract_y
 _atom_site_fract_z
 _atom_site_occupancy
  Ca  Ca0  1  0.000000  0.500000  0.000000  1
  Ca  Ca1  1  0.000000  0.000000  0.000000  1
  Ca  Ca2  1  0.500000  0.500000  0.000000  1
  Sb  Sb3  1  0.500000  0.000000  0.000000  1
  Sb  Sb4  1  0.500000  0.500000  0.500000  1
  Sb  Sb5  1  0.500000  0.000000  0.500000  1
  Sb  Sb6  1  0.000000  0.500000  0.500000  1
  Pb  Pb7  1  0.000000  0.000000  0.500000  1
  O  O8  1  0.446927  0.091363  0.773302  1
  O  O9  1  0.554677  0.327796  0.646016  1
  O  O10  1  0.181781  0.408662  0.353984  1
  O  O11  1  0.818060  0.173625  0.226698  1
  O  O12  1  0.553073  0.908638  0.226698  1
  O  O13  1  0.445323  0.672204  0.353984  1
  O  O14  1  0.818219  0.591338  0.646016  1
  O  O15  1  0.181940  0.826375  0.773302  1
  O  O16  1  0.597560  0.751364  0.848924  1
  O  O17  1  0.402440  0.248636  0.151076  1
  O  O18  1  0.182177  0.900290  0.260530  1
  O  O19  1  0.817823  0.099710  0.739470  1
  O  O20  1  0.860240  0.578353  0.260530  1
  O  O21  1  0.139760  0.421647  0.739470  1
