# generated using pymatgen
data_Y6ThAu10
_symmetry_space_group_name_H-M   'P 1'
_cell_length_a   8.81268547
_cell_length_b   8.81268617
_cell_length_c   10.43261455
_cell_angle_alpha   89.76264751
_cell_angle_beta   89.76264881
_cell_angle_gamma   107.42138571
_symmetry_Int_Tables_number   1
_chemical_formula_structural   Y6ThAu10
_chemical_formula_sum   'Y12 Th2 Au20'
_cell_volume   773.04723859
_cell_formula_units_Z   2
loop_
 _symmetry_equiv_pos_site_id
 _symmetry_equiv_pos_as_xyz
  1  'x, y, z'
loop_
 _atom_site_type_symbol
 _atom_site_label
 _atom_site_symmetry_multiplicity
 _atom_site_fract_x
 _atom_site_fract_y
 _atom_site_fract_z
 _atom_site_occupancy
  Y  Y0  1  0.691881  0.308119  0.000000  1
  Y  Y1  1  0.308119  0.691881  0.000000  1
  Y  Y2  1  0.803320  0.196680  0.500000  1
  Y  Y3  1  0.196680  0.803320  0.500000  1
  Y  Y4  1  0.000000  0.000000  0.000000  1
  Y  Y5  1  0.500000  0.500000  0.500000  1
  Y  Y6  1  0.004600  0.498715  0.249398  1
  Y  Y7  1  0.995400  0.501285  0.750602  1
  Y  Y8  1  0.501285  0.995400  0.750602  1
  Y  Y9  1  0.498715  0.004600  0.249398  1
  Y  Y10  1  0.313365  0.313365  0.187932  1
  Y  Y11  1  0.686635  0.686635  0.812068  1
  Th  Th12  1  0.187025  0.187025  0.688300  1
  Th  Th13  1  0.812975  0.812975  0.311700  1
  Au  Au14  1  0.857878  0.150333  0.208654  1
  Au  Au15  1  0.142122  0.849667  0.791346  1
  Au  Au16  1  0.638254  0.350707  0.709880  1
  Au  Au17  1  0.649293  0.361746  0.290120  1
  Au  Au18  1  0.361746  0.649293  0.290120  1
  Au  Au19  1  0.350707  0.638254  0.709880  1
  Au  Au20  1  0.849667  0.142122  0.791346  1
  Au  Au21  1  0.150333  0.857878  0.208654  1
  Au  Au22  1  0.938252  0.646370  0.005151  1
  Au  Au23  1  0.061748  0.353630  0.994849  1
  Au  Au24  1  0.560509  0.854954  0.502112  1
  Au  Au25  1  0.145046  0.439491  0.497888  1
  Au  Au26  1  0.439491  0.145046  0.497888  1
  Au  Au27  1  0.854954  0.560509  0.502112  1
  Au  Au28  1  0.353630  0.061748  0.994849  1
  Au  Au29  1  0.646370  0.938252  0.005151  1
  Au  Au30  1  0.104939  0.104939  0.397558  1
  Au  Au31  1  0.895061  0.895061  0.602442  1
  Au  Au32  1  0.395872  0.395872  0.900648  1
  Au  Au33  1  0.604128  0.604128  0.099352  1
