# generated using pymatgen
data_DyYB6(Ir2Rh)3
_symmetry_space_group_name_H-M   'P 1'
_cell_length_a   5.63647607
_cell_length_b   5.63027598
_cell_length_c   8.63008500
_cell_angle_alpha   90.00000000
_cell_angle_beta   90.00000000
_cell_angle_gamma   119.87156560
_symmetry_Int_Tables_number   1
_chemical_formula_structural   DyYB6(Ir2Rh)3
_chemical_formula_sum   'Dy1 Y1 B6 Ir6 Rh3'
_cell_volume   237.48908907
_cell_formula_units_Z   1
loop_
 _symmetry_equiv_pos_site_id
 _symmetry_equiv_pos_as_xyz
  1  'x, y, z'
loop_
 _atom_site_type_symbol
 _atom_site_label
 _atom_site_symmetry_multiplicity
 _atom_site_fract_x
 _atom_site_fract_y
 _atom_site_fract_z
 _atom_site_occupancy
  Dy  Dy0  1  0.000000  0.000000  0.298778  1
  Y  Y1  1  0.000000  0.000000  0.702033  1
  B  B2  1  0.667955  0.332775  0.999902  1
  B  B3  1  0.332045  0.667225  0.999902  1
  B  B4  1  0.666883  0.333148  0.667946  1
  B  B5  1  0.333117  0.666852  0.667946  1
  B  B6  1  0.332649  0.666271  0.331772  1
  B  B7  1  0.667351  0.333729  0.331772  1
  Ir  Ir8  1  0.500000  0.000000  0.836395  1
  Ir  Ir9  1  0.000000  0.500000  0.836121  1
  Ir  Ir10  1  0.000000  0.500000  0.164190  1
  Ir  Ir11  1  0.500000  0.500000  0.499691  1
  Ir  Ir12  1  0.500000  0.000000  0.498971  1
  Ir  Ir13  1  0.000000  0.500000  0.499938  1
  Rh  Rh14  1  0.500000  0.500000  0.836564  1
  Rh  Rh15  1  0.500000  0.500000  0.163832  1
  Rh  Rh16  1  0.500000  0.000000  0.164250  1
