# generated using pymatgen
data_Mn6Al2PbO16
_symmetry_space_group_name_H-M   'P 1'
_cell_length_a   5.79593040
_cell_length_b   7.09654633
_cell_length_c   7.11803487
_cell_angle_alpha   88.04777136
_cell_angle_beta   78.22682467
_cell_angle_gamma   78.30666409
_symmetry_Int_Tables_number   1
_chemical_formula_structural   Mn6Al2PbO16
_chemical_formula_sum   'Mn6 Al2 Pb1 O16'
_cell_volume   280.65710140
_cell_formula_units_Z   1
loop_
 _symmetry_equiv_pos_site_id
 _symmetry_equiv_pos_as_xyz
  1  'x, y, z'
loop_
 _atom_site_type_symbol
 _atom_site_label
 _atom_site_symmetry_multiplicity
 _atom_site_fract_x
 _atom_site_fract_y
 _atom_site_fract_z
 _atom_site_occupancy
  Mn  Mn0  1  0.171127  0.820410  0.509761  1
  Mn  Mn1  1  0.669317  0.819356  0.517991  1
  Mn  Mn2  1  0.338015  0.189628  0.475391  1
  Mn  Mn3  1  0.836031  0.189754  0.479389  1
  Mn  Mn4  1  0.426701  0.485269  0.824002  1
  Mn  Mn5  1  0.925624  0.488850  0.824135  1
  Al  Al6  1  0.578439  0.517816  0.187550  1
  Al  Al7  1  0.080074  0.503808  0.188797  1
  Pb  Pb8  1  0.033470  0.933618  0.990788  1
  O  O9  1  0.836421  0.645694  0.052173  1
  O  O10  1  0.324239  0.644317  0.052128  1
  O  O11  1  0.981429  0.708818  0.374202  1
  O  O12  1  0.483646  0.706739  0.379717  1
  O  O13  1  0.857865  0.956459  0.644457  1
  O  O14  1  0.349238  0.957498  0.643263  1
  O  O15  1  0.337809  0.380411  0.291834  1
  O  O16  1  0.834382  0.377607  0.290938  1
  O  O17  1  0.165108  0.639628  0.719535  1
  O  O18  1  0.667916  0.628904  0.712517  1
  O  O19  1  0.151906  0.047935  0.348536  1
  O  O20  1  0.656226  0.046278  0.353513  1
  O  O21  1  0.026196  0.297232  0.618299  1
  O  O22  1  0.523793  0.296248  0.618816  1
  O  O23  1  0.175406  0.355823  0.949484  1
  O  O24  1  0.676720  0.361900  0.952780  1
