# generated using pymatgen
data_LiTb11(In3Co)3
_symmetry_space_group_name_H-M   'P 1'
_cell_length_a   3.67045400
_cell_length_b   13.05382276
_cell_length_c   13.03655200
_cell_angle_alpha   111.25038188
_cell_angle_beta   90.00000000
_cell_angle_gamma   90.00000000
_symmetry_Int_Tables_number   1
_chemical_formula_structural   LiTb11(In3Co)3
_chemical_formula_sum   'Li1 Tb11 In9 Co3'
_cell_volume   582.15508083
_cell_formula_units_Z   1
loop_
 _symmetry_equiv_pos_site_id
 _symmetry_equiv_pos_as_xyz
  1  'x, y, z'
loop_
 _atom_site_type_symbol
 _atom_site_label
 _atom_site_symmetry_multiplicity
 _atom_site_fract_x
 _atom_site_fract_y
 _atom_site_fract_z
 _atom_site_occupancy
  Li  Li0  1  0.500000  0.451453  0.254959  1
  Tb  Tb1  1  0.000000  0.920312  0.582775  1
  Tb  Tb2  1  0.000000  0.077283  0.419984  1
  Tb  Tb3  1  0.000000  0.580808  0.914632  1
  Tb  Tb4  1  0.000000  0.414174  0.059981  1
  Tb  Tb5  1  0.000000  0.158264  0.836598  1
  Tb  Tb6  1  0.000000  0.839870  0.158577  1
  Tb  Tb7  1  0.000000  0.378715  0.625738  1
  Tb  Tb8  1  0.000000  0.648137  0.392847  1
  Tb  Tb9  1  0.000000  0.686158  0.688228  1
  Tb  Tb10  1  0.000000  0.297184  0.324494  1
  Tb  Tb11  1  0.000000  0.000155  0.999331  1
  In  In12  1  0.500000  0.161958  0.630673  1
  In  In13  1  0.500000  0.843332  0.366364  1
  In  In14  1  0.500000  0.627744  0.157648  1
  In  In15  1  0.500000  0.367534  0.834008  1
  In  In16  1  0.500000  0.920339  0.780210  1
  In  In17  1  0.500000  0.074405  0.219247  1
  In  In18  1  0.500000  0.780184  0.922122  1
  In  In19  1  0.500000  0.221868  0.078508  1
  In  In20  1  0.500000  0.501009  0.499071  1
  Co  Co21  1  0.500000  0.756389  0.553104  1
  Co  Co22  1  0.500000  0.240663  0.448966  1
  Co  Co23  1  0.500000  0.552060  0.751932  1
