# generated using pymatgen
data_Tm2LuAl3Ge2Rh
_symmetry_space_group_name_H-M   'P 1'
_cell_length_a   6.89120067
_cell_length_b   6.89119983
_cell_length_c   4.19801400
_cell_angle_alpha   90.00000000
_cell_angle_beta   90.00000000
_cell_angle_gamma   119.94956590
_symmetry_Int_Tables_number   1
_chemical_formula_structural   Tm2LuAl3Ge2Rh
_chemical_formula_sum   'Tm2 Lu1 Al3 Ge2 Rh1'
_cell_volume   172.73674920
_cell_formula_units_Z   1
loop_
 _symmetry_equiv_pos_site_id
 _symmetry_equiv_pos_as_xyz
  1  'x, y, z'
loop_
 _atom_site_type_symbol
 _atom_site_label
 _atom_site_symmetry_multiplicity
 _atom_site_fract_x
 _atom_site_fract_y
 _atom_site_fract_z
 _atom_site_occupancy
  Tm  Tm0  1  0.413048  0.000276  0.000000  1
  Tm  Tm1  1  0.000276  0.413048  0.000000  1
  Lu  Lu2  1  0.587688  0.587688  0.000000  1
  Al  Al3  1  0.767684  0.999910  0.500000  1
  Al  Al4  1  0.232421  0.232421  0.500000  1
  Al  Al5  1  0.999910  0.767684  0.500000  1
  Ge  Ge6  1  0.666361  0.333986  0.500000  1
  Ge  Ge7  1  0.333985  0.666360  0.500000  1
  Rh  Rh8  1  0.998629  0.998629  0.000000  1
