# generated using pymatgen
data_HoEr2In3Ag2Ir
_symmetry_space_group_name_H-M   'P 1'
_cell_length_a   7.84593852
_cell_length_b   7.85194495
_cell_length_c   3.82032400
_cell_angle_alpha   90.00000000
_cell_angle_beta   90.00000000
_cell_angle_gamma   120.01637257
_symmetry_Int_Tables_number   1
_chemical_formula_structural   HoEr2In3Ag2Ir
_chemical_formula_sum   'Ho1 Er2 In3 Ag2 Ir1'
_cell_volume   203.78926423
_cell_formula_units_Z   1
loop_
 _symmetry_equiv_pos_site_id
 _symmetry_equiv_pos_as_xyz
  1  'x, y, z'
loop_
 _atom_site_type_symbol
 _atom_site_label
 _atom_site_symmetry_multiplicity
 _atom_site_fract_x
 _atom_site_fract_y
 _atom_site_fract_z
 _atom_site_occupancy
  Ho  Ho0  1  0.032168  0.423024  0.000000  1
  Er  Er1  1  0.576489  0.609911  0.000000  1
  Er  Er2  1  0.390695  0.966750  0.000000  1
  In  In3  1  0.993727  0.729682  0.500000  1
  In  In4  1  0.270627  0.264101  0.500000  1
  In  In5  1  0.735993  0.006371  0.500000  1
  Ag  Ag6  1  0.000259  0.999539  0.000000  1
  Ag  Ag7  1  0.665793  0.333269  0.500000  1
  Ir  Ir8  1  0.334250  0.667353  0.500000  1
