# generated using pymatgen
data_Dy16Co3Hg4Ru
_symmetry_space_group_name_H-M   'P 1'
_cell_length_a   9.53333950
_cell_length_b   9.53334027
_cell_length_c   9.53333891
_cell_angle_alpha   59.69188867
_cell_angle_beta   59.69188282
_cell_angle_gamma   59.69188293
_symmetry_Int_Tables_number   1
_chemical_formula_structural   Dy16Co3Hg4Ru
_chemical_formula_sum   'Dy16 Co3 Hg4 Ru1'
_cell_volume   608.37282538
_cell_formula_units_Z   1
loop_
 _symmetry_equiv_pos_site_id
 _symmetry_equiv_pos_as_xyz
  1  'x, y, z'
loop_
 _atom_site_type_symbol
 _atom_site_label
 _atom_site_symmetry_multiplicity
 _atom_site_fract_x
 _atom_site_fract_y
 _atom_site_fract_z
 _atom_site_occupancy
  Dy  Dy0  1  0.596323  0.596323  0.596323  1
  Dy  Dy1  1  0.601178  0.601178  0.206854  1
  Dy  Dy2  1  0.601178  0.206854  0.601178  1
  Dy  Dy3  1  0.206854  0.601178  0.601178  1
  Dy  Dy4  1  0.056914  0.438447  0.438447  1
  Dy  Dy5  1  0.436564  0.060738  0.060738  1
  Dy  Dy6  1  0.438447  0.056914  0.438447  1
  Dy  Dy7  1  0.060738  0.436564  0.060738  1
  Dy  Dy8  1  0.438447  0.438447  0.056914  1
  Dy  Dy9  1  0.060738  0.060738  0.436564  1
  Dy  Dy10  1  0.188704  0.812350  0.812350  1
  Dy  Dy11  1  0.807514  0.190135  0.190135  1
  Dy  Dy12  1  0.812350  0.188704  0.812350  1
  Dy  Dy13  1  0.190135  0.807514  0.190135  1
  Dy  Dy14  1  0.812350  0.812350  0.188704  1
  Dy  Dy15  1  0.190135  0.190135  0.807514  1
  Co  Co16  1  0.392438  0.392438  0.828500  1
  Co  Co17  1  0.392438  0.828500  0.392438  1
  Co  Co18  1  0.828500  0.392438  0.392438  1
  Hg  Hg19  1  0.833480  0.833480  0.833480  1
  Hg  Hg20  1  0.833503  0.833503  0.496774  1
  Hg  Hg21  1  0.833503  0.496774  0.833503  1
  Hg  Hg22  1  0.496774  0.833503  0.833503  1
  Ru  Ru23  1  0.390797  0.390797  0.390797  1
