# generated using pymatgen
data_Th6ZnSn8Au5
_symmetry_space_group_name_H-M   'P 1'
_cell_length_a   8.73454248
_cell_length_b   8.73454313
_cell_length_c   8.73454389
_cell_angle_alpha   109.36197141
_cell_angle_beta   109.68993360
_cell_angle_gamma   109.36197419
_symmetry_Int_Tables_number   1
_chemical_formula_structural   Th6ZnSn8Au5
_chemical_formula_sum   'Th6 Zn1 Sn8 Au5'
_cell_volume   512.97236629
_cell_formula_units_Z   1
loop_
 _symmetry_equiv_pos_site_id
 _symmetry_equiv_pos_as_xyz
  1  'x, y, z'
loop_
 _atom_site_type_symbol
 _atom_site_label
 _atom_site_symmetry_multiplicity
 _atom_site_fract_x
 _atom_site_fract_y
 _atom_site_fract_z
 _atom_site_occupancy
  Th  Th0  1  0.875000  0.250000  0.125000  1
  Th  Th1  1  0.625000  0.750000  0.375000  1
  Th  Th2  1  0.247956  0.122938  0.875427  1
  Th  Th3  1  0.752488  0.377062  0.625017  1
  Th  Th4  1  0.124573  0.872529  0.247512  1
  Th  Th5  1  0.374983  0.627471  0.752044  1
  Zn  Zn6  1  0.375000  0.250000  0.625000  1
  Sn  Sn7  1  0.671379  0.494607  0.990981  1
  Sn  Sn8  1  0.496374  0.005393  0.676772  1
  Sn  Sn9  1  0.000529  0.681076  0.500956  1
  Sn  Sn10  1  0.819881  0.818924  0.819453  1
  Sn  Sn11  1  0.499044  0.999572  0.180119  1
  Sn  Sn12  1  0.180547  0.500428  0.999471  1
  Sn  Sn13  1  0.009019  0.180397  0.503626  1
  Sn  Sn14  1  0.323228  0.319603  0.328621  1
  Au  Au15  1  0.125000  0.750000  0.875000  1
  Au  Au16  1  0.250074  0.624260  0.375458  1
  Au  Au17  1  0.751198  0.875740  0.125814  1
  Au  Au18  1  0.624542  0.374616  0.248802  1
  Au  Au19  1  0.874186  0.125384  0.749926  1
