# generated using pymatgen
data_Tb12Ga11Ag12Sn
_symmetry_space_group_name_H-M   'P 1'
_cell_length_a   4.60317900
_cell_length_b   7.81243700
_cell_length_c   21.44956800
_cell_angle_alpha   89.99906126
_cell_angle_beta   90.00000000
_cell_angle_gamma   90.00000000
_symmetry_Int_Tables_number   1
_chemical_formula_structural   Tb12Ga11Ag12Sn
_chemical_formula_sum   'Tb12 Ga11 Ag12 Sn1'
_cell_volume   771.37034975
_cell_formula_units_Z   1
loop_
 _symmetry_equiv_pos_site_id
 _symmetry_equiv_pos_as_xyz
  1  'x, y, z'
loop_
 _atom_site_type_symbol
 _atom_site_label
 _atom_site_symmetry_multiplicity
 _atom_site_fract_x
 _atom_site_fract_y
 _atom_site_fract_z
 _atom_site_occupancy
  Tb  Tb0  1  0.250000  0.220445  0.999573  1
  Tb  Tb1  1  0.250000  0.282860  0.496892  1
  Tb  Tb2  1  0.750000  0.778380  0.000498  1
  Tb  Tb3  1  0.750000  0.715700  0.497438  1
  Tb  Tb4  1  0.250000  0.217623  0.332989  1
  Tb  Tb5  1  0.250000  0.279380  0.834855  1
  Tb  Tb6  1  0.750000  0.777083  0.668900  1
  Tb  Tb7  1  0.750000  0.719984  0.166125  1
  Tb  Tb8  1  0.250000  0.219537  0.670283  1
  Tb  Tb9  1  0.250000  0.285389  0.166172  1
  Tb  Tb10  1  0.750000  0.785874  0.331780  1
  Tb  Tb11  1  0.750000  0.716627  0.834711  1
  Ga  Ga12  1  0.250000  0.580989  0.733672  1
  Ga  Ga13  1  0.250000  0.919802  0.231481  1
  Ga  Ga14  1  0.750000  0.419357  0.268257  1
  Ga  Ga15  1  0.750000  0.080785  0.768627  1
  Ga  Ga16  1  0.250000  0.916361  0.101423  1
  Ga  Ga17  1  0.250000  0.582192  0.602366  1
  Ga  Ga18  1  0.750000  0.083396  0.898806  1
  Ga  Ga19  1  0.750000  0.415151  0.397351  1
  Ga  Ga20  1  0.250000  0.583705  0.927576  1
  Ga  Ga21  1  0.250000  0.913904  0.427739  1
  Ga  Ga22  1  0.750000  0.416457  0.071526  1
  Ag  Ag23  1  0.250000  0.913887  0.762509  1
  Ag  Ag24  1  0.250000  0.586575  0.261667  1
  Ag  Ag25  1  0.750000  0.087322  0.237559  1
  Ag  Ag26  1  0.750000  0.414345  0.739656  1
  Ag  Ag27  1  0.250000  0.916176  0.907314  1
  Ag  Ag28  1  0.250000  0.582789  0.404447  1
  Ag  Ag29  1  0.750000  0.083889  0.093162  1
  Ag  Ag30  1  0.750000  0.430162  0.595639  1
  Ag  Ag31  1  0.250000  0.902359  0.564375  1
  Ag  Ag32  1  0.250000  0.584256  0.066783  1
  Ag  Ag33  1  0.750000  0.082787  0.431017  1
  Ag  Ag34  1  0.750000  0.415808  0.933879  1
  Sn  Sn35  1  0.750000  0.088667  0.572953  1
