# generated using pymatgen
data_NdBe2CuRh2
_symmetry_space_group_name_H-M   'P 1'
_cell_length_a   5.31804719
_cell_length_b   5.59685162
_cell_length_c   3.43587900
_cell_angle_alpha   90.00000000
_cell_angle_beta   90.00000000
_cell_angle_gamma   121.74994664
_symmetry_Int_Tables_number   1
_chemical_formula_structural   NdBe2CuRh2
_chemical_formula_sum   'Nd1 Be2 Cu1 Rh2'
_cell_volume   86.96268584
_cell_formula_units_Z   1
loop_
 _symmetry_equiv_pos_site_id
 _symmetry_equiv_pos_as_xyz
  1  'x, y, z'
loop_
 _atom_site_type_symbol
 _atom_site_label
 _atom_site_symmetry_multiplicity
 _atom_site_fract_x
 _atom_site_fract_y
 _atom_site_fract_z
 _atom_site_occupancy
  Nd  Nd0  1  0.000000  0.000000  0.000000  1
  Be  Be1  1  0.664568  0.332283  0.000000  1
  Be  Be2  1  0.335432  0.667717  0.000000  1
  Cu  Cu3  1  0.000000  0.500000  0.500000  1
  Rh  Rh4  1  0.500000  0.000000  0.500000  1
  Rh  Rh5  1  0.500000  0.500000  0.500000  1
