# generated using pymatgen
data_Sc5In6CuRh12
_symmetry_space_group_name_H-M   'P 1'
_cell_length_a   4.56149200
_cell_length_b   6.36750400
_cell_length_c   13.65131101
_cell_angle_alpha   90.00000000
_cell_angle_beta   89.99547282
_cell_angle_gamma   90.00000000
_symmetry_Int_Tables_number   1
_chemical_formula_structural   Sc5In6CuRh12
_chemical_formula_sum   'Sc5 In6 Cu1 Rh12'
_cell_volume   396.50667608
_cell_formula_units_Z   1
loop_
 _symmetry_equiv_pos_site_id
 _symmetry_equiv_pos_as_xyz
  1  'x, y, z'
loop_
 _atom_site_type_symbol
 _atom_site_label
 _atom_site_symmetry_multiplicity
 _atom_site_fract_x
 _atom_site_fract_y
 _atom_site_fract_z
 _atom_site_occupancy
  Sc  Sc0  1  0.499985  0.000000  0.164035  1
  Sc  Sc1  1  0.999983  0.500001  0.332255  1
  Sc  Sc2  1  0.500000  0.000000  0.500000  1
  Sc  Sc3  1  0.000017  0.500001  0.667744  1
  Sc  Sc4  1  0.500014  0.000000  0.835965  1
  In  In5  1  0.000000  0.000000  0.000000  1
  In  In6  1  0.500017  0.500001  0.164102  1
  In  In7  1  0.000025  0.000000  0.329689  1
  In  In8  1  0.500000  0.500001  0.500000  1
  In  In9  1  0.999975  0.000000  0.670311  1
  In  In10  1  0.499982  0.500001  0.835898  1
  Cu  Cu11  1  0.000000  0.500001  0.000000  1
  Rh  Rh12  1  0.499999  0.254614  0.000000  1
  Rh  Rh13  1  0.499999  0.745386  0.000000  1
  Rh  Rh14  1  0.999960  0.254688  0.163895  1
  Rh  Rh15  1  0.999960  0.745312  0.163895  1
  Rh  Rh16  1  0.499974  0.250871  0.332578  1
  Rh  Rh17  1  0.499974  0.749129  0.332578  1
  Rh  Rh18  1  0.000000  0.247481  0.500000  1
  Rh  Rh19  1  0.000000  0.752519  0.500000  1
  Rh  Rh20  1  0.500026  0.250871  0.667422  1
  Rh  Rh21  1  0.500026  0.749129  0.667422  1
  Rh  Rh22  1  0.000040  0.254688  0.836104  1
  Rh  Rh23  1  0.000040  0.745312  0.836104  1
