# generated using pymatgen
data_PrBe12Cu
_symmetry_space_group_name_H-M   'P 1'
_cell_length_a   7.38370833
_cell_length_b   7.43164673
_cell_length_c   7.36411633
_cell_angle_alpha   59.87121592
_cell_angle_beta   59.85882434
_cell_angle_gamma   59.61027464
_symmetry_Int_Tables_number   1
_chemical_formula_structural   PrBe12Cu
_chemical_formula_sum   'Pr2 Be24 Cu2'
_cell_volume   284.30589065
_cell_formula_units_Z   2
loop_
 _symmetry_equiv_pos_site_id
 _symmetry_equiv_pos_as_xyz
  1  'x, y, z'
loop_
 _atom_site_type_symbol
 _atom_site_label
 _atom_site_symmetry_multiplicity
 _atom_site_fract_x
 _atom_site_fract_y
 _atom_site_fract_z
 _atom_site_occupancy
  Pr  Pr0  1  0.252814  0.247186  0.252814  1
  Pr  Pr1  1  0.747186  0.752814  0.747186  1
  Be  Be2  1  0.500000  0.500000  0.500000  1
  Be  Be3  1  0.000000  0.000000  0.000000  1
  Be  Be4  1  0.566077  0.789325  0.433923  1
  Be  Be5  1  0.433923  0.210675  0.566077  1
  Be  Be6  1  0.287460  0.936081  0.712540  1
  Be  Be7  1  0.712540  0.063919  0.287460  1
  Be  Be8  1  0.931320  0.277771  0.068680  1
  Be  Be9  1  0.068680  0.722229  0.931320  1
  Be  Be10  1  0.210584  0.796089  0.559049  1
  Be  Be11  1  0.789416  0.203911  0.440951  1
  Be  Be12  1  0.440951  0.565722  0.789416  1
  Be  Be13  1  0.559049  0.434278  0.210584  1
  Be  Be14  1  0.713950  0.284421  0.935844  1
  Be  Be15  1  0.286050  0.715579  0.064156  1
  Be  Be16  1  0.064156  0.934215  0.286050  1
  Be  Be17  1  0.935844  0.065785  0.713950  1
  Be  Be18  1  0.567190  0.208527  0.789357  1
  Be  Be19  1  0.432810  0.791473  0.210643  1
  Be  Be20  1  0.789357  0.434925  0.567190  1
  Be  Be21  1  0.210643  0.565075  0.432810  1
  Be  Be22  1  0.936785  0.714708  0.286929  1
  Be  Be23  1  0.063215  0.285292  0.713071  1
  Be  Be24  1  0.286929  0.061578  0.936785  1
  Be  Be25  1  0.713071  0.938422  0.063215  1
  Cu  Cu26  1  0.800138  0.558452  0.199862  1
  Cu  Cu27  1  0.199862  0.441548  0.800138  1
