# generated using pymatgen
data_Dy7Lu3(In2Pt)4
_symmetry_space_group_name_H-M   'P 1'
_cell_length_a   3.62370800
_cell_length_b   8.13612256
_cell_length_c   18.13191948
_cell_angle_alpha   89.92898379
_cell_angle_beta   90.00000000
_cell_angle_gamma   90.00000000
_symmetry_Int_Tables_number   1
_chemical_formula_structural   Dy7Lu3(In2Pt)4
_chemical_formula_sum   'Dy7 Lu3 In8 Pt4'
_cell_volume   534.58174607
_cell_formula_units_Z   1
loop_
 _symmetry_equiv_pos_site_id
 _symmetry_equiv_pos_as_xyz
  1  'x, y, z'
loop_
 _atom_site_type_symbol
 _atom_site_label
 _atom_site_symmetry_multiplicity
 _atom_site_fract_x
 _atom_site_fract_y
 _atom_site_fract_z
 _atom_site_occupancy
  Dy  Dy0  1  0.000000  0.617572  0.084339  1
  Dy  Dy1  1  0.000000  0.243167  0.220062  1
  Dy  Dy2  1  0.000000  0.757628  0.780265  1
  Dy  Dy3  1  0.000000  0.257288  0.719297  1
  Dy  Dy4  1  0.000000  0.742294  0.281011  1
  Dy  Dy5  1  0.000000  0.999663  0.999574  1
  Dy  Dy6  1  0.000000  0.500214  0.500139  1
  Lu  Lu7  1  0.000000  0.116811  0.414226  1
  Lu  Lu8  1  0.000000  0.883302  0.585982  1
  Lu  Lu9  1  0.000000  0.383224  0.913794  1
  In  In10  1  0.500000  0.420403  0.351732  1
  In  In11  1  0.500000  0.579302  0.648864  1
  In  In12  1  0.500000  0.078904  0.851073  1
  In  In13  1  0.500000  0.923573  0.149582  1
  In  In14  1  0.500000  0.293315  0.064956  1
  In  In15  1  0.500000  0.704480  0.933350  1
  In  In16  1  0.500000  0.202870  0.564738  1
  In  In17  1  0.500000  0.797242  0.435454  1
  Pt  Pt18  1  0.500000  0.026550  0.305328  1
  Pt  Pt19  1  0.500000  0.973594  0.694822  1
  Pt  Pt20  1  0.500000  0.473040  0.804689  1
  Pt  Pt21  1  0.500000  0.525565  0.196722  1
