# generated using pymatgen
data_Be8Al3Cr
_symmetry_space_group_name_H-M   'P 1'
_cell_length_a   4.40975400
_cell_length_b   4.40975401
_cell_length_c   7.05856100
_cell_angle_alpha   90.00000000
_cell_angle_beta   90.00000000
_cell_angle_gamma   119.99999992
_symmetry_Int_Tables_number   1
_chemical_formula_structural   Be8Al3Cr
_chemical_formula_sum   'Be8 Al3 Cr1'
_cell_volume   118.87089454
_cell_formula_units_Z   1
loop_
 _symmetry_equiv_pos_site_id
 _symmetry_equiv_pos_as_xyz
  1  'x, y, z'
loop_
 _atom_site_type_symbol
 _atom_site_label
 _atom_site_symmetry_multiplicity
 _atom_site_fract_x
 _atom_site_fract_y
 _atom_site_fract_z
 _atom_site_occupancy
  Be  Be0  1  0.165352  0.330704  0.744041  1
  Be  Be1  1  0.165352  0.834648  0.744041  1
  Be  Be2  1  0.340749  0.170375  0.257119  1
  Be  Be3  1  0.829625  0.659251  0.257119  1
  Be  Be4  1  0.000000  0.000000  0.009327  1
  Be  Be5  1  0.669296  0.834648  0.744041  1
  Be  Be6  1  0.829625  0.170375  0.257119  1
  Be  Be7  1  0.000000  0.000000  0.503904  1
  Al  Al8  1  0.333333  0.666667  0.453112  1
  Al  Al9  1  0.666667  0.333333  0.915083  1
  Al  Al10  1  0.333333  0.666667  0.061753  1
  Cr  Cr11  1  0.666667  0.333333  0.553343  1
