# generated using pymatgen
data_Ho3Si2GeRu2
_symmetry_space_group_name_H-M   'P 1'
_cell_length_a   5.74043482
_cell_length_b   5.74043508
_cell_length_c   13.87206000
_cell_angle_alpha   90.00000000
_cell_angle_beta   90.00000000
_cell_angle_gamma   137.39657034
_symmetry_Int_Tables_number   1
_chemical_formula_structural   Ho3Si2GeRu2
_chemical_formula_sum   'Ho6 Si4 Ge2 Ru4'
_cell_volume   309.43392303
_cell_formula_units_Z   2
loop_
 _symmetry_equiv_pos_site_id
 _symmetry_equiv_pos_as_xyz
  1  'x, y, z'
loop_
 _atom_site_type_symbol
 _atom_site_label
 _atom_site_symmetry_multiplicity
 _atom_site_fract_x
 _atom_site_fract_y
 _atom_site_fract_z
 _atom_site_occupancy
  Ho  Ho0  1  0.855248  0.144752  0.250000  1
  Ho  Ho1  1  0.144752  0.855248  0.750000  1
  Ho  Ho2  1  0.423683  0.576317  0.887425  1
  Ho  Ho3  1  0.576317  0.423683  0.112575  1
  Ho  Ho4  1  0.576317  0.423683  0.387425  1
  Ho  Ho5  1  0.423683  0.576317  0.612575  1
  Si  Si6  1  0.117304  0.882696  0.539200  1
  Si  Si7  1  0.882696  0.117304  0.460800  1
  Si  Si8  1  0.882696  0.117304  0.039200  1
  Si  Si9  1  0.117304  0.882696  0.960800  1
  Ge  Ge10  1  0.162554  0.837446  0.250000  1
  Ge  Ge11  1  0.837446  0.162554  0.750000  1
  Ru  Ru12  1  0.712018  0.287982  0.579484  1
  Ru  Ru13  1  0.287982  0.712018  0.420516  1
  Ru  Ru14  1  0.287982  0.712018  0.079484  1
  Ru  Ru15  1  0.712018  0.287982  0.920516  1
