# generated using pymatgen
data_Ho2ErCo7(P3Ru)2
_symmetry_space_group_name_H-M   'P 1'
_cell_length_a   3.73618800
_cell_length_b   10.56020200
_cell_length_c   12.30908600
_cell_angle_alpha   90.00000000
_cell_angle_beta   90.00000000
_cell_angle_gamma   90.00000000
_symmetry_Int_Tables_number   1
_chemical_formula_structural   Ho2ErCo7(P3Ru)2
_chemical_formula_sum   'Ho4 Er2 Co14 P12 Ru4'
_cell_volume   485.65375710
_cell_formula_units_Z   2
loop_
 _symmetry_equiv_pos_site_id
 _symmetry_equiv_pos_as_xyz
  1  'x, y, z'
loop_
 _atom_site_type_symbol
 _atom_site_label
 _atom_site_symmetry_multiplicity
 _atom_site_fract_x
 _atom_site_fract_y
 _atom_site_fract_z
 _atom_site_occupancy
  Ho  Ho0  1  0.000000  0.500000  0.528692  1
  Ho  Ho1  1  0.500000  0.000000  0.478318  1
  Ho  Ho2  1  0.000000  0.683122  0.795786  1
  Ho  Ho3  1  0.000000  0.316878  0.795786  1
  Er  Er4  1  0.500000  0.818250  0.202601  1
  Er  Er5  1  0.500000  0.181750  0.202601  1
  Co  Co6  1  0.000000  0.500000  0.985699  1
  Co  Co7  1  0.500000  0.000000  0.014151  1
  Co  Co8  1  0.000000  0.200031  0.573397  1
  Co  Co9  1  0.000000  0.799969  0.573397  1
  Co  Co10  1  0.500000  0.879668  0.710573  1
  Co  Co11  1  0.500000  0.120332  0.710573  1
  Co  Co12  1  0.000000  0.621406  0.286753  1
  Co  Co13  1  0.000000  0.378594  0.286753  1
  Co  Co14  1  0.500000  0.332140  0.990148  1
  Co  Co15  1  0.500000  0.667860  0.990148  1
  Co  Co16  1  0.000000  0.167204  0.009255  1
  Co  Co17  1  0.000000  0.832796  0.009255  1
  Co  Co18  1  0.500000  0.500000  0.704780  1
  Co  Co19  1  0.000000  0.000000  0.294292  1
  P  P20  1  0.500000  0.309712  0.621316  1
  P  P21  1  0.500000  0.690288  0.621316  1
  P  P22  1  0.000000  0.183292  0.381303  1
  P  P23  1  0.000000  0.816708  0.381303  1
  P  P24  1  0.500000  0.500000  0.882045  1
  P  P25  1  0.000000  0.000000  0.117515  1
  P  P26  1  0.500000  0.846487  0.893814  1
  P  P27  1  0.500000  0.153513  0.893814  1
  P  P28  1  0.000000  0.654102  0.105009  1
  P  P29  1  0.000000  0.345898  0.105009  1
  P  P30  1  0.500000  0.500000  0.345399  1
  P  P31  1  0.000000  0.000000  0.651119  1
  Ru  Ru32  1  0.500000  0.295745  0.430140  1
  Ru  Ru33  1  0.500000  0.704255  0.430140  1
  Ru  Ru34  1  0.500000  0.500000  0.156642  1
  Ru  Ru35  1  0.000000  0.000000  0.841159  1
