# generated using pymatgen
data_Rb2Na2Ta5NbBr18
_symmetry_space_group_name_H-M   'P 1'
_cell_length_a   10.27888165
_cell_length_b   10.22997659
_cell_length_c   10.23916660
_cell_angle_alpha   79.30627099
_cell_angle_beta   76.84728818
_cell_angle_gamma   118.27829275
_symmetry_Int_Tables_number   1
_chemical_formula_structural   Rb2Na2Ta5NbBr18
_chemical_formula_sum   'Rb2 Na2 Ta5 Nb1 Br18'
_cell_volume   867.60299214
_cell_formula_units_Z   1
loop_
 _symmetry_equiv_pos_site_id
 _symmetry_equiv_pos_as_xyz
  1  'x, y, z'
loop_
 _atom_site_type_symbol
 _atom_site_label
 _atom_site_symmetry_multiplicity
 _atom_site_fract_x
 _atom_site_fract_y
 _atom_site_fract_z
 _atom_site_occupancy
  Rb  Rb0  1  0.958596  0.268415  0.668404  1
  Rb  Rb1  1  0.045419  0.732069  0.329600  1
  Na  Na2  1  0.711612  0.042663  0.358710  1
  Na  Na3  1  0.291572  0.958073  0.639654  1
  Ta  Ta4  1  0.609467  0.628458  0.120091  1
  Ta  Ta5  1  0.389658  0.371405  0.880355  1
  Ta  Ta6  1  0.466748  0.298794  0.133426  1
  Ta  Ta7  1  0.532395  0.701166  0.867013  1
  Ta  Ta8  1  0.716645  0.553942  0.869791  1
  Nb  Nb9  1  0.279969  0.445355  0.131983  1
  Br  Br10  1  0.727655  0.315239  0.002327  1
  Br  Br11  1  0.272630  0.686955  0.996412  1
  Br  Br12  1  0.421592  0.017710  0.324842  1
  Br  Br13  1  0.580774  0.982911  0.674224  1
  Br  Br14  1  0.021932  0.634132  0.684864  1
  Br  Br15  1  0.973747  0.364892  0.317688  1
  Br  Br16  1  0.324365  0.091125  0.016796  1
  Br  Br17  1  0.674953  0.908830  0.983719  1
  Br  Br18  1  0.905048  0.723516  0.986813  1
  Br  Br19  1  0.093769  0.275596  0.011665  1
  Br  Br20  1  0.761777  0.805559  0.282298  1
  Br  Br21  1  0.240567  0.194319  0.716782  1
  Br  Br22  1  0.812043  0.819050  0.673182  1
  Br  Br23  1  0.187240  0.178874  0.327853  1
  Br  Br24  1  0.593272  0.408623  0.312549  1
  Br  Br25  1  0.405692  0.591218  0.687799  1
  Br  Br26  1  0.634986  0.409922  0.688725  1
  Br  Br27  1  0.365876  0.591189  0.312436  1
