# generated using pymatgen
data_Sc4MnB4SbRh10
_symmetry_space_group_name_H-M   'P 1'
_cell_length_a   9.33933705
_cell_length_b   9.33244405
_cell_length_c   3.17908900
_cell_angle_alpha   90.00000000
_cell_angle_beta   90.00000000
_cell_angle_gamma   89.98863399
_symmetry_Int_Tables_number   1
_chemical_formula_structural   Sc4MnB4SbRh10
_chemical_formula_sum   'Sc4 Mn1 B4 Sb1 Rh10'
_cell_volume   277.08570534
_cell_formula_units_Z   1
loop_
 _symmetry_equiv_pos_site_id
 _symmetry_equiv_pos_as_xyz
  1  'x, y, z'
loop_
 _atom_site_type_symbol
 _atom_site_label
 _atom_site_symmetry_multiplicity
 _atom_site_fract_x
 _atom_site_fract_y
 _atom_site_fract_z
 _atom_site_occupancy
  Sc  Sc0  1  0.670831  0.178297  0.000000  1
  Sc  Sc1  1  0.178267  0.329209  0.000000  1
  Sc  Sc2  1  0.821733  0.670790  0.000000  1
  Sc  Sc3  1  0.329168  0.821703  0.000000  1
  Mn  Mn4  1  0.500000  0.500000  0.000000  1
  B  B5  1  0.381653  0.126241  0.000000  1
  B  B6  1  0.873773  0.381686  0.000000  1
  B  B7  1  0.126227  0.618315  0.000000  1
  B  B8  1  0.618348  0.873759  0.000000  1
  Sb  Sb9  1  0.000000  0.000000  0.000000  1
  Rh  Rh10  1  0.500000  0.000000  0.500000  1
  Rh  Rh11  1  0.221284  0.073834  0.500000  1
  Rh  Rh12  1  0.926196  0.221226  0.500000  1
  Rh  Rh13  1  0.429128  0.282261  0.500000  1
  Rh  Rh14  1  0.717751  0.429137  0.500000  1
  Rh  Rh15  1  0.000000  0.500000  0.500000  1
  Rh  Rh16  1  0.282250  0.570862  0.500000  1
  Rh  Rh17  1  0.570871  0.717740  0.500000  1
  Rh  Rh18  1  0.073805  0.778774  0.500000  1
  Rh  Rh19  1  0.778716  0.926167  0.500000  1
