# generated using pymatgen
data_PrSm5FeBr10
_symmetry_space_group_name_H-M   'P 1'
_cell_length_a   7.55267297
_cell_length_b   9.18682126
_cell_length_c   9.54827218
_cell_angle_alpha   108.47012785
_cell_angle_beta   97.04676680
_cell_angle_gamma   105.20936202
_symmetry_Int_Tables_number   1
_chemical_formula_structural   PrSm5FeBr10
_chemical_formula_sum   'Pr1 Sm5 Fe1 Br10'
_cell_volume   590.84458693
_cell_formula_units_Z   1
loop_
 _symmetry_equiv_pos_site_id
 _symmetry_equiv_pos_as_xyz
  1  'x, y, z'
loop_
 _atom_site_type_symbol
 _atom_site_label
 _atom_site_symmetry_multiplicity
 _atom_site_fract_x
 _atom_site_fract_y
 _atom_site_fract_z
 _atom_site_occupancy
  Pr  Pr0  1  0.969236  0.277170  0.084061  1
  Sm  Sm1  1  0.126685  0.049969  0.752370  1
  Sm  Sm2  1  0.634453  0.859800  0.816542  1
  Sm  Sm3  1  0.871140  0.949957  0.246998  1
  Sm  Sm4  1  0.031466  0.727087  0.917274  1
  Sm  Sm5  1  0.365005  0.138232  0.183176  1
  Fe  Fe6  1  0.998844  0.002213  0.000605  1
  Br  Br7  1  0.204684  0.742522  0.654783  1
  Br  Br8  1  0.654848  0.543901  0.729136  1
  Br  Br9  1  0.248616  0.082233  0.452053  1
  Br  Br10  1  0.789516  0.254650  0.349939  1
  Br  Br11  1  0.545834  0.177871  0.917416  1
  Br  Br12  1  0.749290  0.914607  0.546934  1
  Br  Br13  1  0.911677  0.631485  0.168759  1
  Br  Br14  1  0.357814  0.457856  0.274743  1
  Br  Br15  1  0.092269  0.371679  0.825830  1
  Br  Br16  1  0.448623  0.818769  0.079379  1
