# generated using pymatgen
data_NdDy(ScIr)2
_symmetry_space_group_name_H-M   'P 1'
_cell_length_a   7.18298500
_cell_length_b   4.29401900
_cell_length_c   8.83613900
_cell_angle_alpha   90.00000000
_cell_angle_beta   90.00000000
_cell_angle_gamma   90.00000000
_symmetry_Int_Tables_number   1
_chemical_formula_structural   NdDy(ScIr)2
_chemical_formula_sum   'Nd2 Dy2 Sc4 Ir4'
_cell_volume   272.54075855
_cell_formula_units_Z   2
loop_
 _symmetry_equiv_pos_site_id
 _symmetry_equiv_pos_as_xyz
  1  'x, y, z'
loop_
 _atom_site_type_symbol
 _atom_site_label
 _atom_site_symmetry_multiplicity
 _atom_site_fract_x
 _atom_site_fract_y
 _atom_site_fract_z
 _atom_site_occupancy
  Nd  Nd0  1  0.016039  0.750000  0.824804  1
  Nd  Nd1  1  0.516039  0.750000  0.675196  1
  Dy  Dy2  1  0.979164  0.250000  0.176421  1
  Dy  Dy3  1  0.479164  0.250000  0.323579  1
  Sc  Sc4  1  0.862899  0.250000  0.557994  1
  Sc  Sc5  1  0.362899  0.250000  0.942006  1
  Sc  Sc6  1  0.140593  0.750000  0.429437  1
  Sc  Sc7  1  0.640593  0.750000  0.070563  1
  Ir  Ir8  1  0.736881  0.250000  0.903029  1
  Ir  Ir9  1  0.236881  0.250000  0.596971  1
  Ir  Ir10  1  0.264425  0.750000  0.109758  1
  Ir  Ir11  1  0.764425  0.750000  0.390242  1
