# generated using pymatgen
data_Ho4Al24Pd8Au
_symmetry_space_group_name_H-M   'P 1'
_cell_length_a   7.56225913
_cell_length_b   7.58807046
_cell_length_c   13.15828516
_cell_angle_alpha   84.52448354
_cell_angle_beta   78.98878825
_cell_angle_gamma   59.89802828
_symmetry_Int_Tables_number   1
_chemical_formula_structural   Ho4Al24Pd8Au
_chemical_formula_sum   'Ho4 Al24 Pd8 Au1'
_cell_volume   641.20318681
_cell_formula_units_Z   1
loop_
 _symmetry_equiv_pos_site_id
 _symmetry_equiv_pos_as_xyz
  1  'x, y, z'
loop_
 _atom_site_type_symbol
 _atom_site_label
 _atom_site_symmetry_multiplicity
 _atom_site_fract_x
 _atom_site_fract_y
 _atom_site_fract_z
 _atom_site_occupancy
  Ho  Ho0  1  0.390941  0.170236  0.809133  1
  Ho  Ho1  1  0.606497  0.831578  0.191347  1
  Ho  Ho2  1  0.735613  0.497831  0.808934  1
  Ho  Ho3  1  0.266800  0.501576  0.191171  1
  Al  Al4  1  0.682429  0.834781  0.945202  1
  Al  Al5  1  0.315787  0.166276  0.056019  1
  Al  Al6  1  0.145908  0.839033  0.560029  1
  Al  Al7  1  0.855486  0.166247  0.435168  1
  Al  Al8  1  0.488667  0.159423  0.558030  1
  Al  Al9  1  0.520221  0.833366  0.438798  1
  Al  Al10  1  0.218617  0.164795  0.327924  1
  Al  Al11  1  0.776639  0.839633  0.674365  1
  Al  Al12  1  0.440098  0.507254  0.674700  1
  Al  Al13  1  0.563498  0.493557  0.327600  1
  Al  Al14  1  0.108725  0.152754  0.672179  1
  Al  Al15  1  0.890358  0.839626  0.329132  1
  Al  Al16  1  0.354431  0.498896  0.944714  1
  Al  Al17  1  0.647123  0.500854  0.055994  1
  Al  Al18  1  0.014815  0.167473  0.955777  1
  Al  Al19  1  0.984234  0.832071  0.046436  1
  Al  Al20  1  0.188191  0.499559  0.436468  1
  Al  Al21  1  0.806284  0.499601  0.557915  1
  Al  Al22  1  0.733158  0.164012  0.183914  1
  Al  Al23  1  0.268233  0.836640  0.816677  1
  Al  Al24  1  0.060264  0.635341  0.818586  1
  Al  Al25  1  0.938577  0.369453  0.185173  1
  Al  Al26  1  0.853060  0.044283  0.816437  1
  Al  Al27  1  0.144535  0.957800  0.183980  1
  Pd  Pd28  1  0.880457  0.507469  0.361683  1
  Pd  Pd29  1  0.656892  0.171719  0.999851  1
  Pd  Pd30  1  0.343059  0.828245  0.000100  1
  Pd  Pd31  1  0.537110  0.167496  0.361788  1
  Pd  Pd32  1  0.462775  0.832814  0.637368  1
  Pd  Pd33  1  0.778907  0.174848  0.636810  1
  Pd  Pd34  1  0.221219  0.824079  0.362046  1
  Pd  Pd35  1  0.000329  0.499844  0.999813  1
  Au  Au36  1  0.120063  0.489539  0.638741  1
