# generated using pymatgen
data_Pr3Gd2Pb3Se
_symmetry_space_group_name_H-M   'P 1'
_cell_length_a   9.40044200
_cell_length_b   9.40043503
_cell_length_c   6.88832200
_cell_angle_alpha   90.00000000
_cell_angle_beta   90.00000000
_cell_angle_gamma   119.99998228
_symmetry_Int_Tables_number   1
_chemical_formula_structural   Pr3Gd2Pb3Se
_chemical_formula_sum   'Pr6 Gd4 Pb6 Se2'
_cell_volume   527.15748359
_cell_formula_units_Z   2
loop_
 _symmetry_equiv_pos_site_id
 _symmetry_equiv_pos_as_xyz
  1  'x, y, z'
loop_
 _atom_site_type_symbol
 _atom_site_label
 _atom_site_symmetry_multiplicity
 _atom_site_fract_x
 _atom_site_fract_y
 _atom_site_fract_z
 _atom_site_occupancy
  Pr  Pr0  1  0.746823  0.746989  0.750000  1
  Pr  Pr1  1  0.253177  0.000167  0.750000  1
  Pr  Pr2  1  0.000000  0.253115  0.750000  1
  Pr  Pr3  1  0.253177  0.253011  0.250000  1
  Pr  Pr4  1  0.746823  0.999833  0.250000  1
  Pr  Pr5  1  0.000000  0.746885  0.250000  1
  Gd  Gd6  1  0.665991  0.332994  0.000000  1
  Gd  Gd7  1  0.334009  0.667006  0.000000  1
  Gd  Gd8  1  0.334009  0.667006  0.500000  1
  Gd  Gd9  1  0.665991  0.332994  0.500000  1
  Pb  Pb10  1  0.396686  0.396349  0.750000  1
  Pb  Pb11  1  0.603314  0.999664  0.750000  1
  Pb  Pb12  1  0.000000  0.603426  0.750000  1
  Pb  Pb13  1  0.603314  0.603651  0.250000  1
  Pb  Pb14  1  0.396686  0.000336  0.250000  1
  Pb  Pb15  1  0.000000  0.396574  0.250000  1
  Se  Se16  1  0.000000  0.000000  0.000000  1
  Se  Se17  1  0.000000  0.000000  0.500000  1
