# generated using pymatgen
data_Tm3LuRe3Os5
_symmetry_space_group_name_H-M   'P 1'
_cell_length_a   5.31055956
_cell_length_b   5.31513816
_cell_length_c   8.86240400
_cell_angle_alpha   89.99999632
_cell_angle_beta   90.00009496
_cell_angle_gamma   120.02851167
_symmetry_Int_Tables_number   1
_chemical_formula_structural   Tm3LuRe3Os5
_chemical_formula_sum   'Tm3 Lu1 Re3 Os5'
_cell_volume   216.57691902
_cell_formula_units_Z   1
loop_
 _symmetry_equiv_pos_site_id
 _symmetry_equiv_pos_as_xyz
  1  'x, y, z'
loop_
 _atom_site_type_symbol
 _atom_site_label
 _atom_site_symmetry_multiplicity
 _atom_site_fract_x
 _atom_site_fract_y
 _atom_site_fract_z
 _atom_site_occupancy
  Tm  Tm0  1  0.338277  0.669139  0.435136  1
  Tm  Tm1  1  0.668724  0.334362  0.563056  1
  Tm  Tm2  1  0.668556  0.334278  0.937214  1
  Lu  Lu3  1  0.338067  0.669034  0.064593  1
  Re  Re4  1  0.163973  0.336650  0.750419  1
  Re  Re5  1  0.163973  0.827324  0.750419  1
  Re  Re6  1  0.331345  0.165673  0.249603  1
  Os  Os7  1  0.819475  0.648420  0.249459  1
  Os  Os8  1  0.644699  0.822350  0.750483  1
  Os  Os9  1  0.021601  0.010801  0.001004  1
  Os  Os10  1  0.819475  0.171055  0.249459  1
  Os  Os11  1  0.021835  0.010918  0.499154  1
