# generated using pymatgen
data_Gd10Si6O
_symmetry_space_group_name_H-M   'P 1'
_cell_length_a   8.46455600
_cell_length_b   8.46455504
_cell_length_c   6.39501600
_cell_angle_alpha   90.00000000
_cell_angle_beta   90.00000000
_cell_angle_gamma   119.99999592
_symmetry_Int_Tables_number   1
_chemical_formula_structural   Gd10Si6O
_chemical_formula_sum   'Gd10 Si6 O1'
_cell_volume   396.80816592
_cell_formula_units_Z   1
loop_
 _symmetry_equiv_pos_site_id
 _symmetry_equiv_pos_as_xyz
  1  'x, y, z'
loop_
 _atom_site_type_symbol
 _atom_site_label
 _atom_site_symmetry_multiplicity
 _atom_site_fract_x
 _atom_site_fract_y
 _atom_site_fract_z
 _atom_site_occupancy
  Gd  Gd0  1  0.333333  0.666667  0.500000  1
  Gd  Gd1  1  0.666667  0.333333  0.500000  1
  Gd  Gd2  1  0.666667  0.333333  0.000000  1
  Gd  Gd3  1  0.333333  0.666667  0.000000  1
  Gd  Gd4  1  0.000000  0.761243  0.261389  1
  Gd  Gd5  1  0.238757  0.238757  0.261389  1
  Gd  Gd6  1  0.761243  0.000000  0.261389  1
  Gd  Gd7  1  0.000000  0.238757  0.738611  1
  Gd  Gd8  1  0.761243  0.761243  0.738611  1
  Gd  Gd9  1  0.238757  0.000000  0.738611  1
  Si  Si10  1  0.000000  0.398002  0.250264  1
  Si  Si11  1  0.601998  0.601998  0.250264  1
  Si  Si12  1  0.398002  0.000000  0.250264  1
  Si  Si13  1  0.000000  0.601998  0.749736  1
  Si  Si14  1  0.398002  0.398002  0.749736  1
  Si  Si15  1  0.601998  0.000000  0.749736  1
  O  O16  1  0.000000  0.000000  0.500000  1
