# generated using pymatgen
data_HfSc3(SiW)4
_symmetry_space_group_name_H-M   'P 1'
_cell_length_a   3.53875200
_cell_length_b   6.99513173
_cell_length_c   8.20693662
_cell_angle_alpha   89.86628577
_cell_angle_beta   90.00000000
_cell_angle_gamma   90.00000000
_symmetry_Int_Tables_number   1
_chemical_formula_structural   HfSc3(SiW)4
_chemical_formula_sum   'Hf1 Sc3 Si4 W4'
_cell_volume   203.15425472
_cell_formula_units_Z   1
loop_
 _symmetry_equiv_pos_site_id
 _symmetry_equiv_pos_as_xyz
  1  'x, y, z'
loop_
 _atom_site_type_symbol
 _atom_site_label
 _atom_site_symmetry_multiplicity
 _atom_site_fract_x
 _atom_site_fract_y
 _atom_site_fract_z
 _atom_site_occupancy
  Hf  Hf0  1  0.750000  0.958343  0.665848  1
  Sc  Sc1  1  0.250000  0.542077  0.165958  1
  Sc  Sc2  1  0.250000  0.041384  0.335401  1
  Sc  Sc3  1  0.750000  0.457619  0.834203  1
  Si  Si4  1  0.250000  0.755683  0.860405  1
  Si  Si5  1  0.250000  0.257749  0.639946  1
  Si  Si6  1  0.750000  0.242369  0.140628  1
  Si  Si7  1  0.750000  0.742691  0.359217  1
  W  W8  1  0.250000  0.630979  0.559321  1
  W  W9  1  0.250000  0.128027  0.940581  1
  W  W10  1  0.750000  0.370913  0.441525  1
  W  W11  1  0.750000  0.872165  0.056968  1
