# generated using pymatgen
data_PPdRu
_symmetry_space_group_name_H-M   'P 1'
_cell_length_a   3.84998800
_cell_length_b   6.42319700
_cell_length_c   6.86660700
_cell_angle_alpha   90.00000000
_cell_angle_beta   90.00000000
_cell_angle_gamma   90.00000000
_symmetry_Int_Tables_number   1
_chemical_formula_structural   PPdRu
_chemical_formula_sum   'P4 Pd4 Ru4'
_cell_volume   169.80591324
_cell_formula_units_Z   4
loop_
 _symmetry_equiv_pos_site_id
 _symmetry_equiv_pos_as_xyz
  1  'x, y, z'
loop_
 _atom_site_type_symbol
 _atom_site_label
 _atom_site_symmetry_multiplicity
 _atom_site_fract_x
 _atom_site_fract_y
 _atom_site_fract_z
 _atom_site_occupancy
  P  P0  1  0.250000  0.716876  0.117596  1
  P  P1  1  0.250000  0.216876  0.382404  1
  P  P2  1  0.750000  0.283124  0.882404  1
  P  P3  1  0.750000  0.783124  0.617596  1
  Pd  Pd4  1  0.750000  0.541600  0.342208  1
  Pd  Pd5  1  0.250000  0.958400  0.842208  1
  Pd  Pd6  1  0.750000  0.041600  0.157792  1
  Pd  Pd7  1  0.250000  0.458400  0.657792  1
  Ru  Ru8  1  0.250000  0.354975  0.073904  1
  Ru  Ru9  1  0.250000  0.854975  0.426096  1
  Ru  Ru10  1  0.750000  0.145025  0.573904  1
  Ru  Ru11  1  0.750000  0.645025  0.926096  1
