# generated using pymatgen
data_TbPr4GdIn6O18
_symmetry_space_group_name_H-M   'P 1'
_cell_length_a   6.52871100
_cell_length_b   6.52871198
_cell_length_c   12.49105200
_cell_angle_alpha   90.00000000
_cell_angle_beta   90.00000000
_cell_angle_gamma   119.99998997
_symmetry_Int_Tables_number   1
_chemical_formula_structural   TbPr4GdIn6O18
_chemical_formula_sum   'Tb1 Pr4 Gd1 In6 O18'
_cell_volume   461.08887749
_cell_formula_units_Z   1
loop_
 _symmetry_equiv_pos_site_id
 _symmetry_equiv_pos_as_xyz
  1  'x, y, z'
loop_
 _atom_site_type_symbol
 _atom_site_label
 _atom_site_symmetry_multiplicity
 _atom_site_fract_x
 _atom_site_fract_y
 _atom_site_fract_z
 _atom_site_occupancy
  Tb  Tb0  1  0.000000  0.000000  0.997576  1
  Pr  Pr1  1  0.666667  0.333333  0.961617  1
  Pr  Pr2  1  0.333333  0.666667  0.461526  1
  Pr  Pr3  1  0.666667  0.333333  0.461526  1
  Pr  Pr4  1  0.333333  0.666667  0.961617  1
  Gd  Gd5  1  0.000000  0.000000  0.497392  1
  In  In6  1  0.669571  0.669571  0.727241  1
  In  In7  1  0.000000  0.330429  0.727241  1
  In  In8  1  0.330529  0.330529  0.226889  1
  In  In9  1  0.000000  0.669471  0.226889  1
  In  In10  1  0.330429  0.000000  0.727241  1
  In  In11  1  0.669471  0.000000  0.226889  1
  O  O12  1  0.702072  0.702072  0.896191  1
  O  O13  1  0.000000  0.297928  0.896191  1
  O  O14  1  0.299723  0.299723  0.395714  1
  O  O15  1  0.000000  0.700277  0.395714  1
  O  O16  1  0.297928  0.000000  0.896191  1
  O  O17  1  0.700277  0.000000  0.395714  1
  O  O18  1  0.647891  0.647891  0.559382  1
  O  O19  1  0.000000  0.352109  0.559382  1
  O  O20  1  0.350270  0.350270  0.059064  1
  O  O21  1  0.000000  0.649730  0.059064  1
  O  O22  1  0.352109  0.000000  0.559382  1
  O  O23  1  0.649730  0.000000  0.059064  1
  O  O24  1  0.000000  0.000000  0.696494  1
  O  O25  1  0.000000  0.000000  0.195613  1
  O  O26  1  0.666667  0.333333  0.751236  1
  O  O27  1  0.333333  0.666667  0.251251  1
  O  O28  1  0.666667  0.333333  0.251251  1
  O  O29  1  0.333333  0.666667  0.751236  1
