# generated using pymatgen
data_RbLa2CuS4
_symmetry_space_group_name_H-M   'P 1'
_cell_length_a   4.19360300
_cell_length_b   7.50925006
_cell_length_c   14.20608600
_cell_angle_alpha   90.00000000
_cell_angle_beta   90.00000000
_cell_angle_gamma   73.78580070
_symmetry_Int_Tables_number   1
_chemical_formula_structural   RbLa2CuS4
_chemical_formula_sum   'Rb2 La4 Cu2 S8'
_cell_volume   429.56719717
_cell_formula_units_Z   2
loop_
 _symmetry_equiv_pos_site_id
 _symmetry_equiv_pos_as_xyz
  1  'x, y, z'
loop_
 _atom_site_type_symbol
 _atom_site_label
 _atom_site_symmetry_multiplicity
 _atom_site_fract_x
 _atom_site_fract_y
 _atom_site_fract_z
 _atom_site_occupancy
  Rb  Rb0  1  0.895694  0.208612  0.250000  1
  Rb  Rb1  1  0.104306  0.791388  0.750000  1
  La  La2  1  0.634184  0.731633  0.060622  1
  La  La3  1  0.634184  0.731633  0.439378  1
  La  La4  1  0.365815  0.268368  0.560622  1
  La  La5  1  0.365815  0.268368  0.939378  1
  Cu  Cu6  1  0.166685  0.666627  0.250000  1
  Cu  Cu7  1  0.833315  0.333372  0.750000  1
  S  S8  1  0.000000  0.000000  0.000000  1
  S  S9  1  0.258436  0.483126  0.113318  1
  S  S10  1  0.578233  0.843535  0.250000  1
  S  S11  1  0.258436  0.483126  0.386682  1
  S  S12  1  0.000000  0.000000  0.500000  1
  S  S13  1  0.741564  0.516873  0.613317  1
  S  S14  1  0.421767  0.156466  0.750000  1
  S  S15  1  0.741564  0.516873  0.886682  1
