# generated using pymatgen
data_La3Pr3(IrI3)2
_symmetry_space_group_name_H-M   'P 1'
_cell_length_a   10.98364752
_cell_length_b   10.98006696
_cell_length_c   10.98006667
_cell_angle_alpha   108.57560714
_cell_angle_beta   109.33477068
_cell_angle_gamma   110.49556759
_symmetry_Int_Tables_number   1
_chemical_formula_structural   La3Pr3(IrI3)2
_chemical_formula_sum   'La6 Pr6 Ir4 I12'
_cell_volume   1019.25553420
_cell_formula_units_Z   2
loop_
 _symmetry_equiv_pos_site_id
 _symmetry_equiv_pos_as_xyz
  1  'x, y, z'
loop_
 _atom_site_type_symbol
 _atom_site_label
 _atom_site_symmetry_multiplicity
 _atom_site_fract_x
 _atom_site_fract_y
 _atom_site_fract_z
 _atom_site_occupancy
  La  La0  1  0.456364  0.478449  0.228521  1
  La  La1  1  0.740629  0.221532  0.268466  1
  La  La2  1  0.759371  0.027838  0.480904  1
  La  La3  1  0.221579  0.453271  0.480753  1
  La  La4  1  0.278421  0.759175  0.231693  1
  La  La5  1  0.043636  0.272156  0.022084  1
  Pr  Pr6  1  0.022589  0.040357  0.266784  1
  Pr  Pr7  1  0.477411  0.744194  0.017766  1
  Pr  Pr8  1  0.475667  0.231192  0.457367  1
  Pr  Pr9  1  0.024333  0.481701  0.755524  1
  Pr  Pr10  1  0.273001  0.022938  0.044896  1
  Pr  Pr11  1  0.226999  0.271894  0.749937  1
  Ir  Ir12  1  0.249849  0.252566  0.249273  1
  Ir  Ir13  1  0.502217  0.999515  0.251034  1
  Ir  Ir14  1  0.997783  0.248817  0.497298  1
  Ir  Ir15  1  0.250151  0.499423  0.002717  1
  I  I16  1  0.251501  0.760229  0.743783  1
  I  I17  1  0.517726  0.506671  0.758293  1
  I  I18  1  0.982274  0.740565  0.988944  1
  I  I19  1  0.740308  0.250752  0.756373  1
  I  I20  1  0.993517  0.982763  0.742746  1
  I  I21  1  0.248499  0.992282  0.508728  1
  I  I22  1  0.759692  0.516064  0.510444  1
  I  I23  1  0.506483  0.249229  0.989245  1
  I  I24  1  0.759337  0.742840  0.247905  1
  I  I25  1  0.740663  0.988568  0.983504  1
  I  I26  1  0.990816  0.506666  0.249170  1
  I  I27  1  0.509184  0.758354  0.515849  1
