# generated using pymatgen
data_Tb2Ni(B2O5)2
_symmetry_space_group_name_H-M   'P 1'
_cell_length_a   4.56872863
_cell_length_b   7.32786000
_cell_length_c   9.45820923
_cell_angle_alpha   90.00000000
_cell_angle_beta   91.37538351
_cell_angle_gamma   90.00000000
_symmetry_Int_Tables_number   1
_chemical_formula_structural   Tb2Ni(B2O5)2
_chemical_formula_sum   'Tb4 Ni2 B8 O20'
_cell_volume   316.56019342
_cell_formula_units_Z   2
loop_
 _symmetry_equiv_pos_site_id
 _symmetry_equiv_pos_as_xyz
  1  'x, y, z'
loop_
 _atom_site_type_symbol
 _atom_site_label
 _atom_site_symmetry_multiplicity
 _atom_site_fract_x
 _atom_site_fract_y
 _atom_site_fract_z
 _atom_site_occupancy
  Tb  Tb0  1  0.004318  0.398282  0.165262  1
  Tb  Tb1  1  0.995681  0.898282  0.334738  1
  Tb  Tb2  1  0.004319  0.101718  0.665261  1
  Tb  Tb3  1  0.995682  0.601718  0.834738  1
  Ni  Ni4  1  0.000000  0.000000  0.000000  1
  Ni  Ni5  1  0.000000  0.500000  0.500000  1
  B  B6  1  0.471158  0.736638  0.085763  1
  B  B7  1  0.465461  0.096109  0.159901  1
  B  B8  1  0.534540  0.596110  0.340099  1
  B  B9  1  0.528843  0.236638  0.414237  1
  B  B10  1  0.471157  0.763362  0.585762  1
  B  B11  1  0.465460  0.403891  0.659902  1
  B  B12  1  0.534539  0.903891  0.840098  1
  B  B13  1  0.528842  0.263362  0.914238  1
  O  O14  1  0.333735  0.205995  0.036185  1
  O  O15  1  0.250646  0.610668  0.040307  1
  O  O16  1  0.323037  0.909083  0.142216  1
  O  O17  1  0.776720  0.095447  0.165142  1
  O  O18  1  0.669365  0.670735  0.206365  1
  O  O19  1  0.330636  0.170734  0.293635  1
  O  O20  1  0.223282  0.595447  0.334858  1
  O  O21  1  0.676962  0.409083  0.357784  1
  O  O22  1  0.749355  0.110668  0.459693  1
  O  O23  1  0.666266  0.705995  0.463815  1
  O  O24  1  0.333736  0.294005  0.536185  1
  O  O25  1  0.250645  0.889333  0.540307  1
  O  O26  1  0.323038  0.590917  0.642216  1
  O  O27  1  0.776718  0.404553  0.665142  1
  O  O28  1  0.669364  0.829266  0.706365  1
  O  O29  1  0.330635  0.329266  0.793634  1
  O  O30  1  0.223280  0.904553  0.834858  1
  O  O31  1  0.676963  0.090917  0.857784  1
  O  O32  1  0.749354  0.389333  0.959694  1
  O  O33  1  0.666265  0.794005  0.963815  1
