# generated using pymatgen
data_LaTb6MnBr12
_symmetry_space_group_name_H-M   'P 1'
_cell_length_a   9.39213792
_cell_length_b   9.38630787
_cell_length_c   9.12426920
_cell_angle_alpha   106.34612628
_cell_angle_beta   107.36561884
_cell_angle_gamma   106.70668141
_symmetry_Int_Tables_number   1
_chemical_formula_structural   LaTb6MnBr12
_chemical_formula_sum   'La1 Tb6 Mn1 Br12'
_cell_volume   673.35785960
_cell_formula_units_Z   1
loop_
 _symmetry_equiv_pos_site_id
 _symmetry_equiv_pos_as_xyz
  1  'x, y, z'
loop_
 _atom_site_type_symbol
 _atom_site_label
 _atom_site_symmetry_multiplicity
 _atom_site_fract_x
 _atom_site_fract_y
 _atom_site_fract_z
 _atom_site_occupancy
  La  La0  1  0.594119  0.520798  0.789608  1
  Tb  Tb1  1  0.000255  0.002719  0.996663  1
  Tb  Tb2  1  0.520472  0.805653  0.599236  1
  Tb  Tb3  1  0.809142  0.600510  0.524115  1
  Tb  Tb4  1  0.403968  0.477516  0.210314  1
  Tb  Tb5  1  0.479085  0.191642  0.399095  1
  Tb  Tb6  1  0.190449  0.399183  0.481048  1
  Mn  Mn7  1  0.507895  0.500101  0.526046  1
  Br  Br8  1  0.567246  0.164603  0.713377  1
  Br  Br9  1  0.178212  0.717496  0.564840  1
  Br  Br10  1  0.714447  0.566503  0.180966  1
  Br  Br11  1  0.426190  0.810055  0.272088  1
  Br  Br12  1  0.818418  0.280641  0.425642  1
  Br  Br13  1  0.261389  0.424082  0.817946  1
  Br  Br14  1  0.674636  0.900310  0.966403  1
  Br  Br15  1  0.881842  0.959480  0.657755  1
  Br  Br16  1  0.978115  0.681442  0.888139  1
  Br  Br17  1  0.332925  0.123335  0.037435  1
  Br  Br18  1  0.117978  0.039770  0.334016  1
  Br  Br19  1  0.043217  0.334159  0.115267  1
