# generated using pymatgen
data_Pr12Ge(OsBr4)3
_symmetry_space_group_name_H-M   'P 1'
_cell_length_a   10.69439205
_cell_length_b   10.69439226
_cell_length_c   10.69439190
_cell_angle_alpha   110.03920124
_cell_angle_beta   110.03919827
_cell_angle_gamma   110.03919349
_symmetry_Int_Tables_number   1
_chemical_formula_structural   Pr12Ge(OsBr4)3
_chemical_formula_sum   'Pr12 Ge1 Os3 Br12'
_cell_volume   921.22523822
_cell_formula_units_Z   1
loop_
 _symmetry_equiv_pos_site_id
 _symmetry_equiv_pos_as_xyz
  1  'x, y, z'
loop_
 _atom_site_type_symbol
 _atom_site_label
 _atom_site_symmetry_multiplicity
 _atom_site_fract_x
 _atom_site_fract_y
 _atom_site_fract_z
 _atom_site_occupancy
  Pr  Pr0  1  0.472011  0.497008  0.230454  1
  Pr  Pr1  1  0.750000  0.232988  0.267012  1
  Pr  Pr2  1  0.750000  0.015181  0.484819  1
  Pr  Pr3  1  0.230454  0.472011  0.497008  1
  Pr  Pr4  1  0.267012  0.750000  0.232988  1
  Pr  Pr5  1  0.027989  0.269546  0.002992  1
  Pr  Pr6  1  0.002992  0.027989  0.269546  1
  Pr  Pr7  1  0.484819  0.750000  0.015181  1
  Pr  Pr8  1  0.497008  0.230454  0.472011  1
  Pr  Pr9  1  0.015181  0.484819  0.750000  1
  Pr  Pr10  1  0.269546  0.002992  0.027989  1
  Pr  Pr11  1  0.232988  0.267012  0.750000  1
  Ge  Ge12  1  0.250000  0.250000  0.250000  1
  Os  Os13  1  0.500561  0.999439  0.250000  1
  Os  Os14  1  0.999439  0.250000  0.500561  1
  Os  Os15  1  0.250000  0.500561  0.999439  1
  Br  Br16  1  0.250000  0.756335  0.743665  1
  Br  Br17  1  0.505600  0.500257  0.748302  1
  Br  Br18  1  0.994400  0.751698  0.999743  1
  Br  Br19  1  0.743665  0.250000  0.756335  1
  Br  Br20  1  0.999743  0.994400  0.751698  1
  Br  Br21  1  0.250000  0.000854  0.499146  1
  Br  Br22  1  0.748302  0.505600  0.500257  1
  Br  Br23  1  0.499146  0.250000  0.000854  1
  Br  Br24  1  0.756335  0.743665  0.250000  1
  Br  Br25  1  0.751698  0.999743  0.994400  1
  Br  Br26  1  0.000854  0.499146  0.250000  1
  Br  Br27  1  0.500257  0.748302  0.505600  1
