# generated using pymatgen
data_Sc4CoTc2Os5
_symmetry_space_group_name_H-M   'P 1'
_cell_length_a   5.17083518
_cell_length_b   5.08474749
_cell_length_c   8.62657400
_cell_angle_alpha   90.00000000
_cell_angle_beta   90.00000000
_cell_angle_gamma   119.45078873
_symmetry_Int_Tables_number   1
_chemical_formula_structural   Sc4CoTc2Os5
_chemical_formula_sum   'Sc4 Co1 Tc2 Os5'
_cell_volume   197.50406740
_cell_formula_units_Z   1
loop_
 _symmetry_equiv_pos_site_id
 _symmetry_equiv_pos_as_xyz
  1  'x, y, z'
loop_
 _atom_site_type_symbol
 _atom_site_label
 _atom_site_symmetry_multiplicity
 _atom_site_fract_x
 _atom_site_fract_y
 _atom_site_fract_z
 _atom_site_occupancy
  Sc  Sc0  1  0.330208  0.665104  0.432139  1
  Sc  Sc1  1  0.666576  0.333288  0.561064  1
  Sc  Sc2  1  0.666576  0.333288  0.938936  1
  Sc  Sc3  1  0.330208  0.665104  0.067861  1
  Co  Co4  1  0.343778  0.171889  0.250000  1
  Tc  Tc5  1  0.171772  0.345203  0.750000  1
  Tc  Tc6  1  0.171772  0.826567  0.750000  1
  Os  Os7  1  0.827992  0.654797  0.250000  1
  Os  Os8  1  0.660553  0.830276  0.750000  1
  Os  Os9  1  0.001288  0.000643  0.005622  1
  Os  Os10  1  0.827992  0.173195  0.250000  1
  Os  Os11  1  0.001288  0.000643  0.494378  1
