# generated using pymatgen
data_ZrTa3Nb2(B2Ru5)2
_symmetry_space_group_name_H-M   'P 1'
_cell_length_a   9.48659835
_cell_length_b   9.48724088
_cell_length_c   3.04308300
_cell_angle_alpha   90.00000000
_cell_angle_beta   90.00000000
_cell_angle_gamma   90.14418212
_symmetry_Int_Tables_number   1
_chemical_formula_structural   ZrTa3Nb2(B2Ru5)2
_chemical_formula_sum   'Zr1 Ta3 Nb2 B4 Ru10'
_cell_volume   273.88160467
_cell_formula_units_Z   1
loop_
 _symmetry_equiv_pos_site_id
 _symmetry_equiv_pos_as_xyz
  1  'x, y, z'
loop_
 _atom_site_type_symbol
 _atom_site_label
 _atom_site_symmetry_multiplicity
 _atom_site_fract_x
 _atom_site_fract_y
 _atom_site_fract_z
 _atom_site_occupancy
  Zr  Zr0  1  0.824224  0.675747  0.000000  1
  Ta  Ta1  1  0.676926  0.175890  0.000000  1
  Ta  Ta2  1  0.500138  0.500174  0.000000  1
  Ta  Ta3  1  0.999869  0.999896  0.000000  1
  Nb  Nb4  1  0.176516  0.323457  0.000000  1
  Nb  Nb5  1  0.324511  0.823613  0.000000  1
  B  B6  1  0.620332  0.879851  0.000000  1
  B  B7  1  0.378372  0.121741  0.000000  1
  B  B8  1  0.121558  0.621072  0.000000  1
  B  B9  1  0.878942  0.378419  0.000000  1
  Ru  Ru10  1  0.566128  0.720817  0.500000  1
  Ru  Ru11  1  0.428981  0.281672  0.500000  1
  Ru  Ru12  1  0.074904  0.782047  0.500000  1
  Ru  Ru13  1  0.928882  0.217297  0.500000  1
  Ru  Ru14  1  0.282080  0.570241  0.500000  1
  Ru  Ru15  1  0.717361  0.423980  0.500000  1
  Ru  Ru16  1  0.218515  0.071669  0.500000  1
  Ru  Ru17  1  0.779351  0.934517  0.500000  1
  Ru  Ru18  1  0.499145  0.001766  0.500000  1
  Ru  Ru19  1  0.003264  0.496134  0.500000  1
