# generated using pymatgen
data_Nd3SmPd4F28
_symmetry_space_group_name_H-M   'P 1'
_cell_length_a   5.64160626
_cell_length_b   9.10173584
_cell_length_c   12.20471971
_cell_angle_alpha   62.09405039
_cell_angle_beta   89.96495680
_cell_angle_gamma   89.98503004
_symmetry_Int_Tables_number   1
_chemical_formula_structural   Nd3SmPd4F28
_chemical_formula_sum   'Nd3 Sm1 Pd4 F28'
_cell_volume   553.81913269
_cell_formula_units_Z   1
loop_
 _symmetry_equiv_pos_site_id
 _symmetry_equiv_pos_as_xyz
  1  'x, y, z'
loop_
 _atom_site_type_symbol
 _atom_site_label
 _atom_site_symmetry_multiplicity
 _atom_site_fract_x
 _atom_site_fract_y
 _atom_site_fract_z
 _atom_site_occupancy
  Nd  Nd0  1  0.761404  0.810317  0.764606  1
  Nd  Nd1  1  0.261254  0.189482  0.735347  1
  Nd  Nd2  1  0.238348  0.187309  0.235645  1
  Sm  Sm3  1  0.738335  0.810409  0.264328  1
  Pd  Pd4  1  0.756877  0.272081  0.957933  1
  Pd  Pd5  1  0.257333  0.727341  0.541423  1
  Pd  Pd6  1  0.242561  0.727200  0.044062  1
  Pd  Pd7  1  0.742829  0.274543  0.456542  1
  F  F8  1  0.429467  0.705375  0.918466  1
  F  F9  1  0.929472  0.295408  0.582502  1
  F  F10  1  0.569759  0.294481  0.083280  1
  F  F11  1  0.067985  0.706014  0.416157  1
  F  F12  1  0.448603  0.282032  0.537801  1
  F  F13  1  0.949679  0.718644  0.962306  1
  F  F14  1  0.551889  0.719799  0.459468  1
  F  F15  1  0.051196  0.280742  0.038586  1
  F  F16  1  0.769256  0.513850  0.861228  1
  F  F17  1  0.269762  0.485924  0.638280  1
  F  F18  1  0.230656  0.485239  0.139614  1
  F  F19  1  0.730709  0.516926  0.360360  1
  F  F20  1  0.755774  0.030364  0.049263  1
  F  F21  1  0.255393  0.968751  0.451656  1
  F  F22  1  0.244112  0.968564  0.952777  1
  F  F23  1  0.744254  0.033208  0.547119  1
  F  F24  1  0.968992  0.726338  0.629502  1
  F  F25  1  0.468025  0.273281  0.870474  1
  F  F26  1  0.032034  0.273892  0.369621  1
  F  F27  1  0.531692  0.727493  0.131606  1
  F  F28  1  0.056743  0.743741  0.173220  1
  F  F29  1  0.560202  0.257948  0.327019  1
  F  F30  1  0.939223  0.256960  0.827754  1
  F  F31  1  0.439914  0.742567  0.671617  1
  F  F32  1  0.410641  0.964818  0.231406  1
  F  F33  1  0.904746  0.029315  0.269034  1
  F  F34  1  0.595666  0.033430  0.769420  1
  F  F35  1  0.095216  0.966214  0.730576  1
