# generated using pymatgen
data_Y3Ho5(SiPd)8
_symmetry_space_group_name_H-M   'P 1'
_cell_length_a   4.34060900
_cell_length_b   7.49582800
_cell_length_c   13.92792400
_cell_angle_alpha   90.00000000
_cell_angle_beta   90.00000000
_cell_angle_gamma   90.00000000
_symmetry_Int_Tables_number   1
_chemical_formula_structural   Y3Ho5(SiPd)8
_chemical_formula_sum   'Y3 Ho5 Si8 Pd8'
_cell_volume   453.16532093
_cell_formula_units_Z   1
loop_
 _symmetry_equiv_pos_site_id
 _symmetry_equiv_pos_as_xyz
  1  'x, y, z'
loop_
 _atom_site_type_symbol
 _atom_site_label
 _atom_site_symmetry_multiplicity
 _atom_site_fract_x
 _atom_site_fract_y
 _atom_site_fract_z
 _atom_site_occupancy
  Y  Y0  1  0.000000  0.290185  0.500000  1
  Y  Y1  1  0.500000  0.700955  0.500000  1
  Y  Y2  1  0.000000  0.299306  0.000000  1
  Ho  Ho3  1  0.500000  0.789320  0.749187  1
  Ho  Ho4  1  0.000000  0.210593  0.751317  1
  Ho  Ho5  1  0.500000  0.789320  0.250813  1
  Ho  Ho6  1  0.000000  0.210593  0.248683  1
  Ho  Ho7  1  0.500000  0.710270  0.000000  1
  Si  Si8  1  0.500000  0.408868  0.645059  1
  Si  Si9  1  0.000000  0.591353  0.855447  1
  Si  Si10  1  0.500000  0.408868  0.354941  1
  Si  Si11  1  0.000000  0.591353  0.144553  1
  Si  Si12  1  0.500000  0.089808  0.093952  1
  Si  Si13  1  0.000000  0.909792  0.405862  1
  Si  Si14  1  0.500000  0.089808  0.906048  1
  Si  Si15  1  0.000000  0.909792  0.594138  1
  Pd  Pd16  1  0.500000  0.076520  0.609698  1
  Pd  Pd17  1  0.000000  0.922763  0.890957  1
  Pd  Pd18  1  0.500000  0.076520  0.390302  1
  Pd  Pd19  1  0.000000  0.922763  0.109043  1
  Pd  Pd20  1  0.500000  0.420747  0.156557  1
  Pd  Pd21  1  0.000000  0.579877  0.342686  1
  Pd  Pd22  1  0.500000  0.420747  0.843443  1
  Pd  Pd23  1  0.000000  0.579877  0.657314  1
