# generated using pymatgen
data_Ho9Er(In3Br)2
_symmetry_space_group_name_H-M   'P 1'
_cell_length_a   9.15119400
_cell_length_b   9.15119445
_cell_length_c   6.73354600
_cell_angle_alpha   90.00000000
_cell_angle_beta   90.00000000
_cell_angle_gamma   119.99999837
_symmetry_Int_Tables_number   1
_chemical_formula_structural   Ho9Er(In3Br)2
_chemical_formula_sum   'Ho9 Er1 In6 Br2'
_cell_volume   488.34867764
_cell_formula_units_Z   1
loop_
 _symmetry_equiv_pos_site_id
 _symmetry_equiv_pos_as_xyz
  1  'x, y, z'
loop_
 _atom_site_type_symbol
 _atom_site_label
 _atom_site_symmetry_multiplicity
 _atom_site_fract_x
 _atom_site_fract_y
 _atom_site_fract_z
 _atom_site_occupancy
  Ho  Ho0  1  0.733697  0.733650  0.249972  1
  Ho  Ho1  1  0.999953  0.733650  0.750028  1
  Ho  Ho2  1  0.733697  0.000047  0.750028  1
  Ho  Ho3  1  0.333333  0.666667  0.500000  1
  Ho  Ho4  1  0.266350  0.266303  0.750028  1
  Ho  Ho5  1  0.999953  0.266303  0.249972  1
  Ho  Ho6  1  0.666667  0.333333  0.500000  1
  Ho  Ho7  1  0.266350  0.000047  0.249972  1
  Ho  Ho8  1  0.333333  0.666667  0.000000  1
  Er  Er9  1  0.666667  0.333333  0.000000  1
  In  In10  1  0.392574  0.000066  0.750035  1
  In  In11  1  0.999934  0.607426  0.249965  1
  In  In12  1  0.607492  0.000066  0.249965  1
  In  In13  1  0.999934  0.392508  0.750035  1
  In  In14  1  0.392574  0.392508  0.249965  1
  In  In15  1  0.607492  0.607426  0.750035  1
  Br  Br16  1  0.000000  0.000000  0.500000  1
  Br  Br17  1  0.000000  0.000000  0.000000  1
