# generated using pymatgen
data_Y3Ho(SiPd14)2
_symmetry_space_group_name_H-M   'P 1'
_cell_length_a   8.92946700
_cell_length_b   8.92946700
_cell_length_c   7.09794100
_cell_angle_alpha   90.00000000
_cell_angle_beta   90.00000000
_cell_angle_gamma   90.00000000
_symmetry_Int_Tables_number   1
_chemical_formula_structural   Y3Ho(SiPd14)2
_chemical_formula_sum   'Y3 Ho1 Si2 Pd28'
_cell_volume   565.95702927
_cell_formula_units_Z   1
loop_
 _symmetry_equiv_pos_site_id
 _symmetry_equiv_pos_as_xyz
  1  'x, y, z'
loop_
 _atom_site_type_symbol
 _atom_site_label
 _atom_site_symmetry_multiplicity
 _atom_site_fract_x
 _atom_site_fract_y
 _atom_site_fract_z
 _atom_site_occupancy
  Y  Y0  1  0.500000  0.000000  0.935193  1
  Y  Y1  1  0.000000  0.500000  0.064807  1
  Y  Y2  1  0.000000  0.000000  0.500000  1
  Ho  Ho3  1  0.500000  0.500000  0.500000  1
  Si  Si4  1  0.500000  0.000000  0.448535  1
  Si  Si5  1  0.000000  0.500000  0.551465  1
  Pd  Pd6  1  0.334450  0.834382  0.616181  1
  Pd  Pd7  1  0.334450  0.165618  0.616181  1
  Pd  Pd8  1  0.665550  0.834382  0.616181  1
  Pd  Pd9  1  0.665550  0.165618  0.616181  1
  Pd  Pd10  1  0.165618  0.665550  0.383819  1
  Pd  Pd11  1  0.165618  0.334450  0.383819  1
  Pd  Pd12  1  0.834382  0.665550  0.383819  1
  Pd  Pd13  1  0.834382  0.334450  0.383819  1
  Pd  Pd14  1  0.500000  0.770045  0.256252  1
  Pd  Pd15  1  0.500000  0.229955  0.256252  1
  Pd  Pd16  1  0.270217  0.000000  0.256082  1
  Pd  Pd17  1  0.729783  0.000000  0.256082  1
  Pd  Pd18  1  0.000000  0.729783  0.743918  1
  Pd  Pd19  1  0.000000  0.270217  0.743918  1
  Pd  Pd20  1  0.229955  0.500000  0.743748  1
  Pd  Pd21  1  0.770045  0.500000  0.743748  1
  Pd  Pd22  1  0.500000  0.349033  0.852778  1
  Pd  Pd23  1  0.500000  0.650967  0.852778  1
  Pd  Pd24  1  0.848927  0.000000  0.853095  1
  Pd  Pd25  1  0.151073  0.000000  0.853095  1
  Pd  Pd26  1  0.000000  0.151073  0.146905  1
  Pd  Pd27  1  0.000000  0.848927  0.146905  1
  Pd  Pd28  1  0.650967  0.500000  0.147222  1
  Pd  Pd29  1  0.349033  0.500000  0.147222  1
  Pd  Pd30  1  0.250005  0.749995  0.000000  1
  Pd  Pd31  1  0.250005  0.250005  0.000000  1
  Pd  Pd32  1  0.749995  0.749995  0.000000  1
  Pd  Pd33  1  0.749995  0.250005  0.000000  1
