# generated using pymatgen
data_LiTi8(In2Co)7
_symmetry_space_group_name_H-M   'P 1'
_cell_length_a   9.22859579
_cell_length_b   9.23244077
_cell_length_c   9.22806100
_cell_angle_alpha   60.00633011
_cell_angle_beta   60.04718851
_cell_angle_gamma   59.99348876
_symmetry_Int_Tables_number   1
_chemical_formula_structural   LiTi8(In2Co)7
_chemical_formula_sum   'Li1 Ti8 In14 Co7'
_cell_volume   556.16243212
_cell_formula_units_Z   1
loop_
 _symmetry_equiv_pos_site_id
 _symmetry_equiv_pos_as_xyz
  1  'x, y, z'
loop_
 _atom_site_type_symbol
 _atom_site_label
 _atom_site_symmetry_multiplicity
 _atom_site_fract_x
 _atom_site_fract_y
 _atom_site_fract_z
 _atom_site_occupancy
  Li  Li0  1  0.500000  0.500000  0.500000  1
  Ti  Ti1  1  0.116088  0.651476  0.116180  1
  Ti  Ti2  1  0.348537  0.883919  0.883882  1
  Ti  Ti3  1  0.883619  0.883713  0.883754  1
  Ti  Ti4  1  0.651463  0.116081  0.116118  1
  Ti  Ti5  1  0.883881  0.883798  0.348537  1
  Ti  Ti6  1  0.116381  0.116287  0.116246  1
  Ti  Ti7  1  0.883912  0.348524  0.883820  1
  Ti  Ti8  1  0.116119  0.116202  0.651463  1
  In  In9  1  0.500048  0.843261  0.156728  1
  In  In10  1  0.500029  0.843234  0.500070  1
  In  In11  1  0.499971  0.156766  0.499930  1
  In  In12  1  0.500018  0.500089  0.843181  1
  In  In13  1  0.156809  0.499930  0.499966  1
  In  In14  1  0.843254  0.156766  0.499965  1
  In  In15  1  0.156746  0.843234  0.500035  1
  In  In16  1  0.499952  0.156739  0.843272  1
  In  In17  1  0.156661  0.500029  0.843324  1
  In  In18  1  0.499982  0.499911  0.156819  1
  In  In19  1  0.843191  0.500070  0.500034  1
  In  In20  1  0.843339  0.499971  0.156676  1
  In  In21  1  0.250433  0.250430  0.250475  1
  In  In22  1  0.749567  0.749570  0.749525  1
  Co  Co23  1  0.790206  0.790227  0.209737  1
  Co  Co24  1  0.000000  0.000000  0.000000  1
  Co  Co25  1  0.209689  0.790375  0.209691  1
  Co  Co26  1  0.209560  0.790410  0.790364  1
  Co  Co27  1  0.209794  0.209773  0.790263  1
  Co  Co28  1  0.790311  0.209625  0.790309  1
  Co  Co29  1  0.790440  0.209590  0.209636  1
