# generated using pymatgen
data_Co2Si3Pb4SO15
_symmetry_space_group_name_H-M   'P 1'
_cell_length_a   11.51936337
_cell_length_b   5.30666400
_cell_length_c   12.82608217
_cell_angle_alpha   90.00000000
_cell_angle_beta   108.07829648
_cell_angle_gamma   90.00000000
_symmetry_Int_Tables_number   1
_chemical_formula_structural   Co2Si3Pb4SO15
_chemical_formula_sum   'Co4 Si6 Pb8 S2 O30'
_cell_volume   745.34463700
_cell_formula_units_Z   2
loop_
 _symmetry_equiv_pos_site_id
 _symmetry_equiv_pos_as_xyz
  1  'x, y, z'
loop_
 _atom_site_type_symbol
 _atom_site_label
 _atom_site_symmetry_multiplicity
 _atom_site_fract_x
 _atom_site_fract_y
 _atom_site_fract_z
 _atom_site_occupancy
  Co  Co0  1  0.139367  0.984552  0.111138  1
  Co  Co1  1  0.579574  0.511222  0.142691  1
  Co  Co2  1  0.420426  0.011222  0.857309  1
  Co  Co3  1  0.860632  0.484551  0.888861  1
  Si  Si4  1  0.422187  0.018528  0.124691  1
  Si  Si5  1  0.014379  0.483932  0.154813  1
  Si  Si6  1  0.862275  0.558337  0.315124  1
  Si  Si7  1  0.137724  0.058336  0.684876  1
  Si  Si8  1  0.985621  0.983933  0.845187  1
  Si  Si9  1  0.577813  0.518529  0.875309  1
  Pb  Pb10  1  0.769698  0.895014  0.066457  1
  Pb  Pb11  1  0.346777  0.504632  0.281668  1
  Pb  Pb12  1  0.685012  0.020540  0.370162  1
  Pb  Pb13  1  0.044823  0.046000  0.386956  1
  Pb  Pb14  1  0.955177  0.546001  0.613043  1
  Pb  Pb15  1  0.314988  0.520541  0.629837  1
  Pb  Pb16  1  0.653223  0.004632  0.718332  1
  Pb  Pb17  1  0.230302  0.395014  0.933543  1
  S  S18  1  0.352507  0.991072  0.467675  1
  S  S19  1  0.647493  0.491071  0.532325  1
  O  O20  1  0.616879  0.591774  0.007158  1
  O  O21  1  0.900229  0.575559  0.047445  1
  O  O22  1  0.436527  0.712278  0.145135  1
  O  O23  1  0.142148  0.621204  0.153328  1
  O  O24  1  0.026306  0.178540  0.167479  1
  O  O25  1  0.309129  0.125224  0.166642  1
  O  O26  1  0.551144  0.167018  0.188152  1
  O  O27  1  0.740039  0.686400  0.226519  1
  O  O28  1  0.978539  0.594361  0.263545  1
  O  O29  1  0.845853  0.260541  0.336434  1
  O  O30  1  0.604841  0.486105  0.408996  1
  O  O31  1  0.453373  0.964313  0.420948  1
  O  O32  1  0.283873  0.232369  0.429723  1
  O  O33  1  0.262730  0.776174  0.429975  1
  O  O34  1  0.904317  0.730014  0.427225  1
  O  O35  1  0.095684  0.230014  0.572775  1
  O  O36  1  0.737270  0.276173  0.570026  1
  O  O37  1  0.716127  0.732370  0.570277  1
  O  O38  1  0.546627  0.464312  0.579052  1
  O  O39  1  0.395160  0.986106  0.591003  1
  O  O40  1  0.154146  0.760542  0.663566  1
  O  O41  1  0.021461  0.094360  0.736455  1
  O  O42  1  0.259961  0.186399  0.773481  1
  O  O43  1  0.448855  0.667019  0.811848  1
  O  O44  1  0.690871  0.625225  0.833358  1
  O  O45  1  0.973694  0.678541  0.832520  1
  O  O46  1  0.857852  0.121204  0.846672  1
  O  O47  1  0.563473  0.212277  0.854865  1
  O  O48  1  0.099771  0.075559  0.952555  1
  O  O49  1  0.383121  0.091773  0.992842  1
