# generated using pymatgen
data_CeDy3(Tm4Bi3)4
_symmetry_space_group_name_H-M   'P 1'
_cell_length_a   8.20865264
_cell_length_b   9.45026800
_cell_length_c   11.94905900
_cell_angle_alpha   90.00000000
_cell_angle_beta   90.03619789
_cell_angle_gamma   90.00000000
_symmetry_Int_Tables_number   1
_chemical_formula_structural   CeDy3(Tm4Bi3)4
_chemical_formula_sum   'Ce1 Dy3 Tm16 Bi12'
_cell_volume   926.93572774
_cell_formula_units_Z   1
loop_
 _symmetry_equiv_pos_site_id
 _symmetry_equiv_pos_as_xyz
  1  'x, y, z'
loop_
 _atom_site_type_symbol
 _atom_site_label
 _atom_site_symmetry_multiplicity
 _atom_site_fract_x
 _atom_site_fract_y
 _atom_site_fract_z
 _atom_site_occupancy
  Ce  Ce0  1  0.315184  0.250000  0.221329  1
  Dy  Dy1  1  0.814412  0.250000  0.281294  1
  Dy  Dy2  1  0.685934  0.750000  0.782608  1
  Dy  Dy3  1  0.186621  0.750000  0.717829  1
  Tm  Tm4  1  0.351721  0.750000  0.217315  1
  Tm  Tm5  1  0.853021  0.750000  0.282594  1
  Tm  Tm6  1  0.646536  0.250000  0.781888  1
  Tm  Tm7  1  0.146866  0.250000  0.718059  1
  Tm  Tm8  1  0.690618  0.566257  0.060138  1
  Tm  Tm9  1  0.193222  0.934198  0.440426  1
  Tm  Tm10  1  0.308748  0.066369  0.939603  1
  Tm  Tm11  1  0.806931  0.434570  0.560730  1
  Tm  Tm12  1  0.308748  0.433631  0.939603  1
  Tm  Tm13  1  0.806931  0.065430  0.560730  1
  Tm  Tm14  1  0.690618  0.933743  0.060138  1
  Tm  Tm15  1  0.193222  0.565802  0.440426  1
  Tm  Tm16  1  0.476778  0.250000  0.487641  1
  Tm  Tm17  1  0.977481  0.250000  0.009915  1
  Tm  Tm18  1  0.524195  0.750000  0.511472  1
  Tm  Tm19  1  0.022045  0.750000  0.988653  1
  Bi  Bi20  1  0.403372  0.750000  0.958657  1
  Bi  Bi21  1  0.905287  0.750000  0.541050  1
  Bi  Bi22  1  0.598866  0.250000  0.039410  1
  Bi  Bi23  1  0.093243  0.250000  0.460558  1
  Bi  Bi24  1  0.568217  0.992779  0.326671  1
  Bi  Bi25  1  0.062831  0.506643  0.173041  1
  Bi  Bi26  1  0.433975  0.495024  0.673354  1
  Bi  Bi27  1  0.934676  0.004584  0.825901  1
  Bi  Bi28  1  0.433975  0.004976  0.673354  1
  Bi  Bi29  1  0.934676  0.495416  0.825901  1
  Bi  Bi30  1  0.568217  0.507221  0.326671  1
  Bi  Bi31  1  0.062831  0.993357  0.173041  1
