# generated using pymatgen
data_Pr7SmGe4(BO4)8
_symmetry_space_group_name_H-M   'P 1'
_cell_length_a   13.88786151
_cell_length_b   4.53512348
_cell_length_c   9.64304344
_cell_angle_alpha   90.01078564
_cell_angle_beta   90.09702737
_cell_angle_gamma   90.05193587
_symmetry_Int_Tables_number   1
_chemical_formula_structural   Pr7SmGe4(BO4)8
_chemical_formula_sum   'Pr7 Sm1 Ge4 B8 O32'
_cell_volume   607.34828237
_cell_formula_units_Z   1
loop_
 _symmetry_equiv_pos_site_id
 _symmetry_equiv_pos_as_xyz
  1  'x, y, z'
loop_
 _atom_site_type_symbol
 _atom_site_label
 _atom_site_symmetry_multiplicity
 _atom_site_fract_x
 _atom_site_fract_y
 _atom_site_fract_z
 _atom_site_occupancy
  Pr  Pr0  1  0.860697  0.043318  0.026558  1
  Pr  Pr1  1  0.640513  0.543256  0.027019  1
  Pr  Pr2  1  0.140051  0.044967  0.473502  1
  Pr  Pr3  1  0.358736  0.545572  0.472211  1
  Pr  Pr4  1  0.640426  0.455422  0.526572  1
  Pr  Pr5  1  0.859749  0.955164  0.527864  1
  Pr  Pr6  1  0.357780  0.455280  0.973002  1
  Sm  Sm7  1  0.140365  0.953242  0.972288  1
  Ge  Ge8  1  0.499474  0.077512  0.249146  1
  Ge  Ge9  1  0.000678  0.581110  0.248569  1
  Ge  Ge10  1  0.001356  0.421501  0.752051  1
  Ge  Ge11  1  0.499894  0.921559  0.750247  1
  B  B12  1  0.199217  0.465836  0.202731  1
  B  B13  1  0.298012  0.965872  0.202518  1
  B  B14  1  0.799929  0.467327  0.295651  1
  B  B15  1  0.700432  0.966927  0.295946  1
  B  B16  1  0.299644  0.033936  0.704778  1
  B  B17  1  0.200686  0.534037  0.705790  1
  B  B18  1  0.700789  0.032977  0.796315  1
  B  B19  1  0.800292  0.532966  0.796632  1
  O  O20  1  0.189909  0.460361  0.053393  1
  O  O21  1  0.303705  0.959785  0.052775  1
  O  O22  1  0.494663  0.294354  0.099794  1
  O  O23  1  0.007933  0.798270  0.099331  1
  O  O24  1  0.893790  0.355799  0.231725  1
  O  O25  1  0.606245  0.852391  0.233476  1
  O  O26  1  0.720186  0.271946  0.240170  1
  O  O27  1  0.779803  0.772300  0.239810  1
  O  O28  1  0.279398  0.271202  0.258022  1
  O  O29  1  0.219559  0.770210  0.259910  1
  O  O30  1  0.106157  0.352258  0.267172  1
  O  O31  1  0.392779  0.851049  0.263609  1
  O  O32  1  0.504087  0.294425  0.398891  1
  O  O33  1  0.994811  0.797985  0.398047  1
  O  O34  1  0.808268  0.460463  0.444983  1
  O  O35  1  0.692665  0.960675  0.445379  1
  O  O36  1  0.306974  0.040406  0.555155  1
  O  O37  1  0.191771  0.539124  0.556482  1
  O  O38  1  0.005169  0.205952  0.602119  1
  O  O39  1  0.494986  0.704895  0.600439  1
  O  O40  1  0.606759  0.147078  0.733755  1
  O  O41  1  0.894603  0.647263  0.735188  1
  O  O42  1  0.780389  0.228343  0.740435  1
  O  O43  1  0.720928  0.728223  0.740094  1
  O  O44  1  0.220177  0.228039  0.762267  1
  O  O45  1  0.280590  0.728416  0.760295  1
  O  O46  1  0.393709  0.148685  0.766558  1
  O  O47  1  0.107378  0.650936  0.769725  1
  O  O48  1  0.998308  0.200697  0.900407  1
  O  O49  1  0.504297  0.704647  0.899652  1
  O  O50  1  0.693067  0.038129  0.945581  1
  O  O51  1  0.808226  0.537926  0.945974  1
