# generated using pymatgen
data_Pr6TaNb(Co4P3)4
_symmetry_space_group_name_H-M   'P 1'
_cell_length_a   3.77973400
_cell_length_b   10.78957600
_cell_length_c   12.53974100
_cell_angle_alpha   90.00000000
_cell_angle_beta   90.00000000
_cell_angle_gamma   90.00000000
_symmetry_Int_Tables_number   1
_chemical_formula_structural   Pr6TaNb(Co4P3)4
_chemical_formula_sum   'Pr6 Ta1 Nb1 Co16 P12'
_cell_volume   511.39229728
_cell_formula_units_Z   1
loop_
 _symmetry_equiv_pos_site_id
 _symmetry_equiv_pos_as_xyz
  1  'x, y, z'
loop_
 _atom_site_type_symbol
 _atom_site_label
 _atom_site_symmetry_multiplicity
 _atom_site_fract_x
 _atom_site_fract_y
 _atom_site_fract_z
 _atom_site_occupancy
  Pr  Pr0  1  0.000000  0.500000  0.525693  1
  Pr  Pr1  1  0.500000  0.000000  0.474174  1
  Pr  Pr2  1  0.500000  0.819785  0.205524  1
  Pr  Pr3  1  0.500000  0.180215  0.205524  1
  Pr  Pr4  1  0.000000  0.679928  0.794224  1
  Pr  Pr5  1  0.000000  0.320072  0.794224  1
  Ta  Ta6  1  0.000000  0.000000  0.846413  1
  Nb  Nb7  1  0.500000  0.500000  0.154316  1
  Co  Co8  1  0.500000  0.500000  0.703869  1
  Co  Co9  1  0.000000  0.000000  0.295932  1
  Co  Co10  1  0.000000  0.500000  0.987313  1
  Co  Co11  1  0.500000  0.000000  0.011687  1
  Co  Co12  1  0.500000  0.332161  0.992857  1
  Co  Co13  1  0.500000  0.667839  0.992857  1
  Co  Co14  1  0.000000  0.167102  0.006367  1
  Co  Co15  1  0.000000  0.832898  0.006367  1
  Co  Co16  1  0.500000  0.295505  0.432293  1
  Co  Co17  1  0.500000  0.704495  0.432293  1
  Co  Co18  1  0.000000  0.204062  0.568339  1
  Co  Co19  1  0.000000  0.795938  0.568339  1
  Co  Co20  1  0.500000  0.880685  0.706980  1
  Co  Co21  1  0.500000  0.119315  0.706980  1
  Co  Co22  1  0.000000  0.619833  0.294426  1
  Co  Co23  1  0.000000  0.380167  0.294426  1
  P  P24  1  0.500000  0.500000  0.887247  1
  P  P25  1  0.000000  0.000000  0.113002  1
  P  P26  1  0.500000  0.500000  0.349881  1
  P  P27  1  0.000000  0.000000  0.649561  1
  P  P28  1  0.500000  0.305250  0.613648  1
  P  P29  1  0.500000  0.694750  0.613648  1
  P  P30  1  0.000000  0.194667  0.386467  1
  P  P31  1  0.000000  0.805333  0.386467  1
  P  P32  1  0.500000  0.843511  0.896287  1
  P  P33  1  0.500000  0.156489  0.896287  1
  P  P34  1  0.000000  0.656326  0.103042  1
  P  P35  1  0.000000  0.343674  0.103042  1
