# generated using pymatgen
data_Nd16AlCd2HgIr4
_symmetry_space_group_name_H-M   'P 1'
_cell_length_a   9.92497034
_cell_length_b   9.92496955
_cell_length_c   9.93136289
_cell_angle_alpha   60.03902851
_cell_angle_beta   60.03902379
_cell_angle_gamma   60.06425661
_symmetry_Int_Tables_number   1
_chemical_formula_structural   Nd16AlCd2HgIr4
_chemical_formula_sum   'Nd16 Al1 Cd2 Hg1 Ir4'
_cell_volume   692.49858541
_cell_formula_units_Z   1
loop_
 _symmetry_equiv_pos_site_id
 _symmetry_equiv_pos_as_xyz
  1  'x, y, z'
loop_
 _atom_site_type_symbol
 _atom_site_label
 _atom_site_symmetry_multiplicity
 _atom_site_fract_x
 _atom_site_fract_y
 _atom_site_fract_z
 _atom_site_occupancy
  Nd  Nd0  1  0.348211  0.348211  0.348072  1
  Nd  Nd1  1  0.350580  0.350580  0.951465  1
  Nd  Nd2  1  0.350829  0.950449  0.350731  1
  Nd  Nd3  1  0.950449  0.350829  0.350731  1
  Nd  Nd4  1  0.808891  0.190187  0.190892  1
  Nd  Nd5  1  0.191658  0.806967  0.807180  1
  Nd  Nd6  1  0.190187  0.808891  0.190892  1
  Nd  Nd7  1  0.806967  0.191658  0.807180  1
  Nd  Nd8  1  0.189927  0.189927  0.809550  1
  Nd  Nd9  1  0.806451  0.806451  0.192402  1
  Nd  Nd10  1  0.937357  0.561703  0.562087  1
  Nd  Nd11  1  0.560261  0.938660  0.940456  1
  Nd  Nd12  1  0.561703  0.937357  0.562087  1
  Nd  Nd13  1  0.938660  0.560261  0.940456  1
  Nd  Nd14  1  0.561426  0.561426  0.939441  1
  Nd  Nd15  1  0.939099  0.939099  0.560982  1
  Al  Al16  1  0.579486  0.579486  0.578641  1
  Cd  Cd17  1  0.579542  0.263101  0.580430  1
  Cd  Cd18  1  0.263101  0.579542  0.580430  1
  Hg  Hg19  1  0.583400  0.583400  0.253727  1
  Ir  Ir20  1  0.141915  0.141915  0.142008  1
  Ir  Ir21  1  0.142188  0.142188  0.575382  1
  Ir  Ir22  1  0.142332  0.575377  0.142387  1
  Ir  Ir23  1  0.575377  0.142332  0.142387  1
