# generated using pymatgen
data_La5Pr3Te2(WO12)2
_symmetry_space_group_name_H-M   'P 1'
_cell_length_a   5.52942354
_cell_length_b   9.52637572
_cell_length_c   10.43184781
_cell_angle_alpha   89.99457758
_cell_angle_beta   90.04495983
_cell_angle_gamma   90.21523200
_symmetry_Int_Tables_number   1
_chemical_formula_structural   La5Pr3Te2(WO12)2
_chemical_formula_sum   'La5 Pr3 Te2 W2 O24'
_cell_volume   549.49735497
_cell_formula_units_Z   1
loop_
 _symmetry_equiv_pos_site_id
 _symmetry_equiv_pos_as_xyz
  1  'x, y, z'
loop_
 _atom_site_type_symbol
 _atom_site_label
 _atom_site_symmetry_multiplicity
 _atom_site_fract_x
 _atom_site_fract_y
 _atom_site_fract_z
 _atom_site_occupancy
  La  La0  1  0.028860  0.217839  0.138274  1
  La  La1  1  0.471724  0.782030  0.638363  1
  La  La2  1  0.967319  0.719059  0.360472  1
  La  La3  1  0.532886  0.281280  0.860965  1
  La  La4  1  0.024923  0.102633  0.541422  1
  Pr  Pr5  1  0.476748  0.897495  0.041153  1
  Pr  Pr6  1  0.978132  0.604743  0.958671  1
  Pr  Pr7  1  0.521007  0.396490  0.458351  1
  Te  Te8  1  0.461697  0.505252  0.142389  1
  Te  Te9  1  0.038214  0.495595  0.642670  1
  W  W10  1  0.538427  0.002852  0.355289  1
  W  W11  1  0.961478  0.996090  0.857060  1
  O  O12  1  0.421705  0.151781  0.470393  1
  O  O13  1  0.080212  0.847975  0.972206  1
  O  O14  1  0.576131  0.651351  0.025672  1
  O  O15  1  0.922873  0.350605  0.524976  1
  O  O16  1  0.725771  0.392349  0.066143  1
  O  O17  1  0.774641  0.609251  0.566740  1
  O  O18  1  0.280997  0.887480  0.437555  1
  O  O19  1  0.219910  0.111883  0.937871  1
  O  O20  1  0.258183  0.417041  0.007260  1
  O  O21  1  0.242140  0.583957  0.507889  1
  O  O22  1  0.745638  0.912524  0.490635  1
  O  O23  1  0.754354  0.086650  0.992413  1
  O  O24  1  0.194330  0.634620  0.175997  1
  O  O25  1  0.304664  0.365003  0.675661  1
  O  O26  1  0.803197  0.135218  0.325438  1
  O  O27  1  0.695774  0.863604  0.828228  1
  O  O28  1  0.327205  0.046002  0.215934  1
  O  O29  1  0.171306  0.952147  0.717557  1
  O  O30  1  0.662197  0.555461  0.287366  1
  O  O31  1  0.837433  0.445035  0.787242  1
  O  O32  1  0.328879  0.360934  0.253051  1
  O  O33  1  0.172265  0.639121  0.753503  1
  O  O34  1  0.683755  0.867026  0.241823  1
  O  O35  1  0.815025  0.131622  0.743367  1
