# generated using pymatgen
data_Pa3Al12CuTc3
_symmetry_space_group_name_H-M   'P 1'
_cell_length_a   8.83270500
_cell_length_b   8.83270537
_cell_length_c   9.61565000
_cell_angle_alpha   90.00000000
_cell_angle_beta   90.00000000
_cell_angle_gamma   119.07073089
_symmetry_Int_Tables_number   1
_chemical_formula_structural   Pa3Al12CuTc3
_chemical_formula_sum   'Pa6 Al24 Cu2 Tc6'
_cell_volume   655.67369502
_cell_formula_units_Z   2
loop_
 _symmetry_equiv_pos_site_id
 _symmetry_equiv_pos_as_xyz
  1  'x, y, z'
loop_
 _atom_site_type_symbol
 _atom_site_label
 _atom_site_symmetry_multiplicity
 _atom_site_fract_x
 _atom_site_fract_y
 _atom_site_fract_z
 _atom_site_occupancy
  Pa  Pa0  1  0.200647  0.799353  0.250000  1
  Pa  Pa1  1  0.183963  0.393172  0.250000  1
  Pa  Pa2  1  0.606828  0.816037  0.250000  1
  Pa  Pa3  1  0.799353  0.200647  0.750000  1
  Pa  Pa4  1  0.816037  0.606828  0.750000  1
  Pa  Pa5  1  0.393172  0.183963  0.750000  1
  Al  Al6  1  0.555267  0.444733  0.250000  1
  Al  Al7  1  0.560245  0.132087  0.250000  1
  Al  Al8  1  0.867913  0.439755  0.250000  1
  Al  Al9  1  0.444733  0.555267  0.750000  1
  Al  Al10  1  0.439755  0.867913  0.750000  1
  Al  Al11  1  0.132087  0.560245  0.750000  1
  Al  Al12  1  0.319306  0.157510  0.420159  1
  Al  Al13  1  0.836785  0.163215  0.420055  1
  Al  Al14  1  0.842490  0.680694  0.420159  1
  Al  Al15  1  0.680694  0.842490  0.579841  1
  Al  Al16  1  0.163215  0.836785  0.579945  1
  Al  Al17  1  0.157510  0.319306  0.579841  1
  Al  Al18  1  0.680694  0.842490  0.920159  1
  Al  Al19  1  0.163215  0.836785  0.920055  1
  Al  Al20  1  0.157510  0.319306  0.920159  1
  Al  Al21  1  0.319306  0.157510  0.079841  1
  Al  Al22  1  0.836785  0.163215  0.079945  1
  Al  Al23  1  0.842490  0.680694  0.079841  1
  Al  Al24  1  0.665286  0.334714  0.515970  1
  Al  Al25  1  0.334714  0.665286  0.484030  1
  Al  Al26  1  0.334714  0.665286  0.015970  1
  Al  Al27  1  0.665286  0.334714  0.984030  1
  Al  Al28  1  0.998787  0.001213  0.250000  1
  Al  Al29  1  0.001213  0.998787  0.750000  1
  Cu  Cu30  1  0.500000  0.500000  0.500000  1
  Cu  Cu31  1  0.500000  0.500000  0.000000  1
  Tc  Tc32  1  0.000000  0.000000  0.500000  1
  Tc  Tc33  1  0.000000  0.000000  0.000000  1
  Tc  Tc34  1  0.500000  0.000000  0.500000  1
  Tc  Tc35  1  0.000000  0.500000  0.500000  1
  Tc  Tc36  1  0.500000  0.000000  0.000000  1
  Tc  Tc37  1  0.000000  0.500000  0.000000  1
