# generated using pymatgen
data_Zr4ScTe8
_symmetry_space_group_name_H-M   'P 1'
_cell_length_a   8.03159111
_cell_length_b   8.03159121
_cell_length_c   9.77083873
_cell_angle_alpha   52.27884419
_cell_angle_beta   52.27884294
_cell_angle_gamma   60.02302451
_symmetry_Int_Tables_number   1
_chemical_formula_structural   Zr4ScTe8
_chemical_formula_sum   'Zr4 Sc1 Te8'
_cell_volume   386.36075951
_cell_formula_units_Z   1
loop_
 _symmetry_equiv_pos_site_id
 _symmetry_equiv_pos_as_xyz
  1  'x, y, z'
loop_
 _atom_site_type_symbol
 _atom_site_label
 _atom_site_symmetry_multiplicity
 _atom_site_fract_x
 _atom_site_fract_y
 _atom_site_fract_z
 _atom_site_occupancy
  Zr  Zr0  1  0.734906  0.265094  0.500000  1
  Zr  Zr1  1  0.265094  0.734906  0.500000  1
  Zr  Zr2  1  0.747444  0.747444  0.011574  1
  Zr  Zr3  1  0.252556  0.252556  0.988426  1
  Sc  Sc4  1  0.000000  0.000000  0.000000  1
  Te  Te5  1  0.452753  0.452753  0.330151  1
  Te  Te6  1  0.547247  0.547247  0.669849  1
  Te  Te7  1  0.537605  0.051842  0.171457  1
  Te  Te8  1  0.462395  0.948158  0.828543  1
  Te  Te9  1  0.948158  0.462395  0.828543  1
  Te  Te10  1  0.051842  0.537605  0.171457  1
  Te  Te11  1  0.954637  0.954637  0.339713  1
  Te  Te12  1  0.045363  0.045363  0.660287  1
