# generated using pymatgen
data_Tb7Ho4Cd9Pd4
_symmetry_space_group_name_H-M   'P 1'
_cell_length_a   13.16415485
_cell_length_b   13.16415599
_cell_length_c   3.72842800
_cell_angle_alpha   90.00000000
_cell_angle_beta   90.00000000
_cell_angle_gamma   112.88898031
_symmetry_Int_Tables_number   1
_chemical_formula_structural   Tb7Ho4Cd9Pd4
_chemical_formula_sum   'Tb7 Ho4 Cd9 Pd4'
_cell_volume   595.24271059
_cell_formula_units_Z   1
loop_
 _symmetry_equiv_pos_site_id
 _symmetry_equiv_pos_as_xyz
  1  'x, y, z'
loop_
 _atom_site_type_symbol
 _atom_site_label
 _atom_site_symmetry_multiplicity
 _atom_site_fract_x
 _atom_site_fract_y
 _atom_site_fract_z
 _atom_site_occupancy
  Tb  Tb0  1  0.162605  0.837395  0.000000  1
  Tb  Tb1  1  0.837395  0.162605  0.000000  1
  Tb  Tb2  1  0.372273  0.627727  0.000000  1
  Tb  Tb3  1  0.627727  0.372273  0.000000  1
  Tb  Tb4  1  0.307351  0.307351  0.000000  1
  Tb  Tb5  1  0.692649  0.692649  0.000000  1
  Tb  Tb6  1  0.000000  0.000000  0.000000  1
  Ho  Ho7  1  0.415637  0.075252  0.000000  1
  Ho  Ho8  1  0.584363  0.924748  0.000000  1
  Ho  Ho9  1  0.075252  0.415637  0.000000  1
  Ho  Ho10  1  0.924748  0.584363  0.000000  1
  Cd  Cd11  1  0.367027  0.843395  0.500000  1
  Cd  Cd12  1  0.632973  0.156605  0.500000  1
  Cd  Cd13  1  0.843395  0.367027  0.500000  1
  Cd  Cd14  1  0.156605  0.632973  0.500000  1
  Cd  Cd15  1  0.214605  0.069017  0.500000  1
  Cd  Cd16  1  0.785395  0.930983  0.500000  1
  Cd  Cd17  1  0.069017  0.214605  0.500000  1
  Cd  Cd18  1  0.930983  0.785395  0.500000  1
  Cd  Cd19  1  0.500000  0.500000  0.500000  1
  Pd  Pd20  1  0.450845  0.248517  0.500000  1
  Pd  Pd21  1  0.549155  0.751483  0.500000  1
  Pd  Pd22  1  0.248517  0.450845  0.500000  1
  Pd  Pd23  1  0.751483  0.549155  0.500000  1
