# generated using pymatgen
data_SrFeIO6
_symmetry_space_group_name_H-M   'P 1'
_cell_length_a   5.25080000
_cell_length_b   5.25079984
_cell_length_c   5.41801300
_cell_angle_alpha   90.00000000
_cell_angle_beta   90.00000000
_cell_angle_gamma   120.00000104
_symmetry_Int_Tables_number   1
_chemical_formula_structural   SrFeIO6
_chemical_formula_sum   'Sr1 Fe1 I1 O6'
_cell_volume   129.36643474
_cell_formula_units_Z   1
loop_
 _symmetry_equiv_pos_site_id
 _symmetry_equiv_pos_as_xyz
  1  'x, y, z'
loop_
 _atom_site_type_symbol
 _atom_site_label
 _atom_site_symmetry_multiplicity
 _atom_site_fract_x
 _atom_site_fract_y
 _atom_site_fract_z
 _atom_site_occupancy
  Sr  Sr0  1  0.000000  0.000000  0.000000  1
  Fe  Fe1  1  0.333333  0.666667  0.500000  1
  I  I2  1  0.666667  0.333333  0.500000  1
  O  O3  1  0.385725  0.018935  0.700696  1
  O  O4  1  0.981065  0.366791  0.700696  1
  O  O5  1  0.633209  0.614275  0.700696  1
  O  O6  1  0.981065  0.614275  0.299304  1
  O  O7  1  0.633209  0.018935  0.299304  1
  O  O8  1  0.385725  0.366791  0.299304  1
