# generated using pymatgen
data_TiMo(IrRh)3
_symmetry_space_group_name_H-M   'P 1'
_cell_length_a   5.51112600
_cell_length_b   5.51112713
_cell_length_c   4.41673100
_cell_angle_alpha   90.00000000
_cell_angle_beta   90.00000000
_cell_angle_gamma   119.99998122
_symmetry_Int_Tables_number   1
_chemical_formula_structural   TiMo(IrRh)3
_chemical_formula_sum   'Ti1 Mo1 Ir3 Rh3'
_cell_volume   116.17493361
_cell_formula_units_Z   1
loop_
 _symmetry_equiv_pos_site_id
 _symmetry_equiv_pos_as_xyz
  1  'x, y, z'
loop_
 _atom_site_type_symbol
 _atom_site_label
 _atom_site_symmetry_multiplicity
 _atom_site_fract_x
 _atom_site_fract_y
 _atom_site_fract_z
 _atom_site_occupancy
  Ti  Ti0  1  0.333333  0.666667  0.250000  1
  Mo  Mo1  1  0.666667  0.333333  0.750000  1
  Ir  Ir2  1  0.833990  0.667981  0.250000  1
  Ir  Ir3  1  0.332019  0.166010  0.250000  1
  Ir  Ir4  1  0.833990  0.166010  0.250000  1
  Rh  Rh5  1  0.165696  0.834304  0.750000  1
  Rh  Rh6  1  0.668608  0.834304  0.750000  1
  Rh  Rh7  1  0.165696  0.331392  0.750000  1
