# generated using pymatgen
data_Zn3Bi4Te4RhO24
_symmetry_space_group_name_H-M   'P 1'
_cell_length_a   5.30523223
_cell_length_b   9.20983101
_cell_length_c   9.94074323
_cell_angle_alpha   89.99999198
_cell_angle_beta   90.12731878
_cell_angle_gamma   90.00074835
_symmetry_Int_Tables_number   1
_chemical_formula_structural   Zn3Bi4Te4RhO24
_chemical_formula_sum   'Zn3 Bi4 Te4 Rh1 O24'
_cell_volume   485.70642024
_cell_formula_units_Z   1
loop_
 _symmetry_equiv_pos_site_id
 _symmetry_equiv_pos_as_xyz
  1  'x, y, z'
loop_
 _atom_site_type_symbol
 _atom_site_label
 _atom_site_symmetry_multiplicity
 _atom_site_fract_x
 _atom_site_fract_y
 _atom_site_fract_z
 _atom_site_occupancy
  Zn  Zn0  1  0.500018  0.832635  0.749998  1
  Zn  Zn1  1  0.499984  0.169208  0.250000  1
  Zn  Zn2  1  0.000015  0.333976  0.749997  1
  Bi  Bi3  1  0.004179  0.004690  0.509497  1
  Bi  Bi4  1  0.491537  0.494267  0.513546  1
  Bi  Bi5  1  0.995835  0.004694  0.990502  1
  Bi  Bi6  1  0.508481  0.494266  0.986453  1
  Te  Te7  1  0.500017  0.164910  0.750001  1
  Te  Te8  1  0.000022  0.668492  0.750003  1
  Te  Te9  1  0.999984  0.328352  0.250000  1
  Te  Te10  1  0.499985  0.838902  0.249999  1
  Rh  Rh11  1  0.999984  0.663616  0.250001  1
  O  O12  1  0.640954  0.009790  0.640054  1
  O  O13  1  0.137864  0.509346  0.639429  1
  O  O14  1  0.663778  0.314362  0.640045  1
  O  O15  1  0.166049  0.815275  0.638440  1
  O  O16  1  0.194581  0.176373  0.638941  1
  O  O17  1  0.694408  0.674293  0.640457  1
  O  O18  1  0.170098  0.189421  0.136642  1
  O  O19  1  0.684241  0.684127  0.143704  1
  O  O20  1  0.126425  0.500012  0.140390  1
  O  O21  1  0.633095  0.988441  0.136740  1
  O  O22  1  0.697232  0.326617  0.139896  1
  O  O23  1  0.192328  0.812928  0.139134  1
  O  O24  1  0.873540  0.500012  0.359613  1
  O  O25  1  0.366879  0.988443  0.363252  1
  O  O26  1  0.829864  0.189424  0.363362  1
  O  O27  1  0.315720  0.684133  0.356296  1
  O  O28  1  0.302731  0.326617  0.360109  1
  O  O29  1  0.807634  0.812930  0.360862  1
  O  O30  1  0.336246  0.314361  0.859953  1
  O  O31  1  0.833979  0.815277  0.861561  1
  O  O32  1  0.359067  0.009792  0.859944  1
  O  O33  1  0.862164  0.509346  0.860581  1
  O  O34  1  0.805449  0.176375  0.861052  1
  O  O35  1  0.305632  0.674297  0.859546  1
