# generated using pymatgen
data_Ho7VO12
_symmetry_space_group_name_H-M   'P 1'
_cell_length_a   6.59386391
_cell_length_b   6.59386365
_cell_length_c   6.59386318
_cell_angle_alpha   93.23506033
_cell_angle_beta   93.23506744
_cell_angle_gamma   93.23506642
_symmetry_Int_Tables_number   1
_chemical_formula_structural   Ho7VO12
_chemical_formula_sum   'Ho7 V1 O12'
_cell_volume   285.27024892
_cell_formula_units_Z   1
loop_
 _symmetry_equiv_pos_site_id
 _symmetry_equiv_pos_as_xyz
  1  'x, y, z'
loop_
 _atom_site_type_symbol
 _atom_site_label
 _atom_site_symmetry_multiplicity
 _atom_site_fract_x
 _atom_site_fract_y
 _atom_site_fract_z
 _atom_site_occupancy
  Ho  Ho0  1  0.739380  0.924917  0.436108  1
  Ho  Ho1  1  0.924917  0.436108  0.739380  1
  Ho  Ho2  1  0.436108  0.739380  0.924917  1
  Ho  Ho3  1  0.260620  0.075083  0.563892  1
  Ho  Ho4  1  0.075083  0.563892  0.260620  1
  Ho  Ho5  1  0.563892  0.260620  0.075083  1
  Ho  Ho6  1  0.000000  0.000000  0.000000  1
  V  V7  1  0.500000  0.500000  0.500000  1
  O  O8  1  0.590185  0.463091  0.801382  1
  O  O9  1  0.463091  0.801382  0.590185  1
  O  O10  1  0.801382  0.590185  0.463091  1
  O  O11  1  0.409815  0.536909  0.198618  1
  O  O12  1  0.536909  0.198618  0.409815  1
  O  O13  1  0.198618  0.409815  0.536909  1
  O  O14  1  0.068948  0.906708  0.318777  1
  O  O15  1  0.906708  0.318777  0.068948  1
  O  O16  1  0.681223  0.931052  0.093292  1
  O  O17  1  0.093292  0.681223  0.931052  1
  O  O18  1  0.931052  0.093292  0.681223  1
  O  O19  1  0.318777  0.068948  0.906708  1
