# generated using pymatgen
data_DyEr4(Cd2Ni)2
_symmetry_space_group_name_H-M   'P 1'
_cell_length_a   3.54112800
_cell_length_b   7.83131000
_cell_length_c   18.09293000
_cell_angle_alpha   90.00000000
_cell_angle_beta   90.00000000
_cell_angle_gamma   90.00000000
_symmetry_Int_Tables_number   1
_chemical_formula_structural   DyEr4(Cd2Ni)2
_chemical_formula_sum   'Dy2 Er8 Cd8 Ni4'
_cell_volume   501.74718432
_cell_formula_units_Z   2
loop_
 _symmetry_equiv_pos_site_id
 _symmetry_equiv_pos_as_xyz
  1  'x, y, z'
loop_
 _atom_site_type_symbol
 _atom_site_label
 _atom_site_symmetry_multiplicity
 _atom_site_fract_x
 _atom_site_fract_y
 _atom_site_fract_z
 _atom_site_occupancy
  Dy  Dy0  1  0.500000  0.500000  0.000000  1
  Dy  Dy1  1  0.500000  0.000000  0.500000  1
  Er  Er2  1  0.500000  0.384698  0.589221  1
  Er  Er3  1  0.500000  0.884698  0.910779  1
  Er  Er4  1  0.500000  0.115302  0.089221  1
  Er  Er5  1  0.500000  0.753579  0.720129  1
  Er  Er6  1  0.500000  0.253579  0.779871  1
  Er  Er7  1  0.500000  0.746421  0.220129  1
  Er  Er8  1  0.500000  0.246421  0.279871  1
  Er  Er9  1  0.500000  0.615302  0.410779  1
  Cd  Cd10  1  0.000000  0.791831  0.068569  1
  Cd  Cd11  1  0.000000  0.928722  0.347944  1
  Cd  Cd12  1  0.000000  0.071278  0.652056  1
  Cd  Cd13  1  0.000000  0.571278  0.847944  1
  Cd  Cd14  1  0.000000  0.708169  0.568569  1
  Cd  Cd15  1  0.000000  0.208169  0.931431  1
  Cd  Cd16  1  0.000000  0.291831  0.431431  1
  Cd  Cd17  1  0.000000  0.428722  0.152056  1
  Ni  Ni18  1  0.000000  0.972506  0.803636  1
  Ni  Ni19  1  0.000000  0.527494  0.303636  1
  Ni  Ni20  1  0.000000  0.472506  0.696364  1
  Ni  Ni21  1  0.000000  0.027494  0.196364  1
