# generated using pymatgen
data_Tm4LuCu2Sb
_symmetry_space_group_name_H-M   'P 1'
_cell_length_a   8.40652969
_cell_length_b   8.40653029
_cell_length_c   8.40652924
_cell_angle_alpha   124.74853775
_cell_angle_beta   124.74854278
_cell_angle_gamma   81.95495325
_symmetry_Int_Tables_number   1
_chemical_formula_structural   Tm4LuCu2Sb
_chemical_formula_sum   'Tm8 Lu2 Cu4 Sb2'
_cell_volume   385.74591532
_cell_formula_units_Z   2
loop_
 _symmetry_equiv_pos_site_id
 _symmetry_equiv_pos_as_xyz
  1  'x, y, z'
loop_
 _atom_site_type_symbol
 _atom_site_label
 _atom_site_symmetry_multiplicity
 _atom_site_fract_x
 _atom_site_fract_y
 _atom_site_fract_z
 _atom_site_occupancy
  Tm  Tm0  1  0.795744  0.295744  0.809949  1
  Tm  Tm1  1  0.204256  0.704256  0.190051  1
  Tm  Tm2  1  0.485795  0.985795  0.190051  1
  Tm  Tm3  1  0.295744  0.485795  0.500000  1
  Tm  Tm4  1  0.014205  0.204256  0.500000  1
  Tm  Tm5  1  0.514205  0.014205  0.809949  1
  Tm  Tm6  1  0.704256  0.514205  0.500000  1
  Tm  Tm7  1  0.985795  0.795744  0.500000  1
  Lu  Lu8  1  0.000000  0.000000  0.000000  1
  Lu  Lu9  1  0.500000  0.500000  0.000000  1
  Cu  Cu10  1  0.133079  0.633079  0.766159  1
  Cu  Cu11  1  0.866921  0.366921  0.233841  1
  Cu  Cu12  1  0.633079  0.866921  0.500000  1
  Cu  Cu13  1  0.366921  0.133079  0.500000  1
  Sb  Sb14  1  0.250000  0.250000  0.000000  1
  Sb  Sb15  1  0.750000  0.750000  0.000000  1
