# generated using pymatgen
data_PrAl4Cu9
_symmetry_space_group_name_H-M   'P 1'
_cell_length_a   8.29271873
_cell_length_b   8.29271744
_cell_length_c   8.29271784
_cell_angle_alpha   120.15254956
_cell_angle_beta   120.15254986
_cell_angle_gamma   89.73597432
_symmetry_Int_Tables_number   1
_chemical_formula_structural   PrAl4Cu9
_chemical_formula_sum   'Pr2 Al8 Cu18'
_cell_volume   402.31679807
_cell_formula_units_Z   2
loop_
 _symmetry_equiv_pos_site_id
 _symmetry_equiv_pos_as_xyz
  1  'x, y, z'
loop_
 _atom_site_type_symbol
 _atom_site_label
 _atom_site_symmetry_multiplicity
 _atom_site_fract_x
 _atom_site_fract_y
 _atom_site_fract_z
 _atom_site_occupancy
  Pr  Pr0  1  0.750000  0.750000  0.000000  1
  Pr  Pr1  1  0.250000  0.250000  0.000000  1
  Al  Al2  1  0.058841  0.558841  0.861013  1
  Al  Al3  1  0.697828  0.197828  0.138987  1
  Al  Al4  1  0.558841  0.697828  0.500000  1
  Al  Al5  1  0.197828  0.058841  0.500000  1
  Al  Al6  1  0.941159  0.441159  0.138987  1
  Al  Al7  1  0.302172  0.802172  0.861013  1
  Al  Al8  1  0.441159  0.302172  0.500000  1
  Al  Al9  1  0.802172  0.941159  0.500000  1
  Cu  Cu10  1  0.060174  0.202836  0.263011  1
  Cu  Cu11  1  0.939826  0.797164  0.736989  1
  Cu  Cu12  1  0.560174  0.297164  0.857337  1
  Cu  Cu13  1  0.439826  0.702836  0.142663  1
  Cu  Cu14  1  0.797164  0.060174  0.857337  1
  Cu  Cu15  1  0.202836  0.939826  0.142663  1
  Cu  Cu16  1  0.702836  0.560174  0.263011  1
  Cu  Cu17  1  0.297164  0.439826  0.736989  1
  Cu  Cu18  1  0.438027  0.938027  0.732892  1
  Cu  Cu19  1  0.205135  0.705135  0.267108  1
  Cu  Cu20  1  0.938027  0.205135  0.500000  1
  Cu  Cu21  1  0.705135  0.438027  0.500000  1
  Cu  Cu22  1  0.561973  0.061973  0.267108  1
  Cu  Cu23  1  0.794865  0.294865  0.732892  1
  Cu  Cu24  1  0.061973  0.794865  0.500000  1
  Cu  Cu25  1  0.294865  0.561973  0.500000  1
  Cu  Cu26  1  0.000000  0.500000  0.500000  1
  Cu  Cu27  1  0.500000  0.000000  0.500000  1
