# generated using pymatgen
data_Ho2FeCoI
_symmetry_space_group_name_H-M   'P 1'
_cell_length_a   3.95046600
_cell_length_b   3.95046558
_cell_length_c   17.02236700
_cell_angle_alpha   90.00000000
_cell_angle_beta   90.00000000
_cell_angle_gamma   119.99998681
_symmetry_Int_Tables_number   1
_chemical_formula_structural   Ho2FeCoI
_chemical_formula_sum   'Ho4 Fe2 Co2 I2'
_cell_volume   230.06324921
_cell_formula_units_Z   2
loop_
 _symmetry_equiv_pos_site_id
 _symmetry_equiv_pos_as_xyz
  1  'x, y, z'
loop_
 _atom_site_type_symbol
 _atom_site_label
 _atom_site_symmetry_multiplicity
 _atom_site_fract_x
 _atom_site_fract_y
 _atom_site_fract_z
 _atom_site_occupancy
  Ho  Ho0  1  0.000000  0.000000  0.102118  1
  Ho  Ho1  1  0.000000  0.000000  0.897882  1
  Ho  Ho2  1  0.000000  0.000000  0.603282  1
  Ho  Ho3  1  0.000000  0.000000  0.396718  1
  Fe  Fe4  1  0.333333  0.666667  0.505376  1
  Fe  Fe5  1  0.666667  0.333333  0.494624  1
  Co  Co6  1  0.666667  0.333333  0.001901  1
  Co  Co7  1  0.333333  0.666667  0.998099  1
  I  I8  1  0.333333  0.666667  0.247567  1
  I  I9  1  0.666667  0.333333  0.752433  1
