# generated using pymatgen
data_Y20GaBi9Sb2
_symmetry_space_group_name_H-M   'P 1'
_cell_length_a   8.20980474
_cell_length_b   9.47237900
_cell_length_c   12.06699631
_cell_angle_alpha   90.00000000
_cell_angle_beta   90.25040017
_cell_angle_gamma   90.00000000
_symmetry_Int_Tables_number   1
_chemical_formula_structural   Y20GaBi9Sb2
_chemical_formula_sum   'Y20 Ga1 Bi9 Sb2'
_cell_volume   938.39768376
_cell_formula_units_Z   1
loop_
 _symmetry_equiv_pos_site_id
 _symmetry_equiv_pos_as_xyz
  1  'x, y, z'
loop_
 _atom_site_type_symbol
 _atom_site_label
 _atom_site_symmetry_multiplicity
 _atom_site_fract_x
 _atom_site_fract_y
 _atom_site_fract_z
 _atom_site_occupancy
  Y  Y0  1  0.036427  0.750000  0.990080  1
  Y  Y1  1  0.527454  0.750000  0.511464  1
  Y  Y2  1  0.972920  0.250000  0.010375  1
  Y  Y3  1  0.468976  0.250000  0.488463  1
  Y  Y4  1  0.190400  0.750000  0.722865  1
  Y  Y5  1  0.673014  0.750000  0.787883  1
  Y  Y6  1  0.814536  0.250000  0.281150  1
  Y  Y7  1  0.316648  0.250000  0.219025  1
  Y  Y8  1  0.311268  0.449359  0.941322  1
  Y  Y9  1  0.808493  0.064093  0.558652  1
  Y  Y10  1  0.685366  0.935657  0.055461  1
  Y  Y11  1  0.193350  0.558299  0.439088  1
  Y  Y12  1  0.685366  0.564343  0.055461  1
  Y  Y13  1  0.193350  0.941701  0.439088  1
  Y  Y14  1  0.311268  0.050641  0.941322  1
  Y  Y15  1  0.808493  0.435907  0.558652  1
  Y  Y16  1  0.354994  0.750000  0.205613  1
  Y  Y17  1  0.852210  0.750000  0.285687  1
  Y  Y18  1  0.647842  0.250000  0.788934  1
  Y  Y19  1  0.147780  0.250000  0.712223  1
  Ga  Ga20  1  0.410479  0.750000  0.961519  1
  Bi  Bi21  1  0.435480  0.004149  0.674719  1
  Bi  Bi22  1  0.935280  0.497521  0.825405  1
  Bi  Bi23  1  0.565280  0.504442  0.325773  1
  Bi  Bi24  1  0.064021  0.996890  0.174745  1
  Bi  Bi25  1  0.565280  0.995558  0.325773  1
  Bi  Bi26  1  0.064021  0.503110  0.174745  1
  Bi  Bi27  1  0.435480  0.495851  0.674719  1
  Bi  Bi28  1  0.935280  0.002479  0.825405  1
  Bi  Bi29  1  0.911790  0.750000  0.543975  1
  Sb  Sb30  1  0.589130  0.250000  0.040972  1
  Sb  Sb31  1  0.088327  0.250000  0.459442  1
