# generated using pymatgen
data_Ca3La16HoPb16
_symmetry_space_group_name_H-M   'P 1'
_cell_length_a   8.61456108
_cell_length_b   16.52446800
_cell_length_c   8.69791100
_cell_angle_alpha   90.00000000
_cell_angle_beta   90.00766200
_cell_angle_gamma   90.00000000
_symmetry_Int_Tables_number   1
_chemical_formula_structural   Ca3La16HoPb16
_chemical_formula_sum   'Ca3 La16 Ho1 Pb16'
_cell_volume   1238.15665562
_cell_formula_units_Z   1
loop_
 _symmetry_equiv_pos_site_id
 _symmetry_equiv_pos_as_xyz
  1  'x, y, z'
loop_
 _atom_site_type_symbol
 _atom_site_label
 _atom_site_symmetry_multiplicity
 _atom_site_fract_x
 _atom_site_fract_y
 _atom_site_fract_z
 _atom_site_occupancy
  Ca  Ca0  1  0.790118  0.750000  0.496135  1
  Ca  Ca1  1  0.290719  0.750000  0.003254  1
  Ca  Ca2  1  0.210915  0.250000  0.502789  1
  La  La3  1  0.619829  0.616130  0.157579  1
  La  La4  1  0.119364  0.882318  0.338977  1
  La  La5  1  0.376569  0.118286  0.841028  1
  La  La6  1  0.880203  0.381015  0.660026  1
  La  La7  1  0.376569  0.381714  0.841028  1
  La  La8  1  0.880203  0.118985  0.660026  1
  La  La9  1  0.619829  0.883870  0.157579  1
  La  La10  1  0.119364  0.617682  0.338977  1
  La  La11  1  0.473048  0.598582  0.680070  1
  La  La12  1  0.974889  0.902427  0.816663  1
  La  La13  1  0.528848  0.100066  0.322061  1
  La  La14  1  0.028648  0.399411  0.181164  1
  La  La15  1  0.528848  0.399934  0.322061  1
  La  La16  1  0.028648  0.100589  0.181164  1
  La  La17  1  0.473048  0.901418  0.680070  1
  La  La18  1  0.974889  0.597573  0.816663  1
  Ho  Ho19  1  0.708741  0.250000  0.998069  1
  Pb  Pb20  1  0.718653  0.451891  0.969969  1
  Pb  Pb21  1  0.217829  0.042615  0.533506  1
  Pb  Pb22  1  0.280578  0.956375  0.032069  1
  Pb  Pb23  1  0.780589  0.542826  0.466763  1
  Pb  Pb24  1  0.280578  0.543625  0.032069  1
  Pb  Pb25  1  0.780589  0.957174  0.466763  1
  Pb  Pb26  1  0.718653  0.048109  0.969969  1
  Pb  Pb27  1  0.217829  0.457385  0.533506  1
  Pb  Pb28  1  0.425500  0.750000  0.386425  1
  Pb  Pb29  1  0.923112  0.750000  0.112785  1
  Pb  Pb30  1  0.576616  0.250000  0.624387  1
  Pb  Pb31  1  0.069644  0.250000  0.886735  1
  Pb  Pb32  1  0.666553  0.750000  0.855778  1
  Pb  Pb33  1  0.166440  0.750000  0.642368  1
  Pb  Pb34  1  0.343867  0.250000  0.143603  1
  Pb  Pb35  1  0.829684  0.250000  0.347923  1
