# generated using pymatgen
data_Dy5MnTc3(P4Ir5)3
_symmetry_space_group_name_H-M   'P 1'
_cell_length_a   12.65779789
_cell_length_b   12.66424559
_cell_length_c   3.96767500
_cell_angle_alpha   90.00000000
_cell_angle_beta   90.00000000
_cell_angle_gamma   120.35001543
_symmetry_Int_Tables_number   1
_chemical_formula_structural   Dy5MnTc3(P4Ir5)3
_chemical_formula_sum   'Dy5 Mn1 Tc3 P12 Ir15'
_cell_volume   548.86005110
_cell_formula_units_Z   1
loop_
 _symmetry_equiv_pos_site_id
 _symmetry_equiv_pos_as_xyz
  1  'x, y, z'
loop_
 _atom_site_type_symbol
 _atom_site_label
 _atom_site_symmetry_multiplicity
 _atom_site_fract_x
 _atom_site_fract_y
 _atom_site_fract_z
 _atom_site_occupancy
  Dy  Dy0  1  0.339204  0.668908  0.500000  1
  Dy  Dy1  1  0.666889  0.333494  0.500000  1
  Dy  Dy2  1  0.996846  0.814723  0.000000  1
  Dy  Dy3  1  0.185077  0.185613  0.000000  1
  Dy  Dy4  1  0.809335  0.996484  0.000000  1
  Mn  Mn5  1  0.621246  0.797509  0.500000  1
  Tc  Tc6  1  0.000499  0.454475  0.500000  1
  Tc  Tc7  1  0.547127  0.547009  0.500000  1
  Tc  Tc8  1  0.455754  0.002078  0.500000  1
  P  P9  1  0.000027  0.638163  0.500000  1
  P  P10  1  0.363065  0.363547  0.500000  1
  P  P11  1  0.635160  0.986861  0.500000  1
  P  P12  1  0.522974  0.694142  0.000000  1
  P  P13  1  0.317200  0.831966  0.000000  1
  P  P14  1  0.171949  0.485397  0.000000  1
  P  P15  1  0.484469  0.169748  0.000000  1
  P  P16  1  0.686058  0.516854  0.000000  1
  P  P17  1  0.830807  0.314549  0.000000  1
  P  P18  1  0.998121  0.176075  0.500000  1
  P  P19  1  0.811420  0.823845  0.500000  1
  P  P20  1  0.175448  0.998465  0.500000  1
  Ir  Ir21  1  0.513430  0.873143  0.000000  1
  Ir  Ir22  1  0.133590  0.641744  0.000000  1
  Ir  Ir23  1  0.361681  0.493496  0.000000  1
  Ir  Ir24  1  0.489977  0.358832  0.000000  1
  Ir  Ir25  1  0.869855  0.509959  0.000000  1
  Ir  Ir26  1  0.641958  0.134564  0.000000  1
  Ir  Ir27  1  0.999792  0.288806  0.000000  1
  Ir  Ir28  1  0.713167  0.711425  0.000000  1
  Ir  Ir29  1  0.288446  0.999633  0.000000  1
  Ir  Ir30  1  0.194561  0.820319  0.500000  1
  Ir  Ir31  1  0.179814  0.374553  0.500000  1
  Ir  Ir32  1  0.372838  0.179352  0.500000  1
  Ir  Ir33  1  0.805130  0.623517  0.500000  1
  Ir  Ir34  1  0.818720  0.191932  0.500000  1
  Ir  Ir35  1  0.998365  0.998821  0.500000  1
