# generated using pymatgen
data_Zr10In3CuSb4
_symmetry_space_group_name_H-M   'P 1'
_cell_length_a   8.75595587
_cell_length_b   8.78710008
_cell_length_c   5.93324111
_cell_angle_alpha   90.14519438
_cell_angle_beta   89.82184349
_cell_angle_gamma   120.12311714
_symmetry_Int_Tables_number   1
_chemical_formula_structural   Zr10In3CuSb4
_chemical_formula_sum   'Zr10 In3 Cu1 Sb4'
_cell_volume   394.84738218
_cell_formula_units_Z   1
loop_
 _symmetry_equiv_pos_site_id
 _symmetry_equiv_pos_as_xyz
  1  'x, y, z'
loop_
 _atom_site_type_symbol
 _atom_site_label
 _atom_site_symmetry_multiplicity
 _atom_site_fract_x
 _atom_site_fract_y
 _atom_site_fract_z
 _atom_site_occupancy
  Zr  Zr0  1  0.270967  0.273949  0.736691  1
  Zr  Zr1  1  0.730215  0.727100  0.262987  1
  Zr  Zr2  1  0.728297  0.003605  0.733735  1
  Zr  Zr3  1  0.004176  0.273630  0.261897  1
  Zr  Zr4  1  0.330976  0.663582  0.500281  1
  Zr  Zr5  1  0.668532  0.335593  0.500481  1
  Zr  Zr6  1  0.001134  0.724795  0.737371  1
  Zr  Zr7  1  0.329583  0.661634  0.999023  1
  Zr  Zr8  1  0.267769  0.000158  0.265272  1
  Zr  Zr9  1  0.669851  0.337406  0.998724  1
  In  In10  1  0.617064  0.618694  0.753550  1
  In  In11  1  0.386835  0.000970  0.754358  1
  In  In12  1  0.611885  0.999036  0.243708  1
  Cu  Cu13  1  0.994123  0.993704  0.510294  1
  Sb  Sb14  1  0.997664  0.998159  0.996048  1
  Sb  Sb15  1  0.391128  0.388648  0.247546  1
  Sb  Sb16  1  0.998929  0.385777  0.750198  1
  Sb  Sb17  1  0.000872  0.613560  0.247837  1
