# generated using pymatgen
data_Tb3Co9(CuB2)2
_symmetry_space_group_name_H-M   'P 1'
_cell_length_a   5.03781800
_cell_length_b   5.05268510
_cell_length_c   9.80621500
_cell_angle_alpha   90.00015386
_cell_angle_beta   89.99969136
_cell_angle_gamma   119.90271334
_symmetry_Int_Tables_number   1
_chemical_formula_structural   Tb3Co9(CuB2)2
_chemical_formula_sum   'Tb3 Co9 Cu2 B4'
_cell_volume   216.38226567
_cell_formula_units_Z   1
loop_
 _symmetry_equiv_pos_site_id
 _symmetry_equiv_pos_as_xyz
  1  'x, y, z'
loop_
 _atom_site_type_symbol
 _atom_site_label
 _atom_site_symmetry_multiplicity
 _atom_site_fract_x
 _atom_site_fract_y
 _atom_site_fract_z
 _atom_site_occupancy
  Tb  Tb0  1  0.999952  0.000000  0.000143  1
  Tb  Tb1  1  0.000004  0.000000  0.343015  1
  Tb  Tb2  1  0.000006  0.000000  0.657099  1
  Co  Co3  1  0.500005  0.000000  0.499945  1
  Co  Co4  1  0.500005  0.500002  0.500034  1
  Co  Co5  1  0.000003  0.499998  0.500034  1
  Co  Co6  1  0.499998  0.000000  0.208186  1
  Co  Co7  1  0.499997  0.500003  0.208159  1
  Co  Co8  1  0.999994  0.499997  0.208159  1
  Co  Co9  1  0.500000  0.000000  0.791874  1
  Co  Co10  1  0.499997  0.500004  0.791771  1
  Co  Co11  1  0.999993  0.499996  0.791771  1
  Cu  Cu12  1  0.333082  0.666216  0.999926  1
  Cu  Cu13  1  0.666866  0.333784  0.999926  1
  B  B14  1  0.333256  0.666513  0.350254  1
  B  B15  1  0.666743  0.333487  0.350254  1
  B  B16  1  0.666542  0.333083  0.649726  1
  B  B17  1  0.333458  0.666917  0.649726  1
