# generated using pymatgen
data_HoTa5NbBr18
_symmetry_space_group_name_H-M   'P 1'
_cell_length_a   10.69373043
_cell_length_b   10.69312605
_cell_length_c   10.69038547
_cell_angle_alpha   56.06607867
_cell_angle_beta   56.07315623
_cell_angle_gamma   56.04371027
_symmetry_Int_Tables_number   1
_chemical_formula_structural   HoTa5NbBr18
_chemical_formula_sum   'Ho1 Ta5 Nb1 Br18'
_cell_volume   785.53593913
_cell_formula_units_Z   1
loop_
 _symmetry_equiv_pos_site_id
 _symmetry_equiv_pos_as_xyz
  1  'x, y, z'
loop_
 _atom_site_type_symbol
 _atom_site_label
 _atom_site_symmetry_multiplicity
 _atom_site_fract_x
 _atom_site_fract_y
 _atom_site_fract_z
 _atom_site_occupancy
  Ho  Ho0  1  0.999976  0.999782  0.000051  1
  Ta  Ta1  1  0.412693  0.310662  0.642127  1
  Ta  Ta2  1  0.357374  0.587863  0.689946  1
  Ta  Ta3  1  0.690027  0.357325  0.587767  1
  Ta  Ta4  1  0.310085  0.642800  0.412114  1
  Ta  Ta5  1  0.642737  0.412282  0.309960  1
  Nb  Nb6  1  0.588244  0.691456  0.356285  1
  Br  Br7  1  0.568392  0.161469  0.441772  1
  Br  Br8  1  0.223228  0.371745  0.907694  1
  Br  Br9  1  0.907639  0.222966  0.371791  1
  Br  Br10  1  0.369336  0.908396  0.223114  1
  Br  Br11  1  0.777531  0.626890  0.091134  1
  Br  Br12  1  0.092274  0.776794  0.628387  1
  Br  Br13  1  0.702506  0.959656  0.159886  1
  Br  Br14  1  0.957165  0.160991  0.701790  1
  Br  Br15  1  0.161409  0.701011  0.957613  1
  Br  Br16  1  0.298125  0.043785  0.838075  1
  Br  Br17  1  0.042788  0.837726  0.298634  1
  Br  Br18  1  0.838634  0.297991  0.043136  1
  Br  Br19  1  0.558111  0.431632  0.838530  1
  Br  Br20  1  0.161603  0.442037  0.568120  1
  Br  Br21  1  0.441899  0.568207  0.161523  1
  Br  Br22  1  0.430046  0.838463  0.560382  1
  Br  Br23  1  0.839705  0.555924  0.433132  1
  Br  Br24  1  0.628471  0.092150  0.777035  1
