# generated using pymatgen
data_Zr5Nb5Sn6As
_symmetry_space_group_name_H-M   'P 1'
_cell_length_a   5.72182928
_cell_length_b   8.47202834
_cell_length_c   8.43689800
_cell_angle_alpha   120.13784532
_cell_angle_beta   89.77924431
_cell_angle_gamma   90.43967171
_symmetry_Int_Tables_number   1
_chemical_formula_structural   Zr5Nb5Sn6As
_chemical_formula_sum   'Zr5 Nb5 Sn6 As1'
_cell_volume   353.68612070
_cell_formula_units_Z   1
loop_
 _symmetry_equiv_pos_site_id
 _symmetry_equiv_pos_as_xyz
  1  'x, y, z'
loop_
 _atom_site_type_symbol
 _atom_site_label
 _atom_site_symmetry_multiplicity
 _atom_site_fract_x
 _atom_site_fract_y
 _atom_site_fract_z
 _atom_site_occupancy
  Zr  Zr0  1  0.765785  0.742535  0.743920  1
  Zr  Zr1  1  0.765785  0.998615  0.256080  1
  Zr  Zr2  1  0.240570  0.744529  0.000000  1
  Zr  Zr3  1  0.230956  0.253145  0.252669  1
  Zr  Zr4  1  0.230956  0.000477  0.747331  1
  Nb  Nb5  1  0.499275  0.333551  0.666908  1
  Nb  Nb6  1  0.499275  0.666643  0.333092  1
  Nb  Nb7  1  0.999454  0.667583  0.334207  1
  Nb  Nb8  1  0.999454  0.333376  0.665793  1
  Nb  Nb9  1  0.764967  0.258129  0.000000  1
  Sn  Sn10  1  0.749129  0.600928  0.000000  1
  Sn  Sn11  1  0.745370  0.393356  0.390998  1
  Sn  Sn12  1  0.745370  0.002359  0.609002  1
  Sn  Sn13  1  0.249737  0.395427  0.000000  1
  Sn  Sn14  1  0.253095  0.604020  0.604188  1
  Sn  Sn15  1  0.253095  0.999833  0.395812  1
  As  As16  1  0.507728  0.005496  0.000000  1
