# generated using pymatgen
data_Yb3Eu4MgPt4
_symmetry_space_group_name_H-M   'P 1'
_cell_length_a   4.46849600
_cell_length_b   7.72560431
_cell_length_c   9.06775967
_cell_angle_alpha   89.81820459
_cell_angle_beta   90.00000000
_cell_angle_gamma   90.00000000
_symmetry_Int_Tables_number   1
_chemical_formula_structural   Yb3Eu4MgPt4
_chemical_formula_sum   'Yb3 Eu4 Mg1 Pt4'
_cell_volume   313.03409964
_cell_formula_units_Z   1
loop_
 _symmetry_equiv_pos_site_id
 _symmetry_equiv_pos_as_xyz
  1  'x, y, z'
loop_
 _atom_site_type_symbol
 _atom_site_label
 _atom_site_symmetry_multiplicity
 _atom_site_fract_x
 _atom_site_fract_y
 _atom_site_fract_z
 _atom_site_occupancy
  Yb  Yb0  1  0.500000  0.144493  0.067324  1
  Yb  Yb1  1  0.000000  0.363348  0.562274  1
  Yb  Yb2  1  0.000000  0.855509  0.933214  1
  Eu  Eu3  1  0.500000  0.528508  0.825362  1
  Eu  Eu4  1  0.500000  0.024190  0.664541  1
  Eu  Eu5  1  0.000000  0.477042  0.181342  1
  Eu  Eu6  1  0.000000  0.959906  0.329811  1
  Mg  Mg7  1  0.500000  0.642826  0.437169  1
  Pt  Pt8  1  0.500000  0.762003  0.128862  1
  Pt  Pt9  1  0.500000  0.271807  0.377860  1
  Pt  Pt10  1  0.000000  0.236259  0.876697  1
  Pt  Pt11  1  0.000000  0.734107  0.615543  1
