# generated using pymatgen
data_Tm2Sc3P12Ru19
_symmetry_space_group_name_H-M   'P 1'
_cell_length_a   12.45103800
_cell_length_b   12.45103782
_cell_length_c   3.94779100
_cell_angle_alpha   90.00000000
_cell_angle_beta   90.00000000
_cell_angle_gamma   120.00000049
_symmetry_Int_Tables_number   1
_chemical_formula_structural   Tm2Sc3P12Ru19
_chemical_formula_sum   'Tm2 Sc3 P12 Ru19'
_cell_volume   530.02443645
_cell_formula_units_Z   1
loop_
 _symmetry_equiv_pos_site_id
 _symmetry_equiv_pos_as_xyz
  1  'x, y, z'
loop_
 _atom_site_type_symbol
 _atom_site_label
 _atom_site_symmetry_multiplicity
 _atom_site_fract_x
 _atom_site_fract_y
 _atom_site_fract_z
 _atom_site_occupancy
  Tm  Tm0  1  0.666667  0.333333  0.000000  1
  Tm  Tm1  1  0.333333  0.666667  0.000000  1
  Sc  Sc2  1  0.000000  0.182299  0.500000  1
  Sc  Sc3  1  0.817701  0.817701  0.500000  1
  Sc  Sc4  1  0.182299  0.000000  0.500000  1
  P  P5  1  0.000000  0.818874  0.000000  1
  P  P6  1  0.181126  0.181126  0.000000  1
  P  P7  1  0.818874  0.000000  0.000000  1
  P  P8  1  0.692995  0.170077  0.500000  1
  P  P9  1  0.829923  0.522918  0.500000  1
  P  P10  1  0.477082  0.307005  0.500000  1
  P  P11  1  0.170077  0.692995  0.500000  1
  P  P12  1  0.522918  0.829923  0.500000  1
  P  P13  1  0.307005  0.477082  0.500000  1
  P  P14  1  0.000000  0.372008  0.000000  1
  P  P15  1  0.627992  0.627992  0.000000  1
  P  P16  1  0.372008  0.000000  0.000000  1
  Ru  Ru17  1  0.000000  0.555745  0.000000  1
  Ru  Ru18  1  0.444255  0.444255  0.000000  1
  Ru  Ru19  1  0.555745  0.000000  0.000000  1
  Ru  Ru20  1  0.000000  0.721071  0.500000  1
  Ru  Ru21  1  0.278929  0.278929  0.500000  1
  Ru  Ru22  1  0.721071  0.000000  0.500000  1
  Ru  Ru23  1  0.811714  0.184772  0.000000  1
  Ru  Ru24  1  0.815228  0.626942  0.000000  1
  Ru  Ru25  1  0.373058  0.188286  0.000000  1
  Ru  Ru26  1  0.184772  0.811714  0.000000  1
  Ru  Ru27  1  0.626942  0.815228  0.000000  1
  Ru  Ru28  1  0.188286  0.373058  0.000000  1
  Ru  Ru29  1  0.873386  0.364932  0.500000  1
  Ru  Ru30  1  0.635068  0.508453  0.500000  1
  Ru  Ru31  1  0.491547  0.126614  0.500000  1
  Ru  Ru32  1  0.364932  0.873386  0.500000  1
  Ru  Ru33  1  0.508453  0.635068  0.500000  1
  Ru  Ru34  1  0.126614  0.491547  0.500000  1
  Ru  Ru35  1  0.000000  0.000000  0.000000  1
