# generated using pymatgen
data_Ho20Sn7BiRu4
_symmetry_space_group_name_H-M   'P 1'
_cell_length_a   7.76716591
_cell_length_b   9.07301338
_cell_length_c   12.14655043
_cell_angle_alpha   90.02674465
_cell_angle_beta   90.19889130
_cell_angle_gamma   89.94099034
_symmetry_Int_Tables_number   1
_chemical_formula_structural   Ho20Sn7BiRu4
_chemical_formula_sum   'Ho20 Sn7 Bi1 Ru4'
_cell_volume   855.98114313
_cell_formula_units_Z   1
loop_
 _symmetry_equiv_pos_site_id
 _symmetry_equiv_pos_as_xyz
  1  'x, y, z'
loop_
 _atom_site_type_symbol
 _atom_site_label
 _atom_site_symmetry_multiplicity
 _atom_site_fract_x
 _atom_site_fract_y
 _atom_site_fract_z
 _atom_site_occupancy
  Ho  Ho0  1  0.842414  0.746896  0.787770  1
  Ho  Ho1  1  0.155371  0.249736  0.213801  1
  Ho  Ho2  1  0.349989  0.253587  0.713061  1
  Ho  Ho3  1  0.653936  0.749405  0.285619  1
  Ho  Ho4  1  0.380626  0.746507  0.696975  1
  Ho  Ho5  1  0.624714  0.250287  0.301855  1
  Ho  Ho6  1  0.871917  0.252950  0.804697  1
  Ho  Ho7  1  0.124250  0.749671  0.197522  1
  Ho  Ho8  1  0.955413  0.747072  0.500634  1
  Ho  Ho9  1  0.042657  0.252825  0.495569  1
  Ho  Ho10  1  0.457171  0.250144  0.997303  1
  Ho  Ho11  1  0.541833  0.749874  0.003223  1
  Ho  Ho12  1  0.675253  0.036916  0.569090  1
  Ho  Ho13  1  0.322254  0.964972  0.426819  1
  Ho  Ho14  1  0.179530  0.963999  0.934330  1
  Ho  Ho15  1  0.322462  0.535807  0.429736  1
  Ho  Ho16  1  0.821270  0.035825  0.070718  1
  Ho  Ho17  1  0.680071  0.464228  0.569711  1
  Ho  Ho18  1  0.821944  0.464675  0.070747  1
  Ho  Ho19  1  0.177405  0.535359  0.929634  1
  Sn  Sn20  1  0.574805  0.495195  0.832106  1
  Sn  Sn21  1  0.424164  0.504727  0.168627  1
  Sn  Sn22  1  0.074222  0.504751  0.669962  1
  Sn  Sn23  1  0.424751  0.995157  0.168435  1
  Sn  Sn24  1  0.926437  0.495224  0.329405  1
  Sn  Sn25  1  0.574103  0.004313  0.830377  1
  Sn  Sn26  1  0.925021  0.004815  0.331582  1
  Bi  Bi27  1  0.075404  0.994374  0.671554  1
  Ru  Ru28  1  0.574505  0.750425  0.508373  1
  Ru  Ru29  1  0.426135  0.250329  0.490111  1
  Ru  Ru30  1  0.074173  0.249778  0.991484  1
  Ru  Ru31  1  0.925800  0.750175  0.009170  1
