# generated using pymatgen
data_Hf7Zr10Si16W3
_symmetry_space_group_name_H-M   'P 1'
_cell_length_a   7.01486750
_cell_length_b   7.01636205
_cell_length_c   12.84254716
_cell_angle_alpha   90.09849464
_cell_angle_beta   89.92845816
_cell_angle_gamma   89.89022021
_symmetry_Int_Tables_number   1
_chemical_formula_structural   Hf7Zr10Si16W3
_chemical_formula_sum   'Hf7 Zr10 Si16 W3'
_cell_volume   632.09281378
_cell_formula_units_Z   1
loop_
 _symmetry_equiv_pos_site_id
 _symmetry_equiv_pos_as_xyz
  1  'x, y, z'
loop_
 _atom_site_type_symbol
 _atom_site_label
 _atom_site_symmetry_multiplicity
 _atom_site_fract_x
 _atom_site_fract_y
 _atom_site_fract_z
 _atom_site_occupancy
  Hf  Hf0  1  0.503409  0.645348  0.625846  1
  Hf  Hf1  1  0.853753  0.000897  0.872681  1
  Hf  Hf2  1  0.145453  0.994612  0.377722  1
  Hf  Hf3  1  0.645325  0.503441  0.374548  1
  Hf  Hf4  1  0.355343  0.497299  0.872097  1
  Hf  Hf5  1  0.001087  0.853585  0.127107  1
  Hf  Hf6  1  0.994701  0.145600  0.622550  1
  Zr  Zr7  1  0.174684  0.174621  0.999801  1
  Zr  Zr8  1  0.497149  0.154571  0.529285  1
  Zr  Zr9  1  0.504100  0.847214  0.031985  1
  Zr  Zr10  1  0.654404  0.001040  0.283467  1
  Zr  Zr11  1  0.346692  0.995900  0.780316  1
  Zr  Zr12  1  0.846686  0.503814  0.967756  1
  Zr  Zr13  1  0.154532  0.496731  0.470964  1
  Zr  Zr14  1  0.001453  0.653999  0.716995  1
  Zr  Zr15  1  0.996543  0.346854  0.219376  1
  Zr  Zr16  1  0.497509  0.355428  0.127370  1
  Si  Si17  1  0.794319  0.144465  0.070595  1
  Si  Si18  1  0.202421  0.854091  0.571667  1
  Si  Si19  1  0.645491  0.702717  0.821330  1
  Si  Si20  1  0.353113  0.296546  0.323101  1
  Si  Si21  1  0.854069  0.202557  0.428379  1
  Si  Si22  1  0.144951  0.793258  0.928880  1
  Si  Si23  1  0.703233  0.646381  0.179158  1
  Si  Si24  1  0.296929  0.353251  0.677353  1
  Si  Si25  1  0.554184  0.201341  0.932296  1
  Si  Si26  1  0.453467  0.800278  0.434731  1
  Si  Si27  1  0.698478  0.952740  0.683043  1
  Si  Si28  1  0.303748  0.042245  0.187542  1
  Si  Si29  1  0.800347  0.453604  0.565433  1
  Si  Si30  1  0.200619  0.554560  0.066644  1
  Si  Si31  1  0.952557  0.698541  0.316925  1
  Si  Si32  1  0.043468  0.303871  0.812748  1
  W  W33  1  0.675665  0.326767  0.747870  1
  W  W34  1  0.325448  0.676734  0.252441  1
  W  W35  1  0.824668  0.825101  0.499999  1
