# generated using pymatgen
data_DyCo4P3W
_symmetry_space_group_name_H-M   'P 1'
_cell_length_a   3.70507400
_cell_length_b   10.41200600
_cell_length_c   11.85200200
_cell_angle_alpha   90.00000000
_cell_angle_beta   90.00000000
_cell_angle_gamma   90.00000000
_symmetry_Int_Tables_number   1
_chemical_formula_structural   DyCo4P3W
_chemical_formula_sum   'Dy4 Co16 P12 W4'
_cell_volume   457.21767637
_cell_formula_units_Z   4
loop_
 _symmetry_equiv_pos_site_id
 _symmetry_equiv_pos_as_xyz
  1  'x, y, z'
loop_
 _atom_site_type_symbol
 _atom_site_label
 _atom_site_symmetry_multiplicity
 _atom_site_fract_x
 _atom_site_fract_y
 _atom_site_fract_z
 _atom_site_occupancy
  Dy  Dy0  1  0.250000  0.582684  0.704512  1
  Dy  Dy1  1  0.250000  0.917316  0.204512  1
  Dy  Dy2  1  0.750000  0.417316  0.295488  1
  Dy  Dy3  1  0.750000  0.082684  0.795488  1
  Co  Co4  1  0.250000  0.405141  0.488918  1
  Co  Co5  1  0.250000  0.094859  0.988918  1
  Co  Co6  1  0.750000  0.594859  0.511082  1
  Co  Co7  1  0.750000  0.905141  0.011082  1
  Co  Co8  1  0.250000  0.222356  0.177761  1
  Co  Co9  1  0.250000  0.277644  0.677761  1
  Co  Co10  1  0.750000  0.777644  0.822239  1
  Co  Co11  1  0.750000  0.722356  0.322239  1
  Co  Co12  1  0.250000  0.887198  0.699857  1
  Co  Co13  1  0.250000  0.612802  0.199857  1
  Co  Co14  1  0.750000  0.112802  0.300143  1
  Co  Co15  1  0.750000  0.387198  0.800143  1
  Co  Co16  1  0.250000  0.465662  0.933567  1
  Co  Co17  1  0.250000  0.034338  0.433567  1
  Co  Co18  1  0.750000  0.534338  0.066433  1
  Co  Co19  1  0.750000  0.965662  0.566433  1
  P  P20  1  0.250000  0.420005  0.115576  1
  P  P21  1  0.250000  0.079995  0.615576  1
  P  P22  1  0.750000  0.579995  0.884424  1
  P  P23  1  0.750000  0.920005  0.384424  1
  P  P24  1  0.250000  0.268766  0.864810  1
  P  P25  1  0.250000  0.231234  0.364810  1
  P  P26  1  0.750000  0.731234  0.135190  1
  P  P27  1  0.750000  0.768766  0.635190  1
  P  P28  1  0.250000  0.594737  0.390825  1
  P  P29  1  0.250000  0.905263  0.890825  1
  P  P30  1  0.750000  0.405263  0.609175  1
  P  P31  1  0.750000  0.094737  0.109175  1
  W  W32  1  0.250000  0.708475  0.987449  1
  W  W33  1  0.250000  0.791525  0.487449  1
  W  W34  1  0.750000  0.291525  0.012551  1
  W  W35  1  0.750000  0.208475  0.512551  1
