# generated using pymatgen
data_Dy12FeTc3
_symmetry_space_group_name_H-M   'P 1'
_cell_length_a   7.32708408
_cell_length_b   9.18887500
_cell_length_c   6.29147001
_cell_angle_alpha   90.00000000
_cell_angle_beta   90.01168121
_cell_angle_gamma   90.00000000
_symmetry_Int_Tables_number   1
_chemical_formula_structural   Dy12FeTc3
_chemical_formula_sum   'Dy12 Fe1 Tc3'
_cell_volume   423.58994332
_cell_formula_units_Z   1
loop_
 _symmetry_equiv_pos_site_id
 _symmetry_equiv_pos_as_xyz
  1  'x, y, z'
loop_
 _atom_site_type_symbol
 _atom_site_label
 _atom_site_symmetry_multiplicity
 _atom_site_fract_x
 _atom_site_fract_y
 _atom_site_fract_z
 _atom_site_occupancy
  Dy  Dy0  1  0.050072  0.250000  0.126300  1
  Dy  Dy1  1  0.323132  0.563373  0.167674  1
  Dy  Dy2  1  0.323132  0.936627  0.167674  1
  Dy  Dy3  1  0.824551  0.561802  0.335948  1
  Dy  Dy4  1  0.824551  0.938198  0.335948  1
  Dy  Dy5  1  0.543410  0.250000  0.359678  1
  Dy  Dy6  1  0.458308  0.750000  0.628550  1
  Dy  Dy7  1  0.178486  0.064605  0.668702  1
  Dy  Dy8  1  0.178486  0.435394  0.668702  1
  Dy  Dy9  1  0.670737  0.066147  0.834551  1
  Dy  Dy10  1  0.670737  0.433852  0.834551  1
  Dy  Dy11  1  0.957491  0.750000  0.871267  1
  Fe  Fe12  1  0.384884  0.250000  0.965607  1
  Tc  Tc13  1  0.611283  0.750000  0.038325  1
  Tc  Tc14  1  0.112263  0.750000  0.461747  1
  Tc  Tc15  1  0.888473  0.250000  0.534768  1
