# generated using pymatgen
data_Ac2(SnPd3)3
_symmetry_space_group_name_H-M   'P 1'
_cell_length_a   8.17279417
_cell_length_b   8.17279489
_cell_length_c   9.71426000
_cell_angle_alpha   90.00000000
_cell_angle_beta   90.00000000
_cell_angle_gamma   119.88128753
_symmetry_Int_Tables_number   1
_chemical_formula_structural   Ac2(SnPd3)3
_chemical_formula_sum   'Ac4 Sn6 Pd18'
_cell_volume   562.60007848
_cell_formula_units_Z   2
loop_
 _symmetry_equiv_pos_site_id
 _symmetry_equiv_pos_as_xyz
  1  'x, y, z'
loop_
 _atom_site_type_symbol
 _atom_site_label
 _atom_site_symmetry_multiplicity
 _atom_site_fract_x
 _atom_site_fract_y
 _atom_site_fract_z
 _atom_site_occupancy
  Ac  Ac0  1  0.329840  0.016122  0.750000  1
  Ac  Ac1  1  0.670160  0.983878  0.250000  1
  Ac  Ac2  1  0.016122  0.329840  0.750000  1
  Ac  Ac3  1  0.983878  0.670160  0.250000  1
  Sn  Sn4  1  0.000000  0.000000  0.500000  1
  Sn  Sn5  1  0.676357  0.323643  0.000000  1
  Sn  Sn6  1  0.323643  0.676357  0.500000  1
  Sn  Sn7  1  0.323643  0.676357  0.000000  1
  Sn  Sn8  1  0.000000  0.000000  0.000000  1
  Sn  Sn9  1  0.676357  0.323643  0.500000  1
  Pd  Pd10  1  0.335446  0.335446  0.967636  1
  Pd  Pd11  1  0.453535  0.648912  0.750000  1
  Pd  Pd12  1  0.546465  0.351088  0.250000  1
  Pd  Pd13  1  0.648912  0.453535  0.750000  1
  Pd  Pd14  1  0.005825  0.339483  0.082434  1
  Pd  Pd15  1  0.994175  0.660517  0.582434  1
  Pd  Pd16  1  0.339483  0.005825  0.417566  1
  Pd  Pd17  1  0.660517  0.994175  0.917566  1
  Pd  Pd18  1  0.994175  0.660517  0.917566  1
  Pd  Pd19  1  0.005825  0.339483  0.417566  1
  Pd  Pd20  1  0.660517  0.994175  0.582434  1
  Pd  Pd21  1  0.857930  0.857930  0.750000  1
  Pd  Pd22  1  0.335446  0.335446  0.532364  1
  Pd  Pd23  1  0.664554  0.664554  0.032364  1
  Pd  Pd24  1  0.339483  0.005825  0.082434  1
  Pd  Pd25  1  0.664554  0.664554  0.467636  1
  Pd  Pd26  1  0.142070  0.142070  0.250000  1
  Pd  Pd27  1  0.351088  0.546465  0.250000  1
