# generated using pymatgen
data_Tb3Dy2Ho7Ni4
_symmetry_space_group_name_H-M   'P 1'
_cell_length_a   6.33044100
_cell_length_b   6.82791604
_cell_length_c   9.54512301
_cell_angle_alpha   90.00199481
_cell_angle_beta   90.00373729
_cell_angle_gamma   90.00623873
_symmetry_Int_Tables_number   1
_chemical_formula_structural   Tb3Dy2Ho7Ni4
_chemical_formula_sum   'Tb3 Dy2 Ho7 Ni4'
_cell_volume   412.57571750
_cell_formula_units_Z   1
loop_
 _symmetry_equiv_pos_site_id
 _symmetry_equiv_pos_as_xyz
  1  'x, y, z'
loop_
 _atom_site_type_symbol
 _atom_site_label
 _atom_site_symmetry_multiplicity
 _atom_site_fract_x
 _atom_site_fract_y
 _atom_site_fract_z
 _atom_site_occupancy
  Tb  Tb0  1  0.862132  0.532210  0.250038  1
  Tb  Tb1  1  0.638871  0.032589  0.250013  1
  Tb  Tb2  1  0.138472  0.467656  0.749977  1
  Dy  Dy3  1  0.321568  0.678310  0.066068  1
  Dy  Dy4  1  0.360954  0.967071  0.749989  1
  Ho  Ho5  1  0.179105  0.177601  0.433836  1
  Ho  Ho6  1  0.678155  0.321977  0.566752  1
  Ho  Ho7  1  0.820593  0.822244  0.933353  1
  Ho  Ho8  1  0.678181  0.321973  0.933237  1
  Ho  Ho9  1  0.820575  0.822225  0.566618  1
  Ho  Ho10  1  0.321588  0.678304  0.433926  1
  Ho  Ho11  1  0.179078  0.177601  0.066165  1
  Ni  Ni12  1  0.056926  0.890993  0.250023  1
  Ni  Ni13  1  0.443657  0.391346  0.250027  1
  Ni  Ni14  1  0.944767  0.108417  0.750005  1
  Ni  Ni15  1  0.555379  0.609484  0.749974  1
