# generated using pymatgen
data_ErLu3Tc5Ru3
_symmetry_space_group_name_H-M   'P 1'
_cell_length_a   5.27969817
_cell_length_b   5.27969815
_cell_length_c   9.03908902
_cell_angle_alpha   90.00735493
_cell_angle_beta   89.99264519
_cell_angle_gamma   121.68410365
_symmetry_Int_Tables_number   1
_chemical_formula_structural   ErLu3Tc5Ru3
_chemical_formula_sum   'Er1 Lu3 Tc5 Ru3'
_cell_volume   214.41264501
_cell_formula_units_Z   1
loop_
 _symmetry_equiv_pos_site_id
 _symmetry_equiv_pos_as_xyz
  1  'x, y, z'
loop_
 _atom_site_type_symbol
 _atom_site_label
 _atom_site_symmetry_multiplicity
 _atom_site_fract_x
 _atom_site_fract_y
 _atom_site_fract_z
 _atom_site_occupancy
  Er  Er0  1  0.335300  0.664700  0.435422  1
  Lu  Lu1  1  0.665075  0.334925  0.563865  1
  Lu  Lu2  1  0.665063  0.334937  0.936605  1
  Lu  Lu3  1  0.335593  0.664407  0.064572  1
  Tc  Tc4  1  0.170138  0.342041  0.750646  1
  Tc  Tc5  1  0.171748  0.828252  0.750653  1
  Tc  Tc6  1  0.340172  0.174701  0.249120  1
  Tc  Tc7  1  0.825299  0.659828  0.249120  1
  Tc  Tc8  1  0.657959  0.829862  0.750646  1
  Ru  Ru9  1  0.004172  0.995828  0.001519  1
  Ru  Ru10  1  0.825154  0.174846  0.249103  1
  Ru  Ru11  1  0.004330  0.995670  0.498729  1
