# generated using pymatgen
data_Tb2SmTi(Co4P3)2
_symmetry_space_group_name_H-M   'P 1'
_cell_length_a   3.71512500
_cell_length_b   10.64564700
_cell_length_c   12.33967200
_cell_angle_alpha   90.00000000
_cell_angle_beta   90.00000000
_cell_angle_gamma   90.00000000
_symmetry_Int_Tables_number   1
_chemical_formula_structural   Tb2SmTi(Co4P3)2
_chemical_formula_sum   'Tb4 Sm2 Ti2 Co16 P12'
_cell_volume   488.03290853
_cell_formula_units_Z   2
loop_
 _symmetry_equiv_pos_site_id
 _symmetry_equiv_pos_as_xyz
  1  'x, y, z'
loop_
 _atom_site_type_symbol
 _atom_site_label
 _atom_site_symmetry_multiplicity
 _atom_site_fract_x
 _atom_site_fract_y
 _atom_site_fract_z
 _atom_site_occupancy
  Tb  Tb0  1  0.500000  0.819851  0.203964  1
  Tb  Tb1  1  0.500000  0.180149  0.203964  1
  Tb  Tb2  1  0.000000  0.680149  0.796036  1
  Tb  Tb3  1  0.000000  0.319851  0.796036  1
  Sm  Sm4  1  0.000000  0.500000  0.525524  1
  Sm  Sm5  1  0.500000  0.000000  0.474476  1
  Ti  Ti6  1  0.500000  0.500000  0.152284  1
  Ti  Ti7  1  0.000000  0.000000  0.847716  1
  Co  Co8  1  0.500000  0.500000  0.704519  1
  Co  Co9  1  0.000000  0.000000  0.295481  1
  Co  Co10  1  0.000000  0.500000  0.987535  1
  Co  Co11  1  0.500000  0.000000  0.012465  1
  Co  Co12  1  0.500000  0.332142  0.994165  1
  Co  Co13  1  0.500000  0.667858  0.994165  1
  Co  Co14  1  0.000000  0.167858  0.005835  1
  Co  Co15  1  0.000000  0.832142  0.005835  1
  Co  Co16  1  0.500000  0.295640  0.431251  1
  Co  Co17  1  0.500000  0.704360  0.431251  1
  Co  Co18  1  0.000000  0.204360  0.568749  1
  Co  Co19  1  0.000000  0.795640  0.568749  1
  Co  Co20  1  0.500000  0.878941  0.707101  1
  Co  Co21  1  0.500000  0.121059  0.707101  1
  Co  Co22  1  0.000000  0.621059  0.292899  1
  Co  Co23  1  0.000000  0.378941  0.292899  1
  P  P24  1  0.500000  0.500000  0.884259  1
  P  P25  1  0.000000  0.000000  0.115741  1
  P  P26  1  0.500000  0.500000  0.350638  1
  P  P27  1  0.000000  0.000000  0.649362  1
  P  P28  1  0.500000  0.308458  0.616198  1
  P  P29  1  0.500000  0.691542  0.616198  1
  P  P30  1  0.000000  0.191542  0.383802  1
  P  P31  1  0.000000  0.808458  0.383802  1
  P  P32  1  0.500000  0.843103  0.892793  1
  P  P33  1  0.500000  0.156897  0.892793  1
  P  P34  1  0.000000  0.656897  0.107207  1
  P  P35  1  0.000000  0.343103  0.107207  1
