# generated using pymatgen
data_PrNdHo2(Zn5Sn)2
_symmetry_space_group_name_H-M   'P 1'
_cell_length_a   8.47581821
_cell_length_b   8.47581687
_cell_length_c   9.04785224
_cell_angle_alpha   89.97465976
_cell_angle_beta   90.02533954
_cell_angle_gamma   149.75613116
_symmetry_Int_Tables_number   1
_chemical_formula_structural   PrNdHo2(Zn5Sn)2
_chemical_formula_sum   'Pr1 Nd1 Ho2 Zn10 Sn2'
_cell_volume   327.38945182
_cell_formula_units_Z   1
loop_
 _symmetry_equiv_pos_site_id
 _symmetry_equiv_pos_as_xyz
  1  'x, y, z'
loop_
 _atom_site_type_symbol
 _atom_site_label
 _atom_site_symmetry_multiplicity
 _atom_site_fract_x
 _atom_site_fract_y
 _atom_site_fract_z
 _atom_site_occupancy
  Pr  Pr0  1  0.000000  0.000000  0.500000  1
  Nd  Nd1  1  0.000000  0.000000  0.000000  1
  Ho  Ho2  1  0.204710  0.795290  0.249982  1
  Ho  Ho3  1  0.795290  0.204710  0.750018  1
  Zn  Zn4  1  0.812238  0.187762  0.390755  1
  Zn  Zn5  1  0.187762  0.812238  0.609245  1
  Zn  Zn6  1  0.812288  0.187712  0.109260  1
  Zn  Zn7  1  0.187712  0.812288  0.890740  1
  Zn  Zn8  1  0.657645  0.342355  0.482099  1
  Zn  Zn9  1  0.342355  0.657645  0.517901  1
  Zn  Zn10  1  0.657607  0.342393  0.017880  1
  Zn  Zn11  1  0.342393  0.657607  0.982120  1
  Zn  Zn12  1  0.393452  0.606548  0.249973  1
  Zn  Zn13  1  0.606548  0.393452  0.750027  1
  Sn  Sn14  1  0.556474  0.443526  0.249807  1
  Sn  Sn15  1  0.443526  0.556474  0.750193  1
