# generated using pymatgen
data_SnI35
_symmetry_space_group_name_H-M   'P 1'
_cell_length_a   17.58017498
_cell_length_b   12.54030950
_cell_length_c   11.87107100
_cell_angle_alpha   88.81408644
_cell_angle_beta   66.02770740
_cell_angle_gamma   92.31545562
_symmetry_Int_Tables_number   1
_chemical_formula_structural   SnI35
_chemical_formula_sum   'Sn1 I35'
_cell_volume   2387.43274716
_cell_formula_units_Z   1
loop_
 _symmetry_equiv_pos_site_id
 _symmetry_equiv_pos_as_xyz
  1  'x, y, z'
loop_
 _atom_site_type_symbol
 _atom_site_label
 _atom_site_symmetry_multiplicity
 _atom_site_fract_x
 _atom_site_fract_y
 _atom_site_fract_z
 _atom_site_occupancy
  Sn  Sn0  1  0.176314  0.433427  0.615865  1
  I  I1  1  0.525164  0.270952  0.551052  1
  I  I2  1  0.748536  0.593133  0.575321  1
  I  I3  1  0.460227  0.699961  0.715383  1
  I  I4  1  0.066491  0.907333  0.814135  1
  I  I5  1  0.898813  0.164307  0.053948  1
  I  I6  1  0.659073  0.306130  0.291626  1
  I  I7  1  0.618403  0.320663  0.874619  1
  I  I8  1  0.320916  0.794595  0.677009  1
  I  I9  1  0.372801  0.525029  0.111202  1
  I  I10  1  0.678600  0.125714  0.773313  1
  I  I11  1  0.921128  0.574242  0.398074  1
  I  I12  1  0.098473  0.962359  0.560667  1
  I  I13  1  0.914821  0.122043  0.290193  1
  I  I14  1  0.883959  0.211701  0.825053  1
  I  I15  1  0.648321  0.044144  0.268980  1
  I  I16  1  0.030316  0.843038  0.074590  1
  I  I17  1  0.354221  0.008292  0.739587  1
  I  I18  1  0.918590  0.347116  0.347917  1
  I  I19  1  0.918502  0.935888  0.603645  1
  I  I20  1  0.790293  0.654932  0.892568  1
  I  I21  1  0.361630  0.021434  0.138713  1
  I  I22  1  0.348516  0.281030  0.146687  1
  I  I23  1  0.586648  0.609800  0.781357  1
  I  I24  1  0.116199  0.373238  0.448920  1
  I  I25  1  0.743054  0.911432  0.663931  1
  I  I26  1  0.829763  0.441041  0.863786  1
  I  I27  1  0.504326  0.031410  0.207603  1
  I  I28  1  0.148633  0.269856  0.782480  1
  I  I29  1  0.666432  0.779279  0.286943  1
  I  I30  1  0.851563  0.811605  0.178101  1
  I  I31  1  0.401753  0.225704  0.793430  1
  I  I32  1  0.341936  0.487190  0.510933  1
  I  I33  1  0.651801  0.540310  0.265344  1
  I  I34  1  0.097074  0.607954  0.727321  1
  I  I35  1  0.346710  0.763717  0.149709  1
