# generated using pymatgen
data_Al4Cr3Fe8Si
_symmetry_space_group_name_H-M   'P 1'
_cell_length_a   5.65332300
_cell_length_b   5.65332300
_cell_length_c   5.65332300
_cell_angle_alpha   90.00000000
_cell_angle_beta   90.00000000
_cell_angle_gamma   90.00000000
_symmetry_Int_Tables_number   1
_chemical_formula_structural   Al4Cr3Fe8Si
_chemical_formula_sum   'Al4 Cr3 Fe8 Si1'
_cell_volume   180.68054761
_cell_formula_units_Z   1
loop_
 _symmetry_equiv_pos_site_id
 _symmetry_equiv_pos_as_xyz
  1  'x, y, z'
loop_
 _atom_site_type_symbol
 _atom_site_label
 _atom_site_symmetry_multiplicity
 _atom_site_fract_x
 _atom_site_fract_y
 _atom_site_fract_z
 _atom_site_occupancy
  Al  Al0  1  0.500000  0.500000  0.000000  1
  Al  Al1  1  0.500000  0.000000  0.500000  1
  Al  Al2  1  0.000000  0.500000  0.500000  1
  Al  Al3  1  0.500000  0.500000  0.500000  1
  Cr  Cr4  1  0.500000  0.000000  0.000000  1
  Cr  Cr5  1  0.000000  0.500000  0.000000  1
  Cr  Cr6  1  0.000000  0.000000  0.500000  1
  Fe  Fe7  1  0.244197  0.244197  0.244197  1
  Fe  Fe8  1  0.755804  0.244197  0.244197  1
  Fe  Fe9  1  0.244197  0.755804  0.244197  1
  Fe  Fe10  1  0.755804  0.755804  0.244197  1
  Fe  Fe11  1  0.244197  0.244197  0.755804  1
  Fe  Fe12  1  0.755804  0.244197  0.755804  1
  Fe  Fe13  1  0.244197  0.755804  0.755804  1
  Fe  Fe14  1  0.755804  0.755804  0.755804  1
  Si  Si15  1  0.000000  0.000000  0.000000  1
