# generated using pymatgen
data_Y5Si10P2Ir19
_symmetry_space_group_name_H-M   'P 1'
_cell_length_a   12.84497414
_cell_length_b   12.84497510
_cell_length_c   3.96263500
_cell_angle_alpha   90.00000000
_cell_angle_beta   90.00000000
_cell_angle_gamma   120.14148604
_symmetry_Int_Tables_number   1
_chemical_formula_structural   Y5Si10P2Ir19
_chemical_formula_sum   'Y5 Si10 P2 Ir19'
_cell_volume   565.40580101
_cell_formula_units_Z   1
loop_
 _symmetry_equiv_pos_site_id
 _symmetry_equiv_pos_as_xyz
  1  'x, y, z'
loop_
 _atom_site_type_symbol
 _atom_site_label
 _atom_site_symmetry_multiplicity
 _atom_site_fract_x
 _atom_site_fract_y
 _atom_site_fract_z
 _atom_site_occupancy
  Y  Y0  1  0.666580  0.333638  0.000000  1
  Y  Y1  1  0.333638  0.666580  0.000000  1
  Y  Y2  1  0.812829  0.812829  0.500000  1
  Y  Y3  1  0.186129  0.001077  0.500000  1
  Y  Y4  1  0.001077  0.186129  0.500000  1
  Si  Si5  1  0.686246  0.167340  0.500000  1
  Si  Si6  1  0.832281  0.518589  0.500000  1
  Si  Si7  1  0.480827  0.312775  0.500000  1
  Si  Si8  1  0.167340  0.686246  0.500000  1
  Si  Si9  1  0.518589  0.832281  0.500000  1
  Si  Si10  1  0.312775  0.480827  0.500000  1
  Si  Si11  1  0.633020  0.633020  0.000000  1
  Si  Si12  1  0.367334  0.000203  0.000000  1
  Si  Si13  1  0.000203  0.367334  0.000000  1
  Si  Si14  1  0.179061  0.179061  0.000000  1
  P  P15  1  0.820539  0.000844  0.000000  1
  P  P16  1  0.000844  0.820539  0.000000  1
  Ir  Ir17  1  0.806393  0.179899  0.000000  1
  Ir  Ir18  1  0.820555  0.626938  0.000000  1
  Ir  Ir19  1  0.375731  0.194090  0.000000  1
  Ir  Ir20  1  0.179899  0.806393  0.000000  1
  Ir  Ir21  1  0.626938  0.820555  0.000000  1
  Ir  Ir22  1  0.194090  0.375731  0.000000  1
  Ir  Ir23  1  0.447962  0.447962  0.000000  1
  Ir  Ir24  1  0.552371  0.999052  0.000000  1
  Ir  Ir25  1  0.999052  0.552371  0.000000  1
  Ir  Ir26  1  0.281973  0.281973  0.500000  1
  Ir  Ir27  1  0.720801  0.000215  0.500000  1
  Ir  Ir28  1  0.000215  0.720801  0.500000  1
  Ir  Ir29  1  0.872466  0.359553  0.500000  1
  Ir  Ir30  1  0.640426  0.513067  0.500000  1
  Ir  Ir31  1  0.487055  0.126073  0.500000  1
  Ir  Ir32  1  0.359553  0.872466  0.500000  1
  Ir  Ir33  1  0.513067  0.640426  0.500000  1
  Ir  Ir34  1  0.126073  0.487055  0.500000  1
  Ir  Ir35  1  0.996068  0.996068  0.000000  1
