# generated using pymatgen
data_Ho8Sc9Tc3Ge16
_symmetry_space_group_name_H-M   'P 1'
_cell_length_a   7.01987543
_cell_length_b   7.32339426
_cell_length_c   13.86809300
_cell_angle_alpha   90.00000000
_cell_angle_beta   90.00000000
_cell_angle_gamma   90.30763406
_symmetry_Int_Tables_number   1
_chemical_formula_structural   Ho8Sc9Tc3Ge16
_chemical_formula_sum   'Ho8 Sc9 Tc3 Ge16'
_cell_volume   712.93888999
_cell_formula_units_Z   1
loop_
 _symmetry_equiv_pos_site_id
 _symmetry_equiv_pos_as_xyz
  1  'x, y, z'
loop_
 _atom_site_type_symbol
 _atom_site_label
 _atom_site_symmetry_multiplicity
 _atom_site_fract_x
 _atom_site_fract_y
 _atom_site_fract_z
 _atom_site_occupancy
  Ho  Ho0  1  0.002583  0.179571  0.097088  1
  Ho  Ho1  1  0.997988  0.817987  0.905282  1
  Ho  Ho2  1  0.493762  0.673908  0.906042  1
  Ho  Ho3  1  0.997988  0.817987  0.594718  1
  Ho  Ho4  1  0.502818  0.322093  0.099143  1
  Ho  Ho5  1  0.002583  0.179571  0.402912  1
  Ho  Ho6  1  0.502818  0.322093  0.400857  1
  Ho  Ho7  1  0.493762  0.673908  0.593958  1
  Sc  Sc8  1  0.658907  0.996984  0.750000  1
  Sc  Sc9  1  0.326187  0.170987  0.623698  1
  Sc  Sc10  1  0.669882  0.833347  0.371827  1
  Sc  Sc11  1  0.169701  0.666534  0.373368  1
  Sc  Sc12  1  0.669882  0.833347  0.128173  1
  Sc  Sc13  1  0.832246  0.337097  0.624968  1
  Sc  Sc14  1  0.326187  0.170987  0.876302  1
  Sc  Sc15  1  0.832246  0.337097  0.875032  1
  Sc  Sc16  1  0.169701  0.666534  0.126632  1
  Tc  Tc17  1  0.153781  0.493305  0.750000  1
  Tc  Tc18  1  0.844108  0.508534  0.250000  1
  Tc  Tc19  1  0.345773  0.991592  0.250000  1
  Ge  Ge20  1  0.027153  0.126968  0.750000  1
  Ge  Ge21  1  0.980049  0.885326  0.250000  1
  Ge  Ge22  1  0.477089  0.615764  0.250000  1
  Ge  Ge23  1  0.517997  0.386097  0.750000  1
  Ge  Ge24  1  0.294699  0.848640  0.750000  1
  Ge  Ge25  1  0.704459  0.142245  0.250000  1
  Ge  Ge26  1  0.201651  0.357017  0.250000  1
  Ge  Ge27  1  0.800673  0.639444  0.750000  1
  Ge  Ge28  1  0.168334  0.461768  0.544262  1
  Ge  Ge29  1  0.829173  0.537795  0.451981  1
  Ge  Ge30  1  0.334496  0.964483  0.451685  1
  Ge  Ge31  1  0.829173  0.537795  0.048019  1
  Ge  Ge32  1  0.669663  0.038472  0.539111  1
  Ge  Ge33  1  0.168334  0.461768  0.955738  1
  Ge  Ge34  1  0.669663  0.038472  0.960889  1
  Ge  Ge35  1  0.334496  0.964483  0.048315  1
