# generated using pymatgen
data_Ho2Co12Si3P4
_symmetry_space_group_name_H-M   'P 1'
_cell_length_a   9.06095639
_cell_length_b   9.06422034
_cell_length_c   3.58710100
_cell_angle_alpha   90.00000000
_cell_angle_beta   90.00000000
_cell_angle_gamma   119.84170506
_symmetry_Int_Tables_number   1
_chemical_formula_structural   Ho2Co12Si3P4
_chemical_formula_sum   'Ho2 Co12 Si3 P4'
_cell_volume   255.54610159
_cell_formula_units_Z   1
loop_
 _symmetry_equiv_pos_site_id
 _symmetry_equiv_pos_as_xyz
  1  'x, y, z'
loop_
 _atom_site_type_symbol
 _atom_site_label
 _atom_site_symmetry_multiplicity
 _atom_site_fract_x
 _atom_site_fract_y
 _atom_site_fract_z
 _atom_site_occupancy
  Ho  Ho0  1  0.663957  0.332855  0.500000  1
  Ho  Ho1  1  0.332660  0.667770  0.000000  1
  Co  Co2  1  0.128016  0.848982  0.000000  1
  Co  Co3  1  0.382130  0.434955  0.500000  1
  Co  Co4  1  0.718230  0.869453  0.000000  1
  Co  Co5  1  0.560729  0.942449  0.500000  1
  Co  Co6  1  0.235765  0.105352  0.500000  1
  Co  Co7  1  0.867438  0.764908  0.500000  1
  Co  Co8  1  0.898076  0.129972  0.500000  1
  Co  Co9  1  0.946997  0.379684  0.000000  1
  Co  Co10  1  0.615333  0.561513  0.000000  1
  Co  Co11  1  0.434831  0.060736  0.000000  1
  Co  Co12  1  0.058332  0.619344  0.500000  1
  Co  Co13  1  0.157651  0.280568  0.000000  1
  Si  Si14  1  0.998375  0.999647  0.000000  1
  Si  Si15  1  0.712736  0.112640  0.000000  1
  Si  Si16  1  0.887167  0.599581  0.000000  1
  P  P17  1  0.597269  0.707435  0.500000  1
  P  P18  1  0.402735  0.290212  0.000000  1
  P  P19  1  0.291592  0.890580  0.500000  1
  P  P20  1  0.109978  0.401362  0.500000  1
