# generated using pymatgen
data_Li2HoEr7(Sc5Si8)2
_symmetry_space_group_name_H-M   'P 1'
_cell_length_a   6.97358903
_cell_length_b   7.37259180
_cell_length_c   13.96035705
_cell_angle_alpha   90.00598114
_cell_angle_beta   89.99191896
_cell_angle_gamma   89.96391694
_symmetry_Int_Tables_number   1
_chemical_formula_structural   Li2HoEr7(Sc5Si8)2
_chemical_formula_sum   'Li2 Ho1 Er7 Sc10 Si16'
_cell_volume   717.74962172
_cell_formula_units_Z   1
loop_
 _symmetry_equiv_pos_site_id
 _symmetry_equiv_pos_as_xyz
  1  'x, y, z'
loop_
 _atom_site_type_symbol
 _atom_site_label
 _atom_site_symmetry_multiplicity
 _atom_site_fract_x
 _atom_site_fract_y
 _atom_site_fract_z
 _atom_site_occupancy
  Li  Li0  1  0.159853  0.506674  0.750023  1
  Li  Li1  1  0.840113  0.493308  0.249998  1
  Ho  Ho2  1  0.484710  0.674372  0.597393  1
  Er  Er3  1  0.010412  0.184113  0.098367  1
  Er  Er4  1  0.989577  0.815881  0.901655  1
  Er  Er5  1  0.484738  0.674458  0.902511  1
  Er  Er6  1  0.989552  0.815905  0.598344  1
  Er  Er7  1  0.515256  0.325562  0.097469  1
  Er  Er8  1  0.010416  0.184137  0.401610  1
  Er  Er9  1  0.515267  0.325499  0.402499  1
  Sc  Sc10  1  0.341725  0.003336  0.249990  1
  Sc  Sc11  1  0.658336  0.996755  0.750035  1
  Sc  Sc12  1  0.325736  0.181609  0.626047  1
  Sc  Sc13  1  0.674281  0.818380  0.373920  1
  Sc  Sc14  1  0.165307  0.675196  0.373084  1
  Sc  Sc15  1  0.674237  0.818348  0.126049  1
  Sc  Sc16  1  0.834731  0.324729  0.626917  1
  Sc  Sc17  1  0.325762  0.181643  0.873961  1
  Sc  Sc18  1  0.834676  0.324776  0.873127  1
  Sc  Sc19  1  0.165347  0.675200  0.126901  1
  Si  Si20  1  0.028958  0.101003  0.750026  1
  Si  Si21  1  0.971040  0.899035  0.249991  1
  Si  Si22  1  0.465708  0.612923  0.249992  1
  Si  Si23  1  0.534381  0.386931  0.750068  1
  Si  Si24  1  0.287061  0.878894  0.750091  1
  Si  Si25  1  0.712806  0.121266  0.249998  1
  Si  Si26  1  0.220613  0.372318  0.250000  1
  Si  Si27  1  0.779564  0.627608  0.750110  1
  Si  Si28  1  0.160200  0.461387  0.533157  1
  Si  Si29  1  0.839606  0.538432  0.466734  1
  Si  Si30  1  0.342888  0.966987  0.461146  1
  Si  Si31  1  0.839528  0.538467  0.033241  1
  Si  Si32  1  0.657144  0.033331  0.538765  1
  Si  Si33  1  0.160489  0.461542  0.966763  1
  Si  Si34  1  0.657043  0.033133  0.961204  1
  Si  Si35  1  0.342941  0.966861  0.038816  1
