# generated using pymatgen
data_LiDyHoAs2
_symmetry_space_group_name_H-M   'P 1'
_cell_length_a   4.16711700
_cell_length_b   4.16711709
_cell_length_c   14.11243800
_cell_angle_alpha   90.00000000
_cell_angle_beta   90.00000000
_cell_angle_gamma   120.00000721
_symmetry_Int_Tables_number   1
_chemical_formula_structural   LiDyHoAs2
_chemical_formula_sum   'Li2 Dy2 Ho2 As4'
_cell_volume   212.22866651
_cell_formula_units_Z   2
loop_
 _symmetry_equiv_pos_site_id
 _symmetry_equiv_pos_as_xyz
  1  'x, y, z'
loop_
 _atom_site_type_symbol
 _atom_site_label
 _atom_site_symmetry_multiplicity
 _atom_site_fract_x
 _atom_site_fract_y
 _atom_site_fract_z
 _atom_site_occupancy
  Li  Li0  1  0.000000  0.000000  0.749871  1
  Li  Li1  1  0.000000  0.000000  0.249871  1
  Dy  Dy2  1  0.666667  0.333333  0.389359  1
  Dy  Dy3  1  0.333333  0.666667  0.889359  1
  Ho  Ho4  1  0.333333  0.666667  0.610535  1
  Ho  Ho5  1  0.666667  0.333333  0.110535  1
  As  As6  1  0.333333  0.666667  0.249769  1
  As  As7  1  0.000000  0.000000  0.000465  1
  As  As8  1  0.000000  0.000000  0.500465  1
  As  As9  1  0.666667  0.333333  0.749769  1
