# generated using pymatgen
data_TbYb(Al5Fe)4
_symmetry_space_group_name_H-M   'P 1'
_cell_length_a   6.77606200
_cell_length_b   6.77606123
_cell_length_c   8.97238700
_cell_angle_alpha   90.00000000
_cell_angle_beta   90.00000000
_cell_angle_gamma   97.19947000
_symmetry_Int_Tables_number   1
_chemical_formula_structural   TbYb(Al5Fe)4
_chemical_formula_sum   'Tb1 Yb1 Al20 Fe4'
_cell_volume   408.71924064
_cell_formula_units_Z   1
loop_
 _symmetry_equiv_pos_site_id
 _symmetry_equiv_pos_as_xyz
  1  'x, y, z'
loop_
 _atom_site_type_symbol
 _atom_site_label
 _atom_site_symmetry_multiplicity
 _atom_site_fract_x
 _atom_site_fract_y
 _atom_site_fract_z
 _atom_site_occupancy
  Tb  Tb0  1  0.124640  0.875360  0.250000  1
  Yb  Yb1  1  0.876475  0.123525  0.750000  1
  Al  Al2  1  0.414706  0.134787  0.750000  1
  Al  Al3  1  0.135096  0.416565  0.250000  1
  Al  Al4  1  0.583435  0.864904  0.250000  1
  Al  Al5  1  0.865213  0.585294  0.750000  1
  Al  Al6  1  0.523146  0.781334  0.750000  1
  Al  Al7  1  0.780191  0.520606  0.250000  1
  Al  Al8  1  0.479394  0.219809  0.250000  1
  Al  Al9  1  0.218666  0.476854  0.750000  1
  Al  Al10  1  0.844172  0.155828  0.403504  1
  Al  Al11  1  0.158612  0.841388  0.597020  1
  Al  Al12  1  0.844172  0.155828  0.096496  1
  Al  Al13  1  0.158612  0.841388  0.902980  1
  Al  Al14  1  0.626235  0.373765  0.956404  1
  Al  Al15  1  0.374163  0.625837  0.049162  1
  Al  Al16  1  0.626235  0.373765  0.543596  1
  Al  Al17  1  0.374163  0.625837  0.450838  1
  Al  Al18  1  0.771404  0.772612  0.000001  1
  Al  Al19  1  0.771404  0.772612  0.499999  1
  Al  Al20  1  0.227387  0.228596  0.000001  1
  Al  Al21  1  0.227387  0.228596  0.499999  1
  Fe  Fe22  1  0.498166  0.000621  0.999994  1
  Fe  Fe23  1  0.999379  0.501834  0.999994  1
  Fe  Fe24  1  0.498166  0.000621  0.500006  1
  Fe  Fe25  1  0.999379  0.501834  0.500006  1
