# generated using pymatgen
data_Ho2TmTh11Ru6
_symmetry_space_group_name_H-M   'P 1'
_cell_length_a   9.81303444
_cell_length_b   9.88241447
_cell_length_c   6.39938180
_cell_angle_alpha   90.25339890
_cell_angle_beta   89.85648059
_cell_angle_gamma   120.37880663
_symmetry_Int_Tables_number   1
_chemical_formula_structural   Ho2TmTh11Ru6
_chemical_formula_sum   'Ho2 Tm1 Th11 Ru6'
_cell_volume   535.37777193
_cell_formula_units_Z   1
loop_
 _symmetry_equiv_pos_site_id
 _symmetry_equiv_pos_as_xyz
  1  'x, y, z'
loop_
 _atom_site_type_symbol
 _atom_site_label
 _atom_site_symmetry_multiplicity
 _atom_site_fract_x
 _atom_site_fract_y
 _atom_site_fract_z
 _atom_site_occupancy
  Ho  Ho0  1  0.074369  0.535732  0.301458  1
  Ho  Ho1  1  0.926460  0.463050  0.800738  1
  Tm  Tm2  1  0.459673  0.536818  0.297599  1
  Th  Th3  1  0.250056  0.127073  0.510315  1
  Th  Th4  1  0.542214  0.082542  0.795959  1
  Th  Th5  1  0.747369  0.873640  0.012756  1
  Th  Th6  1  0.666575  0.333330  0.277570  1
  Th  Th7  1  0.125179  0.870583  0.009792  1
  Th  Th8  1  0.458717  0.915991  0.295323  1
  Th  Th9  1  0.539723  0.464129  0.799648  1
  Th  Th10  1  0.876249  0.129211  0.511107  1
  Th  Th11  1  0.124566  0.253143  0.014184  1
  Th  Th12  1  0.873950  0.747731  0.508895  1
  Th  Th13  1  0.333471  0.665408  0.773019  1
  Ru  Ru14  1  0.811884  0.630552  0.048229  1
  Ru  Ru15  1  0.814895  0.182670  0.045601  1
  Ru  Ru16  1  0.631370  0.814801  0.544367  1
  Ru  Ru17  1  0.370634  0.188241  0.042216  1
  Ru  Ru18  1  0.184841  0.366734  0.551382  1
  Ru  Ru19  1  0.187806  0.818621  0.543839  1
