# generated using pymatgen
data_Hf18MnCoRe7W
_symmetry_space_group_name_H-M   'P 1'
_cell_length_a   8.59532100
_cell_length_b   8.59531959
_cell_length_c   8.47570300
_cell_angle_alpha   90.00000000
_cell_angle_beta   90.00000000
_cell_angle_gamma   120.00000158
_symmetry_Int_Tables_number   1
_chemical_formula_structural   Hf18MnCoRe7W
_chemical_formula_sum   'Hf18 Mn1 Co1 Re7 W1'
_cell_volume   542.28861209
_cell_formula_units_Z   1
loop_
 _symmetry_equiv_pos_site_id
 _symmetry_equiv_pos_as_xyz
  1  'x, y, z'
loop_
 _atom_site_type_symbol
 _atom_site_label
 _atom_site_symmetry_multiplicity
 _atom_site_fract_x
 _atom_site_fract_y
 _atom_site_fract_z
 _atom_site_occupancy
  Hf  Hf0  1  0.200973  0.799027  0.442435  1
  Hf  Hf1  1  0.200973  0.401949  0.442435  1
  Hf  Hf2  1  0.598051  0.799027  0.442435  1
  Hf  Hf3  1  0.799709  0.200291  0.558697  1
  Hf  Hf4  1  0.799709  0.599416  0.558697  1
  Hf  Hf5  1  0.400584  0.200291  0.558697  1
  Hf  Hf6  1  0.800962  0.199038  0.940503  1
  Hf  Hf7  1  0.800962  0.601923  0.940503  1
  Hf  Hf8  1  0.398077  0.199038  0.940503  1
  Hf  Hf9  1  0.200074  0.799926  0.058442  1
  Hf  Hf10  1  0.200074  0.400150  0.058442  1
  Hf  Hf11  1  0.599850  0.799926  0.058442  1
  Hf  Hf12  1  0.540077  0.459923  0.248899  1
  Hf  Hf13  1  0.540077  0.080153  0.248899  1
  Hf  Hf14  1  0.919847  0.459923  0.248899  1
  Hf  Hf15  1  0.459067  0.540933  0.751155  1
  Hf  Hf16  1  0.459067  0.918136  0.751155  1
  Hf  Hf17  1  0.081864  0.540933  0.751155  1
  Mn  Mn18  1  0.333333  0.666667  0.249759  1
  Co  Co19  1  0.666667  0.333333  0.750768  1
  Re  Re20  1  0.888476  0.111524  0.250632  1
  Re  Re21  1  0.888476  0.776952  0.250632  1
  Re  Re22  1  0.223048  0.111524  0.250632  1
  Re  Re23  1  0.111402  0.888598  0.749232  1
  Re  Re24  1  0.111402  0.222804  0.749232  1
  Re  Re25  1  0.777196  0.888598  0.749232  1
  Re  Re26  1  0.000000  0.000000  0.000820  1
  W  W27  1  0.000000  0.000000  0.498669  1
