# generated using pymatgen
data_ErPaNi2Pb
_symmetry_space_group_name_H-M   'P 1'
_cell_length_a   3.51304200
_cell_length_b   4.18559153
_cell_length_c   7.29118960
_cell_angle_alpha   73.31972858
_cell_angle_beta   90.00000000
_cell_angle_gamma   90.00000000
_symmetry_Int_Tables_number   1
_chemical_formula_structural   ErPaNi2Pb
_chemical_formula_sum   'Er1 Pa1 Ni2 Pb1'
_cell_volume   102.69952753
_cell_formula_units_Z   1
loop_
 _symmetry_equiv_pos_site_id
 _symmetry_equiv_pos_as_xyz
  1  'x, y, z'
loop_
 _atom_site_type_symbol
 _atom_site_label
 _atom_site_symmetry_multiplicity
 _atom_site_fract_x
 _atom_site_fract_y
 _atom_site_fract_z
 _atom_site_occupancy
  Er  Er0  1  0.500000  0.637298  0.725404  1
  Pa  Pa1  1  0.500000  0.350561  0.298881  1
  Ni  Ni2  1  0.000000  0.805426  0.389148  1
  Ni  Ni3  1  0.000000  0.203923  0.592157  1
  Pb  Pb4  1  0.000000  0.002795  0.994410  1
