# generated using pymatgen
data_Ho4Cu3Rh
_symmetry_space_group_name_H-M   'P 1'
_cell_length_a   4.44467800
_cell_length_b   5.43388299
_cell_length_c   7.01702571
_cell_angle_alpha   90.16415482
_cell_angle_beta   90.00000000
_cell_angle_gamma   90.00000000
_symmetry_Int_Tables_number   1
_chemical_formula_structural   Ho4Cu3Rh
_chemical_formula_sum   'Ho4 Cu3 Rh1'
_cell_volume   169.47352816
_cell_formula_units_Z   1
loop_
 _symmetry_equiv_pos_site_id
 _symmetry_equiv_pos_as_xyz
  1  'x, y, z'
loop_
 _atom_site_type_symbol
 _atom_site_label
 _atom_site_symmetry_multiplicity
 _atom_site_fract_x
 _atom_site_fract_y
 _atom_site_fract_z
 _atom_site_occupancy
  Ho  Ho0  1  0.250000  0.363371  0.689240  1
  Ho  Ho1  1  0.250000  0.143240  0.175267  1
  Ho  Ho2  1  0.750000  0.632226  0.315786  1
  Ho  Ho3  1  0.750000  0.864448  0.820433  1
  Cu  Cu4  1  0.250000  0.875692  0.529310  1
  Cu  Cu5  1  0.250000  0.640959  0.040817  1
  Cu  Cu6  1  0.750000  0.125150  0.465999  1
  Rh  Rh7  1  0.750000  0.354915  0.963148  1
