# generated using pymatgen
data_CeCo2GeP
_symmetry_space_group_name_H-M   'P 1'
_cell_length_a   3.97551600
_cell_length_b   3.97551600
_cell_length_c   9.56009500
_cell_angle_alpha   90.00000000
_cell_angle_beta   90.00000000
_cell_angle_gamma   90.00000000
_symmetry_Int_Tables_number   1
_chemical_formula_structural   CeCo2GeP
_chemical_formula_sum   'Ce2 Co4 Ge2 P2'
_cell_volume   151.09469603
_cell_formula_units_Z   2
loop_
 _symmetry_equiv_pos_site_id
 _symmetry_equiv_pos_as_xyz
  1  'x, y, z'
loop_
 _atom_site_type_symbol
 _atom_site_label
 _atom_site_symmetry_multiplicity
 _atom_site_fract_x
 _atom_site_fract_y
 _atom_site_fract_z
 _atom_site_occupancy
  Ce  Ce0  1  0.000000  0.500000  0.239756  1
  Ce  Ce1  1  0.500000  0.000000  0.760244  1
  Co  Co2  1  0.000000  0.000000  0.000000  1
  Co  Co3  1  0.500000  0.500000  0.000000  1
  Co  Co4  1  0.000000  0.500000  0.641972  1
  Co  Co5  1  0.500000  0.000000  0.358028  1
  Ge  Ge6  1  0.000000  0.000000  0.500000  1
  Ge  Ge7  1  0.500000  0.500000  0.500000  1
  P  P8  1  0.000000  0.500000  0.875320  1
  P  P9  1  0.500000  0.000000  0.124680  1
