# generated using pymatgen
data_HoErZn4Ru
_symmetry_space_group_name_H-M   'P 1'
_cell_length_a   6.93239800
_cell_length_b   6.93239800
_cell_length_c   5.26968000
_cell_angle_alpha   90.00000000
_cell_angle_beta   90.00000000
_cell_angle_gamma   90.00000000
_symmetry_Int_Tables_number   1
_chemical_formula_structural   HoErZn4Ru
_chemical_formula_sum   'Ho2 Er2 Zn8 Ru2'
_cell_volume   253.25102989
_cell_formula_units_Z   2
loop_
 _symmetry_equiv_pos_site_id
 _symmetry_equiv_pos_as_xyz
  1  'x, y, z'
loop_
 _atom_site_type_symbol
 _atom_site_label
 _atom_site_symmetry_multiplicity
 _atom_site_fract_x
 _atom_site_fract_y
 _atom_site_fract_z
 _atom_site_occupancy
  Ho  Ho0  1  0.000000  0.500000  0.765607  1
  Ho  Ho1  1  0.500000  0.000000  0.234393  1
  Er  Er2  1  0.000000  0.000000  0.000000  1
  Er  Er3  1  0.500000  0.500000  0.000000  1
  Zn  Zn4  1  0.188048  0.688048  0.287832  1
  Zn  Zn5  1  0.811952  0.688048  0.287832  1
  Zn  Zn6  1  0.811952  0.311952  0.287832  1
  Zn  Zn7  1  0.311952  0.188048  0.712168  1
  Zn  Zn8  1  0.188048  0.311952  0.287832  1
  Zn  Zn9  1  0.688048  0.188048  0.712168  1
  Zn  Zn10  1  0.688048  0.811952  0.712168  1
  Zn  Zn11  1  0.311952  0.811952  0.712168  1
  Ru  Ru12  1  0.500000  0.500000  0.500000  1
  Ru  Ru13  1  0.000000  0.000000  0.500000  1
