# generated using pymatgen
data_YbCe2UH12
_symmetry_space_group_name_H-M   'P 1'
_cell_length_a   6.70422200
_cell_length_b   6.74397400
_cell_length_c   6.74397400
_cell_angle_alpha   90.00000000
_cell_angle_beta   90.00000000
_cell_angle_gamma   90.00000000
_symmetry_Int_Tables_number   1
_chemical_formula_structural   YbCe2UH12
_chemical_formula_sum   'Yb2 Ce4 U2 H24'
_cell_volume   304.91596316
_cell_formula_units_Z   2
loop_
 _symmetry_equiv_pos_site_id
 _symmetry_equiv_pos_as_xyz
  1  'x, y, z'
loop_
 _atom_site_type_symbol
 _atom_site_label
 _atom_site_symmetry_multiplicity
 _atom_site_fract_x
 _atom_site_fract_y
 _atom_site_fract_z
 _atom_site_occupancy
  Yb  Yb0  1  0.250000  0.000000  0.500000  1
  Yb  Yb1  1  0.750000  0.000000  0.500000  1
  Ce  Ce2  1  0.000000  0.500000  0.253112  1
  Ce  Ce3  1  0.000000  0.500000  0.746888  1
  Ce  Ce4  1  0.500000  0.753112  0.000000  1
  Ce  Ce5  1  0.500000  0.246888  0.000000  1
  U  U6  1  0.000000  0.000000  0.000000  1
  U  U7  1  0.500000  0.500000  0.500000  1
  H  H8  1  0.000000  0.154445  0.288501  1
  H  H9  1  0.500000  0.211499  0.654445  1
  H  H10  1  0.500000  0.788501  0.345555  1
  H  H11  1  0.800822  0.650233  0.500000  1
  H  H12  1  0.199178  0.650233  0.500000  1
  H  H13  1  0.347290  0.500000  0.797862  1
  H  H14  1  0.652710  0.500000  0.797862  1
  H  H15  1  0.300822  0.000000  0.150233  1
  H  H16  1  0.152710  0.297862  0.000000  1
  H  H17  1  0.847290  0.702138  0.000000  1
  H  H18  1  0.300822  0.000000  0.849767  1
  H  H19  1  0.847290  0.297862  0.000000  1
  H  H20  1  0.699178  0.000000  0.150233  1
  H  H21  1  0.699178  0.000000  0.849767  1
  H  H22  1  0.152710  0.702138  0.000000  1
  H  H23  1  0.000000  0.845555  0.711499  1
  H  H24  1  0.000000  0.154445  0.711499  1
  H  H25  1  0.000000  0.845555  0.288501  1
  H  H26  1  0.652710  0.500000  0.202138  1
  H  H27  1  0.347290  0.500000  0.202138  1
  H  H28  1  0.800822  0.349767  0.500000  1
  H  H29  1  0.199178  0.349767  0.500000  1
  H  H30  1  0.500000  0.788501  0.654445  1
  H  H31  1  0.500000  0.211499  0.345555  1
