# generated using pymatgen
data_Ba4Sn3HgAu4
_symmetry_space_group_name_H-M   'P 1'
_cell_length_a   6.57791171
_cell_length_b   6.57791117
_cell_length_c   12.21666189
_cell_angle_alpha   89.30334256
_cell_angle_beta   89.30334247
_cell_angle_gamma   44.60061431
_symmetry_Int_Tables_number   1
_chemical_formula_structural   Ba4Sn3HgAu4
_chemical_formula_sum   'Ba4 Sn3 Hg1 Au4'
_cell_volume   371.13131828
_cell_formula_units_Z   1
loop_
 _symmetry_equiv_pos_site_id
 _symmetry_equiv_pos_as_xyz
  1  'x, y, z'
loop_
 _atom_site_type_symbol
 _atom_site_label
 _atom_site_symmetry_multiplicity
 _atom_site_fract_x
 _atom_site_fract_y
 _atom_site_fract_z
 _atom_site_occupancy
  Ba  Ba0  1  0.688396  0.688396  0.685063  1
  Ba  Ba1  1  0.174434  0.174434  0.169832  1
  Ba  Ba2  1  0.418964  0.418964  0.907479  1
  Ba  Ba3  1  0.879323  0.879323  0.398297  1
  Sn  Sn4  1  0.163159  0.163159  0.485462  1
  Sn  Sn5  1  0.982957  0.982957  0.668802  1
  Sn  Sn6  1  0.472537  0.472537  0.194283  1
  Hg  Hg7  1  0.704373  0.704373  0.971791  1
  Au  Au8  1  0.381137  0.381137  0.608286  1
  Au  Au9  1  0.891038  0.891038  0.121088  1
  Au  Au10  1  0.120071  0.120071  0.869801  1
  Au  Au11  1  0.596012  0.596012  0.392217  1
