# generated using pymatgen
data_Lu2HfZr4TcF30
_symmetry_space_group_name_H-M   'P 1'
_cell_length_a   8.09921198
_cell_length_b   8.09921093
_cell_length_c   8.10567624
_cell_angle_alpha   79.86258038
_cell_angle_beta   79.86257743
_cell_angle_gamma   100.07696883
_symmetry_Int_Tables_number   1
_chemical_formula_structural   Lu2HfZr4TcF30
_chemical_formula_sum   'Lu2 Hf1 Zr4 Tc1 F30'
_cell_volume   503.46646204
_cell_formula_units_Z   1
loop_
 _symmetry_equiv_pos_site_id
 _symmetry_equiv_pos_as_xyz
  1  'x, y, z'
loop_
 _atom_site_type_symbol
 _atom_site_label
 _atom_site_symmetry_multiplicity
 _atom_site_fract_x
 _atom_site_fract_y
 _atom_site_fract_z
 _atom_site_occupancy
  Lu  Lu0  1  0.678307  0.321693  0.750000  1
  Lu  Lu1  1  0.322127  0.677873  0.250000  1
  Hf  Hf2  1  0.749729  0.250271  0.250000  1
  Zr  Zr3  1  0.821524  0.748524  0.325316  1
  Zr  Zr4  1  0.251476  0.178476  0.174684  1
  Zr  Zr5  1  0.177744  0.251436  0.674046  1
  Zr  Zr6  1  0.748564  0.822256  0.825954  1
  Tc  Tc7  1  0.249791  0.750209  0.750000  1
  F  F8  1  0.150051  0.185735  0.946925  1
  F  F9  1  0.687422  0.560224  0.848248  1
  F  F10  1  0.043792  0.653076  0.314439  1
  F  F11  1  0.652433  0.042860  0.815969  1
  F  F12  1  0.559044  0.685589  0.348757  1
  F  F13  1  0.183856  0.149299  0.448344  1
  F  F14  1  0.850701  0.816144  0.051656  1
  F  F15  1  0.314411  0.440956  0.151243  1
  F  F16  1  0.957140  0.347567  0.684031  1
  F  F17  1  0.346924  0.956208  0.185561  1
  F  F18  1  0.439776  0.312578  0.651752  1
  F  F19  1  0.814265  0.849949  0.553075  1
  F  F20  1  0.966235  0.033765  0.750000  1
  F  F21  1  0.541072  0.751617  0.031270  1
  F  F22  1  0.248383  0.458928  0.468730  1
  F  F23  1  0.458915  0.248231  0.968877  1
  F  F24  1  0.751769  0.541085  0.531123  1
  F  F25  1  0.033894  0.966106  0.250000  1
  F  F26  1  0.219236  0.726872  0.998592  1
  F  F27  1  0.226609  0.499191  0.782275  1
  F  F28  1  0.998559  0.720465  0.773873  1
  F  F29  1  0.722362  0.994024  0.274402  1
  F  F30  1  0.493867  0.225855  0.280939  1
  F  F31  1  0.726650  0.220220  0.503140  1
  F  F32  1  0.779780  0.273350  0.996860  1
  F  F33  1  0.774145  0.506133  0.219061  1
  F  F34  1  0.005976  0.277638  0.225598  1
  F  F35  1  0.279535  0.001441  0.726127  1
  F  F36  1  0.500809  0.773391  0.717725  1
  F  F37  1  0.273128  0.780764  0.501408  1
