# generated using pymatgen
data_Y2Ho8Si5P
_symmetry_space_group_name_H-M   'P 1'
_cell_length_a   8.38513720
_cell_length_b   8.39018653
_cell_length_c   6.29839300
_cell_angle_alpha   90.00000000
_cell_angle_beta   90.00000000
_cell_angle_gamma   119.95524981
_symmetry_Int_Tables_number   1
_chemical_formula_structural   Y2Ho8Si5P
_chemical_formula_sum   'Y2 Ho8 Si5 P1'
_cell_volume   383.91743679
_cell_formula_units_Z   1
loop_
 _symmetry_equiv_pos_site_id
 _symmetry_equiv_pos_as_xyz
  1  'x, y, z'
loop_
 _atom_site_type_symbol
 _atom_site_label
 _atom_site_symmetry_multiplicity
 _atom_site_fract_x
 _atom_site_fract_y
 _atom_site_fract_z
 _atom_site_occupancy
  Y  Y0  1  0.000752  0.756556  0.750000  1
  Y  Y1  1  0.754820  0.000111  0.750000  1
  Ho  Ho2  1  0.001235  0.244517  0.250000  1
  Ho  Ho3  1  0.756412  0.755370  0.250000  1
  Ho  Ho4  1  0.244498  0.243801  0.750000  1
  Ho  Ho5  1  0.243987  0.000169  0.250000  1
  Ho  Ho6  1  0.333758  0.667320  0.500115  1
  Ho  Ho7  1  0.666192  0.332512  0.999867  1
  Ho  Ho8  1  0.666192  0.332512  0.500133  1
  Ho  Ho9  1  0.333758  0.667320  0.999885  1
  Si  Si10  1  0.394254  0.393549  0.250000  1
  Si  Si11  1  0.000667  0.606415  0.250000  1
  Si  Si12  1  0.000486  0.393602  0.750000  1
  Si  Si13  1  0.606087  0.605889  0.750000  1
  Si  Si14  1  0.607284  0.999977  0.250000  1
  P  P15  1  0.389620  0.000381  0.750000  1
