# generated using pymatgen
data_Pr8Te(WO8)3
_symmetry_space_group_name_H-M   'P 1'
_cell_length_a   5.49374095
_cell_length_b   9.48147035
_cell_length_c   10.35752730
_cell_angle_alpha   89.99385949
_cell_angle_beta   89.91555074
_cell_angle_gamma   90.08377456
_symmetry_Int_Tables_number   1
_chemical_formula_structural   Pr8Te(WO8)3
_chemical_formula_sum   'Pr8 Te1 W3 O24'
_cell_volume   539.50940052
_cell_formula_units_Z   1
loop_
 _symmetry_equiv_pos_site_id
 _symmetry_equiv_pos_as_xyz
  1  'x, y, z'
loop_
 _atom_site_type_symbol
 _atom_site_label
 _atom_site_symmetry_multiplicity
 _atom_site_fract_x
 _atom_site_fract_y
 _atom_site_fract_z
 _atom_site_occupancy
  Pr  Pr0  1  0.033541  0.219646  0.132079  1
  Pr  Pr1  1  0.468739  0.782789  0.635202  1
  Pr  Pr2  1  0.966243  0.719886  0.365990  1
  Pr  Pr3  1  0.534181  0.283421  0.865886  1
  Pr  Pr4  1  0.025443  0.102946  0.539780  1
  Pr  Pr5  1  0.474847  0.896934  0.038263  1
  Pr  Pr6  1  0.973769  0.603022  0.961398  1
  Pr  Pr7  1  0.522705  0.393530  0.460364  1
  Te  Te8  1  0.041724  0.495603  0.644372  1
  W  W9  1  0.542574  0.003623  0.353114  1
  W  W10  1  0.958535  0.996841  0.853939  1
  W  W11  1  0.457650  0.504611  0.146890  1
  O  O12  1  0.428528  0.149016  0.474888  1
  O  O13  1  0.072467  0.848695  0.972658  1
  O  O14  1  0.569673  0.651290  0.026036  1
  O  O15  1  0.930516  0.350945  0.523611  1
  O  O16  1  0.722175  0.390543  0.064848  1
  O  O17  1  0.778662  0.611022  0.566763  1
  O  O18  1  0.281556  0.886843  0.435599  1
  O  O19  1  0.220740  0.111645  0.935951  1
  O  O20  1  0.251128  0.411753  0.009716  1
  O  O21  1  0.248207  0.585586  0.508843  1
  O  O22  1  0.751134  0.911163  0.490026  1
  O  O23  1  0.750968  0.088753  0.991127  1
  O  O24  1  0.190790  0.634553  0.178809  1
  O  O25  1  0.308872  0.363936  0.677809  1
  O  O26  1  0.807923  0.136030  0.323336  1
  O  O27  1  0.690320  0.866013  0.823048  1
  O  O28  1  0.331015  0.050112  0.214475  1
  O  O29  1  0.169767  0.950852  0.714205  1
  O  O30  1  0.665174  0.552026  0.287373  1
  O  O31  1  0.834537  0.446133  0.787614  1
  O  O32  1  0.318703  0.362113  0.257829  1
  O  O33  1  0.177094  0.638537  0.756560  1
  O  O34  1  0.684305  0.864206  0.240546  1
  O  O35  1  0.815794  0.135381  0.741052  1
