# generated using pymatgen
data_Er15Tm5(Ir3Rh)3
_symmetry_space_group_name_H-M   'P 1'
_cell_length_a   10.75997101
_cell_length_b   10.75946500
_cell_length_c   6.32946001
_cell_angle_alpha   90.00304374
_cell_angle_beta   89.99497547
_cell_angle_gamma   89.99845581
_symmetry_Int_Tables_number   1
_chemical_formula_structural   Er15Tm5(Ir3Rh)3
_chemical_formula_sum   'Er15 Tm5 Ir9 Rh3'
_cell_volume   732.77127492
_cell_formula_units_Z   1
loop_
 _symmetry_equiv_pos_site_id
 _symmetry_equiv_pos_as_xyz
  1  'x, y, z'
loop_
 _atom_site_type_symbol
 _atom_site_label
 _atom_site_symmetry_multiplicity
 _atom_site_fract_x
 _atom_site_fract_y
 _atom_site_fract_z
 _atom_site_occupancy
  Er  Er0  1  0.290282  0.088119  0.377771  1
  Er  Er1  1  0.290288  0.911724  0.877618  1
  Er  Er2  1  0.709716  0.088299  0.877645  1
  Er  Er3  1  0.709658  0.911940  0.377812  1
  Er  Er4  1  0.588277  0.790282  0.877622  1
  Er  Er5  1  0.588050  0.209663  0.377819  1
  Er  Er6  1  0.411936  0.790342  0.377818  1
  Er  Er7  1  0.411711  0.209719  0.877647  1
  Er  Er8  1  0.208988  0.411904  0.621263  1
  Er  Er9  1  0.209258  0.588114  0.123343  1
  Er  Er10  1  0.790779  0.411761  0.123350  1
  Er  Er11  1  0.790972  0.588010  0.621275  1
  Er  Er12  1  0.911792  0.709273  0.123364  1
  Er  Er13  1  0.912042  0.290965  0.621249  1
  Er  Er14  1  0.088005  0.709033  0.621263  1
  Tm  Tm15  1  0.088158  0.290897  0.123233  1
  Tm  Tm16  1  0.000007  0.000011  0.500324  1
  Tm  Tm17  1  0.000043  0.000103  0.000207  1
  Tm  Tm18  1  0.500000  0.499977  0.000204  1
  Tm  Tm19  1  0.500017  0.500001  0.500331  1
  Ir  Ir20  1  0.845977  0.153224  0.249662  1
  Ir  Ir21  1  0.845995  0.846593  0.749968  1
  Ir  Ir22  1  0.153946  0.153493  0.750236  1
  Ir  Ir23  1  0.154144  0.846839  0.249745  1
  Ir  Ir24  1  0.653403  0.345992  0.749978  1
  Ir  Ir25  1  0.653163  0.654161  0.249726  1
  Ir  Ir26  1  0.346684  0.345814  0.249644  1
  Ir  Ir27  1  0.346598  0.654012  0.749961  1
  Ir  Ir28  1  0.000065  0.499862  0.376704  1
  Rh  Rh29  1  0.500003  0.000015  0.122760  1
  Rh  Rh30  1  0.499997  0.999999  0.622819  1
  Rh  Rh31  1  0.000045  0.499856  0.877640  1
