# generated using pymatgen
data_Yb2DyGa3Ge2Pt
_symmetry_space_group_name_H-M   'P 1'
_cell_length_a   6.99730271
_cell_length_b   6.99730283
_cell_length_c   4.26370200
_cell_angle_alpha   90.00000000
_cell_angle_beta   90.00000000
_cell_angle_gamma   120.19090303
_symmetry_Int_Tables_number   1
_chemical_formula_structural   Yb2DyGa3Ge2Pt
_chemical_formula_sum   'Yb2 Dy1 Ga3 Ge2 Pt1'
_cell_volume   180.44304682
_cell_formula_units_Z   1
loop_
 _symmetry_equiv_pos_site_id
 _symmetry_equiv_pos_as_xyz
  1  'x, y, z'
loop_
 _atom_site_type_symbol
 _atom_site_label
 _atom_site_symmetry_multiplicity
 _atom_site_fract_x
 _atom_site_fract_y
 _atom_site_fract_z
 _atom_site_occupancy
  Yb  Yb0  1  0.416215  0.000207  0.000000  1
  Yb  Yb1  1  0.000207  0.416216  0.000000  1
  Dy  Dy2  1  0.583678  0.583678  0.000000  1
  Ga  Ga3  1  0.763088  0.000604  0.499999  1
  Ga  Ga4  1  0.236390  0.236390  0.499999  1
  Ga  Ga5  1  0.000604  0.763088  0.499999  1
  Ge  Ge6  1  0.666497  0.336990  0.499999  1
  Ge  Ge7  1  0.336990  0.666497  0.499999  1
  Pt  Pt8  1  0.996331  0.996331  0.000000  1
