# generated using pymatgen
data_Ca4TaV3O12
_symmetry_space_group_name_H-M   'P 1'
_cell_length_a   5.42137923
_cell_length_b   5.55313165
_cell_length_c   7.75452413
_cell_angle_alpha   89.62760505
_cell_angle_beta   89.51129272
_cell_angle_gamma   90.53173917
_symmetry_Int_Tables_number   1
_chemical_formula_structural   Ca4TaV3O12
_chemical_formula_sum   'Ca4 Ta1 V3 O12'
_cell_volume   233.43125639
_cell_formula_units_Z   1
loop_
 _symmetry_equiv_pos_site_id
 _symmetry_equiv_pos_as_xyz
  1  'x, y, z'
loop_
 _atom_site_type_symbol
 _atom_site_label
 _atom_site_symmetry_multiplicity
 _atom_site_fract_x
 _atom_site_fract_y
 _atom_site_fract_z
 _atom_site_occupancy
  Ca  Ca0  1  0.993673  0.041742  0.736903  1
  Ca  Ca1  1  0.487004  0.448483  0.259331  1
  Ca  Ca2  1  0.512996  0.551517  0.740669  1
  Ca  Ca3  1  0.006327  0.958258  0.263097  1
  Ta  Ta4  1  0.000000  0.500000  0.000000  1
  V  V5  1  0.500000  0.000000  0.500000  1
  V  V6  1  0.000000  0.500000  0.500000  1
  V  V7  1  0.500000  0.000000  0.000000  1
  O  O8  1  0.914753  0.522579  0.250036  1
  O  O9  1  0.422937  0.978548  0.736563  1
  O  O10  1  0.577063  0.021452  0.263437  1
  O  O11  1  0.085247  0.477421  0.749964  1
  O  O12  1  0.700886  0.299803  0.957497  1
  O  O13  1  0.198333  0.204419  0.044374  1
  O  O14  1  0.793001  0.789538  0.542289  1
  O  O15  1  0.280226  0.702338  0.458598  1
  O  O16  1  0.719774  0.297662  0.541402  1
  O  O17  1  0.206999  0.210462  0.457711  1
  O  O18  1  0.299114  0.700197  0.042503  1
  O  O19  1  0.801667  0.795581  0.955626  1
