# generated using pymatgen
data_Y2Sc2PtAu
_symmetry_space_group_name_H-M   'P 1'
_cell_length_a   4.70483100
_cell_length_b   7.03086400
_cell_length_c   8.46030200
_cell_angle_alpha   90.00000000
_cell_angle_beta   90.00000000
_cell_angle_gamma   90.00000000
_symmetry_Int_Tables_number   1
_chemical_formula_structural   Y2Sc2PtAu
_chemical_formula_sum   'Y4 Sc4 Pt2 Au2'
_cell_volume   279.85855747
_cell_formula_units_Z   2
loop_
 _symmetry_equiv_pos_site_id
 _symmetry_equiv_pos_as_xyz
  1  'x, y, z'
loop_
 _atom_site_type_symbol
 _atom_site_label
 _atom_site_symmetry_multiplicity
 _atom_site_fract_x
 _atom_site_fract_y
 _atom_site_fract_z
 _atom_site_occupancy
  Y  Y0  1  0.250000  0.012274  0.324295  1
  Y  Y1  1  0.250000  0.512274  0.175705  1
  Y  Y2  1  0.750000  0.979649  0.678278  1
  Y  Y3  1  0.750000  0.479649  0.821722  1
  Sc  Sc4  1  0.250000  0.145761  0.932648  1
  Sc  Sc5  1  0.250000  0.645761  0.567352  1
  Sc  Sc6  1  0.750000  0.861419  0.082848  1
  Sc  Sc7  1  0.750000  0.361419  0.417152  1
  Pt  Pt8  1  0.750000  0.743303  0.403138  1
  Pt  Pt9  1  0.750000  0.243303  0.096862  1
  Au  Au10  1  0.250000  0.257594  0.605002  1
  Au  Au11  1  0.250000  0.757594  0.894998  1
