# generated using pymatgen
data_CaYbY2(NiB4)4
_symmetry_space_group_name_H-M   'P 1'
_cell_length_a   6.83240577
_cell_length_b   6.83372484
_cell_length_c   6.83288434
_cell_angle_alpha   112.88303609
_cell_angle_beta   112.88251747
_cell_angle_gamma   102.84581145
_symmetry_Int_Tables_number   1
_chemical_formula_structural   CaYbY2(NiB4)4
_chemical_formula_sum   'Ca1 Yb1 Y2 Ni4 B16'
_cell_volume   243.16347197
_cell_formula_units_Z   1
loop_
 _symmetry_equiv_pos_site_id
 _symmetry_equiv_pos_as_xyz
  1  'x, y, z'
loop_
 _atom_site_type_symbol
 _atom_site_label
 _atom_site_symmetry_multiplicity
 _atom_site_fract_x
 _atom_site_fract_y
 _atom_site_fract_z
 _atom_site_occupancy
  Ca  Ca0  1  0.201830  0.201823  0.999963  1
  Yb  Yb1  1  0.794378  0.794360  0.999965  1
  Y  Y2  1  0.750470  0.250486  0.499907  1
  Y  Y3  1  0.250493  0.750465  0.499976  1
  Ni  Ni4  1  0.274342  0.501275  0.772967  1
  Ni  Ni5  1  0.728453  0.501562  0.226898  1
  Ni  Ni6  1  0.501841  0.728699  0.227248  1
  Ni  Ni7  1  0.501644  0.274564  0.772999  1
  B  B8  1  0.276013  0.111853  0.388579  1
  B  B9  1  0.723243  0.887407  0.611406  1
  B  B10  1  0.276032  0.887398  0.164160  1
  B  B11  1  0.723248  0.111852  0.835838  1
  B  B12  1  0.111817  0.723173  0.835777  1
  B  B13  1  0.887395  0.276159  0.164251  1
  B  B14  1  0.111820  0.276058  0.388663  1
  B  B15  1  0.887434  0.723253  0.611385  1
  B  B16  1  0.112792  0.112799  0.529453  1
  B  B17  1  0.583297  0.583341  0.470560  1
  B  B18  1  0.112770  0.583315  0.999987  1
  B  B19  1  0.583310  0.112778  0.999975  1
  B  B20  1  0.886671  0.886663  0.469631  1
  B  B21  1  0.417030  0.417026  0.530402  1
  B  B22  1  0.886634  0.417045  0.000026  1
  B  B23  1  0.417042  0.886646  0.999986  1
