# generated using pymatgen
data_Tm3Al12(RuRh)2
_symmetry_space_group_name_H-M   'P 1'
_cell_length_a   8.81096251
_cell_length_b   8.81096204
_cell_length_c   9.48487900
_cell_angle_alpha   90.00000000
_cell_angle_beta   90.00000000
_cell_angle_gamma   120.37418529
_symmetry_Int_Tables_number   1
_chemical_formula_structural   Tm3Al12(RuRh)2
_chemical_formula_sum   'Tm6 Al24 Ru4 Rh4'
_cell_volume   635.27125682
_cell_formula_units_Z   2
loop_
 _symmetry_equiv_pos_site_id
 _symmetry_equiv_pos_as_xyz
  1  'x, y, z'
loop_
 _atom_site_type_symbol
 _atom_site_label
 _atom_site_symmetry_multiplicity
 _atom_site_fract_x
 _atom_site_fract_y
 _atom_site_fract_z
 _atom_site_occupancy
  Tm  Tm0  1  0.197159  0.388893  0.250000  1
  Tm  Tm1  1  0.802841  0.611107  0.750000  1
  Tm  Tm2  1  0.611107  0.802841  0.250000  1
  Tm  Tm3  1  0.388893  0.197159  0.750000  1
  Tm  Tm4  1  0.193721  0.806279  0.250000  1
  Tm  Tm5  1  0.806279  0.193721  0.750000  1
  Al  Al6  1  0.334296  0.665704  0.024598  1
  Al  Al7  1  0.665704  0.334296  0.975402  1
  Al  Al8  1  0.665704  0.334296  0.524598  1
  Al  Al9  1  0.334296  0.665704  0.475402  1
  Al  Al10  1  0.163956  0.325808  0.577516  1
  Al  Al11  1  0.836044  0.674192  0.422484  1
  Al  Al12  1  0.674192  0.836044  0.577516  1
  Al  Al13  1  0.836044  0.674192  0.077516  1
  Al  Al14  1  0.325808  0.163956  0.422484  1
  Al  Al15  1  0.163956  0.325808  0.922484  1
  Al  Al16  1  0.161846  0.838154  0.578637  1
  Al  Al17  1  0.325808  0.163956  0.077516  1
  Al  Al18  1  0.838154  0.161846  0.421363  1
  Al  Al19  1  0.674192  0.836044  0.922484  1
  Al  Al20  1  0.838154  0.161846  0.078637  1
  Al  Al21  1  0.161846  0.838154  0.921363  1
  Al  Al22  1  0.562006  0.122467  0.250000  1
  Al  Al23  1  0.437994  0.877533  0.750000  1
  Al  Al24  1  0.877533  0.437994  0.250000  1
  Al  Al25  1  0.122467  0.562006  0.750000  1
  Al  Al26  1  0.561497  0.438503  0.250000  1
  Al  Al27  1  0.438503  0.561497  0.750000  1
  Al  Al28  1  0.001085  0.998915  0.250000  1
  Al  Al29  1  0.998915  0.001085  0.750000  1
  Ru  Ru30  1  0.500000  0.500000  0.000000  1
  Ru  Ru31  1  0.500000  0.500000  0.500000  1
  Ru  Ru32  1  0.000000  0.000000  0.000000  1
  Ru  Ru33  1  0.000000  0.000000  0.500000  1
  Rh  Rh34  1  0.500000  0.000000  0.000000  1
  Rh  Rh35  1  0.000000  0.500000  0.000000  1
  Rh  Rh36  1  0.500000  0.000000  0.500000  1
  Rh  Rh37  1  0.000000  0.500000  0.500000  1
