# generated using pymatgen
data_LaSm4Bi3O14
_symmetry_space_group_name_H-M   'P 1'
_cell_length_a   6.70849490
_cell_length_b   6.77858872
_cell_length_c   7.89976870
_cell_angle_alpha   106.76442230
_cell_angle_beta   89.62811263
_cell_angle_gamma   98.29542357
_symmetry_Int_Tables_number   1
_chemical_formula_structural   LaSm4Bi3O14
_chemical_formula_sum   'La1 Sm4 Bi3 O14'
_cell_volume   340.13438426
_cell_formula_units_Z   1
loop_
 _symmetry_equiv_pos_site_id
 _symmetry_equiv_pos_as_xyz
  1  'x, y, z'
loop_
 _atom_site_type_symbol
 _atom_site_label
 _atom_site_symmetry_multiplicity
 _atom_site_fract_x
 _atom_site_fract_y
 _atom_site_fract_z
 _atom_site_occupancy
  La  La0  1  0.753835  0.487746  0.620211  1
  Sm  Sm1  1  0.458160  0.007188  0.254165  1
  Sm  Sm2  1  0.536733  0.001716  0.750766  1
  Sm  Sm3  1  0.269390  0.532793  0.883919  1
  Sm  Sm4  1  0.740976  0.460495  0.113756  1
  Bi  Bi5  1  0.994215  0.998774  0.499310  1
  Bi  Bi6  1  0.999071  0.996353  0.997993  1
  Bi  Bi7  1  0.287598  0.536491  0.387740  1
  O  O8  1  0.447172  0.649972  0.170277  1
  O  O9  1  0.555369  0.356786  0.840809  1
  O  O10  1  0.297914  0.920292  0.952796  1
  O  O11  1  0.701230  0.073652  0.049115  1
  O  O12  1  0.293065  0.927613  0.513413  1
  O  O13  1  0.700612  0.080799  0.491750  1
  O  O14  1  0.545526  0.362659  0.339370  1
  O  O15  1  0.454252  0.641082  0.654322  1
  O  O16  1  0.927062  0.666538  0.950081  1
  O  O17  1  0.068602  0.319153  0.027701  1
  O  O18  1  0.076707  0.327542  0.627339  1
  O  O19  1  0.903552  0.672526  0.380353  1
  O  O20  1  0.878063  0.909203  0.727699  1
  O  O21  1  0.110895  0.070627  0.267116  1
