# generated using pymatgen
data_Ta4Be10Nb2Si5Ni8
_symmetry_space_group_name_H-M   'P 1'
_cell_length_a   7.66212831
_cell_length_b   7.66212811
_cell_length_c   7.73737700
_cell_angle_alpha   59.67458810
_cell_angle_beta   59.67458899
_cell_angle_gamma   60.65080309
_symmetry_Int_Tables_number   1
_chemical_formula_structural   Ta4Be10Nb2Si5Ni8
_chemical_formula_sum   'Ta4 Be10 Nb2 Si5 Ni8'
_cell_volume   321.13889576
_cell_formula_units_Z   1
loop_
 _symmetry_equiv_pos_site_id
 _symmetry_equiv_pos_as_xyz
  1  'x, y, z'
loop_
 _atom_site_type_symbol
 _atom_site_label
 _atom_site_symmetry_multiplicity
 _atom_site_fract_x
 _atom_site_fract_y
 _atom_site_fract_z
 _atom_site_occupancy
  Ta  Ta0  1  0.701510  0.298490  0.298490  1
  Ta  Ta1  1  0.298490  0.701510  0.701510  1
  Ta  Ta2  1  0.298490  0.701510  0.298490  1
  Ta  Ta3  1  0.701510  0.298490  0.701510  1
  Be  Be4  1  0.332039  0.332039  0.317410  1
  Be  Be5  1  0.667961  0.667961  0.682590  1
  Be  Be6  1  0.332039  0.332039  0.018512  1
  Be  Be7  1  0.317410  0.018512  0.332039  1
  Be  Be8  1  0.667961  0.667961  0.981488  1
  Be  Be9  1  0.682590  0.981488  0.667961  1
  Be  Be10  1  0.018512  0.317410  0.332039  1
  Be  Be11  1  0.981488  0.682590  0.667961  1
  Be  Be12  1  0.000000  0.000000  0.500000  1
  Be  Be13  1  0.500000  0.500000  0.000000  1
  Nb  Nb14  1  0.321046  0.321046  0.678954  1
  Nb  Nb15  1  0.678954  0.678954  0.321046  1
  Si  Si16  1  0.500000  0.000000  0.000000  1
  Si  Si17  1  0.000000  0.500000  0.500000  1
  Si  Si18  1  0.000000  0.500000  0.000000  1
  Si  Si19  1  0.500000  0.000000  0.500000  1
  Si  Si20  1  0.000000  0.000000  0.000000  1
  Ni  Ni21  1  0.123373  0.123373  0.125605  1
  Ni  Ni22  1  0.876627  0.876627  0.874395  1
  Ni  Ni23  1  0.123373  0.123373  0.627648  1
  Ni  Ni24  1  0.125605  0.627648  0.123373  1
  Ni  Ni25  1  0.876627  0.876627  0.372352  1
  Ni  Ni26  1  0.874395  0.372352  0.876627  1
  Ni  Ni27  1  0.627648  0.125605  0.123373  1
  Ni  Ni28  1  0.372352  0.874395  0.876627  1
