# generated using pymatgen
data_CaEr5Ga2(SiRh3)4
_symmetry_space_group_name_H-M   'P 1'
_cell_length_a   5.57193800
_cell_length_b   5.57193676
_cell_length_c   15.22458700
_cell_angle_alpha   90.00000000
_cell_angle_beta   90.00000000
_cell_angle_gamma   119.99999550
_symmetry_Int_Tables_number   1
_chemical_formula_structural   CaEr5Ga2(SiRh3)4
_chemical_formula_sum   'Ca1 Er5 Ga2 Si4 Rh12'
_cell_volume   409.34418517
_cell_formula_units_Z   1
loop_
 _symmetry_equiv_pos_site_id
 _symmetry_equiv_pos_as_xyz
  1  'x, y, z'
loop_
 _atom_site_type_symbol
 _atom_site_label
 _atom_site_symmetry_multiplicity
 _atom_site_fract_x
 _atom_site_fract_y
 _atom_site_fract_z
 _atom_site_occupancy
  Ca  Ca0  1  0.333333  0.666667  0.750000  1
  Er  Er1  1  0.333333  0.666667  0.541629  1
  Er  Er2  1  0.666667  0.333333  0.461158  1
  Er  Er3  1  0.666667  0.333333  0.038842  1
  Er  Er4  1  0.333333  0.666667  0.958371  1
  Er  Er5  1  0.666667  0.333333  0.250000  1
  Ga  Ga6  1  0.000000  0.000000  0.001632  1
  Ga  Ga7  1  0.000000  0.000000  0.498368  1
  Si  Si8  1  0.000000  0.000000  0.250000  1
  Si  Si9  1  0.000000  0.000000  0.750000  1
  Si  Si10  1  0.333333  0.666667  0.250000  1
  Si  Si11  1  0.666667  0.333333  0.750000  1
  Rh  Rh12  1  0.167939  0.335879  0.133389  1
  Rh  Rh13  1  0.832672  0.665344  0.868419  1
  Rh  Rh14  1  0.664121  0.832061  0.133389  1
  Rh  Rh15  1  0.832672  0.665344  0.631581  1
  Rh  Rh16  1  0.334656  0.167328  0.868419  1
  Rh  Rh17  1  0.167939  0.335879  0.366611  1
  Rh  Rh18  1  0.167939  0.832061  0.133389  1
  Rh  Rh19  1  0.334656  0.167328  0.631581  1
  Rh  Rh20  1  0.832672  0.167328  0.868419  1
  Rh  Rh21  1  0.664121  0.832061  0.366611  1
  Rh  Rh22  1  0.832672  0.167328  0.631581  1
  Rh  Rh23  1  0.167939  0.832061  0.366611  1
