# generated using pymatgen
data_Ac3Ho(PPt)4
_symmetry_space_group_name_H-M   'P 1'
_cell_length_a   4.27535900
_cell_length_b   4.27535955
_cell_length_c   16.67756700
_cell_angle_alpha   90.00000000
_cell_angle_beta   90.00000000
_cell_angle_gamma   119.99997257
_symmetry_Int_Tables_number   1
_chemical_formula_structural   Ac3Ho(PPt)4
_chemical_formula_sum   'Ac3 Ho1 P4 Pt4'
_cell_volume   264.00288778
_cell_formula_units_Z   1
loop_
 _symmetry_equiv_pos_site_id
 _symmetry_equiv_pos_as_xyz
  1  'x, y, z'
loop_
 _atom_site_type_symbol
 _atom_site_label
 _atom_site_symmetry_multiplicity
 _atom_site_fract_x
 _atom_site_fract_y
 _atom_site_fract_z
 _atom_site_occupancy
  Ac  Ac0  1  0.000000  0.000000  0.509629  1
  Ac  Ac1  1  0.000000  0.000000  0.990371  1
  Ac  Ac2  1  0.000000  0.000000  0.250000  1
  Ho  Ho3  1  0.000000  0.000000  0.750000  1
  P  P4  1  0.333333  0.666667  0.867860  1
  P  P5  1  0.666667  0.333333  0.122249  1
  P  P6  1  0.666667  0.333333  0.377751  1
  P  P7  1  0.333333  0.666667  0.632140  1
  Pt  Pt8  1  0.333333  0.666667  0.380041  1
  Pt  Pt9  1  0.666667  0.333333  0.647014  1
  Pt  Pt10  1  0.666667  0.333333  0.852986  1
  Pt  Pt11  1  0.333333  0.666667  0.119959  1
