# generated using pymatgen
data_Tb5Y3GePd24
_symmetry_space_group_name_H-M   'P 1'
_cell_length_a   8.37294800
_cell_length_b   8.37294800
_cell_length_c   8.37285500
_cell_angle_alpha   90.00004106
_cell_angle_beta   89.99995894
_cell_angle_gamma   90.00026003
_symmetry_Int_Tables_number   1
_chemical_formula_structural   Tb5Y3GePd24
_chemical_formula_sum   'Tb5 Y3 Ge1 Pd24'
_cell_volume   586.98953459
_cell_formula_units_Z   1
loop_
 _symmetry_equiv_pos_site_id
 _symmetry_equiv_pos_as_xyz
  1  'x, y, z'
loop_
 _atom_site_type_symbol
 _atom_site_label
 _atom_site_symmetry_multiplicity
 _atom_site_fract_x
 _atom_site_fract_y
 _atom_site_fract_z
 _atom_site_occupancy
  Tb  Tb0  1  0.253282  0.253284  0.253279  1
  Tb  Tb1  1  0.746718  0.746722  0.746721  1
  Tb  Tb2  1  0.746716  0.746718  0.253279  1
  Tb  Tb3  1  0.746717  0.253283  0.746714  1
  Tb  Tb4  1  0.253278  0.253282  0.746721  1
  Y  Y5  1  0.253231  0.746769  0.253234  1
  Y  Y6  1  0.253234  0.746766  0.746761  1
  Y  Y7  1  0.746767  0.253233  0.253233  1
  Ge  Ge8  1  0.000020  0.999980  0.000020  1
  Pd  Pd9  1  0.259871  0.499969  0.000008  1
  Pd  Pd10  1  0.740127  0.500031  0.999996  1
  Pd  Pd11  1  0.000018  0.259874  0.500012  1
  Pd  Pd12  1  0.499969  0.259873  0.999996  1
  Pd  Pd13  1  0.999986  0.740131  0.499989  1
  Pd  Pd14  1  0.500031  0.740129  0.000008  1
  Pd  Pd15  1  0.499990  0.999993  0.259870  1
  Pd  Pd16  1  0.259869  0.000014  0.499989  1
  Pd  Pd17  1  0.500013  0.000006  0.740127  1
  Pd  Pd18  1  0.740126  0.999982  0.500012  1
  Pd  Pd19  1  0.000007  0.500010  0.259870  1
  Pd  Pd20  1  0.999994  0.499987  0.740127  1
  Pd  Pd21  1  0.253390  0.499965  0.499993  1
  Pd  Pd22  1  0.746603  0.500025  0.500013  1
  Pd  Pd23  1  0.499975  0.253397  0.500013  1
  Pd  Pd24  1  0.500035  0.746610  0.499993  1
  Pd  Pd25  1  0.499995  0.500005  0.253388  1
  Pd  Pd26  1  0.500014  0.499986  0.746604  1
  Pd  Pd27  1  0.289134  0.999983  0.000009  1
  Pd  Pd28  1  0.710851  0.999996  0.000014  1
  Pd  Pd29  1  0.000004  0.289149  0.000014  1
  Pd  Pd30  1  0.000017  0.710866  0.000009  1
  Pd  Pd31  1  0.000008  0.999992  0.289135  1
  Pd  Pd32  1  0.000012  0.999988  0.710852  1
