# generated using pymatgen
data_Er3Tm(LuPt)4
_symmetry_space_group_name_H-M   'P 1'
_cell_length_a   4.72374900
_cell_length_b   7.06342314
_cell_length_c   8.57305846
_cell_angle_alpha   90.08083857
_cell_angle_beta   90.00000000
_cell_angle_gamma   90.00000000
_symmetry_Int_Tables_number   1
_chemical_formula_structural   Er3Tm(LuPt)4
_chemical_formula_sum   'Er3 Tm1 Lu4 Pt4'
_cell_volume   286.04699493
_cell_formula_units_Z   1
loop_
 _symmetry_equiv_pos_site_id
 _symmetry_equiv_pos_as_xyz
  1  'x, y, z'
loop_
 _atom_site_type_symbol
 _atom_site_label
 _atom_site_symmetry_multiplicity
 _atom_site_fract_x
 _atom_site_fract_y
 _atom_site_fract_z
 _atom_site_occupancy
  Er  Er0  1  0.250000  0.985622  0.328594  1
  Er  Er1  1  0.250000  0.485840  0.170873  1
  Er  Er2  1  0.750000  0.014116  0.670389  1
  Tm  Tm3  1  0.750000  0.513568  0.829051  1
  Lu  Lu4  1  0.250000  0.355472  0.575639  1
  Lu  Lu5  1  0.250000  0.854994  0.924076  1
  Lu  Lu6  1  0.750000  0.644888  0.424013  1
  Lu  Lu7  1  0.750000  0.144520  0.076319  1
  Pt  Pt8  1  0.250000  0.252744  0.904349  1
  Pt  Pt9  1  0.250000  0.754326  0.595522  1
  Pt  Pt10  1  0.750000  0.746994  0.097247  1
  Pt  Pt11  1  0.750000  0.246915  0.403929  1
