# generated using pymatgen
data_Pr3Dy17Sn16
_symmetry_space_group_name_H-M   'P 1'
_cell_length_a   8.10548966
_cell_length_b   8.24902105
_cell_length_c   15.63664800
_cell_angle_alpha   90.00575110
_cell_angle_beta   90.02319968
_cell_angle_gamma   89.99796256
_symmetry_Int_Tables_number   1
_chemical_formula_structural   Pr3Dy17Sn16
_chemical_formula_sum   'Pr3 Dy17 Sn16'
_cell_volume   1045.50301540
_cell_formula_units_Z   1
loop_
 _symmetry_equiv_pos_site_id
 _symmetry_equiv_pos_as_xyz
  1  'x, y, z'
loop_
 _atom_site_type_symbol
 _atom_site_label
 _atom_site_symmetry_multiplicity
 _atom_site_fract_x
 _atom_site_fract_y
 _atom_site_fract_z
 _atom_site_occupancy
  Pr  Pr0  1  0.983240  0.819804  0.402388  1
  Pr  Pr1  1  0.516666  0.320345  0.596318  1
  Pr  Pr2  1  0.016713  0.179663  0.904229  1
  Dy  Dy3  1  0.366318  0.836143  0.878180  1
  Dy  Dy4  1  0.864909  0.664005  0.622194  1
  Dy  Dy5  1  0.634617  0.163181  0.376700  1
  Dy  Dy6  1  0.134224  0.336286  0.121825  1
  Dy  Dy7  1  0.633640  0.164180  0.122373  1
  Dy  Dy8  1  0.134456  0.336537  0.376926  1
  Dy  Dy9  1  0.365718  0.836289  0.622551  1
  Dy  Dy10  1  0.867115  0.663392  0.878290  1
  Dy  Dy11  1  0.521102  0.321398  0.901086  1
  Dy  Dy12  1  0.020148  0.179371  0.599313  1
  Dy  Dy13  1  0.480560  0.679649  0.401128  1
  Dy  Dy14  1  0.979974  0.819108  0.098922  1
  Dy  Dy15  1  0.480417  0.679831  0.097544  1
  Dy  Dy16  1  0.697646  0.997275  0.750242  1
  Dy  Dy17  1  0.802380  0.497674  0.249168  1
  Dy  Dy18  1  0.302746  0.002463  0.249470  1
  Dy  Dy19  1  0.197695  0.502987  0.750389  1
  Sn  Sn20  1  0.296965  0.031846  0.043736  1
  Sn  Sn21  1  0.795878  0.463991  0.456910  1
  Sn  Sn22  1  0.704351  0.964669  0.542527  1
  Sn  Sn23  1  0.209013  0.537388  0.959166  1
  Sn  Sn24  1  0.701132  0.959599  0.960556  1
  Sn  Sn25  1  0.201222  0.538896  0.540283  1
  Sn  Sn26  1  0.298366  0.039122  0.459476  1
  Sn  Sn27  1  0.792839  0.465660  0.041756  1
  Sn  Sn28  1  0.563469  0.622101  0.750694  1
  Sn  Sn29  1  0.063042  0.878150  0.749998  1
  Sn  Sn30  1  0.437081  0.379696  0.249645  1
  Sn  Sn31  1  0.936943  0.121500  0.249056  1
  Sn  Sn32  1  0.327384  0.144606  0.751337  1
  Sn  Sn33  1  0.827533  0.355722  0.749209  1
  Sn  Sn34  1  0.669599  0.853020  0.248761  1
  Sn  Sn35  1  0.174899  0.644449  0.247657  1
