# generated using pymatgen
data_Pr4SmErTa2O14
_symmetry_space_group_name_H-M   'P 1'
_cell_length_a   6.64823656
_cell_length_b   6.65779967
_cell_length_c   7.70444600
_cell_angle_alpha   90.00000000
_cell_angle_beta   90.00000000
_cell_angle_gamma   108.77057274
_symmetry_Int_Tables_number   1
_chemical_formula_structural   Pr4SmErTa2O14
_chemical_formula_sum   'Pr4 Sm1 Er1 Ta2 O14'
_cell_volume   322.88180542
_cell_formula_units_Z   1
loop_
 _symmetry_equiv_pos_site_id
 _symmetry_equiv_pos_as_xyz
  1  'x, y, z'
loop_
 _atom_site_type_symbol
 _atom_site_label
 _atom_site_symmetry_multiplicity
 _atom_site_fract_x
 _atom_site_fract_y
 _atom_site_fract_z
 _atom_site_occupancy
  Pr  Pr0  1  0.471546  0.469493  0.498655  1
  Pr  Pr1  1  0.471546  0.469493  0.001345  1
  Pr  Pr2  1  0.535694  0.993699  0.750000  1
  Pr  Pr3  1  0.995157  0.538935  0.250000  1
  Sm  Sm4  1  0.996309  0.466293  0.750000  1
  Er  Er5  1  0.471961  0.996637  0.250000  1
  Ta  Ta6  1  0.998690  0.999076  0.498381  1
  Ta  Ta7  1  0.998690  0.999076  0.001619  1
  O  O8  1  0.696581  0.952362  0.457060  1
  O  O9  1  0.941897  0.694934  0.536354  1
  O  O10  1  0.696581  0.952362  0.042940  1
  O  O11  1  0.941897  0.694934  0.963646  1
  O  O12  1  0.321440  0.072132  0.519209  1
  O  O13  1  0.077180  0.320842  0.475420  1
  O  O14  1  0.321440  0.072132  0.980791  1
  O  O15  1  0.077180  0.320842  0.024580  1
  O  O16  1  0.942209  0.057964  0.750000  1
  O  O17  1  0.059740  0.942031  0.250000  1
  O  O18  1  0.361825  0.625154  0.750000  1
  O  O19  1  0.621739  0.351917  0.250000  1
  O  O20  1  0.635908  0.361390  0.750000  1
  O  O21  1  0.364787  0.648301  0.250000  1
