# generated using pymatgen
data_La13Pr3Cd4Ir3Pd
_symmetry_space_group_name_H-M   'P 1'
_cell_length_a   10.11644325
_cell_length_b   10.11860180
_cell_length_c   10.11219610
_cell_angle_alpha   60.23538122
_cell_angle_beta   60.21347586
_cell_angle_gamma   60.27459420
_symmetry_Int_Tables_number   1
_chemical_formula_structural   La13Pr3Cd4Ir3Pd
_chemical_formula_sum   'La13 Pr3 Cd4 Ir3 Pd1'
_cell_volume   735.94100452
_cell_formula_units_Z   1
loop_
 _symmetry_equiv_pos_site_id
 _symmetry_equiv_pos_as_xyz
  1  'x, y, z'
loop_
 _atom_site_type_symbol
 _atom_site_label
 _atom_site_symmetry_multiplicity
 _atom_site_fract_x
 _atom_site_fract_y
 _atom_site_fract_z
 _atom_site_occupancy
  La  La0  1  0.346590  0.346643  0.346233  1
  La  La1  1  0.351468  0.352058  0.952229  1
  La  La2  1  0.351573  0.952098  0.351857  1
  La  La3  1  0.952122  0.351814  0.351476  1
  La  La4  1  0.803504  0.191545  0.190879  1
  La  La5  1  0.189271  0.809178  0.809550  1
  La  La6  1  0.191135  0.803394  0.191108  1
  La  La7  1  0.809497  0.189558  0.809424  1
  La  La8  1  0.190634  0.191299  0.803792  1
  La  La9  1  0.809782  0.809423  0.188920  1
  La  La10  1  0.939900  0.562069  0.562786  1
  La  La11  1  0.563715  0.937760  0.938021  1
  La  La12  1  0.562031  0.940126  0.562292  1
  Pr  Pr13  1  0.937902  0.563252  0.937871  1
  Pr  Pr14  1  0.562518  0.561942  0.940038  1
  Pr  Pr15  1  0.938312  0.938019  0.563415  1
  Cd  Cd16  1  0.579789  0.579803  0.580245  1
  Cd  Cd17  1  0.579990  0.579569  0.260219  1
  Cd  Cd18  1  0.580178  0.260464  0.579608  1
  Cd  Cd19  1  0.260243  0.580101  0.579995  1
  Ir  Ir20  1  0.141454  0.141459  0.574749  1
  Ir  Ir21  1  0.141481  0.574569  0.141542  1
  Ir  Ir22  1  0.574730  0.141326  0.141408  1
  Pd  Pd23  1  0.142179  0.142528  0.142339  1
