# generated using pymatgen
data_Tb3DyY6(In2Pt)4
_symmetry_space_group_name_H-M   'P 1'
_cell_length_a   3.63896700
_cell_length_b   8.18662427
_cell_length_c   18.31043760
_cell_angle_alpha   90.02931989
_cell_angle_beta   90.00000000
_cell_angle_gamma   90.00000000
_symmetry_Int_Tables_number   1
_chemical_formula_structural   Tb3DyY6(In2Pt)4
_chemical_formula_sum   'Tb3 Dy1 Y6 In8 Pt4'
_cell_volume   545.48353020
_cell_formula_units_Z   1
loop_
 _symmetry_equiv_pos_site_id
 _symmetry_equiv_pos_as_xyz
  1  'x, y, z'
loop_
 _atom_site_type_symbol
 _atom_site_label
 _atom_site_symmetry_multiplicity
 _atom_site_fract_x
 _atom_site_fract_y
 _atom_site_fract_z
 _atom_site_occupancy
  Tb  Tb0  1  0.000000  0.243362  0.220623  1
  Tb  Tb1  1  0.000000  0.756640  0.779373  1
  Tb  Tb2  1  0.000000  0.256654  0.720624  1
  Dy  Dy3  1  0.000000  0.743447  0.279296  1
  Y  Y4  1  0.000000  0.117112  0.415254  1
  Y  Y5  1  0.000000  0.882823  0.584697  1
  Y  Y6  1  0.000000  0.382811  0.915304  1
  Y  Y7  1  0.000000  0.617202  0.084759  1
  Y  Y8  1  0.000000  0.999997  0.000010  1
  Y  Y9  1  0.000000  0.499986  0.499996  1
  In  In10  1  0.500000  0.424581  0.351368  1
  In  In11  1  0.500000  0.575568  0.648604  1
  In  In12  1  0.500000  0.075559  0.851393  1
  In  In13  1  0.500000  0.924300  0.148685  1
  In  In14  1  0.500000  0.292347  0.067209  1
  In  In15  1  0.500000  0.707700  0.932797  1
  In  In16  1  0.500000  0.207728  0.567192  1
  In  In17  1  0.500000  0.792251  0.432709  1
  Pt  Pt18  1  0.500000  0.023831  0.302821  1
  Pt  Pt19  1  0.500000  0.975660  0.697135  1
  Pt  Pt20  1  0.500000  0.475672  0.802867  1
  Pt  Pt21  1  0.500000  0.524770  0.197283  1
