# generated using pymatgen
data_La8Hg3Ir
_symmetry_space_group_name_H-M   'P 1'
_cell_length_a   10.77075000
_cell_length_b   10.77074953
_cell_length_c   7.54763200
_cell_angle_alpha   90.00000000
_cell_angle_beta   90.00000000
_cell_angle_gamma   120.00000758
_symmetry_Int_Tables_number   1
_chemical_formula_structural   La8Hg3Ir
_chemical_formula_sum   'La16 Hg6 Ir2'
_cell_volume   758.28626213
_cell_formula_units_Z   2
loop_
 _symmetry_equiv_pos_site_id
 _symmetry_equiv_pos_as_xyz
  1  'x, y, z'
loop_
 _atom_site_type_symbol
 _atom_site_label
 _atom_site_symmetry_multiplicity
 _atom_site_fract_x
 _atom_site_fract_y
 _atom_site_fract_z
 _atom_site_occupancy
  La  La0  1  0.459402  0.540598  0.477094  1
  La  La1  1  0.081195  0.540598  0.477094  1
  La  La2  1  0.459402  0.918805  0.477094  1
  La  La3  1  0.540598  0.459402  0.977094  1
  La  La4  1  0.918805  0.459402  0.977094  1
  La  La5  1  0.540598  0.081195  0.977094  1
  La  La6  1  0.830202  0.169798  0.291081  1
  La  La7  1  0.339595  0.169798  0.291081  1
  La  La8  1  0.830202  0.660405  0.291081  1
  La  La9  1  0.169798  0.830202  0.791081  1
  La  La10  1  0.660405  0.830202  0.791081  1
  La  La11  1  0.169798  0.339595  0.791081  1
  La  La12  1  0.333333  0.666667  0.090445  1
  La  La13  1  0.666667  0.333333  0.590445  1
  La  La14  1  0.000000  0.000000  0.483576  1
  La  La15  1  0.000000  0.000000  0.983576  1
  Hg  Hg16  1  0.166916  0.833084  0.226109  1
  Hg  Hg17  1  0.666169  0.833084  0.226109  1
  Hg  Hg18  1  0.166916  0.333831  0.226109  1
  Hg  Hg19  1  0.833084  0.166916  0.726109  1
  Hg  Hg20  1  0.333831  0.166916  0.726109  1
  Hg  Hg21  1  0.833084  0.666169  0.726109  1
  Ir  Ir22  1  0.333333  0.666667  0.715408  1
  Ir  Ir23  1  0.666667  0.333333  0.215408  1
