# generated using pymatgen
data_Tb3TmAl12(GaIr)6
_symmetry_space_group_name_H-M   'P 1'
_cell_length_a   7.52754810
_cell_length_b   7.53027092
_cell_length_c   9.57953800
_cell_angle_alpha   90.00000000
_cell_angle_beta   90.00000000
_cell_angle_gamma   119.62702977
_symmetry_Int_Tables_number   1
_chemical_formula_structural   Tb3TmAl12(GaIr)6
_chemical_formula_sum   'Tb3 Tm1 Al12 Ga6 Ir6'
_cell_volume   472.01880982
_cell_formula_units_Z   1
loop_
 _symmetry_equiv_pos_site_id
 _symmetry_equiv_pos_as_xyz
  1  'x, y, z'
loop_
 _atom_site_type_symbol
 _atom_site_label
 _atom_site_symmetry_multiplicity
 _atom_site_fract_x
 _atom_site_fract_y
 _atom_site_fract_z
 _atom_site_occupancy
  Tb  Tb0  1  0.996449  0.669995  0.250000  1
  Tb  Tb1  1  0.003668  0.329949  0.750000  1
  Tb  Tb2  1  0.669978  0.996413  0.250000  1
  Tm  Tm3  1  0.329905  0.003572  0.750000  1
  Al  Al4  1  0.002061  0.334682  0.072672  1
  Al  Al5  1  0.998659  0.666088  0.926836  1
  Al  Al6  1  0.998659  0.666088  0.573164  1
  Al  Al7  1  0.334666  0.002027  0.428004  1
  Al  Al8  1  0.002061  0.334682  0.427328  1
  Al  Al9  1  0.664538  0.997923  0.573202  1
  Al  Al10  1  0.664538  0.997923  0.926798  1
  Al  Al11  1  0.334666  0.002027  0.071996  1
  Al  Al12  1  0.334270  0.333552  0.555534  1
  Al  Al13  1  0.665773  0.665768  0.445080  1
  Al  Al14  1  0.665773  0.665768  0.054920  1
  Al  Al15  1  0.334270  0.333552  0.944466  1
  Ga  Ga16  1  0.128828  0.128765  0.250000  1
  Ga  Ga17  1  0.872030  0.871666  0.750000  1
  Ga  Ga18  1  0.338739  0.547125  0.250000  1
  Ga  Ga19  1  0.660699  0.452061  0.750000  1
  Ga  Ga20  1  0.546983  0.338605  0.250000  1
  Ga  Ga21  1  0.452670  0.661677  0.750000  1
  Ir  Ir22  1  0.671453  0.328058  0.999725  1
  Ir  Ir23  1  0.328228  0.671877  0.999721  1
  Ir  Ir24  1  0.328228  0.671877  0.500279  1
  Ir  Ir25  1  0.671453  0.328058  0.500275  1
  Ir  Ir26  1  0.000376  0.000110  0.999689  1
  Ir  Ir27  1  0.000376  0.000110  0.500311  1
