# generated using pymatgen
data_La7Pr6DyPt6
_symmetry_space_group_name_H-M   'P 1'
_cell_length_a   6.56320800
_cell_length_b   10.30038117
_cell_length_c   10.30038094
_cell_angle_alpha   120.00264793
_cell_angle_beta   89.99860360
_cell_angle_gamma   90.00139876
_symmetry_Int_Tables_number   1
_chemical_formula_structural   La7Pr6DyPt6
_chemical_formula_sum   'La7 Pr6 Dy1 Pt6'
_cell_volume   603.03399264
_cell_formula_units_Z   1
loop_
 _symmetry_equiv_pos_site_id
 _symmetry_equiv_pos_as_xyz
  1  'x, y, z'
loop_
 _atom_site_type_symbol
 _atom_site_label
 _atom_site_symmetry_multiplicity
 _atom_site_fract_x
 _atom_site_fract_y
 _atom_site_fract_z
 _atom_site_occupancy
  La  La0  1  0.960385  0.666614  0.333386  1
  La  La1  1  0.248046  0.130204  0.869796  1
  La  La2  1  0.248015  0.739792  0.869886  1
  La  La3  1  0.248015  0.130114  0.260208  1
  La  La4  1  0.744378  0.871514  0.128486  1
  La  La5  1  0.744363  0.256808  0.128410  1
  La  La6  1  0.744363  0.871590  0.743192  1
  Pr  Pr7  1  0.441019  0.536911  0.463089  1
  Pr  Pr8  1  0.440876  0.926130  0.463103  1
  Pr  Pr9  1  0.440876  0.536897  0.073870  1
  Pr  Pr10  1  0.943548  0.460659  0.539341  1
  Pr  Pr11  1  0.943431  0.078750  0.539336  1
  Pr  Pr12  1  0.943431  0.460664  0.921250  1
  Dy  Dy13  1  0.469452  0.333371  0.666629  1
  Pt  Pt14  1  0.189564  0.812112  0.187888  1
  Pt  Pt15  1  0.189492  0.375723  0.187951  1
  Pt  Pt16  1  0.189492  0.812049  0.624277  1
  Pt  Pt17  1  0.685782  0.190227  0.809773  1
  Pt  Pt18  1  0.685734  0.619636  0.809767  1
  Pt  Pt19  1  0.685734  0.190233  0.380364  1
