# generated using pymatgen
data_Y9Zr(In2Rh)4
_symmetry_space_group_name_H-M   'P 1'
_cell_length_a   3.62988300
_cell_length_b   8.02131584
_cell_length_c   18.25442998
_cell_angle_alpha   89.94712566
_cell_angle_beta   90.00000000
_cell_angle_gamma   90.00000000
_symmetry_Int_Tables_number   1
_chemical_formula_structural   Y9Zr(In2Rh)4
_chemical_formula_sum   'Y9 Zr1 In8 Rh4'
_cell_volume   531.50375238
_cell_formula_units_Z   1
loop_
 _symmetry_equiv_pos_site_id
 _symmetry_equiv_pos_as_xyz
  1  'x, y, z'
loop_
 _atom_site_type_symbol
 _atom_site_label
 _atom_site_symmetry_multiplicity
 _atom_site_fract_x
 _atom_site_fract_y
 _atom_site_fract_z
 _atom_site_occupancy
  Y  Y0  1  0.000000  0.123279  0.913392  1
  Y  Y1  1  0.000000  0.753983  0.781671  1
  Y  Y2  1  0.000000  0.622612  0.588819  1
  Y  Y3  1  0.000000  0.254920  0.723019  1
  Y  Y4  1  0.000000  0.378173  0.411138  1
  Y  Y5  1  0.000000  0.249043  0.217422  1
  Y  Y6  1  0.000000  0.000898  0.499209  1
  Y  Y7  1  0.000000  0.743608  0.277840  1
  Y  Y8  1  0.000000  0.500058  0.002209  1
  Zr  Zr9  1  0.000000  0.878311  0.089706  1
  In  In10  1  0.500000  0.802167  0.938097  1
  In  In11  1  0.500000  0.573713  0.148726  1
  In  In12  1  0.500000  0.439624  0.852194  1
  In  In13  1  0.500000  0.062691  0.346277  1
  In  In14  1  0.500000  0.296608  0.568853  1
  In  In15  1  0.500000  0.937905  0.650755  1
  In  In16  1  0.500000  0.703869  0.431132  1
  In  In17  1  0.500000  0.193134  0.065647  1
  Rh  Rh18  1  0.500000  0.529209  0.696665  1
  Rh  Rh19  1  0.500000  0.468704  0.302944  1
  Rh  Rh20  1  0.500000  0.027576  0.806082  1
  Rh  Rh21  1  0.500000  0.959914  0.188204  1
