# generated using pymatgen
data_LaHo3Ta4(Bi2O11)2
_symmetry_space_group_name_H-M   'P 1'
_cell_length_a   6.60796462
_cell_length_b   7.70184523
_cell_length_c   9.76606719
_cell_angle_alpha   101.38871150
_cell_angle_beta   90.18175513
_cell_angle_gamma   90.14904141
_symmetry_Int_Tables_number   1
_chemical_formula_structural   LaHo3Ta4(Bi2O11)2
_chemical_formula_sum   'La1 Ho3 Ta4 Bi4 O22'
_cell_volume   487.23798826
_cell_formula_units_Z   1
loop_
 _symmetry_equiv_pos_site_id
 _symmetry_equiv_pos_as_xyz
  1  'x, y, z'
loop_
 _atom_site_type_symbol
 _atom_site_label
 _atom_site_symmetry_multiplicity
 _atom_site_fract_x
 _atom_site_fract_y
 _atom_site_fract_z
 _atom_site_occupancy
  La  La0  1  0.746553  0.373391  0.495172  1
  Ho  Ho1  1  0.249628  0.636204  0.522301  1
  Ho  Ho2  1  0.756628  0.871104  0.486776  1
  Ho  Ho3  1  0.239060  0.125991  0.510378  1
  Ta  Ta4  1  0.914556  0.704229  0.807656  1
  Ta  Ta5  1  0.088912  0.299872  0.197109  1
  Ta  Ta6  1  0.917504  0.197761  0.806726  1
  Ta  Ta7  1  0.087916  0.800002  0.196673  1
  Bi  Bi8  1  0.438172  0.957113  0.815346  1
  Bi  Bi9  1  0.566891  0.043124  0.185784  1
  Bi  Bi10  1  0.384229  0.455689  0.828710  1
  Bi  Bi11  1  0.608583  0.544569  0.174935  1
  O  O12  1  0.218443  0.725782  0.760308  1
  O  O13  1  0.785708  0.272858  0.240935  1
  O  O14  1  0.631230  0.658994  0.836601  1
  O  O15  1  0.371017  0.333370  0.152562  1
  O  O16  1  0.631645  0.254641  0.833555  1
  O  O17  1  0.370397  0.746151  0.153003  1
  O  O18  1  0.899561  0.136768  0.585809  1
  O  O19  1  0.113767  0.843090  0.409900  1
  O  O20  1  0.217775  0.149766  0.751292  1
  O  O21  1  0.786041  0.850011  0.249326  1
  O  O22  1  0.902733  0.657438  0.590990  1
  O  O23  1  0.115583  0.363357  0.407637  1
  O  O24  1  0.026508  0.549955  0.197245  1
  O  O25  1  0.970421  0.446603  0.789459  1
  O  O26  1  0.995687  0.781608  0.002046  1
  O  O27  1  0.004980  0.219527  0.997558  1
  O  O28  1  0.562405  0.604979  0.394530  1
  O  O29  1  0.407994  0.403022  0.608061  1
  O  O30  1  0.164308  0.056254  0.222567  1
  O  O31  1  0.829666  0.946530  0.787752  1
  O  O32  1  0.537710  0.096107  0.403834  1
  O  O33  1  0.457787  0.894140  0.597463  1
