# generated using pymatgen
data_RbMn6Se7
_symmetry_space_group_name_H-M   'P 1'
_cell_length_a   9.29844925
_cell_length_b   9.29845085
_cell_length_c   9.29844964
_cell_angle_alpha   61.83790277
_cell_angle_beta   61.83790170
_cell_angle_gamma   61.83790485
_symmetry_Int_Tables_number   1
_chemical_formula_structural   RbMn6Se7
_chemical_formula_sum   'Rb2 Mn12 Se14'
_cell_volume   591.87923309
_cell_formula_units_Z   2
loop_
 _symmetry_equiv_pos_site_id
 _symmetry_equiv_pos_as_xyz
  1  'x, y, z'
loop_
 _atom_site_type_symbol
 _atom_site_label
 _atom_site_symmetry_multiplicity
 _atom_site_fract_x
 _atom_site_fract_y
 _atom_site_fract_z
 _atom_site_occupancy
  Rb  Rb0  1  0.384259  0.384259  0.384259  1
  Rb  Rb1  1  0.615741  0.615741  0.615741  1
  Mn  Mn2  1  0.296365  0.124624  0.001664  1
  Mn  Mn3  1  0.188126  0.893389  0.058888  1
  Mn  Mn4  1  0.893389  0.058888  0.188126  1
  Mn  Mn5  1  0.941112  0.811874  0.106611  1
  Mn  Mn6  1  0.811874  0.106611  0.941112  1
  Mn  Mn7  1  0.106611  0.941112  0.811874  1
  Mn  Mn8  1  0.001664  0.296365  0.124624  1
  Mn  Mn9  1  0.875376  0.998336  0.703635  1
  Mn  Mn10  1  0.124624  0.001664  0.296365  1
  Mn  Mn11  1  0.998336  0.703635  0.875376  1
  Mn  Mn12  1  0.703635  0.875376  0.998336  1
  Mn  Mn13  1  0.058888  0.188126  0.893389  1
  Se  Se14  1  0.981766  0.232569  0.655182  1
  Se  Se15  1  0.232569  0.655182  0.981766  1
  Se  Se16  1  0.655182  0.981766  0.232569  1
  Se  Se17  1  0.018234  0.767431  0.344818  1
  Se  Se18  1  0.767431  0.344818  0.018234  1
  Se  Se19  1  0.344818  0.018234  0.767431  1
  Se  Se20  1  0.168178  0.411157  0.822003  1
  Se  Se21  1  0.411157  0.822003  0.168178  1
  Se  Se22  1  0.822003  0.168178  0.411157  1
  Se  Se23  1  0.831822  0.588843  0.177997  1
  Se  Se24  1  0.588843  0.177997  0.831822  1
  Se  Se25  1  0.177997  0.831822  0.588843  1
  Se  Se26  1  0.775521  0.775521  0.775521  1
  Se  Se27  1  0.224479  0.224479  0.224479  1
