# generated using pymatgen
data_DyScZn4Ru
_symmetry_space_group_name_H-M   'P 1'
_cell_length_a   6.90555400
_cell_length_b   6.90555400
_cell_length_c   5.03425500
_cell_angle_alpha   90.00000000
_cell_angle_beta   90.00000000
_cell_angle_gamma   90.00000000
_symmetry_Int_Tables_number   1
_chemical_formula_structural   DyScZn4Ru
_chemical_formula_sum   'Dy2 Sc2 Zn8 Ru2'
_cell_volume   240.06688732
_cell_formula_units_Z   2
loop_
 _symmetry_equiv_pos_site_id
 _symmetry_equiv_pos_as_xyz
  1  'x, y, z'
loop_
 _atom_site_type_symbol
 _atom_site_label
 _atom_site_symmetry_multiplicity
 _atom_site_fract_x
 _atom_site_fract_y
 _atom_site_fract_z
 _atom_site_occupancy
  Dy  Dy0  1  0.000000  0.500000  0.756641  1
  Dy  Dy1  1  0.500000  0.000000  0.243359  1
  Sc  Sc2  1  0.000000  0.000000  0.000000  1
  Sc  Sc3  1  0.500000  0.500000  0.000000  1
  Zn  Zn4  1  0.191112  0.691112  0.270110  1
  Zn  Zn5  1  0.808888  0.691112  0.270110  1
  Zn  Zn6  1  0.808888  0.308888  0.270110  1
  Zn  Zn7  1  0.308888  0.191112  0.729890  1
  Zn  Zn8  1  0.191112  0.308888  0.270110  1
  Zn  Zn9  1  0.691112  0.191112  0.729890  1
  Zn  Zn10  1  0.691112  0.808888  0.729890  1
  Zn  Zn11  1  0.308888  0.808888  0.729890  1
  Ru  Ru12  1  0.500000  0.500000  0.500000  1
  Ru  Ru13  1  0.000000  0.000000  0.500000  1
