# generated using pymatgen
data_TbY3Ti4(SiO9)2
_symmetry_space_group_name_H-M   'P 1'
_cell_length_a   11.27384000
_cell_length_b   4.91559580
_cell_length_c   12.41797830
_cell_angle_alpha   84.30929011
_cell_angle_beta   90.00000000
_cell_angle_gamma   90.00000000
_symmetry_Int_Tables_number   1
_chemical_formula_structural   TbY3Ti4(SiO9)2
_chemical_formula_sum   'Tb2 Y6 Ti8 Si4 O36'
_cell_volume   684.78349784
_cell_formula_units_Z   2
loop_
 _symmetry_equiv_pos_site_id
 _symmetry_equiv_pos_as_xyz
  1  'x, y, z'
loop_
 _atom_site_type_symbol
 _atom_site_label
 _atom_site_symmetry_multiplicity
 _atom_site_fract_x
 _atom_site_fract_y
 _atom_site_fract_z
 _atom_site_occupancy
  Tb  Tb0  1  0.641123  0.803122  0.068947  1
  Tb  Tb1  1  0.141123  0.196878  0.931053  1
  Y  Y2  1  0.359072  0.695632  0.930771  1
  Y  Y3  1  0.859072  0.304368  0.069229  1
  Y  Y4  1  0.637842  0.735279  0.422266  1
  Y  Y5  1  0.137842  0.264721  0.577734  1
  Y  Y6  1  0.362135  0.764671  0.577835  1
  Y  Y7  1  0.862135  0.235329  0.422165  1
  Ti  Ti8  1  0.836734  0.949977  0.849769  1
  Ti  Ti9  1  0.336734  0.050023  0.150231  1
  Ti  Ti10  1  0.163269  0.550164  0.150347  1
  Ti  Ti11  1  0.663269  0.449836  0.849653  1
  Ti  Ti12  1  0.835971  0.583335  0.639407  1
  Ti  Ti13  1  0.335971  0.416665  0.360593  1
  Ti  Ti14  1  0.163994  0.916600  0.360576  1
  Ti  Ti15  1  0.663994  0.083400  0.639424  1
  Si  Si16  1  0.594429  0.320284  0.247816  1
  Si  Si17  1  0.094429  0.679716  0.752184  1
  Si  Si18  1  0.405725  0.179653  0.752227  1
  Si  Si19  1  0.905725  0.820347  0.247773  1
  O  O20  1  0.841587  0.752916  0.134463  1
  O  O21  1  0.341587  0.247084  0.865537  1
  O  O22  1  0.158750  0.746086  0.865672  1
  O  O23  1  0.658750  0.253914  0.134328  1
  O  O24  1  0.788189  0.915395  0.553276  1
  O  O25  1  0.288189  0.084605  0.446724  1
  O  O26  1  0.211782  0.584585  0.446786  1
  O  O27  1  0.711782  0.415415  0.553214  1
  O  O28  1  0.948038  0.079528  0.933315  1
  O  O29  1  0.448038  0.920472  0.066685  1
  O  O30  1  0.051548  0.420827  0.067104  1
  O  O31  1  0.551548  0.579173  0.932896  1
  O  O32  1  0.599489  0.654810  0.246986  1
  O  O33  1  0.099489  0.345190  0.753014  1
  O  O34  1  0.400397  0.844972  0.753393  1
  O  O35  1  0.900397  0.155028  0.246607  1
  O  O36  1  0.950028  0.770236  0.746120  1
  O  O37  1  0.450028  0.229764  0.253880  1
  O  O38  1  0.050129  0.730072  0.254079  1
  O  O39  1  0.550129  0.269928  0.745921  1
  O  O40  1  0.787937  0.619399  0.935205  1
  O  O41  1  0.287937  0.380601  0.064795  1
  O  O42  1  0.211823  0.880434  0.065044  1
  O  O43  1  0.711823  0.119566  0.934956  1
  O  O44  1  0.951784  0.444670  0.562946  1
  O  O45  1  0.451784  0.555330  0.437054  1
  O  O46  1  0.048107  0.055320  0.436998  1
  O  O47  1  0.548107  0.944680  0.563002  1
  O  O48  1  0.836485  0.684440  0.356419  1
  O  O49  1  0.336485  0.315560  0.643581  1
  O  O50  1  0.163652  0.816038  0.643617  1
  O  O51  1  0.663652  0.183962  0.356383  1
  O  O52  1  0.707986  0.767758  0.744431  1
  O  O53  1  0.207986  0.232242  0.255569  1
  O  O54  1  0.291993  0.732362  0.255667  1
  O  O55  1  0.791993  0.267638  0.744333  1
