# generated using pymatgen
data_Nd4NpTaO12
_symmetry_space_group_name_H-M   'P 1'
_cell_length_a   5.52626700
_cell_length_b   9.49522327
_cell_length_c   10.48396086
_cell_angle_alpha   89.27284776
_cell_angle_beta   90.00000000
_cell_angle_gamma   90.00000000
_symmetry_Int_Tables_number   1
_chemical_formula_structural   Nd4NpTaO12
_chemical_formula_sum   'Nd8 Np2 Ta2 O24'
_cell_volume   550.08203300
_cell_formula_units_Z   2
loop_
 _symmetry_equiv_pos_site_id
 _symmetry_equiv_pos_as_xyz
  1  'x, y, z'
loop_
 _atom_site_type_symbol
 _atom_site_label
 _atom_site_symmetry_multiplicity
 _atom_site_fract_x
 _atom_site_fract_y
 _atom_site_fract_z
 _atom_site_occupancy
  Nd  Nd0  1  0.477279  0.604349  0.525974  1
  Nd  Nd1  1  0.977279  0.895651  0.474026  1
  Nd  Nd2  1  0.519897  0.100254  0.950042  1
  Nd  Nd3  1  0.019897  0.399746  0.049958  1
  Nd  Nd4  1  0.966338  0.791760  0.856253  1
  Nd  Nd5  1  0.466338  0.708240  0.143747  1
  Nd  Nd6  1  0.044442  0.273558  0.623020  1
  Nd  Nd7  1  0.544442  0.226442  0.376980  1
  Np  Np8  1  0.536550  0.495289  0.851609  1
  Np  Np9  1  0.036550  0.004711  0.148391  1
  Ta  Ta10  1  0.463539  0.996940  0.646030  1
  Ta  Ta11  1  0.963539  0.503060  0.353970  1
  O  O12  1  0.255651  0.089336  0.507471  1
  O  O13  1  0.755651  0.410664  0.492529  1
  O  O14  1  0.745068  0.587687  0.993590  1
  O  O15  1  0.245068  0.912313  0.006410  1
  O  O16  1  0.731179  0.113409  0.564046  1
  O  O17  1  0.231179  0.386591  0.435954  1
  O  O18  1  0.265796  0.612172  0.932549  1
  O  O19  1  0.765796  0.887828  0.067451  1
  O  O20  1  0.584817  0.843237  0.534673  1
  O  O21  1  0.084817  0.656763  0.465327  1
  O  O22  1  0.412126  0.344182  0.972395  1
  O  O23  1  0.912126  0.155818  0.027605  1
  O  O24  1  0.184457  0.860949  0.263029  1
  O  O25  1  0.684457  0.639051  0.736971  1
  O  O26  1  0.817812  0.358345  0.240231  1
  O  O27  1  0.317812  0.141655  0.759769  1
  O  O28  1  0.825378  0.044003  0.298161  1
  O  O29  1  0.325378  0.455997  0.701839  1
  O  O30  1  0.172711  0.547663  0.205031  1
  O  O31  1  0.672711  0.952337  0.794969  1
  O  O32  1  0.316317  0.136490  0.176987  1
  O  O33  1  0.816317  0.363510  0.823013  1
  O  O34  1  0.680644  0.633886  0.319903  1
  O  O35  1  0.180644  0.866114  0.680097  1
