# generated using pymatgen
data_CePa3(Rh2Pb)2
_symmetry_space_group_name_H-M   'P 1'
_cell_length_a   7.82800950
_cell_length_b   7.82800993
_cell_length_c   3.60436900
_cell_angle_alpha   90.00000000
_cell_angle_beta   90.00000000
_cell_angle_gamma   88.59533685
_symmetry_Int_Tables_number   1
_chemical_formula_structural   CePa3(Rh2Pb)2
_chemical_formula_sum   'Ce1 Pa3 Rh4 Pb2'
_cell_volume   220.80120134
_cell_formula_units_Z   1
loop_
 _symmetry_equiv_pos_site_id
 _symmetry_equiv_pos_as_xyz
  1  'x, y, z'
loop_
 _atom_site_type_symbol
 _atom_site_label
 _atom_site_symmetry_multiplicity
 _atom_site_fract_x
 _atom_site_fract_y
 _atom_site_fract_z
 _atom_site_occupancy
  Ce  Ce0  1  0.328784  0.828784  0.500000  1
  Pa  Pa1  1  0.668570  0.168570  0.500000  1
  Pa  Pa2  1  0.170331  0.330931  0.500000  1
  Pa  Pa3  1  0.830931  0.670331  0.500000  1
  Rh  Rh4  1  0.862663  0.362663  0.000000  1
  Rh  Rh5  1  0.372863  0.143769  0.000000  1
  Rh  Rh6  1  0.643769  0.872863  0.000000  1
  Rh  Rh7  1  0.117877  0.617877  0.000000  1
  Pb  Pb8  1  0.004345  0.999865  0.000000  1
  Pb  Pb9  1  0.499865  0.504345  0.000000  1
