# generated using pymatgen
data_Yb3SmDy2(Si3Ru)8
_symmetry_space_group_name_H-M   'P 1'
_cell_length_a   10.16340236
_cell_length_b   10.16340209
_cell_length_c   8.15414722
_cell_angle_alpha   90.07229003
_cell_angle_beta   89.92770475
_cell_angle_gamma   132.69711888
_symmetry_Int_Tables_number   1
_chemical_formula_structural   Yb3SmDy2(Si3Ru)8
_chemical_formula_sum   'Yb3 Sm1 Dy2 Si24 Ru8'
_cell_volume   619.03240899
_cell_formula_units_Z   1
loop_
 _symmetry_equiv_pos_site_id
 _symmetry_equiv_pos_as_xyz
  1  'x, y, z'
loop_
 _atom_site_type_symbol
 _atom_site_label
 _atom_site_symmetry_multiplicity
 _atom_site_fract_x
 _atom_site_fract_y
 _atom_site_fract_z
 _atom_site_occupancy
  Yb  Yb0  1  0.499829  0.499761  0.499733  1
  Yb  Yb1  1  0.999761  0.999829  0.000267  1
  Yb  Yb2  1  0.998542  0.498542  0.250000  1
  Sm  Sm3  1  0.501061  0.001061  0.750000  1
  Dy  Dy4  1  0.498783  0.998783  0.250000  1
  Dy  Dy5  1  0.001424  0.501424  0.750000  1
  Si  Si6  1  0.798190  0.206149  0.498080  1
  Si  Si7  1  0.293388  0.701725  0.002569  1
  Si  Si8  1  0.201725  0.793388  0.497431  1
  Si  Si9  1  0.706149  0.298190  0.001920  1
  Si  Si10  1  0.331558  0.334047  0.832612  1
  Si  Si11  1  0.665716  0.667089  0.167524  1
  Si  Si12  1  0.167089  0.165716  0.332476  1
  Si  Si13  1  0.834047  0.831558  0.667388  1
  Si  Si14  1  0.122198  0.890628  0.730066  1
  Si  Si15  1  0.109493  0.877429  0.269285  1
  Si  Si16  1  0.608802  0.376375  0.230870  1
  Si  Si17  1  0.624555  0.392503  0.769540  1
  Si  Si18  1  0.876375  0.108802  0.269130  1
  Si  Si19  1  0.892503  0.124555  0.730460  1
  Si  Si20  1  0.390628  0.622198  0.769934  1
  Si  Si21  1  0.377429  0.609493  0.230715  1
  Si  Si22  1  0.346081  0.114122  0.505661  1
  Si  Si23  1  0.885846  0.653589  0.494250  1
  Si  Si24  1  0.385672  0.153549  0.008588  1
  Si  Si25  1  0.847085  0.614589  0.993185  1
  Si  Si26  1  0.653549  0.885672  0.491412  1
  Si  Si27  1  0.114589  0.347085  0.506815  1
  Si  Si28  1  0.614122  0.846081  0.994339  1
  Si  Si29  1  0.153589  0.385846  0.005750  1
  Ru  Ru30  1  0.671443  0.329061  0.500168  1
  Ru  Ru31  1  0.171096  0.829471  0.999689  1
  Ru  Ru32  1  0.329471  0.671096  0.500311  1
  Ru  Ru33  1  0.829061  0.171443  0.999832  1
  Ru  Ru34  1  0.125537  0.126363  0.625403  1
  Ru  Ru35  1  0.873340  0.873910  0.374423  1
  Ru  Ru36  1  0.373910  0.373340  0.125577  1
  Ru  Ru37  1  0.626363  0.625537  0.874597  1
