# generated using pymatgen
data_KEr(AuO2)4
_symmetry_space_group_name_H-M   'P 1'
_cell_length_a   6.03977500
_cell_length_b   7.00094600
_cell_length_c   5.66457500
_cell_angle_alpha   90.00000000
_cell_angle_beta   90.00000000
_cell_angle_gamma   90.00000000
_symmetry_Int_Tables_number   1
_chemical_formula_structural   KEr(AuO2)4
_chemical_formula_sum   'K1 Er1 Au4 O8'
_cell_volume   239.52167456
_cell_formula_units_Z   1
loop_
 _symmetry_equiv_pos_site_id
 _symmetry_equiv_pos_as_xyz
  1  'x, y, z'
loop_
 _atom_site_type_symbol
 _atom_site_label
 _atom_site_symmetry_multiplicity
 _atom_site_fract_x
 _atom_site_fract_y
 _atom_site_fract_z
 _atom_site_occupancy
  K  K0  1  0.000000  0.500000  0.500000  1
  Er  Er1  1  0.500000  0.000000  0.000000  1
  Au  Au2  1  0.000000  0.799569  0.000000  1
  Au  Au3  1  0.000000  0.200431  0.000000  1
  Au  Au4  1  0.236170  0.000000  0.500000  1
  Au  Au5  1  0.763830  0.000000  0.500000  1
  O  O6  1  0.257202  0.197954  0.235335  1
  O  O7  1  0.257202  0.197954  0.764665  1
  O  O8  1  0.257202  0.802046  0.235335  1
  O  O9  1  0.257202  0.802046  0.764665  1
  O  O10  1  0.742798  0.802046  0.235335  1
  O  O11  1  0.742798  0.197954  0.764665  1
  O  O12  1  0.742798  0.802046  0.764665  1
  O  O13  1  0.742798  0.197954  0.235335  1
