# generated using pymatgen
data_Yb2YTm(Ir2O7)2
_symmetry_space_group_name_H-M   'P 1'
_cell_length_a   7.20734979
_cell_length_b   7.21704197
_cell_length_c   7.21704324
_cell_angle_alpha   60.07413817
_cell_angle_beta   60.09861346
_cell_angle_gamma   60.09862180
_symmetry_Int_Tables_number   1
_chemical_formula_structural   Yb2YTm(Ir2O7)2
_chemical_formula_sum   'Yb2 Y1 Tm1 Ir4 O14'
_cell_volume   265.99187084
_cell_formula_units_Z   1
loop_
 _symmetry_equiv_pos_site_id
 _symmetry_equiv_pos_as_xyz
  1  'x, y, z'
loop_
 _atom_site_type_symbol
 _atom_site_label
 _atom_site_symmetry_multiplicity
 _atom_site_fract_x
 _atom_site_fract_y
 _atom_site_fract_z
 _atom_site_occupancy
  Yb  Yb0  1  0.125000  0.625000  0.125000  1
  Yb  Yb1  1  0.125000  0.125000  0.625000  1
  Y  Y2  1  0.125000  0.125000  0.125000  1
  Tm  Tm3  1  0.625000  0.125000  0.125000  1
  Ir  Ir4  1  0.125000  0.625000  0.625000  1
  Ir  Ir5  1  0.625000  0.125000  0.625000  1
  Ir  Ir6  1  0.625000  0.625000  0.125000  1
  Ir  Ir7  1  0.625000  0.625000  0.625000  1
  O  O8  1  0.700250  0.714360  0.292354  1
  O  O9  1  0.293893  0.292640  0.710644  1
  O  O10  1  0.700250  0.292354  0.714360  1
  O  O11  1  0.293893  0.710644  0.292640  1
  O  O12  1  0.295502  0.704825  0.704825  1
  O  O13  1  0.705292  0.291696  0.291696  1
  O  O14  1  0.549750  0.535640  0.957646  1
  O  O15  1  0.956107  0.957360  0.539356  1
  O  O16  1  0.549750  0.957646  0.535640  1
  O  O17  1  0.956107  0.539356  0.957360  1
  O  O18  1  0.954498  0.545175  0.545175  1
  O  O19  1  0.544708  0.958304  0.958304  1
  O  O20  1  0.259803  0.243731  0.243731  1
  O  O21  1  0.990197  0.006269  0.006269  1
