# generated using pymatgen
data_Lu8Ta3Nb9Ge16
_symmetry_space_group_name_H-M   'P 1'
_cell_length_a   6.94158000
_cell_length_b   7.12161607
_cell_length_c   13.48953100
_cell_angle_alpha   90.00000000
_cell_angle_beta   90.00000000
_cell_angle_gamma   90.00678560
_symmetry_Int_Tables_number   1
_chemical_formula_structural   Lu8Ta3Nb9Ge16
_chemical_formula_sum   'Lu8 Ta3 Nb9 Ge16'
_cell_volume   666.85857113
_cell_formula_units_Z   1
loop_
 _symmetry_equiv_pos_site_id
 _symmetry_equiv_pos_as_xyz
  1  'x, y, z'
loop_
 _atom_site_type_symbol
 _atom_site_label
 _atom_site_symmetry_multiplicity
 _atom_site_fract_x
 _atom_site_fract_y
 _atom_site_fract_z
 _atom_site_occupancy
  Lu  Lu0  1  0.497290  0.674351  0.594458  1
  Lu  Lu1  1  0.997237  0.825229  0.905602  1
  Lu  Lu2  1  0.502728  0.325245  0.094247  1
  Lu  Lu3  1  0.002483  0.174483  0.405733  1
  Lu  Lu4  1  0.502728  0.325245  0.405753  1
  Lu  Lu5  1  0.002483  0.174483  0.094267  1
  Lu  Lu6  1  0.497290  0.674351  0.905542  1
  Lu  Lu7  1  0.997237  0.825229  0.594398  1
  Ta  Ta8  1  0.838060  0.487838  0.750000  1
  Ta  Ta9  1  0.338025  0.012506  0.750000  1
  Ta  Ta10  1  0.162304  0.512528  0.250000  1
  Nb  Nb11  1  0.660891  0.171435  0.626042  1
  Nb  Nb12  1  0.161346  0.328580  0.874050  1
  Nb  Nb13  1  0.338808  0.828636  0.125832  1
  Nb  Nb14  1  0.839410  0.671224  0.374257  1
  Nb  Nb15  1  0.338808  0.828636  0.374168  1
  Nb  Nb16  1  0.839410  0.671224  0.125743  1
  Nb  Nb17  1  0.660891  0.171435  0.873958  1
  Nb  Nb18  1  0.161346  0.328580  0.625950  1
  Nb  Nb19  1  0.662091  0.988729  0.250000  1
  Ge  Ge20  1  0.675508  0.964405  0.459089  1
  Ge  Ge21  1  0.175807  0.535086  0.041295  1
  Ge  Ge22  1  0.324280  0.034895  0.958610  1
  Ge  Ge23  1  0.824242  0.464753  0.541438  1
  Ge  Ge24  1  0.324280  0.034895  0.541390  1
  Ge  Ge25  1  0.824242  0.464753  0.958562  1
  Ge  Ge26  1  0.675508  0.964405  0.040911  1
  Ge  Ge27  1  0.175807  0.535086  0.458705  1
  Ge  Ge28  1  0.461384  0.380752  0.750000  1
  Ge  Ge29  1  0.961122  0.119783  0.750000  1
  Ge  Ge30  1  0.539141  0.619732  0.250000  1
  Ge  Ge31  1  0.038609  0.880363  0.250000  1
  Ge  Ge32  1  0.697053  0.856912  0.750000  1
  Ge  Ge33  1  0.196977  0.643228  0.750000  1
  Ge  Ge34  1  0.302152  0.143061  0.250000  1
  Ge  Ge35  1  0.803016  0.357930  0.250000  1
