# generated using pymatgen
data_Li7Pr5Pt12
_symmetry_space_group_name_H-M   'P 1'
_cell_length_a   5.54544021
_cell_length_b   5.54543857
_cell_length_c   16.49425976
_cell_angle_alpha   80.32252112
_cell_angle_beta   80.32252372
_cell_angle_gamma   60.00000360
_symmetry_Int_Tables_number   1
_chemical_formula_structural   Li7Pr5Pt12
_chemical_formula_sum   'Li7 Pr5 Pt12'
_cell_volume   430.91904207
_cell_formula_units_Z   1
loop_
 _symmetry_equiv_pos_site_id
 _symmetry_equiv_pos_as_xyz
  1  'x, y, z'
loop_
 _atom_site_type_symbol
 _atom_site_label
 _atom_site_symmetry_multiplicity
 _atom_site_fract_x
 _atom_site_fract_y
 _atom_site_fract_z
 _atom_site_occupancy
  Li  Li0  1  0.500000  0.500000  0.500000  1
  Li  Li1  1  0.749678  0.749679  0.750964  1
  Li  Li2  1  0.250321  0.250321  0.249037  1
  Li  Li3  1  0.666715  0.666715  0.999856  1
  Li  Li4  1  0.333285  0.333285  0.000144  1
  Li  Li5  1  0.583238  0.583238  0.250288  1
  Li  Li6  1  0.416762  0.416762  0.749712  1
  Pr  Pr7  1  0.000000  0.000000  0.000000  1
  Pr  Pr8  1  0.925858  0.925858  0.222428  1
  Pr  Pr9  1  0.074142  0.074142  0.777572  1
  Pr  Pr10  1  0.849130  0.849130  0.452610  1
  Pr  Pr11  1  0.150870  0.150870  0.547390  1
  Pt  Pt12  1  0.374391  0.374391  0.373969  1
  Pt  Pt13  1  0.877248  0.374391  0.373969  1
  Pt  Pt14  1  0.374391  0.877248  0.373969  1
  Pt  Pt15  1  0.625609  0.625609  0.626031  1
  Pt  Pt16  1  0.122752  0.625609  0.626031  1
  Pt  Pt17  1  0.625609  0.122752  0.626031  1
  Pt  Pt18  1  0.459035  0.459035  0.123523  1
  Pt  Pt19  1  0.958405  0.459035  0.123523  1
  Pt  Pt20  1  0.459035  0.958405  0.123523  1
  Pt  Pt21  1  0.540965  0.540965  0.876477  1
  Pt  Pt22  1  0.041595  0.540965  0.876477  1
  Pt  Pt23  1  0.540965  0.041595  0.876477  1
