# generated using pymatgen
data_Er4HfPd15
_symmetry_space_group_name_H-M   'P 1'
_cell_length_a   4.08842400
_cell_length_b   4.08842400
_cell_length_c   20.45285700
_cell_angle_alpha   90.00000000
_cell_angle_beta   90.00000000
_cell_angle_gamma   90.00000000
_symmetry_Int_Tables_number   1
_chemical_formula_structural   Er4HfPd15
_chemical_formula_sum   'Er4 Hf1 Pd15'
_cell_volume   341.87381629
_cell_formula_units_Z   1
loop_
 _symmetry_equiv_pos_site_id
 _symmetry_equiv_pos_as_xyz
  1  'x, y, z'
loop_
 _atom_site_type_symbol
 _atom_site_label
 _atom_site_symmetry_multiplicity
 _atom_site_fract_x
 _atom_site_fract_y
 _atom_site_fract_z
 _atom_site_occupancy
  Er  Er0  1  0.000000  0.000000  0.197901  1
  Er  Er1  1  0.000000  0.000000  0.398846  1
  Er  Er2  1  0.000000  0.000000  0.601154  1
  Er  Er3  1  0.000000  0.000000  0.802099  1
  Hf  Hf4  1  0.000000  0.000000  0.000000  1
  Pd  Pd5  1  0.500000  0.500000  0.000000  1
  Pd  Pd6  1  0.500000  0.500000  0.196848  1
  Pd  Pd7  1  0.500000  0.500000  0.399240  1
  Pd  Pd8  1  0.500000  0.500000  0.600760  1
  Pd  Pd9  1  0.500000  0.500000  0.803152  1
  Pd  Pd10  1  0.500000  0.000000  0.094704  1
  Pd  Pd11  1  0.500000  0.000000  0.298071  1
  Pd  Pd12  1  0.500000  0.000000  0.500000  1
  Pd  Pd13  1  0.500000  0.000000  0.701929  1
  Pd  Pd14  1  0.500000  0.000000  0.905296  1
  Pd  Pd15  1  0.000000  0.500000  0.094704  1
  Pd  Pd16  1  0.000000  0.500000  0.298071  1
  Pd  Pd17  1  0.000000  0.500000  0.500000  1
  Pd  Pd18  1  0.000000  0.500000  0.701929  1
  Pd  Pd19  1  0.000000  0.500000  0.905296  1
