# generated using pymatgen
data_Ti3Re2B4Mo
_symmetry_space_group_name_H-M   'P 1'
_cell_length_a   5.93911796
_cell_length_b   5.93911796
_cell_length_c   3.19171900
_cell_angle_alpha   90.00000000
_cell_angle_beta   90.00000000
_cell_angle_gamma   89.03644694
_symmetry_Int_Tables_number   1
_chemical_formula_structural   Ti3Re2B4Mo
_chemical_formula_sum   'Ti3 Re2 B4 Mo1'
_cell_volume   112.56597443
_cell_formula_units_Z   1
loop_
 _symmetry_equiv_pos_site_id
 _symmetry_equiv_pos_as_xyz
  1  'x, y, z'
loop_
 _atom_site_type_symbol
 _atom_site_label
 _atom_site_symmetry_multiplicity
 _atom_site_fract_x
 _atom_site_fract_y
 _atom_site_fract_z
 _atom_site_occupancy
  Ti  Ti0  1  0.322472  0.822231  0.500000  1
  Ti  Ti1  1  0.177540  0.322460  0.500000  1
  Ti  Ti2  1  0.677769  0.177528  0.500000  1
  Re  Re3  1  0.497623  0.497658  0.000000  1
  Re  Re4  1  0.002342  0.002377  0.000000  1
  B  B5  1  0.109965  0.611778  0.000000  1
  B  B6  1  0.609713  0.890287  0.000000  1
  B  B7  1  0.389222  0.110778  0.000000  1
  B  B8  1  0.888222  0.390035  0.000000  1
  Mo  Mo9  1  0.825133  0.674867  0.500000  1
