# generated using pymatgen
data_Y12Ni5Pb
_symmetry_space_group_name_H-M   'P 1'
_cell_length_a   8.38341052
_cell_length_b   8.38341067
_cell_length_c   8.38341202
_cell_angle_alpha   107.26054790
_cell_angle_beta   109.42560305
_cell_angle_gamma   111.75879688
_symmetry_Int_Tables_number   1
_chemical_formula_structural   Y12Ni5Pb
_chemical_formula_sum   'Y12 Ni5 Pb1'
_cell_volume   452.86613333
_cell_formula_units_Z   1
loop_
 _symmetry_equiv_pos_site_id
 _symmetry_equiv_pos_as_xyz
  1  'x, y, z'
loop_
 _atom_site_type_symbol
 _atom_site_label
 _atom_site_symmetry_multiplicity
 _atom_site_fract_x
 _atom_site_fract_y
 _atom_site_fract_z
 _atom_site_occupancy
  Y  Y0  1  0.476245  0.294859  0.181386  1
  Y  Y1  1  0.113475  0.294859  0.818614  1
  Y  Y2  1  0.886525  0.705141  0.181386  1
  Y  Y3  1  0.523755  0.705141  0.818614  1
  Y  Y4  1  0.306952  0.629140  0.322188  1
  Y  Y5  1  0.306952  0.984765  0.677812  1
  Y  Y6  1  0.693048  0.370860  0.677812  1
  Y  Y7  1  0.693048  0.015235  0.322188  1
  Y  Y8  1  0.191404  0.210219  0.401623  1
  Y  Y9  1  0.808596  0.789781  0.598377  1
  Y  Y10  1  0.191404  0.789781  0.981184  1
  Y  Y11  1  0.808596  0.210219  0.018816  1
  Ni  Ni12  1  0.500000  0.623595  0.123595  1
  Ni  Ni13  1  0.500000  0.376405  0.876405  1
  Ni  Ni14  1  0.365013  0.000000  0.365013  1
  Ni  Ni15  1  0.634987  0.000000  0.634987  1
  Ni  Ni16  1  0.000000  0.000000  0.000000  1
  Pb  Pb17  1  0.000000  0.500000  0.500000  1
