# generated using pymatgen
data_Y4Zn4IrRh3
_symmetry_space_group_name_H-M   'P 1'
_cell_length_a   4.09210900
_cell_length_b   6.98502429
_cell_length_c   8.07219951
_cell_angle_alpha   89.93008919
_cell_angle_beta   90.00000000
_cell_angle_gamma   90.00000000
_symmetry_Int_Tables_number   1
_chemical_formula_structural   Y4Zn4IrRh3
_chemical_formula_sum   'Y4 Zn4 Ir1 Rh3'
_cell_volume   230.73138775
_cell_formula_units_Z   1
loop_
 _symmetry_equiv_pos_site_id
 _symmetry_equiv_pos_as_xyz
  1  'x, y, z'
loop_
 _atom_site_type_symbol
 _atom_site_label
 _atom_site_symmetry_multiplicity
 _atom_site_fract_x
 _atom_site_fract_y
 _atom_site_fract_z
 _atom_site_occupancy
  Y  Y0  1  0.250000  0.533503  0.183834  1
  Y  Y1  1  0.750000  0.470512  0.815667  1
  Y  Y2  1  0.750000  0.965786  0.685807  1
  Y  Y3  1  0.250000  0.032013  0.315022  1
  Zn  Zn4  1  0.250000  0.641138  0.566339  1
  Zn  Zn5  1  0.750000  0.358561  0.434481  1
  Zn  Zn6  1  0.750000  0.858262  0.066270  1
  Zn  Zn7  1  0.250000  0.141613  0.933952  1
  Ir  Ir8  1  0.250000  0.761053  0.879158  1
  Rh  Rh9  1  0.750000  0.239251  0.121044  1
  Rh  Rh10  1  0.750000  0.738590  0.379759  1
  Rh  Rh11  1  0.250000  0.259720  0.618668  1
