# generated using pymatgen
data_Pa2Co7Si4
_symmetry_space_group_name_H-M   'P 1'
_cell_length_a   3.69113300
_cell_length_b   8.88347700
_cell_length_c   10.23571000
_cell_angle_alpha   90.00000000
_cell_angle_beta   90.00000000
_cell_angle_gamma   90.00000000
_symmetry_Int_Tables_number   1
_chemical_formula_structural   Pa2Co7Si4
_chemical_formula_sum   'Pa4 Co14 Si8'
_cell_volume   335.62990441
_cell_formula_units_Z   2
loop_
 _symmetry_equiv_pos_site_id
 _symmetry_equiv_pos_as_xyz
  1  'x, y, z'
loop_
 _atom_site_type_symbol
 _atom_site_label
 _atom_site_symmetry_multiplicity
 _atom_site_fract_x
 _atom_site_fract_y
 _atom_site_fract_z
 _atom_site_occupancy
  Pa  Pa0  1  0.000000  0.038274  0.024583  1
  Pa  Pa1  1  0.500000  0.961726  0.524583  1
  Pa  Pa2  1  0.000000  0.443148  0.780180  1
  Pa  Pa3  1  0.500000  0.556852  0.280180  1
  Co  Co4  1  0.000000  0.062242  0.332766  1
  Co  Co5  1  0.500000  0.937758  0.832766  1
  Co  Co6  1  0.000000  0.188580  0.559892  1
  Co  Co7  1  0.500000  0.811420  0.059892  1
  Co  Co8  1  0.000000  0.388401  0.068939  1
  Co  Co9  1  0.500000  0.611599  0.568939  1
  Co  Co10  1  0.000000  0.439977  0.463304  1
  Co  Co11  1  0.500000  0.560023  0.963304  1
  Co  Co12  1  0.000000  0.759510  0.895885  1
  Co  Co13  1  0.500000  0.240490  0.395885  1
  Co  Co14  1  0.000000  0.795288  0.662605  1
  Co  Co15  1  0.500000  0.204712  0.162605  1
  Co  Co16  1  0.000000  0.797356  0.254146  1
  Co  Co17  1  0.500000  0.202644  0.754146  1
  Si  Si18  1  0.000000  0.047956  0.740341  1
  Si  Si19  1  0.500000  0.952044  0.240341  1
  Si  Si20  1  0.000000  0.301855  0.273696  1
  Si  Si21  1  0.500000  0.698145  0.773696  1
  Si  Si22  1  0.000000  0.641746  0.079547  1
  Si  Si23  1  0.500000  0.358254  0.579547  1
  Si  Si24  1  0.000000  0.698643  0.459424  1
  Si  Si25  1  0.500000  0.301357  0.959424  1
