# generated using pymatgen
data_HoPu5Cl18
_symmetry_space_group_name_H-M   'P 1'
_cell_length_a   7.12926307
_cell_length_b   7.12796008
_cell_length_c   21.78652600
_cell_angle_alpha   89.98366643
_cell_angle_beta   90.00816529
_cell_angle_gamma   119.99395981
_symmetry_Int_Tables_number   1
_chemical_formula_structural   HoPu5Cl18
_chemical_formula_sum   'Ho1 Pu5 Cl18'
_cell_volume   958.85939551
_cell_formula_units_Z   1
loop_
 _symmetry_equiv_pos_site_id
 _symmetry_equiv_pos_as_xyz
  1  'x, y, z'
loop_
 _atom_site_type_symbol
 _atom_site_label
 _atom_site_symmetry_multiplicity
 _atom_site_fract_x
 _atom_site_fract_y
 _atom_site_fract_z
 _atom_site_occupancy
  Ho  Ho0  1  0.221504  0.110829  0.999810  1
  Pu  Pu1  1  0.555124  0.778409  0.999786  1
  Pu  Pu2  1  0.223108  0.446650  0.332045  1
  Pu  Pu3  1  0.888724  0.779276  0.332201  1
  Pu  Pu4  1  0.888190  0.110838  0.668102  1
  Pu  Pu5  1  0.220793  0.776460  0.668160  1
  Cl  Cl6  1  0.507098  0.434460  0.068214  1
  Cl  Cl7  1  0.899407  0.075158  0.068468  1
  Cl  Cl8  1  0.258196  0.822215  0.068214  1
  Cl  Cl9  1  0.187077  0.740808  0.262515  1
  Cl  Cl10  1  0.924717  0.109470  0.262703  1
  Cl  Cl11  1  0.556297  0.482986  0.262953  1
  Cl  Cl12  1  0.928298  0.482878  0.401363  1
  Cl  Cl13  1  0.182901  0.111151  0.401484  1
  Cl  Cl14  1  0.556309  0.741332  0.402215  1
  Cl  Cl15  1  0.556651  0.815969  0.598980  1
  Cl  Cl16  1  0.185292  0.072821  0.599027  1
  Cl  Cl17  1  0.925252  0.444586  0.598374  1
  Cl  Cl18  1  0.557629  0.077117  0.737098  1
  Cl  Cl19  1  0.925292  0.811724  0.737386  1
  Cl  Cl20  1  0.186914  0.443774  0.736981  1
  Cl  Cl21  1  0.258958  0.432808  0.931182  1
  Cl  Cl22  1  0.896564  0.822844  0.931419  1
  Cl  Cl23  1  0.509708  0.075438  0.931320  1
