# generated using pymatgen
data_Tb5YAl24(RuRh3)2
_symmetry_space_group_name_H-M   'P 1'
_cell_length_a   8.84971426
_cell_length_b   8.84599045
_cell_length_c   9.51485000
_cell_angle_alpha   90.00000000
_cell_angle_beta   90.00000000
_cell_angle_gamma   119.98608605
_symmetry_Int_Tables_number   1
_chemical_formula_structural   Tb5YAl24(RuRh3)2
_chemical_formula_sum   'Tb5 Y1 Al24 Ru2 Rh6'
_cell_volume   645.16257406
_cell_formula_units_Z   1
loop_
 _symmetry_equiv_pos_site_id
 _symmetry_equiv_pos_as_xyz
  1  'x, y, z'
loop_
 _atom_site_type_symbol
 _atom_site_label
 _atom_site_symmetry_multiplicity
 _atom_site_fract_x
 _atom_site_fract_y
 _atom_site_fract_z
 _atom_site_occupancy
  Tb  Tb0  1  0.808757  0.191250  0.250000  1
  Tb  Tb1  1  0.808757  0.617506  0.250000  1
  Tb  Tb2  1  0.617651  0.808826  0.750000  1
  Tb  Tb3  1  0.191165  0.808824  0.750000  1
  Tb  Tb4  1  0.191165  0.382342  0.750000  1
  Y  Y5  1  0.382723  0.191361  0.250000  1
  Al  Al6  1  0.438092  0.876181  0.250000  1
  Al  Al7  1  0.123801  0.561900  0.250000  1
  Al  Al8  1  0.438092  0.561911  0.250000  1
  Al  Al9  1  0.561943  0.123922  0.750000  1
  Al  Al10  1  0.876155  0.438077  0.750000  1
  Al  Al11  1  0.561943  0.438021  0.750000  1
  Al  Al12  1  0.163113  0.836880  0.424181  1
  Al  Al13  1  0.163113  0.326236  0.424181  1
  Al  Al14  1  0.673770  0.836886  0.424125  1
  Al  Al15  1  0.836880  0.163138  0.575862  1
  Al  Al16  1  0.836880  0.673739  0.575862  1
  Al  Al17  1  0.326243  0.163120  0.575888  1
  Al  Al18  1  0.836880  0.163138  0.924138  1
  Al  Al19  1  0.836880  0.673739  0.924138  1
  Al  Al20  1  0.326243  0.163120  0.924112  1
  Al  Al21  1  0.163113  0.836880  0.075819  1
  Al  Al22  1  0.163113  0.326236  0.075819  1
  Al  Al23  1  0.673770  0.836886  0.075875  1
  Al  Al24  1  0.333319  0.666660  0.529775  1
  Al  Al25  1  0.666611  0.333305  0.470200  1
  Al  Al26  1  0.666611  0.333305  0.029800  1
  Al  Al27  1  0.333319  0.666660  0.970225  1
  Al  Al28  1  0.999835  0.999917  0.250000  1
  Al  Al29  1  0.000050  0.000025  0.750000  1
  Ru  Ru30  1  0.000075  0.000037  0.499760  1
  Ru  Ru31  1  0.000075  0.000037  0.000240  1
  Rh  Rh32  1  0.499978  0.999990  0.499971  1
  Rh  Rh33  1  0.999977  0.499989  0.499904  1
  Rh  Rh34  1  0.499978  0.499988  0.499971  1
  Rh  Rh35  1  0.499978  0.999990  0.000029  1
  Rh  Rh36  1  0.999977  0.499989  0.000096  1
  Rh  Rh37  1  0.499978  0.499988  0.000029  1
