# generated using pymatgen
data_Tb2YGa6Co5Ni4
_symmetry_space_group_name_H-M   'P 1'
_cell_length_a   4.08187100
_cell_length_b   8.69121011
_cell_length_c   8.68723702
_cell_angle_alpha   60.10322137
_cell_angle_beta   90.00000000
_cell_angle_gamma   90.00000000
_symmetry_Int_Tables_number   1
_chemical_formula_structural   Tb2YGa6Co5Ni4
_chemical_formula_sum   'Tb2 Y1 Ga6 Co5 Ni4'
_cell_volume   267.17917785
_cell_formula_units_Z   1
loop_
 _symmetry_equiv_pos_site_id
 _symmetry_equiv_pos_as_xyz
  1  'x, y, z'
loop_
 _atom_site_type_symbol
 _atom_site_label
 _atom_site_symmetry_multiplicity
 _atom_site_fract_x
 _atom_site_fract_y
 _atom_site_fract_z
 _atom_site_occupancy
  Tb  Tb0  1  0.500000  0.664949  0.670679  1
  Tb  Tb1  1  0.000000  0.001296  0.998310  1
  Y  Y2  1  0.500000  0.334283  0.333518  1
  Ga  Ga3  1  0.500000  0.727470  0.272042  1
  Ga  Ga4  1  0.500000  0.274600  0.999041  1
  Ga  Ga5  1  0.500000  0.999659  0.725424  1
  Ga  Ga6  1  0.000000  0.488136  0.508571  1
  Ga  Ga7  1  0.000000  0.508689  0.000755  1
  Ga  Ga8  1  0.000000  0.000577  0.490904  1
  Co  Co9  1  0.000000  0.187498  0.177850  1
  Co  Co10  1  0.000000  0.176026  0.636514  1
  Co  Co11  1  0.000000  0.636289  0.187239  1
  Co  Co12  1  0.000000  0.821864  0.812982  1
  Co  Co13  1  0.000000  0.366372  0.821287  1
  Ni  Ni14  1  0.000000  0.809693  0.368956  1
  Ni  Ni15  1  0.500000  0.298324  0.701387  1
  Ni  Ni16  1  0.500000  0.702274  0.999735  1
  Ni  Ni17  1  0.500000  0.001900  0.294904  1
