# generated using pymatgen
data_TiGaMoC
_symmetry_space_group_name_H-M   'P 1'
_cell_length_a   3.06759400
_cell_length_b   3.06759421
_cell_length_c   13.28361000
_cell_angle_alpha   90.00000000
_cell_angle_beta   90.00000000
_cell_angle_gamma   120.00001928
_symmetry_Int_Tables_number   1
_chemical_formula_structural   TiGaMoC
_chemical_formula_sum   'Ti2 Ga2 Mo2 C2'
_cell_volume   108.25362624
_cell_formula_units_Z   2
loop_
 _symmetry_equiv_pos_site_id
 _symmetry_equiv_pos_as_xyz
  1  'x, y, z'
loop_
 _atom_site_type_symbol
 _atom_site_label
 _atom_site_symmetry_multiplicity
 _atom_site_fract_x
 _atom_site_fract_y
 _atom_site_fract_z
 _atom_site_occupancy
  Ti  Ti0  1  0.666667  0.333333  0.914268  1
  Ti  Ti1  1  0.333333  0.666667  0.414268  1
  Ga  Ga2  1  0.333333  0.666667  0.749558  1
  Ga  Ga3  1  0.666667  0.333333  0.249558  1
  Mo  Mo4  1  0.333333  0.666667  0.087111  1
  Mo  Mo5  1  0.666667  0.333333  0.587111  1
  C  C6  1  0.000000  0.000000  0.499064  1
  C  C7  1  0.000000  0.000000  0.999064  1
