# generated using pymatgen
data_Tb10Dy6MgAg3Rh4
_symmetry_space_group_name_H-M   'P 1'
_cell_length_a   9.57225504
_cell_length_b   9.59708875
_cell_length_c   9.60084719
_cell_angle_alpha   60.26182029
_cell_angle_beta   60.26175546
_cell_angle_gamma   60.30188517
_symmetry_Int_Tables_number   1
_chemical_formula_structural   Tb10Dy6MgAg3Rh4
_chemical_formula_sum   'Tb10 Dy6 Mg1 Ag3 Rh4'
_cell_volume   627.54428185
_cell_formula_units_Z   1
loop_
 _symmetry_equiv_pos_site_id
 _symmetry_equiv_pos_as_xyz
  1  'x, y, z'
loop_
 _atom_site_type_symbol
 _atom_site_label
 _atom_site_symmetry_multiplicity
 _atom_site_fract_x
 _atom_site_fract_y
 _atom_site_fract_z
 _atom_site_occupancy
  Tb  Tb0  1  0.066452  0.435530  0.435617  1
  Tb  Tb1  1  0.650224  0.046977  0.651439  1
  Tb  Tb2  1  0.814334  0.813438  0.186695  1
  Tb  Tb3  1  0.434875  0.064470  0.064734  1
  Tb  Tb4  1  0.436942  0.435514  0.063452  1
  Tb  Tb5  1  0.190020  0.188667  0.811424  1
  Tb  Tb6  1  0.814274  0.187095  0.187212  1
  Tb  Tb7  1  0.066192  0.435626  0.063414  1
  Tb  Tb8  1  0.436181  0.063775  0.434956  1
  Tb  Tb9  1  0.062067  0.646291  0.645707  1
  Dy  Dy10  1  0.189674  0.812152  0.811659  1
  Dy  Dy11  1  0.649906  0.651716  0.047123  1
  Dy  Dy12  1  0.190300  0.811130  0.189138  1
  Dy  Dy13  1  0.066108  0.063055  0.435919  1
  Dy  Dy14  1  0.814624  0.186941  0.813039  1
  Dy  Dy15  1  0.648445  0.651179  0.651300  1
  Mg  Mg16  1  0.712182  0.428884  0.428756  1
  Ag  Ag17  1  0.417484  0.415459  0.750360  1
  Ag  Ag18  1  0.417740  0.415662  0.415001  1
  Ag  Ag19  1  0.416864  0.750806  0.415220  1
  Rh  Rh20  1  0.857694  0.428948  0.855242  1
  Rh  Rh21  1  0.427607  0.855905  0.857744  1
  Rh  Rh22  1  0.859065  0.854530  0.428609  1
  Rh  Rh23  1  0.860750  0.856248  0.856240  1
