# generated using pymatgen
data_Cs4LiFeS4
_symmetry_space_group_name_H-M   'P 1'
_cell_length_a   8.52729272
_cell_length_b   8.52729243
_cell_length_c   8.52729287
_cell_angle_alpha   135.46984980
_cell_angle_beta   128.47380502
_cell_angle_gamma   70.42513264
_symmetry_Int_Tables_number   1
_chemical_formula_structural   Cs4LiFeS4
_chemical_formula_sum   'Cs4 Li1 Fe1 S4'
_cell_volume   333.71963896
_cell_formula_units_Z   1
loop_
 _symmetry_equiv_pos_site_id
 _symmetry_equiv_pos_as_xyz
  1  'x, y, z'
loop_
 _atom_site_type_symbol
 _atom_site_label
 _atom_site_symmetry_multiplicity
 _atom_site_fract_x
 _atom_site_fract_y
 _atom_site_fract_z
 _atom_site_occupancy
  Cs  Cs0  1  0.522507  0.864146  0.680341  1
  Cs  Cs1  1  0.477493  0.157835  0.341639  1
  Cs  Cs2  1  0.816196  0.635854  0.158361  1
  Cs  Cs3  1  0.183804  0.342165  0.819659  1
  Li  Li4  1  0.000000  0.250000  0.250000  1
  Fe  Fe5  1  0.000000  0.750000  0.750000  1
  S  S6  1  0.074144  0.881446  0.142551  1
  S  S7  1  0.738895  0.431593  0.357449  1
  S  S8  1  0.925856  0.068407  0.807302  1
  S  S9  1  0.261106  0.618554  0.692698  1
