# generated using pymatgen
data_Ba8TbY3(GaO5)4
_symmetry_space_group_name_H-M   'P 1'
_cell_length_a   6.14050002
_cell_length_b   7.88575974
_cell_length_c   12.77416525
_cell_angle_alpha   91.67882803
_cell_angle_beta   90.00465401
_cell_angle_gamma   89.99328536
_symmetry_Int_Tables_number   1
_chemical_formula_structural   Ba8TbY3(GaO5)4
_chemical_formula_sum   'Ba8 Tb1 Y3 Ga4 O20'
_cell_volume   618.29159749
_cell_formula_units_Z   1
loop_
 _symmetry_equiv_pos_site_id
 _symmetry_equiv_pos_as_xyz
  1  'x, y, z'
loop_
 _atom_site_type_symbol
 _atom_site_label
 _atom_site_symmetry_multiplicity
 _atom_site_fract_x
 _atom_site_fract_y
 _atom_site_fract_z
 _atom_site_occupancy
  Ba  Ba0  1  0.762285  0.483460  0.346858  1
  Ba  Ba1  1  0.738058  0.983079  0.847542  1
  Ba  Ba2  1  0.238287  0.517028  0.653000  1
  Ba  Ba3  1  0.261884  0.016360  0.152848  1
  Ba  Ba4  1  0.758268  0.993435  0.378773  1
  Ba  Ba5  1  0.742032  0.493711  0.879665  1
  Ba  Ba6  1  0.242077  0.006419  0.620909  1
  Ba  Ba7  1  0.257972  0.506586  0.120975  1
  Tb  Tb8  1  0.749504  0.266775  0.627971  1
  Y  Y9  1  0.750523  0.766427  0.128051  1
  Y  Y10  1  0.250539  0.733495  0.372007  1
  Y  Y11  1  0.249255  0.233437  0.872340  1
  Ga  Ga12  1  0.735420  0.743036  0.582094  1
  Ga  Ga13  1  0.764780  0.242699  0.082275  1
  Ga  Ga14  1  0.265069  0.257180  0.417093  1
  Ga  Ga15  1  0.235328  0.757156  0.918090  1
  O  O16  1  0.764731  0.969848  0.631247  1
  O  O17  1  0.734920  0.469447  0.131275  1
  O  O18  1  0.234517  0.030310  0.368114  1
  O  O19  1  0.264943  0.530533  0.868764  1
  O  O20  1  0.731857  0.065614  0.174485  1
  O  O21  1  0.768102  0.566451  0.674849  1
  O  O22  1  0.268049  0.934047  0.825657  1
  O  O23  1  0.231305  0.434273  0.324802  1
  O  O24  1  0.543164  0.746266  0.271872  1
  O  O25  1  0.955359  0.245859  0.773056  1
  O  O26  1  0.455216  0.253693  0.727952  1
  O  O27  1  0.043019  0.753747  0.228088  1
  O  O28  1  0.551421  0.222289  0.976053  1
  O  O29  1  0.948869  0.722275  0.476043  1
  O  O30  1  0.448805  0.777682  0.024136  1
  O  O31  1  0.052897  0.277859  0.523780  1
  O  O32  1  0.043615  0.231489  0.021316  1
  O  O33  1  0.456834  0.731360  0.520849  1
  O  O34  1  0.956922  0.768500  0.979463  1
  O  O35  1  0.544175  0.268176  0.477710  1
