# generated using pymatgen
data_Dy2ErAl7Cu2
_symmetry_space_group_name_H-M   'P 1'
_cell_length_a   9.07666302
_cell_length_b   9.07666299
_cell_length_c   9.07666347
_cell_angle_alpha   35.15781724
_cell_angle_beta   35.15781737
_cell_angle_gamma   35.15781128
_symmetry_Int_Tables_number   1
_chemical_formula_structural   Dy2ErAl7Cu2
_chemical_formula_sum   'Dy2 Er1 Al7 Cu2'
_cell_volume   221.45158620
_cell_formula_units_Z   1
loop_
 _symmetry_equiv_pos_site_id
 _symmetry_equiv_pos_as_xyz
  1  'x, y, z'
loop_
 _atom_site_type_symbol
 _atom_site_label
 _atom_site_symmetry_multiplicity
 _atom_site_fract_x
 _atom_site_fract_y
 _atom_site_fract_z
 _atom_site_occupancy
  Dy  Dy0  1  0.000051  0.000051  0.000051  1
  Dy  Dy1  1  0.142437  0.142437  0.142437  1
  Er  Er2  1  0.857759  0.857759  0.857759  1
  Al  Al3  1  0.418068  0.418068  0.927094  1
  Al  Al4  1  0.927094  0.418068  0.418068  1
  Al  Al5  1  0.418068  0.927094  0.418068  1
  Al  Al6  1  0.500093  0.500093  0.500093  1
  Al  Al7  1  0.581880  0.072819  0.581880  1
  Al  Al8  1  0.072819  0.581880  0.581880  1
  Al  Al9  1  0.581880  0.581880  0.072819  1
  Cu  Cu10  1  0.664634  0.664634  0.664634  1
  Cu  Cu11  1  0.335215  0.335215  0.335215  1
