# generated using pymatgen
data_Tb8B24Os3Ru
_symmetry_space_group_name_H-M   'P 1'
_cell_length_a   3.67566500
_cell_length_b   9.19678520
_cell_length_c   11.57159655
_cell_angle_alpha   89.95961447
_cell_angle_beta   90.00000000
_cell_angle_gamma   90.00000000
_symmetry_Int_Tables_number   1
_chemical_formula_structural   Tb8B24Os3Ru
_chemical_formula_sum   'Tb8 B24 Os3 Ru1'
_cell_volume   391.16964129
_cell_formula_units_Z   1
loop_
 _symmetry_equiv_pos_site_id
 _symmetry_equiv_pos_as_xyz
  1  'x, y, z'
loop_
 _atom_site_type_symbol
 _atom_site_label
 _atom_site_symmetry_multiplicity
 _atom_site_fract_x
 _atom_site_fract_y
 _atom_site_fract_z
 _atom_site_occupancy
  Tb  Tb0  1  0.000000  0.322899  0.413748  1
  Tb  Tb1  1  0.000000  0.676827  0.586086  1
  Tb  Tb2  1  0.000000  0.823034  0.086317  1
  Tb  Tb3  1  0.000000  0.176977  0.913671  1
  Tb  Tb4  1  0.000000  0.943849  0.372942  1
  Tb  Tb5  1  0.000000  0.055970  0.627916  1
  Tb  Tb6  1  0.000000  0.443858  0.127080  1
  Tb  Tb7  1  0.000000  0.556918  0.872407  1
  B  B8  1  0.500000  0.554015  0.432920  1
  B  B9  1  0.500000  0.446054  0.567295  1
  B  B10  1  0.500000  0.053859  0.066973  1
  B  B11  1  0.500000  0.945844  0.932707  1
  B  B12  1  0.500000  0.747167  0.419743  1
  B  B13  1  0.500000  0.252903  0.580323  1
  B  B14  1  0.500000  0.247068  0.080239  1
  B  B15  1  0.500000  0.752969  0.919857  1
  B  B16  1  0.500000  0.790421  0.266845  1
  B  B17  1  0.500000  0.209556  0.733186  1
  B  B18  1  0.500000  0.290391  0.233158  1
  B  B19  1  0.500000  0.709739  0.766790  1
  B  B20  1  0.500000  0.632087  0.185908  1
  B  B21  1  0.500000  0.367942  0.814030  1
  B  B22  1  0.500000  0.132042  0.314064  1
  B  B23  1  0.500000  0.867779  0.685757  1
  B  B24  1  0.500000  0.983897  0.212818  1
  B  B25  1  0.500000  0.015907  0.787102  1
  B  B26  1  0.500000  0.483949  0.287235  1
  B  B27  1  0.500000  0.516156  0.712896  1
  B  B28  1  0.500000  0.609816  0.030414  1
  B  B29  1  0.500000  0.390354  0.969471  1
  B  B30  1  0.500000  0.109534  0.469660  1
  B  B31  1  0.500000  0.890241  0.530571  1
  Os  Os32  1  0.000000  0.637372  0.321667  1
  Os  Os33  1  0.000000  0.362690  0.678288  1
  Os  Os34  1  0.000000  0.137381  0.178480  1
  Ru  Ru35  1  0.000000  0.862535  0.821437  1
