# generated using pymatgen
data_Cu(Sb4Ru)3
_symmetry_space_group_name_H-M   'P 1'
_cell_length_a   8.11907395
_cell_length_b   8.11907570
_cell_length_c   8.11907521
_cell_angle_alpha   109.39673628
_cell_angle_beta   109.39674035
_cell_angle_gamma   109.39673674
_symmetry_Int_Tables_number   1
_chemical_formula_structural   Cu(Sb4Ru)3
_chemical_formula_sum   'Cu1 Sb12 Ru3'
_cell_volume   413.13276658
_cell_formula_units_Z   1
loop_
 _symmetry_equiv_pos_site_id
 _symmetry_equiv_pos_as_xyz
  1  'x, y, z'
loop_
 _atom_site_type_symbol
 _atom_site_label
 _atom_site_symmetry_multiplicity
 _atom_site_fract_x
 _atom_site_fract_y
 _atom_site_fract_z
 _atom_site_occupancy
  Cu  Cu0  1  0.500000  0.500000  0.500000  1
  Sb  Sb1  1  0.335275  0.842404  0.178092  1
  Sb  Sb2  1  0.664725  0.157596  0.821908  1
  Sb  Sb3  1  0.339639  0.151945  0.497775  1
  Sb  Sb4  1  0.660361  0.848055  0.502225  1
  Sb  Sb5  1  0.842404  0.178092  0.335275  1
  Sb  Sb6  1  0.157596  0.821908  0.664725  1
  Sb  Sb7  1  0.151945  0.497775  0.339639  1
  Sb  Sb8  1  0.848055  0.502225  0.660361  1
  Sb  Sb9  1  0.178092  0.335275  0.842404  1
  Sb  Sb10  1  0.821908  0.664725  0.157596  1
  Sb  Sb11  1  0.497775  0.339639  0.151945  1
  Sb  Sb12  1  0.502225  0.660361  0.848055  1
  Ru  Ru13  1  0.500000  0.000000  0.000000  1
  Ru  Ru14  1  0.000000  0.500000  0.000000  1
  Ru  Ru15  1  0.000000  0.000000  0.500000  1
