# generated using pymatgen
data_Er2Lu2Si4TcRh3
_symmetry_space_group_name_H-M   'P 1'
_cell_length_a   4.24208700
_cell_length_b   6.85434455
_cell_length_c   7.27748177
_cell_angle_alpha   90.02301159
_cell_angle_beta   90.00000000
_cell_angle_gamma   90.00000000
_symmetry_Int_Tables_number   1
_chemical_formula_structural   Er2Lu2Si4TcRh3
_chemical_formula_sum   'Er2 Lu2 Si4 Tc1 Rh3'
_cell_volume   211.60532566
_cell_formula_units_Z   1
loop_
 _symmetry_equiv_pos_site_id
 _symmetry_equiv_pos_as_xyz
  1  'x, y, z'
loop_
 _atom_site_type_symbol
 _atom_site_label
 _atom_site_symmetry_multiplicity
 _atom_site_fract_x
 _atom_site_fract_y
 _atom_site_fract_z
 _atom_site_occupancy
  Er  Er0  1  0.750000  0.999751  0.186017  1
  Er  Er1  1  0.750000  0.505924  0.311429  1
  Lu  Lu2  1  0.250000  0.000523  0.810777  1
  Lu  Lu3  1  0.250000  0.496150  0.691941  1
  Si  Si4  1  0.250000  0.296416  0.108189  1
  Si  Si5  1  0.750000  0.703069  0.884736  1
  Si  Si6  1  0.250000  0.796189  0.401233  1
  Si  Si7  1  0.750000  0.202622  0.607192  1
  Tc  Tc8  1  0.750000  0.844563  0.568003  1
  Rh  Rh9  1  0.250000  0.158316  0.435097  1
  Rh  Rh10  1  0.750000  0.342066  0.932855  1
  Rh  Rh11  1  0.250000  0.654412  0.062530  1
