# generated using pymatgen
data_K2MnH9
_symmetry_space_group_name_H-M   'P 1'
_cell_length_a   9.27074700
_cell_length_b   9.27074639
_cell_length_c   5.38740500
_cell_angle_alpha   90.00000000
_cell_angle_beta   90.00000000
_cell_angle_gamma   119.99999860
_symmetry_Int_Tables_number   1
_chemical_formula_structural   K2MnH9
_chemical_formula_sum   'K6 Mn3 H27'
_cell_volume   400.99567904
_cell_formula_units_Z   3
loop_
 _symmetry_equiv_pos_site_id
 _symmetry_equiv_pos_as_xyz
  1  'x, y, z'
loop_
 _atom_site_type_symbol
 _atom_site_label
 _atom_site_symmetry_multiplicity
 _atom_site_fract_x
 _atom_site_fract_y
 _atom_site_fract_z
 _atom_site_occupancy
  K  K0  1  0.262522  0.000000  0.500000  1
  K  K1  1  0.000000  0.262522  0.500000  1
  K  K2  1  0.737478  0.737478  0.500000  1
  K  K3  1  0.590876  0.000000  0.000000  1
  K  K4  1  0.000000  0.590876  0.000000  1
  K  K5  1  0.409124  0.409124  0.000000  1
  Mn  Mn6  1  0.000000  0.000000  0.000000  1
  Mn  Mn7  1  0.333333  0.666667  0.500000  1
  Mn  Mn8  1  0.666667  0.333333  0.500000  1
  H  H9  1  0.879362  0.000000  0.199837  1
  H  H10  1  0.000000  0.879362  0.199837  1
  H  H11  1  0.879362  0.000000  0.800163  1
  H  H12  1  0.000000  0.879362  0.800163  1
  H  H13  1  0.120638  0.120638  0.199837  1
  H  H14  1  0.120638  0.120638  0.800163  1
  H  H15  1  0.165546  0.000000  0.000000  1
  H  H16  1  0.000000  0.165546  0.000000  1
  H  H17  1  0.834454  0.834454  0.000000  1
  H  H18  1  0.230555  0.539328  0.292489  1
  H  H19  1  0.460672  0.691227  0.292489  1
  H  H20  1  0.230555  0.539328  0.707511  1
  H  H21  1  0.539328  0.230555  0.707511  1
  H  H22  1  0.308773  0.769445  0.292489  1
  H  H23  1  0.460672  0.691227  0.707511  1
  H  H24  1  0.691227  0.460672  0.707511  1
  H  H25  1  0.539328  0.230555  0.292489  1
  H  H26  1  0.308773  0.769445  0.707511  1
  H  H27  1  0.691227  0.460672  0.292489  1
  H  H28  1  0.769445  0.308773  0.707511  1
  H  H29  1  0.769445  0.308773  0.292489  1
  H  H30  1  0.366957  0.520307  0.500000  1
  H  H31  1  0.479693  0.846649  0.500000  1
  H  H32  1  0.520307  0.366957  0.500000  1
  H  H33  1  0.153351  0.633043  0.500000  1
  H  H34  1  0.846649  0.479693  0.500000  1
  H  H35  1  0.633043  0.153351  0.500000  1
