# generated using pymatgen
data_Ce2YUF15
_symmetry_space_group_name_H-M   'P 1'
_cell_length_a   7.72970087
_cell_length_b   7.72970023
_cell_length_c   7.84327400
_cell_angle_alpha   113.23197278
_cell_angle_beta   113.23197075
_cell_angle_gamma   112.20920640
_symmetry_Int_Tables_number   1
_chemical_formula_structural   Ce2YUF15
_chemical_formula_sum   'Ce2 Y1 U1 F15'
_cell_volume   306.69106401
_cell_formula_units_Z   1
loop_
 _symmetry_equiv_pos_site_id
 _symmetry_equiv_pos_as_xyz
  1  'x, y, z'
loop_
 _atom_site_type_symbol
 _atom_site_label
 _atom_site_symmetry_multiplicity
 _atom_site_fract_x
 _atom_site_fract_y
 _atom_site_fract_z
 _atom_site_occupancy
  Ce  Ce0  1  0.849494  0.272103  0.852110  1
  Ce  Ce1  1  0.272103  0.849494  0.852110  1
  Y  Y2  1  0.485457  0.485457  0.492199  1
  U  U3  1  0.853685  0.853685  0.279468  1
  F  F4  1  0.622410  0.947782  0.166526  1
  F  F5  1  0.947339  0.147534  0.604307  1
  F  F6  1  0.147074  0.609310  0.942320  1
  F  F7  1  0.947782  0.622410  0.166526  1
  F  F8  1  0.583905  0.583905  0.228005  1
  F  F9  1  0.269481  0.586448  0.601205  1
  F  F10  1  0.586448  0.269481  0.601205  1
  F  F11  1  0.134169  0.134169  0.344074  1
  F  F12  1  0.373136  0.162385  0.162497  1
  F  F13  1  0.162385  0.373136  0.162497  1
  F  F14  1  0.670282  0.670282  0.899005  1
  F  F15  1  0.870139  0.655035  0.643243  1
  F  F16  1  0.655035  0.870139  0.643243  1
  F  F17  1  0.147534  0.947339  0.604307  1
  F  F18  1  0.609310  0.147074  0.942320  1
