# generated using pymatgen
data_TbDy5(Er2Sb3)2
_symmetry_space_group_name_H-M   'P 1'
_cell_length_a   8.97312100
_cell_length_b   8.97539785
_cell_length_c   6.26399900
_cell_angle_alpha   90.00000000
_cell_angle_beta   90.00000000
_cell_angle_gamma   119.99160509
_symmetry_Int_Tables_number   1
_chemical_formula_structural   TbDy5(Er2Sb3)2
_chemical_formula_sum   'Tb1 Dy5 Er4 Sb6'
_cell_volume   436.93443823
_cell_formula_units_Z   1
loop_
 _symmetry_equiv_pos_site_id
 _symmetry_equiv_pos_as_xyz
  1  'x, y, z'
loop_
 _atom_site_type_symbol
 _atom_site_label
 _atom_site_symmetry_multiplicity
 _atom_site_fract_x
 _atom_site_fract_y
 _atom_site_fract_z
 _atom_site_occupancy
  Tb  Tb0  1  0.247397  0.000000  0.250000  1
  Dy  Dy1  1  0.999963  0.752570  0.750000  1
  Dy  Dy2  1  0.000017  0.247429  0.250000  1
  Dy  Dy3  1  0.752587  0.752571  0.250000  1
  Dy  Dy4  1  0.752641  0.000000  0.750000  1
  Dy  Dy5  1  0.247393  0.247430  0.750000  1
  Er  Er6  1  0.333326  0.666669  0.499957  1
  Er  Er7  1  0.666658  0.333331  0.000043  1
  Er  Er8  1  0.666658  0.333331  0.499957  1
  Er  Er9  1  0.333326  0.666669  0.000043  1
  Sb  Sb10  1  0.389253  0.000000  0.750000  1
  Sb  Sb11  1  0.389251  0.389372  0.250000  1
  Sb  Sb12  1  0.999879  0.610628  0.250000  1
  Sb  Sb13  1  0.000006  0.389230  0.750000  1
  Sb  Sb14  1  0.610777  0.610770  0.750000  1
  Sb  Sb15  1  0.610868  0.000000  0.250000  1
