# generated using pymatgen
data_TmFe2P3Ir2W
_symmetry_space_group_name_H-M   'P 1'
_cell_length_a   3.83165000
_cell_length_b   10.54347100
_cell_length_c   12.31666500
_cell_angle_alpha   90.00000000
_cell_angle_beta   90.00000000
_cell_angle_gamma   90.00000000
_symmetry_Int_Tables_number   1
_chemical_formula_structural   TmFe2P3Ir2W
_chemical_formula_sum   'Tm4 Fe8 P12 Ir8 W4'
_cell_volume   497.57960260
_cell_formula_units_Z   4
loop_
 _symmetry_equiv_pos_site_id
 _symmetry_equiv_pos_as_xyz
  1  'x, y, z'
loop_
 _atom_site_type_symbol
 _atom_site_label
 _atom_site_symmetry_multiplicity
 _atom_site_fract_x
 _atom_site_fract_y
 _atom_site_fract_z
 _atom_site_occupancy
  Tm  Tm0  1  0.250000  0.581025  0.712295  1
  Tm  Tm1  1  0.250000  0.918975  0.212295  1
  Tm  Tm2  1  0.750000  0.418975  0.287705  1
  Tm  Tm3  1  0.750000  0.081025  0.787705  1
  Fe  Fe4  1  0.250000  0.882736  0.695195  1
  Fe  Fe5  1  0.250000  0.617264  0.195195  1
  Fe  Fe6  1  0.750000  0.117264  0.304805  1
  Fe  Fe7  1  0.750000  0.382736  0.804805  1
  Fe  Fe8  1  0.250000  0.461980  0.937675  1
  Fe  Fe9  1  0.250000  0.038020  0.437675  1
  Fe  Fe10  1  0.750000  0.538020  0.062325  1
  Fe  Fe11  1  0.750000  0.961980  0.562325  1
  P  P12  1  0.250000  0.432942  0.112525  1
  P  P13  1  0.250000  0.067058  0.612525  1
  P  P14  1  0.750000  0.567058  0.887475  1
  P  P15  1  0.750000  0.932942  0.387475  1
  P  P16  1  0.250000  0.273347  0.865805  1
  P  P17  1  0.250000  0.226653  0.365805  1
  P  P18  1  0.750000  0.726653  0.134195  1
  P  P19  1  0.750000  0.773347  0.634195  1
  P  P20  1  0.250000  0.598093  0.379707  1
  P  P21  1  0.250000  0.901907  0.879707  1
  P  P22  1  0.750000  0.401907  0.620293  1
  P  P23  1  0.750000  0.098093  0.120293  1
  Ir  Ir24  1  0.250000  0.405284  0.475869  1
  Ir  Ir25  1  0.250000  0.094716  0.975869  1
  Ir  Ir26  1  0.750000  0.594716  0.524131  1
  Ir  Ir27  1  0.750000  0.905284  0.024131  1
  Ir  Ir28  1  0.250000  0.225706  0.177970  1
  Ir  Ir29  1  0.250000  0.274294  0.677970  1
  Ir  Ir30  1  0.750000  0.774294  0.822030  1
  Ir  Ir31  1  0.750000  0.725706  0.322030  1
  W  W32  1  0.250000  0.701815  0.990422  1
  W  W33  1  0.250000  0.798185  0.490422  1
  W  W34  1  0.750000  0.298185  0.009578  1
  W  W35  1  0.750000  0.201815  0.509578  1
