# generated using pymatgen
data_Cs12Mn3MoS16
_symmetry_space_group_name_H-M   'P 1'
_cell_length_a   9.84049506
_cell_length_b   9.83698329
_cell_length_c   11.85204200
_cell_angle_alpha   90.00000000
_cell_angle_beta   90.00000000
_cell_angle_gamma   90.24328233
_symmetry_Int_Tables_number   1
_chemical_formula_structural   Cs12Mn3MoS16
_chemical_formula_sum   'Cs12 Mn3 Mo1 S16'
_cell_volume   1147.27663230
_cell_formula_units_Z   1
loop_
 _symmetry_equiv_pos_site_id
 _symmetry_equiv_pos_as_xyz
  1  'x, y, z'
loop_
 _atom_site_type_symbol
 _atom_site_label
 _atom_site_symmetry_multiplicity
 _atom_site_fract_x
 _atom_site_fract_y
 _atom_site_fract_z
 _atom_site_occupancy
  Cs  Cs0  1  0.410774  0.850676  0.750000  1
  Cs  Cs1  1  0.592174  0.153573  0.250000  1
  Cs  Cs2  1  0.097481  0.343830  0.750000  1
  Cs  Cs3  1  0.702788  0.534110  0.960617  1
  Cs  Cs4  1  0.294351  0.457458  0.046391  1
  Cs  Cs5  1  0.907165  0.652088  0.250000  1
  Cs  Cs6  1  0.212292  0.962889  0.047599  1
  Cs  Cs7  1  0.294351  0.457458  0.453609  1
  Cs  Cs8  1  0.212292  0.962889  0.452401  1
  Cs  Cs9  1  0.702788  0.534110  0.539383  1
  Cs  Cs10  1  0.786293  0.046893  0.538231  1
  Cs  Cs11  1  0.786293  0.046893  0.961769  1
  Mn  Mn12  1  0.518894  0.275210  0.750000  1
  Mn  Mn13  1  0.017907  0.225465  0.250000  1
  Mn  Mn14  1  0.482230  0.725551  0.250000  1
  Mo  Mo15  1  0.981429  0.773996  0.750000  1
  S  S16  1  0.562376  0.524072  0.250000  1
  S  S17  1  0.065404  0.985138  0.750000  1
  S  S18  1  0.454078  0.173234  0.899488  1
  S  S19  1  0.048517  0.666767  0.594655  1
  S  S20  1  0.438327  0.476741  0.750000  1
  S  S21  1  0.953499  0.327202  0.101107  1
  S  S22  1  0.546471  0.826804  0.399422  1
  S  S23  1  0.755692  0.784207  0.750000  1
  S  S24  1  0.048517  0.666767  0.905345  1
  S  S25  1  0.266259  0.714884  0.250000  1
  S  S26  1  0.546471  0.826804  0.100578  1
  S  S27  1  0.234086  0.214292  0.250000  1
  S  S28  1  0.735670  0.285520  0.750000  1
  S  S29  1  0.454078  0.173234  0.600512  1
  S  S30  1  0.937553  0.024046  0.250000  1
  S  S31  1  0.953499  0.327202  0.398893  1
