# generated using pymatgen
data_Pr2Y3P12Ru9Rh10
_symmetry_space_group_name_H-M   'P 1'
_cell_length_a   12.67447900
_cell_length_b   12.66551539
_cell_length_c   3.97205600
_cell_angle_alpha   90.00000000
_cell_angle_beta   90.00000000
_cell_angle_gamma   120.02341649
_symmetry_Int_Tables_number   1
_chemical_formula_structural   Pr2Y3P12Ru9Rh10
_chemical_formula_sum   'Pr2 Y3 P12 Ru9 Rh10'
_cell_volume   552.07293049
_cell_formula_units_Z   1
loop_
 _symmetry_equiv_pos_site_id
 _symmetry_equiv_pos_as_xyz
  1  'x, y, z'
loop_
 _atom_site_type_symbol
 _atom_site_label
 _atom_site_symmetry_multiplicity
 _atom_site_fract_x
 _atom_site_fract_y
 _atom_site_fract_z
 _atom_site_occupancy
  Pr  Pr0  1  0.999911  0.814323  0.500000  1
  Pr  Pr1  1  0.185587  0.185677  0.500000  1
  Y  Y2  1  0.813166  0.000000  0.500000  1
  Y  Y3  1  0.333515  0.666172  0.000000  1
  Y  Y4  1  0.667344  0.333828  0.000000  1
  P  P5  1  0.185910  0.000000  0.000000  1
  P  P6  1  0.997549  0.183185  0.000000  1
  P  P7  1  0.814363  0.816815  0.000000  1
  P  P8  1  0.516224  0.689521  0.500000  1
  P  P9  1  0.310797  0.826173  0.500000  1
  P  P10  1  0.172607  0.482454  0.500000  1
  P  P11  1  0.484625  0.173827  0.500000  1
  P  P12  1  0.690153  0.517546  0.500000  1
  P  P13  1  0.826703  0.310479  0.500000  1
  P  P14  1  0.629810  0.000000  0.000000  1
  P  P15  1  0.999834  0.627711  0.000000  1
  P  P16  1  0.372123  0.372289  0.000000  1
  Ru  Ru17  1  0.289192  0.000000  0.500000  1
  Ru  Ru18  1  0.998103  0.286048  0.500000  1
  Ru  Ru19  1  0.712056  0.713952  0.500000  1
  Ru  Ru20  1  0.511185  0.873158  0.500000  1
  Ru  Ru21  1  0.126914  0.636570  0.500000  1
  Ru  Ru22  1  0.362247  0.489015  0.500000  1
  Ru  Ru23  1  0.490344  0.363430  0.500000  1
  Ru  Ru24  1  0.873232  0.510985  0.500000  1
  Ru  Ru25  1  0.638027  0.126842  0.500000  1
  Rh  Rh26  1  0.450369  0.000000  0.000000  1
  Rh  Rh27  1  0.998631  0.447956  0.000000  1
  Rh  Rh28  1  0.550675  0.552044  0.000000  1
  Rh  Rh29  1  0.623897  0.807708  0.000000  1
  Rh  Rh30  1  0.196326  0.816934  0.000000  1
  Rh  Rh31  1  0.181599  0.378252  0.000000  1
  Rh  Rh32  1  0.379392  0.183066  0.000000  1
  Rh  Rh33  1  0.803347  0.621748  0.000000  1
  Rh  Rh34  1  0.816189  0.192292  0.000000  1
  Rh  Rh35  1  0.998055  0.000000  0.000000  1
