# generated using pymatgen
data_KBa6U2TlSe12
_symmetry_space_group_name_H-M   'P 1'
_cell_length_a   9.03689586
_cell_length_b   9.03689669
_cell_length_c   9.03689787
_cell_angle_alpha   88.93308567
_cell_angle_beta   88.93307589
_cell_angle_gamma   88.93310080
_symmetry_Int_Tables_number   1
_chemical_formula_structural   KBa6U2TlSe12
_chemical_formula_sum   'K1 Ba6 U2 Tl1 Se12'
_cell_volume   737.62359307
_cell_formula_units_Z   1
loop_
 _symmetry_equiv_pos_site_id
 _symmetry_equiv_pos_as_xyz
  1  'x, y, z'
loop_
 _atom_site_type_symbol
 _atom_site_label
 _atom_site_symmetry_multiplicity
 _atom_site_fract_x
 _atom_site_fract_y
 _atom_site_fract_z
 _atom_site_occupancy
  K  K0  1  0.750000  0.750000  0.750000  1
  Ba  Ba1  1  0.877737  0.622263  0.250000  1
  Ba  Ba2  1  0.250000  0.877737  0.622263  1
  Ba  Ba3  1  0.622263  0.250000  0.877737  1
  Ba  Ba4  1  0.750000  0.123122  0.376878  1
  Ba  Ba5  1  0.376878  0.750000  0.123122  1
  Ba  Ba6  1  0.123122  0.376878  0.750000  1
  U  U7  1  0.500697  0.500697  0.500697  1
  U  U8  1  0.999303  0.999303  0.999303  1
  Tl  Tl9  1  0.250000  0.250000  0.250000  1
  Se  Se10  1  0.208198  0.563840  0.428386  1
  Se  Se11  1  0.428386  0.208198  0.563840  1
  Se  Se12  1  0.563840  0.428386  0.208198  1
  Se  Se13  1  0.927884  0.063607  0.708078  1
  Se  Se14  1  0.708078  0.927884  0.063607  1
  Se  Se15  1  0.063607  0.708078  0.927884  1
  Se  Se16  1  0.791922  0.436393  0.572116  1
  Se  Se17  1  0.572116  0.791922  0.436393  1
  Se  Se18  1  0.436393  0.572116  0.791922  1
  Se  Se19  1  0.071614  0.936160  0.291802  1
  Se  Se20  1  0.291802  0.071614  0.936160  1
  Se  Se21  1  0.936160  0.291802  0.071614  1
