# generated using pymatgen
data_TbPuTc2F14
_symmetry_space_group_name_H-M   'P 1'
_cell_length_a   5.73675000
_cell_length_b   9.12803348
_cell_length_c   12.30478500
_cell_angle_alpha   62.58148934
_cell_angle_beta   90.00000000
_cell_angle_gamma   90.00000000
_symmetry_Int_Tables_number   1
_chemical_formula_structural   TbPuTc2F14
_chemical_formula_sum   'Tb2 Pu2 Tc4 F28'
_cell_volume   571.96188302
_cell_formula_units_Z   2
loop_
 _symmetry_equiv_pos_site_id
 _symmetry_equiv_pos_as_xyz
  1  'x, y, z'
loop_
 _atom_site_type_symbol
 _atom_site_label
 _atom_site_symmetry_multiplicity
 _atom_site_fract_x
 _atom_site_fract_y
 _atom_site_fract_z
 _atom_site_occupancy
  Tb  Tb0  1  0.757590  0.814749  0.764616  1
  Tb  Tb1  1  0.257590  0.185251  0.735384  1
  Pu  Pu2  1  0.242486  0.191014  0.235878  1
  Pu  Pu3  1  0.742486  0.808986  0.264122  1
  Tc  Tc4  1  0.758498  0.276299  0.951504  1
  Tc  Tc5  1  0.258498  0.723701  0.548496  1
  Tc  Tc6  1  0.243625  0.730441  0.036642  1
  Tc  Tc7  1  0.743625  0.269559  0.463358  1
  F  F8  1  0.453068  0.710239  0.917347  1
  F  F9  1  0.953068  0.289761  0.582653  1
  F  F10  1  0.552705  0.292441  0.073581  1
  F  F11  1  0.052705  0.707559  0.426419  1
  F  F12  1  0.460645  0.278181  0.553484  1
  F  F13  1  0.960645  0.721819  0.946516  1
  F  F14  1  0.539184  0.715450  0.458147  1
  F  F15  1  0.039184  0.284550  0.041853  1
  F  F16  1  0.766088  0.518555  0.855895  1
  F  F17  1  0.266088  0.481445  0.644105  1
  F  F18  1  0.228893  0.487154  0.135723  1
  F  F19  1  0.728893  0.512846  0.364277  1
  F  F20  1  0.756498  0.034445  0.049878  1
  F  F21  1  0.256498  0.965555  0.450122  1
  F  F22  1  0.242612  0.972544  0.942752  1
  F  F23  1  0.742612  0.027456  0.557248  1
  F  F24  1  0.989318  0.733242  0.644943  1
  F  F25  1  0.489318  0.266758  0.855057  1
  F  F26  1  0.016248  0.264867  0.366593  1
  F  F27  1  0.516248  0.735133  0.133407  1
  F  F28  1  0.045210  0.746100  0.163727  1
  F  F29  1  0.545210  0.253900  0.336273  1
  F  F30  1  0.962899  0.254744  0.829834  1
  F  F31  1  0.462899  0.745256  0.670166  1
  F  F32  1  0.417136  0.967898  0.235723  1
  F  F33  1  0.917136  0.032102  0.264277  1
  F  F34  1  0.567301  0.022735  0.766009  1
  F  F35  1  0.067301  0.977265  0.733991  1
