# generated using pymatgen
data_Tm5Lu11Cd3AgIr4
_symmetry_space_group_name_H-M   'P 1'
_cell_length_a   9.47385885
_cell_length_b   9.46877245
_cell_length_c   9.46877133
_cell_angle_alpha   59.50064748
_cell_angle_beta   59.50443594
_cell_angle_gamma   59.50443810
_symmetry_Int_Tables_number   1
_chemical_formula_structural   Tm5Lu11Cd3AgIr4
_chemical_formula_sum   'Tm5 Lu11 Cd3 Ag1 Ir4'
_cell_volume   593.83284945
_cell_formula_units_Z   1
loop_
 _symmetry_equiv_pos_site_id
 _symmetry_equiv_pos_as_xyz
  1  'x, y, z'
loop_
 _atom_site_type_symbol
 _atom_site_label
 _atom_site_symmetry_multiplicity
 _atom_site_fract_x
 _atom_site_fract_y
 _atom_site_fract_z
 _atom_site_occupancy
  Tm  Tm0  1  0.811466  0.187024  0.187024  1
  Tm  Tm1  1  0.811116  0.186819  0.810834  1
  Tm  Tm2  1  0.186913  0.811562  0.186681  1
  Tm  Tm3  1  0.811116  0.810834  0.186819  1
  Tm  Tm4  1  0.186913  0.186681  0.811562  1
  Lu  Lu5  1  0.599919  0.600010  0.600010  1
  Lu  Lu6  1  0.600054  0.600235  0.202406  1
  Lu  Lu7  1  0.600054  0.202406  0.600235  1
  Lu  Lu8  1  0.202040  0.600450  0.600450  1
  Lu  Lu9  1  0.060159  0.438992  0.438992  1
  Lu  Lu10  1  0.437278  0.060043  0.060043  1
  Lu  Lu11  1  0.438894  0.060039  0.439167  1
  Lu  Lu12  1  0.060222  0.437332  0.059944  1
  Lu  Lu13  1  0.438894  0.439167  0.060039  1
  Lu  Lu14  1  0.060222  0.059944  0.437332  1
  Lu  Lu15  1  0.187292  0.810792  0.810792  1
  Cd  Cd16  1  0.831327  0.831259  0.508313  1
  Cd  Cd17  1  0.831327  0.508313  0.831259  1
  Cd  Cd18  1  0.508122  0.831342  0.831342  1
  Ag  Ag19  1  0.833294  0.833002  0.833002  1
  Ir  Ir20  1  0.392158  0.392243  0.392243  1
  Ir  Ir21  1  0.392991  0.393359  0.825071  1
  Ir  Ir22  1  0.392991  0.825071  0.393359  1
  Ir  Ir23  1  0.825232  0.393076  0.393076  1
