# generated using pymatgen
data_Hf6Al8Si8Os7
_symmetry_space_group_name_H-M   'P 1'
_cell_length_a   8.58112503
_cell_length_b   8.58114361
_cell_length_c   8.58110200
_cell_angle_alpha   60.00014425
_cell_angle_beta   60.00030355
_cell_angle_gamma   59.99998675
_symmetry_Int_Tables_number   1
_chemical_formula_structural   Hf6Al8Si8Os7
_chemical_formula_sum   'Hf6 Al8 Si8 Os7'
_cell_volume   446.80589347
_cell_formula_units_Z   1
loop_
 _symmetry_equiv_pos_site_id
 _symmetry_equiv_pos_as_xyz
  1  'x, y, z'
loop_
 _atom_site_type_symbol
 _atom_site_label
 _atom_site_symmetry_multiplicity
 _atom_site_fract_x
 _atom_site_fract_y
 _atom_site_fract_z
 _atom_site_occupancy
  Hf  Hf0  1  0.190942  0.809058  0.809057  1
  Hf  Hf1  1  0.809058  0.190942  0.190943  1
  Hf  Hf2  1  0.809058  0.190942  0.809058  1
  Hf  Hf3  1  0.809057  0.809057  0.190943  1
  Hf  Hf4  1  0.190942  0.809058  0.190942  1
  Hf  Hf5  1  0.190943  0.190943  0.809057  1
  Al  Al6  1  0.622451  0.622453  0.622451  1
  Al  Al7  1  0.622452  0.622453  0.132645  1
  Al  Al8  1  0.132646  0.622451  0.622452  1
  Al  Al9  1  0.622451  0.132645  0.622452  1
  Al  Al10  1  0.377549  0.377547  0.377549  1
  Al  Al11  1  0.377548  0.377547  0.867355  1
  Al  Al12  1  0.377549  0.867355  0.377548  1
  Al  Al13  1  0.867354  0.377549  0.377548  1
  Si  Si14  1  0.845124  0.845124  0.845126  1
  Si  Si15  1  0.845123  0.845126  0.464626  1
  Si  Si16  1  0.464626  0.845127  0.845123  1
  Si  Si17  1  0.845126  0.464626  0.845125  1
  Si  Si18  1  0.154876  0.154876  0.154874  1
  Si  Si19  1  0.154877  0.154874  0.535374  1
  Si  Si20  1  0.154874  0.535374  0.154875  1
  Si  Si21  1  0.535374  0.154873  0.154877  1
  Os  Os22  1  0.500000  0.500000  0.500000  1
  Os  Os23  1  0.000000  0.500000  0.500000  1
  Os  Os24  1  0.500000  0.000000  0.000000  1
  Os  Os25  1  0.500000  0.000000  0.500000  1
  Os  Os26  1  0.500000  0.500000  0.000000  1
  Os  Os27  1  0.000000  0.500000  0.000000  1
  Os  Os28  1  0.000000  0.000000  0.500000  1
