# generated using pymatgen
data_Dy2Ho3Lu(Co3P2)6
_symmetry_space_group_name_H-M   'P 1'
_cell_length_a   3.68758800
_cell_length_b   10.49832608
_cell_length_c   12.15073109
_cell_angle_alpha   90.01437965
_cell_angle_beta   90.00000000
_cell_angle_gamma   90.00000000
_symmetry_Int_Tables_number   1
_chemical_formula_structural   Dy2Ho3Lu(Co3P2)6
_chemical_formula_sum   'Dy2 Ho3 Lu1 Co18 P12'
_cell_volume   470.39732904
_cell_formula_units_Z   1
loop_
 _symmetry_equiv_pos_site_id
 _symmetry_equiv_pos_as_xyz
  1  'x, y, z'
loop_
 _atom_site_type_symbol
 _atom_site_label
 _atom_site_symmetry_multiplicity
 _atom_site_fract_x
 _atom_site_fract_y
 _atom_site_fract_z
 _atom_site_occupancy
  Dy  Dy0  1  0.000000  0.500075  0.521894  1
  Dy  Dy1  1  0.500000  0.999785  0.477539  1
  Ho  Ho2  1  0.500000  0.182116  0.205890  1
  Ho  Ho3  1  0.000000  0.682678  0.794005  1
  Ho  Ho4  1  0.000000  0.317486  0.794519  1
  Lu  Lu5  1  0.500000  0.817618  0.205912  1
  Co  Co6  1  0.500000  0.500105  0.159171  1
  Co  Co7  1  0.000000  0.999618  0.840824  1
  Co  Co8  1  0.500000  0.500304  0.703995  1
  Co  Co9  1  0.000000  0.998731  0.295683  1
  Co  Co10  1  0.000000  0.500679  0.987014  1
  Co  Co11  1  0.500000  0.999324  0.014463  1
  Co  Co12  1  0.500000  0.333303  0.995046  1
  Co  Co13  1  0.500000  0.667469  0.995619  1
  Co  Co14  1  0.000000  0.166191  0.005520  1
  Co  Co15  1  0.000000  0.833189  0.005945  1
  Co  Co16  1  0.500000  0.297197  0.430420  1
  Co  Co17  1  0.500000  0.702791  0.429344  1
  Co  Co18  1  0.000000  0.202484  0.569562  1
  Co  Co19  1  0.000000  0.797391  0.568776  1
  Co  Co20  1  0.500000  0.879162  0.709577  1
  Co  Co21  1  0.500000  0.120913  0.710051  1
  Co  Co22  1  0.000000  0.621876  0.289245  1
  Co  Co23  1  0.000000  0.379263  0.290166  1
  P  P24  1  0.500000  0.500405  0.883238  1
  P  P25  1  0.000000  0.998884  0.117870  1
  P  P26  1  0.500000  0.499885  0.343881  1
  P  P27  1  0.000000  0.000044  0.655793  1
  P  P28  1  0.500000  0.310693  0.616296  1
  P  P29  1  0.500000  0.689607  0.615661  1
  P  P30  1  0.000000  0.189001  0.383693  1
  P  P31  1  0.000000  0.810622  0.382257  1
  P  P32  1  0.500000  0.847437  0.892784  1
  P  P33  1  0.500000  0.152377  0.893331  1
  P  P34  1  0.000000  0.654198  0.107857  1
  P  P35  1  0.000000  0.347098  0.107158  1
