# generated using pymatgen
data_Dy8Re2B24IrRu
_symmetry_space_group_name_H-M   'P 1'
_cell_length_a   3.67773900
_cell_length_b   9.16498487
_cell_length_c   11.55416909
_cell_angle_alpha   90.28962138
_cell_angle_beta   90.00000000
_cell_angle_gamma   90.00000000
_symmetry_Int_Tables_number   1
_chemical_formula_structural   Dy8Re2B24IrRu
_chemical_formula_sum   'Dy8 Re2 B24 Ir1 Ru1'
_cell_volume   389.44472727
_cell_formula_units_Z   1
loop_
 _symmetry_equiv_pos_site_id
 _symmetry_equiv_pos_as_xyz
  1  'x, y, z'
loop_
 _atom_site_type_symbol
 _atom_site_label
 _atom_site_symmetry_multiplicity
 _atom_site_fract_x
 _atom_site_fract_y
 _atom_site_fract_z
 _atom_site_occupancy
  Dy  Dy0  1  0.000000  0.317988  0.413816  1
  Dy  Dy1  1  0.000000  0.679703  0.590520  1
  Dy  Dy2  1  0.000000  0.826658  0.081714  1
  Dy  Dy3  1  0.000000  0.175413  0.915089  1
  Dy  Dy4  1  0.000000  0.945026  0.371531  1
  Dy  Dy5  1  0.000000  0.056519  0.628733  1
  Dy  Dy6  1  0.000000  0.441439  0.126578  1
  Dy  Dy7  1  0.000000  0.556444  0.872072  1
  Re  Re8  1  0.000000  0.137853  0.179619  1
  Re  Re9  1  0.000000  0.862007  0.820512  1
  B  B10  1  0.500000  0.554090  0.434081  1
  B  B11  1  0.500000  0.446049  0.566758  1
  B  B12  1  0.500000  0.052914  0.067150  1
  B  B13  1  0.500000  0.947087  0.932544  1
  B  B14  1  0.500000  0.748946  0.420914  1
  B  B15  1  0.500000  0.252017  0.580455  1
  B  B16  1  0.500000  0.248020  0.081129  1
  B  B17  1  0.500000  0.752003  0.918717  1
  B  B18  1  0.500000  0.790581  0.266303  1
  B  B19  1  0.500000  0.210053  0.733249  1
  B  B20  1  0.500000  0.291695  0.234511  1
  B  B21  1  0.500000  0.708238  0.765910  1
  B  B22  1  0.500000  0.631659  0.184165  1
  B  B23  1  0.500000  0.368835  0.813953  1
  B  B24  1  0.500000  0.131757  0.314911  1
  B  B25  1  0.500000  0.868183  0.685528  1
  B  B26  1  0.500000  0.983082  0.212532  1
  B  B27  1  0.500000  0.017144  0.787259  1
  B  B28  1  0.500000  0.483128  0.287503  1
  B  B29  1  0.500000  0.516487  0.712083  1
  B  B30  1  0.500000  0.606506  0.029839  1
  B  B31  1  0.500000  0.393792  0.970376  1
  B  B32  1  0.500000  0.106880  0.470539  1
  B  B33  1  0.500000  0.892227  0.529407  1
  Ir  Ir34  1  0.000000  0.636982  0.322025  1
  Ru  Ru35  1  0.000000  0.362593  0.677978  1
