# generated using pymatgen
data_Be4VW
_symmetry_space_group_name_H-M   'P 1'
_cell_length_a   4.41621500
_cell_length_b   4.41621492
_cell_length_c   7.18333800
_cell_angle_alpha   90.00000000
_cell_angle_beta   90.00000000
_cell_angle_gamma   120.00000807
_symmetry_Int_Tables_number   1
_chemical_formula_structural   Be4VW
_chemical_formula_sum   'Be8 V2 W2'
_cell_volume   121.32695769
_cell_formula_units_Z   2
loop_
 _symmetry_equiv_pos_site_id
 _symmetry_equiv_pos_as_xyz
  1  'x, y, z'
loop_
 _atom_site_type_symbol
 _atom_site_label
 _atom_site_symmetry_multiplicity
 _atom_site_fract_x
 _atom_site_fract_y
 _atom_site_fract_z
 _atom_site_occupancy
  Be  Be0  1  0.000000  0.000000  0.001079  1
  Be  Be1  1  0.000000  0.000000  0.501079  1
  Be  Be2  1  0.829076  0.658153  0.249760  1
  Be  Be3  1  0.170924  0.829076  0.749760  1
  Be  Be4  1  0.658153  0.829076  0.749760  1
  Be  Be5  1  0.341847  0.170924  0.249760  1
  Be  Be6  1  0.829076  0.170924  0.249760  1
  Be  Be7  1  0.170924  0.341847  0.749760  1
  V  V8  1  0.666667  0.333333  0.935166  1
  V  V9  1  0.333333  0.666667  0.435166  1
  W  W10  1  0.333333  0.666667  0.064475  1
  W  W11  1  0.666667  0.333333  0.564475  1
