# generated using pymatgen
data_Li6Eu(PaN3)2
_symmetry_space_group_name_H-M   'P 1'
_cell_length_a   6.30363400
_cell_length_b   6.30363384
_cell_length_c   5.48920100
_cell_angle_alpha   90.00000000
_cell_angle_beta   90.00000000
_cell_angle_gamma   120.00000082
_symmetry_Int_Tables_number   1
_chemical_formula_structural   Li6Eu(PaN3)2
_chemical_formula_sum   'Li6 Eu1 Pa2 N6'
_cell_volume   188.89555124
_cell_formula_units_Z   1
loop_
 _symmetry_equiv_pos_site_id
 _symmetry_equiv_pos_as_xyz
  1  'x, y, z'
loop_
 _atom_site_type_symbol
 _atom_site_label
 _atom_site_symmetry_multiplicity
 _atom_site_fract_x
 _atom_site_fract_y
 _atom_site_fract_z
 _atom_site_occupancy
  Li  Li0  1  0.923896  0.616435  0.590490  1
  Li  Li1  1  0.383565  0.307462  0.590490  1
  Li  Li2  1  0.692538  0.076104  0.590490  1
  Li  Li3  1  0.076104  0.383565  0.409510  1
  Li  Li4  1  0.616435  0.692538  0.409510  1
  Li  Li5  1  0.307462  0.923896  0.409510  1
  Eu  Eu6  1  0.000000  0.000000  0.000000  1
  Pa  Pa7  1  0.333333  0.666667  0.972369  1
  Pa  Pa8  1  0.666667  0.333333  0.027631  1
  N  N9  1  0.012263  0.636736  0.223554  1
  N  N10  1  0.363264  0.375528  0.223554  1
  N  N11  1  0.624472  0.987737  0.223554  1
  N  N12  1  0.987737  0.363264  0.776446  1
  N  N13  1  0.636736  0.624472  0.776446  1
  N  N14  1  0.375528  0.012263  0.776446  1
