# generated using pymatgen
data_Ho5Tm11(In3Rh)2
_symmetry_space_group_name_H-M   'P 1'
_cell_length_a   10.32317203
_cell_length_b   10.32317255
_cell_length_c   6.96261000
_cell_angle_alpha   89.99866023
_cell_angle_beta   90.00133810
_cell_angle_gamma   119.99184290
_symmetry_Int_Tables_number   1
_chemical_formula_structural   Ho5Tm11(In3Rh)2
_chemical_formula_sum   'Ho5 Tm11 In6 Rh2'
_cell_volume   642.63554578
_cell_formula_units_Z   1
loop_
 _symmetry_equiv_pos_site_id
 _symmetry_equiv_pos_as_xyz
  1  'x, y, z'
loop_
 _atom_site_type_symbol
 _atom_site_label
 _atom_site_symmetry_multiplicity
 _atom_site_fract_x
 _atom_site_fract_y
 _atom_site_fract_z
 _atom_site_occupancy
  Ho  Ho0  1  0.532180  0.064352  0.515839  1
  Ho  Ho1  1  0.935648  0.467820  0.515839  1
  Ho  Ho2  1  0.532097  0.467903  0.515849  1
  Ho  Ho3  1  0.467815  0.935569  0.015806  1
  Ho  Ho4  1  0.064431  0.532185  0.015806  1
  Tm  Tm5  1  0.467602  0.532398  0.015834  1
  Tm  Tm6  1  0.176668  0.353084  0.721379  1
  Tm  Tm7  1  0.646916  0.823332  0.721379  1
  Tm  Tm8  1  0.176443  0.823557  0.721193  1
  Tm  Tm9  1  0.823314  0.646976  0.221016  1
  Tm  Tm10  1  0.353024  0.176686  0.221016  1
  Tm  Tm11  1  0.823538  0.176462  0.221173  1
  Tm  Tm12  1  0.666573  0.333427  0.895624  1
  Tm  Tm13  1  0.333447  0.666553  0.395410  1
  Tm  Tm14  1  0.000020  0.999980  0.500509  1
  Tm  Tm15  1  0.000007  0.999993  0.000591  1
  In  In16  1  0.837349  0.674715  0.761213  1
  In  In17  1  0.325285  0.162651  0.761213  1
  In  In18  1  0.837362  0.162638  0.761138  1
  In  In19  1  0.162820  0.325437  0.261020  1
  In  In20  1  0.674563  0.837180  0.261020  1
  In  In21  1  0.162629  0.837371  0.261161  1
  Rh  Rh22  1  0.666674  0.333326  0.288354  1
  Rh  Rh23  1  0.333593  0.666407  0.788617  1
