# generated using pymatgen
data_Mn4InCu3Pd8
_symmetry_space_group_name_H-M   'P 1'
_cell_length_a   6.79348806
_cell_length_b   6.79348749
_cell_length_c   6.79348709
_cell_angle_alpha   105.84317904
_cell_angle_beta   105.84317042
_cell_angle_gamma   116.99993285
_symmetry_Int_Tables_number   1
_chemical_formula_structural   Mn4InCu3Pd8
_chemical_formula_sum   'Mn4 In1 Cu3 Pd8'
_cell_volume   238.19088807
_cell_formula_units_Z   1
loop_
 _symmetry_equiv_pos_site_id
 _symmetry_equiv_pos_as_xyz
  1  'x, y, z'
loop_
 _atom_site_type_symbol
 _atom_site_label
 _atom_site_symmetry_multiplicity
 _atom_site_fract_x
 _atom_site_fract_y
 _atom_site_fract_z
 _atom_site_occupancy
  Mn  Mn0  1  0.254477  0.254477  0.508955  1
  Mn  Mn1  1  0.745523  0.745523  0.491045  1
  Mn  Mn2  1  0.254477  0.745523  0.000000  1
  Mn  Mn3  1  0.745523  0.254477  0.000000  1
  In  In4  1  0.000000  0.000000  0.000000  1
  Cu  Cu5  1  0.500000  0.000000  0.500000  1
  Cu  Cu6  1  0.000000  0.500000  0.500000  1
  Cu  Cu7  1  0.500000  0.500000  0.000000  1
  Pd  Pd8  1  0.507977  0.253908  0.254068  1
  Pd  Pd9  1  0.492023  0.746092  0.745932  1
  Pd  Pd10  1  0.999840  0.253908  0.745932  1
  Pd  Pd11  1  0.253908  0.999840  0.745932  1
  Pd  Pd12  1  0.000160  0.746092  0.254068  1
  Pd  Pd13  1  0.746092  0.000160  0.254068  1
  Pd  Pd14  1  0.253908  0.507977  0.254068  1
  Pd  Pd15  1  0.746092  0.492023  0.745932  1
