# generated using pymatgen
data_Ho8Re(B8Ru)3
_symmetry_space_group_name_H-M   'P 1'
_cell_length_a   3.65718500
_cell_length_b   9.12536158
_cell_length_c   11.50709605
_cell_angle_alpha   90.12678866
_cell_angle_beta   90.00000000
_cell_angle_gamma   90.00000000
_symmetry_Int_Tables_number   1
_chemical_formula_structural   Ho8Re(B8Ru)3
_chemical_formula_sum   'Ho8 Re1 B24 Ru3'
_cell_volume   384.02693534
_cell_formula_units_Z   1
loop_
 _symmetry_equiv_pos_site_id
 _symmetry_equiv_pos_as_xyz
  1  'x, y, z'
loop_
 _atom_site_type_symbol
 _atom_site_label
 _atom_site_symmetry_multiplicity
 _atom_site_fract_x
 _atom_site_fract_y
 _atom_site_fract_z
 _atom_site_occupancy
  Ho  Ho0  1  0.000000  0.322994  0.415161  1
  Ho  Ho1  1  0.000000  0.679953  0.587872  1
  Ho  Ho2  1  0.000000  0.822709  0.083370  1
  Ho  Ho3  1  0.000000  0.176255  0.913544  1
  Ho  Ho4  1  0.000000  0.943086  0.370988  1
  Ho  Ho5  1  0.000000  0.056475  0.627793  1
  Ho  Ho6  1  0.000000  0.442611  0.128659  1
  Ho  Ho7  1  0.000000  0.555970  0.872341  1
  Re  Re8  1  0.000000  0.862401  0.821312  1
  B  B9  1  0.500000  0.554025  0.433365  1
  B  B10  1  0.500000  0.446148  0.566930  1
  B  B11  1  0.500000  0.053829  0.067370  1
  B  B12  1  0.500000  0.947112  0.933424  1
  B  B13  1  0.500000  0.748441  0.419478  1
  B  B14  1  0.500000  0.251789  0.580325  1
  B  B15  1  0.500000  0.248237  0.080737  1
  B  B16  1  0.500000  0.751125  0.919363  1
  B  B17  1  0.500000  0.790453  0.265699  1
  B  B18  1  0.500000  0.209195  0.733392  1
  B  B19  1  0.500000  0.290945  0.234373  1
  B  B20  1  0.500000  0.708157  0.765707  1
  B  B21  1  0.500000  0.631043  0.185178  1
  B  B22  1  0.500000  0.368279  0.814498  1
  B  B23  1  0.500000  0.131824  0.315038  1
  B  B24  1  0.500000  0.868694  0.685221  1
  B  B25  1  0.500000  0.983486  0.212372  1
  B  B26  1  0.500000  0.017921  0.787431  1
  B  B27  1  0.500000  0.483251  0.288119  1
  B  B28  1  0.500000  0.516631  0.712514  1
  B  B29  1  0.500000  0.605299  0.029959  1
  B  B30  1  0.500000  0.392686  0.970888  1
  B  B31  1  0.500000  0.107098  0.469909  1
  B  B32  1  0.500000  0.893747  0.528713  1
  Ru  Ru33  1  0.000000  0.637704  0.321190  1
  Ru  Ru34  1  0.000000  0.362435  0.678425  1
  Ru  Ru35  1  0.000000  0.137988  0.179342  1
