# generated using pymatgen
data_Mg2GePd3Pt2
_symmetry_space_group_name_H-M   'P 1'
_cell_length_a   4.08497100
_cell_length_b   5.58937800
_cell_length_c   10.86701900
_cell_angle_alpha   90.00000000
_cell_angle_beta   90.00000000
_cell_angle_gamma   90.00000000
_symmetry_Int_Tables_number   1
_chemical_formula_structural   Mg2GePd3Pt2
_chemical_formula_sum   'Mg4 Ge2 Pd6 Pt4'
_cell_volume   248.12063578
_cell_formula_units_Z   2
loop_
 _symmetry_equiv_pos_site_id
 _symmetry_equiv_pos_as_xyz
  1  'x, y, z'
loop_
 _atom_site_type_symbol
 _atom_site_label
 _atom_site_symmetry_multiplicity
 _atom_site_fract_x
 _atom_site_fract_y
 _atom_site_fract_z
 _atom_site_occupancy
  Mg  Mg0  1  0.500000  0.162731  0.142513  1
  Mg  Mg1  1  0.500000  0.837269  0.857487  1
  Mg  Mg2  1  0.500000  0.337269  0.642513  1
  Mg  Mg3  1  0.500000  0.662731  0.357487  1
  Ge  Ge4  1  0.000000  0.000000  0.500000  1
  Ge  Ge5  1  0.000000  0.500000  0.000000  1
  Pd  Pd6  1  0.000000  0.417028  0.238901  1
  Pd  Pd7  1  0.000000  0.582972  0.761099  1
  Pd  Pd8  1  0.000000  0.082972  0.738901  1
  Pd  Pd9  1  0.000000  0.917028  0.261099  1
  Pd  Pd10  1  0.000000  0.000000  0.000000  1
  Pd  Pd11  1  0.000000  0.500000  0.500000  1
  Pt  Pt12  1  0.500000  0.182194  0.393975  1
  Pt  Pt13  1  0.500000  0.817806  0.606025  1
  Pt  Pt14  1  0.500000  0.317806  0.893975  1
  Pt  Pt15  1  0.500000  0.682194  0.106025  1
