# generated using pymatgen
data_Tb8Lu2Ru3Rh
_symmetry_space_group_name_H-M   'P 1'
_cell_length_a   6.35874951
_cell_length_b   7.26493297
_cell_length_c   8.50557319
_cell_angle_alpha   96.70598187
_cell_angle_beta   111.99504660
_cell_angle_gamma   90.09290984
_symmetry_Int_Tables_number   1
_chemical_formula_structural   Tb8Lu2Ru3Rh
_chemical_formula_sum   'Tb8 Lu2 Ru3 Rh1'
_cell_volume   361.39243754
_cell_formula_units_Z   1
loop_
 _symmetry_equiv_pos_site_id
 _symmetry_equiv_pos_as_xyz
  1  'x, y, z'
loop_
 _atom_site_type_symbol
 _atom_site_label
 _atom_site_symmetry_multiplicity
 _atom_site_fract_x
 _atom_site_fract_y
 _atom_site_fract_z
 _atom_site_occupancy
  Tb  Tb0  1  0.523088  0.083661  0.815214  1
  Tb  Tb1  1  0.477929  0.918692  0.184315  1
  Tb  Tb2  1  0.709426  0.414981  0.184297  1
  Tb  Tb3  1  0.291693  0.584107  0.812935  1
  Tb  Tb4  1  0.294988  0.310884  0.433179  1
  Tb  Tb5  1  0.707814  0.687733  0.570536  1
  Tb  Tb6  1  0.862688  0.187670  0.568415  1
  Tb  Tb7  1  0.135698  0.813975  0.432997  1
  Lu  Lu8  1  0.074694  0.248142  0.998709  1
  Lu  Lu9  1  0.922853  0.750728  0.999317  1
  Ru  Ru10  1  0.680466  0.425879  0.782620  1
  Ru  Ru11  1  0.102384  0.924743  0.783226  1
  Ru  Ru12  1  0.898901  0.074430  0.217200  1
  Rh  Rh13  1  0.317380  0.574375  0.217040  1
