# generated using pymatgen
data_LuV3P3Rh2
_symmetry_space_group_name_H-M   'P 1'
_cell_length_a   3.86424100
_cell_length_b   6.81511855
_cell_length_c   9.91406427
_cell_angle_alpha   80.04829619
_cell_angle_beta   90.00000000
_cell_angle_gamma   90.00000000
_symmetry_Int_Tables_number   1
_chemical_formula_structural   LuV3P3Rh2
_chemical_formula_sum   'Lu2 V6 P6 Rh4'
_cell_volume   257.16105487
_cell_formula_units_Z   2
loop_
 _symmetry_equiv_pos_site_id
 _symmetry_equiv_pos_as_xyz
  1  'x, y, z'
loop_
 _atom_site_type_symbol
 _atom_site_label
 _atom_site_symmetry_multiplicity
 _atom_site_fract_x
 _atom_site_fract_y
 _atom_site_fract_z
 _atom_site_occupancy
  Lu  Lu0  1  0.250000  0.804259  0.789468  1
  Lu  Lu1  1  0.750000  0.195741  0.210532  1
  V  V2  1  0.250000  0.613668  0.513129  1
  V  V3  1  0.750000  0.386332  0.486871  1
  V  V4  1  0.250000  0.128858  0.500750  1
  V  V5  1  0.750000  0.871142  0.499250  1
  V  V6  1  0.250000  0.319978  0.726891  1
  V  V7  1  0.750000  0.680022  0.273109  1
  P  P8  1  0.250000  0.255287  0.977993  1
  P  P9  1  0.750000  0.744713  0.022007  1
  P  P10  1  0.250000  0.426868  0.329741  1
  P  P11  1  0.750000  0.573132  0.670259  1
  P  P12  1  0.250000  0.904331  0.336835  1
  P  P13  1  0.750000  0.095669  0.663165  1
  Rh  Rh14  1  0.250000  0.525055  0.097030  1
  Rh  Rh15  1  0.750000  0.474945  0.902970  1
  Rh  Rh16  1  0.250000  0.929394  0.099678  1
  Rh  Rh17  1  0.750000  0.070606  0.900322  1
