# generated using pymatgen
data_Dy15Ho3(BiO)10
_symmetry_space_group_name_H-M   'P 1'
_cell_length_a   10.01807905
_cell_length_b   10.01554018
_cell_length_c   8.95670720
_cell_angle_alpha   89.97862588
_cell_angle_beta   90.01083106
_cell_angle_gamma   90.00417658
_symmetry_Int_Tables_number   1
_chemical_formula_structural   Dy15Ho3(BiO)10
_chemical_formula_sum   'Dy15 Ho3 Bi10 O10'
_cell_volume   898.68433121
_cell_formula_units_Z   1
loop_
 _symmetry_equiv_pos_site_id
 _symmetry_equiv_pos_as_xyz
  1  'x, y, z'
loop_
 _atom_site_type_symbol
 _atom_site_label
 _atom_site_symmetry_multiplicity
 _atom_site_fract_x
 _atom_site_fract_y
 _atom_site_fract_z
 _atom_site_occupancy
  Dy  Dy0  1  0.499809  0.000173  0.679177  1
  Dy  Dy1  1  0.207105  0.894671  0.335442  1
  Dy  Dy2  1  0.605402  0.706915  0.335699  1
  Dy  Dy3  1  0.293175  0.605508  0.664323  1
  Dy  Dy4  1  0.416417  0.774839  0.001938  1
  Dy  Dy5  1  0.225717  0.416324  0.997953  1
  Dy  Dy6  1  0.894611  0.793003  0.664383  1
  Dy  Dy7  1  0.000015  0.500122  0.321001  1
  Dy  Dy8  1  0.083545  0.725735  0.998072  1
  Dy  Dy9  1  0.916532  0.274374  0.998094  1
  Dy  Dy10  1  0.774373  0.583321  0.997920  1
  Dy  Dy11  1  0.725406  0.916521  0.002089  1
  Dy  Dy12  1  0.394508  0.292944  0.335392  1
  Dy  Dy13  1  0.706786  0.394426  0.664655  1
  Dy  Dy14  1  0.105811  0.206752  0.664638  1
  Ho  Ho15  1  0.792848  0.105599  0.334553  1
  Ho  Ho16  1  0.275004  0.083706  0.002033  1
  Ho  Ho17  1  0.583438  0.225182  0.002140  1
  Bi  Bi18  1  0.594898  0.694190  0.696796  1
  Bi  Bi19  1  0.905023  0.806332  0.303237  1
  Bi  Bi20  1  0.694139  0.404647  0.303221  1
  Bi  Bi21  1  0.999909  0.499877  0.681028  1
  Bi  Bi22  1  0.305865  0.594862  0.303176  1
  Bi  Bi23  1  0.805900  0.094924  0.696153  1
  Bi  Bi24  1  0.405169  0.305833  0.696788  1
  Bi  Bi25  1  0.194217  0.905213  0.696839  1
  Bi  Bi26  1  0.094554  0.193993  0.303180  1
  Bi  Bi27  1  0.500486  0.000063  0.319220  1
  O  O28  1  0.226088  0.880891  0.083895  1
  O  O29  1  0.274117  0.620320  0.915653  1
  O  O30  1  0.120711  0.225011  0.916116  1
  O  O31  1  0.879613  0.774235  0.915554  1
  O  O32  1  0.724932  0.379020  0.916072  1
  O  O33  1  0.499640  0.000968  0.937538  1
  O  O34  1  0.773437  0.120615  0.085155  1
  O  O35  1  0.000040  0.499966  0.062888  1
  O  O36  1  0.380440  0.273109  0.083582  1
  O  O37  1  0.620318  0.725816  0.084408  1
