# generated using pymatgen
data_LiTm3In3AgAu
_symmetry_space_group_name_H-M   'P 1'
_cell_length_a   7.85153900
_cell_length_b   7.85153991
_cell_length_c   3.76946000
_cell_angle_alpha   90.00000000
_cell_angle_beta   90.00000000
_cell_angle_gamma   120.00000036
_symmetry_Int_Tables_number   1
_chemical_formula_structural   LiTm3In3AgAu
_chemical_formula_sum   'Li1 Tm3 In3 Ag1 Au1'
_cell_volume   201.24236120
_cell_formula_units_Z   1
loop_
 _symmetry_equiv_pos_site_id
 _symmetry_equiv_pos_as_xyz
  1  'x, y, z'
loop_
 _atom_site_type_symbol
 _atom_site_label
 _atom_site_symmetry_multiplicity
 _atom_site_fract_x
 _atom_site_fract_y
 _atom_site_fract_z
 _atom_site_occupancy
  Li  Li0  1  0.000000  0.000000  0.500000  1
  Tm  Tm1  1  0.403056  0.410708  0.500000  1
  Tm  Tm2  1  0.589292  0.992348  0.500000  1
  Tm  Tm3  1  0.007652  0.596944  0.500000  1
  In  In4  1  0.750050  0.744113  0.000000  1
  In  In5  1  0.255887  0.005937  0.000000  1
  In  In6  1  0.994063  0.249950  0.000000  1
  Ag  Ag7  1  0.666667  0.333333  0.000000  1
  Au  Au8  1  0.333333  0.666667  0.000000  1
