# generated using pymatgen
data_Ce10SiGeBi6
_symmetry_space_group_name_H-M   'P 1'
_cell_length_a   6.50219003
_cell_length_b   9.66399071
_cell_length_c   9.66383501
_cell_angle_alpha   120.00053861
_cell_angle_beta   90.00560048
_cell_angle_gamma   89.98880498
_symmetry_Int_Tables_number   1
_chemical_formula_structural   Ce10SiGeBi6
_chemical_formula_sum   'Ce10 Si1 Ge1 Bi6'
_cell_volume   525.88881606
_cell_formula_units_Z   1
loop_
 _symmetry_equiv_pos_site_id
 _symmetry_equiv_pos_as_xyz
  1  'x, y, z'
loop_
 _atom_site_type_symbol
 _atom_site_label
 _atom_site_symmetry_multiplicity
 _atom_site_fract_x
 _atom_site_fract_y
 _atom_site_fract_z
 _atom_site_occupancy
  Ce  Ce0  1  0.499972  0.333357  0.666743  1
  Ce  Ce1  1  0.499972  0.666614  0.333257  1
  Ce  Ce2  1  0.999970  0.666567  0.333256  1
  Ce  Ce3  1  0.999970  0.333311  0.666744  1
  Ce  Ce4  1  0.747475  0.254982  0.000000  1
  Ce  Ce5  1  0.747592  0.745037  0.745057  1
  Ce  Ce6  1  0.747592  0.999982  0.254943  1
  Ce  Ce7  1  0.252512  0.745046  0.000000  1
  Ce  Ce8  1  0.252487  0.255000  0.254925  1
  Ce  Ce9  1  0.252487  0.000073  0.745075  1
  Si  Si10  1  0.500027  0.000057  0.000000  1
  Ge  Ge11  1  0.999945  0.000052  0.000000  1
  Bi  Bi12  1  0.750249  0.614306  0.000000  1
  Bi  Bi13  1  0.750252  0.385537  0.385571  1
  Bi  Bi14  1  0.750252  0.999967  0.614429  1
  Bi  Bi15  1  0.249764  0.385654  0.000000  1
  Bi  Bi16  1  0.249739  0.614422  0.614385  1
  Bi  Bi17  1  0.249739  0.000036  0.385615  1
