# generated using pymatgen
data_ReOs2Cl9
_symmetry_space_group_name_H-M   'P 1'
_cell_length_a   8.34816186
_cell_length_b   10.21649700
_cell_length_c   9.05361422
_cell_angle_alpha   90.00000000
_cell_angle_beta   111.20536124
_cell_angle_gamma   90.00000000
_symmetry_Int_Tables_number   1
_chemical_formula_structural   ReOs2Cl9
_chemical_formula_sum   'Re2 Os4 Cl18'
_cell_volume   719.88954231
_cell_formula_units_Z   2
loop_
 _symmetry_equiv_pos_site_id
 _symmetry_equiv_pos_as_xyz
  1  'x, y, z'
loop_
 _atom_site_type_symbol
 _atom_site_label
 _atom_site_symmetry_multiplicity
 _atom_site_fract_x
 _atom_site_fract_y
 _atom_site_fract_z
 _atom_site_occupancy
  Re  Re0  1  0.829229  0.250000  0.139473  1
  Re  Re1  1  0.170770  0.750000  0.860527  1
  Os  Os2  1  0.832892  0.123842  0.372790  1
  Os  Os3  1  0.832892  0.376157  0.372790  1
  Os  Os4  1  0.167108  0.623842  0.627210  1
  Os  Os5  1  0.167108  0.876158  0.627210  1
  Cl  Cl6  1  0.435396  0.750000  0.043738  1
  Cl  Cl7  1  0.086209  0.250000  0.109623  1
  Cl  Cl8  1  0.828388  0.015709  0.139811  1
  Cl  Cl9  1  0.828388  0.484291  0.139811  1
  Cl  Cl10  1  0.543781  0.089941  0.306582  1
  Cl  Cl11  1  0.543781  0.410059  0.306582  1
  Cl  Cl12  1  0.160482  0.750000  0.406088  1
  Cl  Cl13  1  0.142339  0.091432  0.487855  1
  Cl  Cl14  1  0.142339  0.408567  0.487855  1
  Cl  Cl15  1  0.857660  0.591432  0.512144  1
  Cl  Cl16  1  0.857660  0.908568  0.512144  1
  Cl  Cl17  1  0.839518  0.250000  0.593912  1
  Cl  Cl18  1  0.456219  0.589940  0.693418  1
  Cl  Cl19  1  0.456219  0.910060  0.693418  1
  Cl  Cl20  1  0.171612  0.515709  0.860189  1
  Cl  Cl21  1  0.171612  0.984292  0.860189  1
  Cl  Cl22  1  0.913790  0.750000  0.890377  1
  Cl  Cl23  1  0.564604  0.250000  0.956262  1
