# generated using pymatgen
data_Tb5Ce3Al8Ir5Rh3
_symmetry_space_group_name_H-M   'P 1'
_cell_length_a   4.21779200
_cell_length_b   6.97514287
_cell_length_c   15.99396971
_cell_angle_alpha   90.71671439
_cell_angle_beta   90.00000000
_cell_angle_gamma   90.00000000
_symmetry_Int_Tables_number   1
_chemical_formula_structural   Tb5Ce3Al8Ir5Rh3
_chemical_formula_sum   'Tb5 Ce3 Al8 Ir5 Rh3'
_cell_volume   470.50100640
_cell_formula_units_Z   1
loop_
 _symmetry_equiv_pos_site_id
 _symmetry_equiv_pos_as_xyz
  1  'x, y, z'
loop_
 _atom_site_type_symbol
 _atom_site_label
 _atom_site_symmetry_multiplicity
 _atom_site_fract_x
 _atom_site_fract_y
 _atom_site_fract_z
 _atom_site_occupancy
  Tb  Tb0  1  0.250000  0.160427  0.559723  1
  Tb  Tb1  1  0.750000  0.845163  0.440552  1
  Tb  Tb2  1  0.250000  0.655886  0.939532  1
  Tb  Tb3  1  0.750000  0.342531  0.059626  1
  Tb  Tb4  1  0.250000  0.032703  0.780058  1
  Ce  Ce5  1  0.750000  0.966516  0.220327  1
  Ce  Ce6  1  0.250000  0.532524  0.720879  1
  Ce  Ce7  1  0.750000  0.467573  0.279026  1
  Al  Al8  1  0.250000  0.139995  0.352811  1
  Al  Al9  1  0.750000  0.866418  0.648354  1
  Al  Al10  1  0.250000  0.636780  0.145909  1
  Al  Al11  1  0.750000  0.354695  0.854165  1
  Al  Al12  1  0.250000  0.004096  0.061917  1
  Al  Al13  1  0.750000  0.992204  0.936951  1
  Al  Al14  1  0.250000  0.507068  0.439341  1
  Al  Al15  1  0.750000  0.499748  0.560923  1
  Ir  Ir16  1  0.750000  0.272451  0.429700  1
  Ir  Ir17  1  0.250000  0.734490  0.571397  1
  Ir  Ir18  1  0.750000  0.769960  0.069030  1
  Ir  Ir19  1  0.250000  0.225757  0.931992  1
  Ir  Ir20  1  0.250000  0.255627  0.189158  1
  Rh  Rh21  1  0.750000  0.730578  0.810871  1
  Rh  Rh22  1  0.750000  0.254926  0.685441  1
  Rh  Rh23  1  0.250000  0.751883  0.312321  1
