# generated using pymatgen
data_Er3ZnGa7Ag3
_symmetry_space_group_name_H-M   'P 1'
_cell_length_a   4.33613800
_cell_length_b   8.29285490
_cell_length_c   8.30022972
_cell_angle_alpha   70.82167563
_cell_angle_beta   74.85836513
_cell_angle_gamma   74.84457333
_symmetry_Int_Tables_number   1
_chemical_formula_structural   Er3ZnGa7Ag3
_chemical_formula_sum   'Er3 Zn1 Ga7 Ag3'
_cell_volume   267.01936898
_cell_formula_units_Z   1
loop_
 _symmetry_equiv_pos_site_id
 _symmetry_equiv_pos_as_xyz
  1  'x, y, z'
loop_
 _atom_site_type_symbol
 _atom_site_label
 _atom_site_symmetry_multiplicity
 _atom_site_fract_x
 _atom_site_fract_y
 _atom_site_fract_z
 _atom_site_occupancy
  Er  Er0  1  0.498695  0.500706  0.501905  1
  Er  Er1  1  0.202741  0.796048  0.798470  1
  Er  Er2  1  0.798227  0.203669  0.199877  1
  Zn  Zn3  1  0.357002  0.364120  0.921875  1
  Ga  Ga4  1  0.642928  0.639111  0.075033  1
  Ga  Ga5  1  0.356679  0.925921  0.360721  1
  Ga  Ga6  1  0.641872  0.075613  0.640643  1
  Ga  Ga7  1  0.160959  0.470127  0.207955  1
  Ga  Ga8  1  0.842759  0.524704  0.789776  1
  Ga  Ga9  1  0.157733  0.211789  0.472746  1
  Ga  Ga10  1  0.841906  0.787408  0.528778  1
  Ag  Ag11  1  0.499116  0.001252  0.000515  1
  Ag  Ag12  1  0.000169  0.807518  0.192145  1
  Ag  Ag13  1  0.999213  0.192013  0.809562  1
