# generated using pymatgen
data_K8Mn3Co5P8(O7F2)4
_symmetry_space_group_name_H-M   'P 1'
_cell_length_a   6.81850200
_cell_length_b   10.54106300
_cell_length_c   11.17905800
_cell_angle_alpha   90.00000000
_cell_angle_beta   90.00000000
_cell_angle_gamma   90.00000000
_symmetry_Int_Tables_number   1
_chemical_formula_structural   K8Mn3Co5P8(O7F2)4
_chemical_formula_sum   'K8 Mn3 Co5 P8 O28 F8'
_cell_volume   803.48651172
_cell_formula_units_Z   1
loop_
 _symmetry_equiv_pos_site_id
 _symmetry_equiv_pos_as_xyz
  1  'x, y, z'
loop_
 _atom_site_type_symbol
 _atom_site_label
 _atom_site_symmetry_multiplicity
 _atom_site_fract_x
 _atom_site_fract_y
 _atom_site_fract_z
 _atom_site_occupancy
  K  K0  1  0.500430  0.563505  0.172710  1
  K  K1  1  0.000239  0.434429  0.327313  1
  K  K2  1  0.500474  0.064564  0.827876  1
  K  K3  1  0.499526  0.435436  0.827876  1
  K  K4  1  0.000176  0.935159  0.672473  1
  K  K5  1  0.999824  0.564841  0.672473  1
  K  K6  1  0.999761  0.065571  0.327313  1
  K  K7  1  0.499570  0.936495  0.172710  1
  Mn  Mn8  1  0.500000  0.750000  0.663834  1
  Mn  Mn9  1  0.000000  0.250000  0.836425  1
  Mn  Mn10  1  0.000000  0.750000  0.163874  1
  Co  Co11  1  0.500000  0.250000  0.336784  1
  Co  Co12  1  0.999974  0.499810  0.000374  1
  Co  Co13  1  0.000026  0.000190  0.000374  1
  Co  Co14  1  0.499737  0.001558  0.499148  1
  Co  Co15  1  0.500263  0.498442  0.499148  1
  P  P16  1  0.779886  0.749114  0.421628  1
  P  P17  1  0.220656  0.251792  0.576888  1
  P  P18  1  0.281775  0.251237  0.080411  1
  P  P19  1  0.718225  0.248763  0.080411  1
  P  P20  1  0.719698  0.749077  0.921606  1
  P  P21  1  0.779344  0.248208  0.576888  1
  P  P22  1  0.280302  0.750923  0.921606  1
  P  P23  1  0.220114  0.750886  0.421628  1
  O  O24  1  0.000000  0.750000  0.482237  1
  O  O25  1  0.781151  0.110018  0.084763  1
  O  O26  1  0.206061  0.688082  0.298873  1
  O  O27  1  0.668193  0.327800  0.483036  1
  O  O28  1  0.700087  0.310049  0.203875  1
  O  O29  1  0.829823  0.830945  0.013865  1
  O  O30  1  0.719053  0.108824  0.584193  1
  O  O31  1  0.670262  0.831079  0.513993  1
  O  O32  1  0.718493  0.609876  0.415440  1
  O  O33  1  0.500000  0.750000  0.982568  1
  O  O34  1  0.329738  0.668921  0.513993  1
  O  O35  1  0.281507  0.890124  0.415440  1
  O  O36  1  0.218849  0.389982  0.084763  1
  O  O37  1  0.170177  0.669055  0.013865  1
  O  O38  1  0.331807  0.172200  0.483036  1
  O  O39  1  0.705466  0.811629  0.798800  1
  O  O40  1  0.793379  0.311649  0.699436  1
  O  O41  1  0.000000  0.250000  0.516713  1
  O  O42  1  0.299913  0.189951  0.203875  1
  O  O43  1  0.294534  0.688371  0.798800  1
  O  O44  1  0.280947  0.391176  0.584193  1
  O  O45  1  0.206621  0.188351  0.699436  1
  O  O46  1  0.829689  0.331103  0.988850  1
  O  O47  1  0.500000  0.250000  0.017711  1
  O  O48  1  0.793939  0.811918  0.298873  1
  O  O49  1  0.781249  0.610136  0.915936  1
  O  O50  1  0.218751  0.889864  0.915936  1
  O  O51  1  0.170311  0.168897  0.988850  1
  F  F52  1  0.119740  0.934209  0.153825  1
  F  F53  1  0.381190  0.934075  0.653237  1
  F  F54  1  0.385964  0.427067  0.344990  1
  F  F55  1  0.880964  0.066389  0.846387  1
  F  F56  1  0.119036  0.433611  0.846387  1
  F  F57  1  0.614036  0.072933  0.344990  1
  F  F58  1  0.618810  0.565925  0.653237  1
  F  F59  1  0.880260  0.565791  0.153825  1
