# generated using pymatgen
data_Li2Nd(P3Pd10)2
_symmetry_space_group_name_H-M   'P 1'
_cell_length_a   8.62908104
_cell_length_b   8.62908498
_cell_length_c   8.62907700
_cell_angle_alpha   60.00000694
_cell_angle_beta   60.00005457
_cell_angle_gamma   60.00000409
_symmetry_Int_Tables_number   1
_chemical_formula_structural   Li2Nd(P3Pd10)2
_chemical_formula_sum   'Li2 Nd1 P6 Pd20'
_cell_volume   454.33778387
_cell_formula_units_Z   1
loop_
 _symmetry_equiv_pos_site_id
 _symmetry_equiv_pos_as_xyz
  1  'x, y, z'
loop_
 _atom_site_type_symbol
 _atom_site_label
 _atom_site_symmetry_multiplicity
 _atom_site_fract_x
 _atom_site_fract_y
 _atom_site_fract_z
 _atom_site_occupancy
  Li  Li0  1  0.250000  0.250000  0.250000  1
  Li  Li1  1  0.000000  0.000000  0.000000  1
  Nd  Nd2  1  0.750000  0.750000  0.750000  1
  P  P3  1  0.737795  0.262205  0.262205  1
  P  P4  1  0.262205  0.737795  0.737795  1
  P  P5  1  0.262205  0.737795  0.262206  1
  P  P6  1  0.737795  0.262205  0.737795  1
  P  P7  1  0.262205  0.262205  0.737795  1
  P  P8  1  0.737795  0.737795  0.262205  1
  Pd  Pd9  1  0.380692  0.380691  0.380692  1
  Pd  Pd10  1  0.611520  0.611519  0.611519  1
  Pd  Pd11  1  0.380692  0.380693  0.857924  1
  Pd  Pd12  1  0.380692  0.857924  0.380692  1
  Pd  Pd13  1  0.611520  0.611519  0.165441  1
  Pd  Pd14  1  0.611520  0.165441  0.611519  1
  Pd  Pd15  1  0.857924  0.380692  0.380692  1
  Pd  Pd16  1  0.165440  0.611520  0.611520  1
  Pd  Pd17  1  0.344538  0.999215  0.999215  1
  Pd  Pd18  1  0.657032  0.999215  0.999215  1
  Pd  Pd19  1  0.999215  0.344538  0.657031  1
  Pd  Pd20  1  0.999215  0.657031  0.344538  1
  Pd  Pd21  1  0.999215  0.344538  0.999215  1
  Pd  Pd22  1  0.657031  0.999215  0.344539  1
  Pd  Pd23  1  0.999215  0.657031  0.999215  1
  Pd  Pd24  1  0.344538  0.999215  0.657031  1
  Pd  Pd25  1  0.999215  0.999215  0.344539  1
  Pd  Pd26  1  0.999216  0.999215  0.657031  1
  Pd  Pd27  1  0.657032  0.344538  0.999215  1
  Pd  Pd28  1  0.344538  0.657031  0.999215  1
