# generated using pymatgen
data_NdTa5FeB4Ru9
_symmetry_space_group_name_H-M   'P 1'
_cell_length_a   9.47395471
_cell_length_b   9.47395494
_cell_length_c   3.06499600
_cell_angle_alpha   90.00000000
_cell_angle_beta   90.00000000
_cell_angle_gamma   90.46782626
_symmetry_Int_Tables_number   1
_chemical_formula_structural   NdTa5FeB4Ru9
_chemical_formula_sum   'Nd1 Ta5 Fe1 B4 Ru9'
_cell_volume   275.09205885
_cell_formula_units_Z   1
loop_
 _symmetry_equiv_pos_site_id
 _symmetry_equiv_pos_as_xyz
  1  'x, y, z'
loop_
 _atom_site_type_symbol
 _atom_site_label
 _atom_site_symmetry_multiplicity
 _atom_site_fract_x
 _atom_site_fract_y
 _atom_site_fract_z
 _atom_site_occupancy
  Nd  Nd0  1  0.822400  0.677600  0.000000  1
  Ta  Ta1  1  0.180564  0.319436  0.000000  1
  Ta  Ta2  1  0.329035  0.831970  0.000000  1
  Ta  Ta3  1  0.668030  0.170965  0.000000  1
  Ta  Ta4  1  0.499956  0.499859  0.000000  1
  Ta  Ta5  1  0.000141  0.000044  0.000000  1
  Fe  Fe6  1  0.494120  0.005880  0.500000  1
  B  B7  1  0.606605  0.893395  0.000000  1
  B  B8  1  0.386888  0.113112  0.000000  1
  B  B9  1  0.126653  0.619369  0.000000  1
  B  B10  1  0.880631  0.373347  0.000000  1
  Ru  Ru11  1  0.550330  0.733303  0.500000  1
  Ru  Ru12  1  0.429625  0.278328  0.500000  1
  Ru  Ru13  1  0.088268  0.783510  0.500000  1
  Ru  Ru14  1  0.933062  0.213352  0.500000  1
  Ru  Ru15  1  0.286648  0.566938  0.500000  1
  Ru  Ru16  1  0.716490  0.411732  0.500000  1
  Ru  Ru17  1  0.221672  0.070375  0.500000  1
  Ru  Ru18  1  0.766697  0.949670  0.500000  1
  Ru  Ru19  1  0.012186  0.487814  0.500000  1
