# generated using pymatgen
data_Ho3Zn3Cu2Ru
_symmetry_space_group_name_H-M   'P 1'
_cell_length_a   7.03839800
_cell_length_b   7.03839933
_cell_length_c   3.94297000
_cell_angle_alpha   90.00000000
_cell_angle_beta   90.00000000
_cell_angle_gamma   119.99999377
_symmetry_Int_Tables_number   1
_chemical_formula_structural   Ho3Zn3Cu2Ru
_chemical_formula_sum   'Ho3 Zn3 Cu2 Ru1'
_cell_volume   169.16162793
_cell_formula_units_Z   1
loop_
 _symmetry_equiv_pos_site_id
 _symmetry_equiv_pos_as_xyz
  1  'x, y, z'
loop_
 _atom_site_type_symbol
 _atom_site_label
 _atom_site_symmetry_multiplicity
 _atom_site_fract_x
 _atom_site_fract_y
 _atom_site_fract_z
 _atom_site_occupancy
  Ho  Ho0  1  0.417472  0.404136  0.000000  1
  Ho  Ho1  1  0.595864  0.013335  0.000000  1
  Ho  Ho2  1  0.986665  0.582528  0.000000  1
  Zn  Zn3  1  0.756672  0.759039  0.500000  1
  Zn  Zn4  1  0.240961  0.997632  0.500000  1
  Zn  Zn5  1  0.002368  0.243328  0.500000  1
  Cu  Cu6  1  0.000000  0.000000  0.000000  1
  Cu  Cu7  1  0.333333  0.666667  0.500000  1
  Ru  Ru8  1  0.666667  0.333333  0.500000  1
