# generated using pymatgen
data_EuDy2Co8P6Ru
_symmetry_space_group_name_H-M   'P 1'
_cell_length_a   3.72813600
_cell_length_b   10.56350900
_cell_length_c   12.28106600
_cell_angle_alpha   90.00000000
_cell_angle_beta   90.00000000
_cell_angle_gamma   90.00000000
_symmetry_Int_Tables_number   1
_chemical_formula_structural   EuDy2Co8P6Ru
_chemical_formula_sum   'Eu2 Dy4 Co16 P12 Ru2'
_cell_volume   483.65537519
_cell_formula_units_Z   2
loop_
 _symmetry_equiv_pos_site_id
 _symmetry_equiv_pos_as_xyz
  1  'x, y, z'
loop_
 _atom_site_type_symbol
 _atom_site_label
 _atom_site_symmetry_multiplicity
 _atom_site_fract_x
 _atom_site_fract_y
 _atom_site_fract_z
 _atom_site_occupancy
  Eu  Eu0  1  0.000000  0.500000  0.526008  1
  Eu  Eu1  1  0.500000  0.000000  0.473992  1
  Dy  Dy2  1  0.500000  0.817027  0.205374  1
  Dy  Dy3  1  0.500000  0.182973  0.205374  1
  Dy  Dy4  1  0.000000  0.682973  0.794626  1
  Dy  Dy5  1  0.000000  0.317027  0.794626  1
  Co  Co6  1  0.500000  0.500000  0.704998  1
  Co  Co7  1  0.000000  0.000000  0.295002  1
  Co  Co8  1  0.000000  0.500000  0.985698  1
  Co  Co9  1  0.500000  0.000000  0.014302  1
  Co  Co10  1  0.500000  0.332400  0.990329  1
  Co  Co11  1  0.500000  0.667600  0.990329  1
  Co  Co12  1  0.000000  0.167600  0.009671  1
  Co  Co13  1  0.000000  0.832400  0.009671  1
  Co  Co14  1  0.500000  0.296325  0.429803  1
  Co  Co15  1  0.500000  0.703675  0.429803  1
  Co  Co16  1  0.000000  0.203675  0.570197  1
  Co  Co17  1  0.000000  0.796325  0.570197  1
  Co  Co18  1  0.500000  0.879394  0.709443  1
  Co  Co19  1  0.500000  0.120606  0.709443  1
  Co  Co20  1  0.000000  0.620606  0.290557  1
  Co  Co21  1  0.000000  0.379394  0.290557  1
  P  P22  1  0.500000  0.500000  0.882409  1
  P  P23  1  0.000000  0.000000  0.117591  1
  P  P24  1  0.500000  0.500000  0.347577  1
  P  P25  1  0.000000  0.000000  0.652423  1
  P  P26  1  0.500000  0.308386  0.616902  1
  P  P27  1  0.500000  0.691614  0.616902  1
  P  P28  1  0.000000  0.191614  0.383098  1
  P  P29  1  0.000000  0.808386  0.383098  1
  P  P30  1  0.500000  0.847009  0.894364  1
  P  P31  1  0.500000  0.152991  0.894364  1
  P  P32  1  0.000000  0.652991  0.105636  1
  P  P33  1  0.000000  0.347009  0.105636  1
  Ru  Ru34  1  0.500000  0.500000  0.158180  1
  Ru  Ru35  1  0.000000  0.000000  0.841820  1
