# generated using pymatgen
data_Sc3AlTcB8Ru9
_symmetry_space_group_name_H-M   'P 1'
_cell_length_a   3.00037900
_cell_length_b   8.44298341
_cell_length_c   10.08357755
_cell_angle_alpha   89.64125985
_cell_angle_beta   90.00000000
_cell_angle_gamma   90.00000000
_symmetry_Int_Tables_number   1
_chemical_formula_structural   Sc3AlTcB8Ru9
_chemical_formula_sum   'Sc3 Al1 Tc1 B8 Ru9'
_cell_volume   255.43369326
_cell_formula_units_Z   1
loop_
 _symmetry_equiv_pos_site_id
 _symmetry_equiv_pos_as_xyz
  1  'x, y, z'
loop_
 _atom_site_type_symbol
 _atom_site_label
 _atom_site_symmetry_multiplicity
 _atom_site_fract_x
 _atom_site_fract_y
 _atom_site_fract_z
 _atom_site_occupancy
  Sc  Sc0  1  0.500000  0.155510  0.824494  1
  Sc  Sc1  1  0.500000  0.656576  0.682772  1
  Sc  Sc2  1  0.500000  0.344663  0.313363  1
  Al  Al3  1  0.500000  0.847958  0.173758  1
  Tc  Tc4  1  0.000000  0.654469  0.951170  1
  B  B5  1  0.500000  0.963470  0.590069  1
  B  B6  1  0.500000  0.036603  0.412547  1
  B  B7  1  0.500000  0.847264  0.897897  1
  B  B8  1  0.500000  0.147175  0.100669  1
  B  B9  1  0.500000  0.648829  0.398028  1
  B  B10  1  0.500000  0.350711  0.601658  1
  B  B11  1  0.500000  0.468228  0.909915  1
  B  B12  1  0.500000  0.541694  0.087587  1
  Ru  Ru13  1  0.000000  0.337087  0.050181  1
  Ru  Ru14  1  0.000000  0.841483  0.458148  1
  Ru  Ru15  1  0.000000  0.158936  0.546102  1
  Ru  Ru16  1  0.000000  0.990819  0.004815  1
  Ru  Ru17  1  0.000000  0.401111  0.760467  1
  Ru  Ru18  1  0.000000  0.616870  0.236469  1
  Ru  Ru19  1  0.000000  0.499423  0.497911  1
  Ru  Ru20  1  0.000000  0.905428  0.739658  1
  Ru  Ru21  1  0.000000  0.085696  0.262324  1
