# generated using pymatgen
data_Be3V12Fe4Si5C4
_symmetry_space_group_name_H-M   'P 1'
_cell_length_a   7.56071974
_cell_length_b   7.55538722
_cell_length_c   7.55538800
_cell_angle_alpha   60.00000533
_cell_angle_beta   60.02333349
_cell_angle_gamma   60.02332387
_symmetry_Int_Tables_number   1
_chemical_formula_structural   Be3V12Fe4Si5C4
_chemical_formula_sum   'Be3 V12 Fe4 Si5 C4'
_cell_volume   305.29149580
_cell_formula_units_Z   1
loop_
 _symmetry_equiv_pos_site_id
 _symmetry_equiv_pos_as_xyz
  1  'x, y, z'
loop_
 _atom_site_type_symbol
 _atom_site_label
 _atom_site_symmetry_multiplicity
 _atom_site_fract_x
 _atom_site_fract_y
 _atom_site_fract_z
 _atom_site_occupancy
  Be  Be0  1  0.833870  0.507280  0.829425  1
  Be  Be1  1  0.833870  0.829425  0.507280  1
  Be  Be2  1  0.833870  0.829425  0.829425  1
  V  V3  1  0.805294  0.806036  0.194335  1
  V  V4  1  0.190752  0.195073  0.807087  1
  V  V5  1  0.805294  0.194335  0.806036  1
  V  V6  1  0.190752  0.807087  0.195073  1
  V  V7  1  0.190752  0.807087  0.807087  1
  V  V8  1  0.805294  0.194335  0.194335  1
  V  V9  1  0.445985  0.444948  0.054534  1
  V  V10  1  0.051224  0.049251  0.449762  1
  V  V11  1  0.445985  0.054534  0.444948  1
  V  V12  1  0.051224  0.449762  0.049251  1
  V  V13  1  0.051224  0.449762  0.449762  1
  V  V14  1  0.445985  0.054534  0.054534  1
  Fe  Fe15  1  0.127591  0.624136  0.624136  1
  Fe  Fe16  1  0.626839  0.127234  0.622963  1
  Fe  Fe17  1  0.626839  0.622963  0.127234  1
  Fe  Fe18  1  0.626839  0.622963  0.622963  1
  Si  Si19  1  0.760300  0.413233  0.413233  1
  Si  Si20  1  0.414561  0.758081  0.413679  1
  Si  Si21  1  0.414561  0.413679  0.758081  1
  Si  Si22  1  0.414561  0.413679  0.413679  1
  Si  Si23  1  0.511326  0.829558  0.829558  1
  C  C24  1  0.627612  0.124129  0.124129  1
  C  C25  1  0.122531  0.625140  0.126164  1
  C  C26  1  0.122531  0.126164  0.625140  1
  C  C27  1  0.122531  0.126164  0.126164  1
