# generated using pymatgen
data_UTlI8
_symmetry_space_group_name_H-M   'P 1'
_cell_length_a   8.71421695
_cell_length_b   8.71421521
_cell_length_c   9.04473815
_cell_angle_alpha   80.68916147
_cell_angle_beta   80.68917173
_cell_angle_gamma   92.42926921
_symmetry_Int_Tables_number   1
_chemical_formula_structural   UTlI8
_chemical_formula_sum   'U1 Tl1 I8'
_cell_volume   667.19688571
_cell_formula_units_Z   1
loop_
 _symmetry_equiv_pos_site_id
 _symmetry_equiv_pos_as_xyz
  1  'x, y, z'
loop_
 _atom_site_type_symbol
 _atom_site_label
 _atom_site_symmetry_multiplicity
 _atom_site_fract_x
 _atom_site_fract_y
 _atom_site_fract_z
 _atom_site_occupancy
  U  U0  1  0.911941  0.088059  0.750000  1
  Tl  Tl1  1  0.035353  0.964647  0.250000  1
  I  I2  1  0.946430  0.795333  0.947096  1
  I  I3  1  0.204667  0.053570  0.552904  1
  I  I4  1  0.082759  0.266808  0.928708  1
  I  I5  1  0.733192  0.917241  0.571292  1
  I  I6  1  0.408517  0.814222  0.158388  1
  I  I7  1  0.185778  0.591483  0.341612  1
  I  I8  1  0.620887  0.129525  0.952200  1
  I  I9  1  0.870475  0.379113  0.547800  1
