# generated using pymatgen
data_Dy5Y3(TcB6)4
_symmetry_space_group_name_H-M   'P 1'
_cell_length_a   3.69403100
_cell_length_b   9.17558702
_cell_length_c   11.56373800
_cell_angle_alpha   89.99677444
_cell_angle_beta   90.00000000
_cell_angle_gamma   90.00000000
_symmetry_Int_Tables_number   1
_chemical_formula_structural   Dy5Y3(TcB6)4
_chemical_formula_sum   'Dy5 Y3 Tc4 B24'
_cell_volume   391.95177594
_cell_formula_units_Z   1
loop_
 _symmetry_equiv_pos_site_id
 _symmetry_equiv_pos_as_xyz
  1  'x, y, z'
loop_
 _atom_site_type_symbol
 _atom_site_label
 _atom_site_symmetry_multiplicity
 _atom_site_fract_x
 _atom_site_fract_y
 _atom_site_fract_z
 _atom_site_occupancy
  Dy  Dy0  1  0.000000  0.176317  0.914139  1
  Dy  Dy1  1  0.000000  0.942355  0.369282  1
  Dy  Dy2  1  0.000000  0.057687  0.630702  1
  Dy  Dy3  1  0.000000  0.442200  0.130637  1
  Dy  Dy4  1  0.000000  0.557791  0.869347  1
  Y  Y5  1  0.000000  0.323364  0.414146  1
  Y  Y6  1  0.000000  0.676615  0.585881  1
  Y  Y7  1  0.000000  0.823490  0.085822  1
  Tc  Tc8  1  0.000000  0.638199  0.320579  1
  Tc  Tc9  1  0.000000  0.361702  0.679552  1
  Tc  Tc10  1  0.000000  0.138200  0.179248  1
  Tc  Tc11  1  0.000000  0.861946  0.820675  1
  B  B12  1  0.500000  0.553094  0.432849  1
  B  B13  1  0.500000  0.446848  0.567259  1
  B  B14  1  0.500000  0.053297  0.067047  1
  B  B15  1  0.500000  0.947047  0.932764  1
  B  B16  1  0.500000  0.748464  0.418429  1
  B  B17  1  0.500000  0.251564  0.581669  1
  B  B18  1  0.500000  0.248368  0.081415  1
  B  B19  1  0.500000  0.751677  0.918396  1
  B  B20  1  0.500000  0.791318  0.265327  1
  B  B21  1  0.500000  0.208657  0.734810  1
  B  B22  1  0.500000  0.291208  0.234518  1
  B  B23  1  0.500000  0.708810  0.765422  1
  B  B24  1  0.500000  0.630403  0.185793  1
  B  B25  1  0.500000  0.369401  0.814349  1
  B  B26  1  0.500000  0.130409  0.314074  1
  B  B27  1  0.500000  0.869641  0.685882  1
  B  B28  1  0.500000  0.982113  0.211607  1
  B  B29  1  0.500000  0.018074  0.788375  1
  B  B30  1  0.500000  0.482002  0.288288  1
  B  B31  1  0.500000  0.517898  0.711777  1
  B  B32  1  0.500000  0.600200  0.028108  1
  B  B33  1  0.500000  0.399608  0.971848  1
  B  B34  1  0.500000  0.100211  0.471882  1
  B  B35  1  0.500000  0.899820  0.528104  1
