# generated using pymatgen
data_YbHgGePd3
_symmetry_space_group_name_H-M   'P 1'
_cell_length_a   5.16203008
_cell_length_b   5.16203068
_cell_length_c   5.16202997
_cell_angle_alpha   65.47356516
_cell_angle_beta   65.47356328
_cell_angle_gamma   65.47357243
_symmetry_Int_Tables_number   1
_chemical_formula_structural   YbHgGePd3
_chemical_formula_sum   'Yb1 Hg1 Ge1 Pd3'
_cell_volume   108.83935540
_cell_formula_units_Z   1
loop_
 _symmetry_equiv_pos_site_id
 _symmetry_equiv_pos_as_xyz
  1  'x, y, z'
loop_
 _atom_site_type_symbol
 _atom_site_label
 _atom_site_symmetry_multiplicity
 _atom_site_fract_x
 _atom_site_fract_y
 _atom_site_fract_z
 _atom_site_occupancy
  Yb  Yb0  1  0.125360  0.125360  0.125360  1
  Hg  Hg1  1  0.872823  0.872823  0.872823  1
  Ge  Ge2  1  0.500122  0.500122  0.500122  1
  Pd  Pd3  1  0.500946  0.500946  0.999804  1
  Pd  Pd4  1  0.999804  0.500946  0.500946  1
  Pd  Pd5  1  0.500946  0.999804  0.500946  1
