# generated using pymatgen
data_CeSmLu2(B6Ru)2
_symmetry_space_group_name_H-M   'P 1'
_cell_length_a   3.67013800
_cell_length_b   9.12665092
_cell_length_c   11.51821043
_cell_angle_alpha   90.07432423
_cell_angle_beta   90.00000000
_cell_angle_gamma   90.00000000
_symmetry_Int_Tables_number   1
_chemical_formula_structural   CeSmLu2(B6Ru)2
_chemical_formula_sum   'Ce2 Sm2 Lu4 B24 Ru4'
_cell_volume   385.81443902
_cell_formula_units_Z   2
loop_
 _symmetry_equiv_pos_site_id
 _symmetry_equiv_pos_as_xyz
  1  'x, y, z'
loop_
 _atom_site_type_symbol
 _atom_site_label
 _atom_site_symmetry_multiplicity
 _atom_site_fract_x
 _atom_site_fract_y
 _atom_site_fract_z
 _atom_site_occupancy
  Ce  Ce0  1  0.000000  0.322128  0.414113  1
  Ce  Ce1  1  0.000000  0.677872  0.585887  1
  Sm  Sm2  1  0.000000  0.821643  0.085412  1
  Sm  Sm3  1  0.000000  0.178357  0.914588  1
  Lu  Lu4  1  0.000000  0.944641  0.372856  1
  Lu  Lu5  1  0.000000  0.055359  0.627144  1
  Lu  Lu6  1  0.000000  0.444165  0.126737  1
  Lu  Lu7  1  0.000000  0.555835  0.873263  1
  B  B8  1  0.500000  0.555154  0.431650  1
  B  B9  1  0.500000  0.444846  0.568350  1
  B  B10  1  0.500000  0.055756  0.068811  1
  B  B11  1  0.500000  0.944244  0.931189  1
  B  B12  1  0.500000  0.751051  0.418169  1
  B  B13  1  0.500000  0.248949  0.581831  1
  B  B14  1  0.500000  0.250892  0.081850  1
  B  B15  1  0.500000  0.749108  0.918150  1
  B  B16  1  0.500000  0.791973  0.265614  1
  B  B17  1  0.500000  0.208027  0.734386  1
  B  B18  1  0.500000  0.292129  0.234137  1
  B  B19  1  0.500000  0.707871  0.765863  1
  B  B20  1  0.500000  0.630425  0.183859  1
  B  B21  1  0.500000  0.369575  0.816141  1
  B  B22  1  0.500000  0.130854  0.315974  1
  B  B23  1  0.500000  0.869146  0.684026  1
  B  B24  1  0.500000  0.984003  0.214055  1
  B  B25  1  0.500000  0.015997  0.785945  1
  B  B26  1  0.500000  0.484345  0.285519  1
  B  B27  1  0.500000  0.515655  0.714481  1
  B  B28  1  0.500000  0.602800  0.027990  1
  B  B29  1  0.500000  0.397200  0.972010  1
  B  B30  1  0.500000  0.102991  0.472112  1
  B  B31  1  0.500000  0.897009  0.527888  1
  Ru  Ru32  1  0.000000  0.639127  0.320716  1
  Ru  Ru33  1  0.000000  0.360873  0.679284  1
  Ru  Ru34  1  0.000000  0.140175  0.181902  1
  Ru  Ru35  1  0.000000  0.859825  0.818098  1
