# generated using pymatgen
data_Y3NbOs2O
_symmetry_space_group_name_H-M   'P 1'
_cell_length_a   9.06641298
_cell_length_b   9.06639033
_cell_length_c   9.06619400
_cell_angle_alpha   59.99966586
_cell_angle_beta   60.00073356
_cell_angle_gamma   59.99972595
_symmetry_Int_Tables_number   1
_chemical_formula_structural   Y3NbOs2O
_chemical_formula_sum   'Y12 Nb4 Os8 O4'
_cell_volume   526.96325321
_cell_formula_units_Z   4
loop_
 _symmetry_equiv_pos_site_id
 _symmetry_equiv_pos_as_xyz
  1  'x, y, z'
loop_
 _atom_site_type_symbol
 _atom_site_label
 _atom_site_symmetry_multiplicity
 _atom_site_fract_x
 _atom_site_fract_y
 _atom_site_fract_z
 _atom_site_occupancy
  Y  Y0  1  0.809979  0.809984  0.190015  1
  Y  Y1  1  0.190015  0.190014  0.809983  1
  Y  Y2  1  0.809980  0.190017  0.809982  1
  Y  Y3  1  0.190020  0.809979  0.190022  1
  Y  Y4  1  0.190012  0.809983  0.809981  1
  Y  Y5  1  0.809980  0.190019  0.190019  1
  Y  Y6  1  0.440009  0.440012  0.059996  1
  Y  Y7  1  0.059992  0.059988  0.440009  1
  Y  Y8  1  0.440008  0.059993  0.440009  1
  Y  Y9  1  0.059982  0.440015  0.059986  1
  Y  Y10  1  0.059992  0.440012  0.440011  1
  Y  Y11  1  0.440009  0.059985  0.059993  1
  Nb  Nb12  1  0.125007  0.624997  0.624998  1
  Nb  Nb13  1  0.625002  0.125017  0.624990  1
  Nb  Nb14  1  0.624997  0.624995  0.125017  1
  Nb  Nb15  1  0.624996  0.624995  0.624989  1
  Os  Os16  1  0.735190  0.421610  0.421600  1
  Os  Os17  1  0.421613  0.735190  0.421605  1
  Os  Os18  1  0.421595  0.421594  0.735200  1
  Os  Os19  1  0.421605  0.421593  0.421618  1
  Os  Os20  1  0.514827  0.828384  0.828397  1
  Os  Os21  1  0.828389  0.514819  0.828389  1
  Os  Os22  1  0.828407  0.828396  0.514813  1
  Os  Os23  1  0.828399  0.828406  0.828377  1
  O  O24  1  0.625002  0.125000  0.125000  1
  O  O25  1  0.124998  0.625005  0.124998  1
  O  O26  1  0.124997  0.125001  0.625002  1
  O  O27  1  0.124997  0.124998  0.125000  1
