# generated using pymatgen
data_Ho5Nb2Co17As12
_symmetry_space_group_name_H-M   'P 1'
_cell_length_a   12.57759910
_cell_length_b   12.54188122
_cell_length_c   3.80572400
_cell_angle_alpha   90.00000000
_cell_angle_beta   90.00000000
_cell_angle_gamma   119.90610832
_symmetry_Int_Tables_number   1
_chemical_formula_structural   Ho5Nb2Co17As12
_chemical_formula_sum   'Ho5 Nb2 Co17 As12'
_cell_volume   520.40141337
_cell_formula_units_Z   1
loop_
 _symmetry_equiv_pos_site_id
 _symmetry_equiv_pos_as_xyz
  1  'x, y, z'
loop_
 _atom_site_type_symbol
 _atom_site_label
 _atom_site_symmetry_multiplicity
 _atom_site_fract_x
 _atom_site_fract_y
 _atom_site_fract_z
 _atom_site_occupancy
  Ho  Ho0  1  0.666211  0.334587  0.000000  1
  Ho  Ho1  1  0.333789  0.668377  0.000000  1
  Ho  Ho2  1  0.816352  0.817434  0.500000  1
  Ho  Ho3  1  0.183648  0.001082  0.500000  1
  Ho  Ho4  1  0.000000  0.189043  0.500000  1
  Nb  Nb5  1  0.440161  0.440598  0.000000  1
  Nb  Nb6  1  0.559839  0.000437  0.000000  1
  Co  Co7  1  0.876128  0.357742  0.500000  1
  Co  Co8  1  0.646635  0.520504  0.500000  1
  Co  Co9  1  0.480101  0.124602  0.500000  1
  Co  Co10  1  0.353365  0.873868  0.500000  1
  Co  Co11  1  0.519899  0.644499  0.500000  1
  Co  Co12  1  0.123872  0.481613  0.500000  1
  Co  Co13  1  0.000000  0.555001  0.000000  1
  Co  Co14  1  0.804055  0.179671  0.000000  1
  Co  Co15  1  0.825345  0.622385  0.000000  1
  Co  Co16  1  0.372536  0.195988  0.000000  1
  Co  Co17  1  0.174655  0.797041  0.000000  1
  Co  Co18  1  0.627464  0.823453  0.000000  1
  Co  Co19  1  0.195945  0.375617  0.000000  1
  Co  Co20  1  0.280964  0.281097  0.500000  1
  Co  Co21  1  0.719036  0.000133  0.500000  1
  Co  Co22  1  0.000000  0.714792  0.500000  1
  Co  Co23  1  0.000000  0.997249  0.000000  1
  As  As24  1  0.688211  0.171435  0.500000  1
  As  As25  1  0.835572  0.518095  0.500000  1
  As  As26  1  0.482110  0.312657  0.500000  1
  As  As27  1  0.164428  0.682524  0.500000  1
  As  As28  1  0.517890  0.830547  0.500000  1
  As  As29  1  0.311789  0.483224  0.500000  1
  As  As30  1  0.175598  0.177589  0.000000  1
  As  As31  1  0.824402  0.001991  0.000000  1
  As  As32  1  0.000000  0.819255  0.000000  1
  As  As33  1  0.645636  0.642333  0.000000  1
  As  As34  1  0.354364  0.996697  0.000000  1
  As  As35  1  0.000000  0.366842  0.000000  1
