# generated using pymatgen
data_U4Re7Si5Ge
_symmetry_space_group_name_H-M   'P 1'
_cell_length_a   7.16842276
_cell_length_b   7.16842220
_cell_length_c   7.16842243
_cell_angle_alpha   109.56904732
_cell_angle_beta   109.56904404
_cell_angle_gamma   109.27574146
_symmetry_Int_Tables_number   1
_chemical_formula_structural   U4Re7Si5Ge
_chemical_formula_sum   'U4 Re7 Si5 Ge1'
_cell_volume   283.56010370
_cell_formula_units_Z   1
loop_
 _symmetry_equiv_pos_site_id
 _symmetry_equiv_pos_as_xyz
  1  'x, y, z'
loop_
 _atom_site_type_symbol
 _atom_site_label
 _atom_site_symmetry_multiplicity
 _atom_site_fract_x
 _atom_site_fract_y
 _atom_site_fract_z
 _atom_site_occupancy
  U  U0  1  0.504441  0.504441  0.505896  1
  U  U1  1  0.998545  0.998545  0.494104  1
  U  U2  1  0.504441  0.998545  0.000000  1
  U  U3  1  0.998545  0.504441  0.000000  1
  Re  Re4  1  0.751888  0.251888  0.500000  1
  Re  Re5  1  0.501519  0.250361  0.748843  1
  Re  Re6  1  0.501519  0.752676  0.251157  1
  Re  Re7  1  0.250361  0.501519  0.748843  1
  Re  Re8  1  0.752676  0.501519  0.251157  1
  Re  Re9  1  0.251888  0.751888  0.500000  1
  Re  Re10  1  0.989941  0.989941  0.000000  1
  Si  Si11  1  0.001720  0.311801  0.310080  1
  Si  Si12  1  0.001720  0.691640  0.689920  1
  Si  Si13  1  0.691640  0.001720  0.689920  1
  Si  Si14  1  0.311801  0.001720  0.310080  1
  Si  Si15  1  0.685739  0.685739  0.000000  1
  Ge  Ge16  1  0.301616  0.301616  0.000000  1
