# generated using pymatgen
data_Ce3SmHo4(ReB6)4
_symmetry_space_group_name_H-M   'P 1'
_cell_length_a   3.72394200
_cell_length_b   9.21120078
_cell_length_c   11.61097107
_cell_angle_alpha   90.08526474
_cell_angle_beta   90.00000000
_cell_angle_gamma   90.00000000
_symmetry_Int_Tables_number   1
_chemical_formula_structural   Ce3SmHo4(ReB6)4
_chemical_formula_sum   'Ce3 Sm1 Ho4 Re4 B24'
_cell_volume   398.27882665
_cell_formula_units_Z   1
loop_
 _symmetry_equiv_pos_site_id
 _symmetry_equiv_pos_as_xyz
  1  'x, y, z'
loop_
 _atom_site_type_symbol
 _atom_site_label
 _atom_site_symmetry_multiplicity
 _atom_site_fract_x
 _atom_site_fract_y
 _atom_site_fract_z
 _atom_site_occupancy
  Ce  Ce0  1  0.000000  0.321982  0.414479  1
  Ce  Ce1  1  0.000000  0.677791  0.585999  1
  Ce  Ce2  1  0.000000  0.823561  0.085784  1
  Sm  Sm3  1  0.000000  0.177351  0.913769  1
  Ho  Ho4  1  0.000000  0.944299  0.372944  1
  Ho  Ho5  1  0.000000  0.056200  0.627961  1
  Ho  Ho6  1  0.000000  0.443013  0.128421  1
  Ho  Ho7  1  0.000000  0.556262  0.871338  1
  Re  Re8  1  0.000000  0.638545  0.320759  1
  Re  Re9  1  0.000000  0.363057  0.677592  1
  Re  Re10  1  0.000000  0.138498  0.180674  1
  Re  Re11  1  0.000000  0.859932  0.820349  1
  B  B12  1  0.500000  0.554501  0.431339  1
  B  B13  1  0.500000  0.445832  0.568124  1
  B  B14  1  0.500000  0.053758  0.068939  1
  B  B15  1  0.500000  0.944801  0.931893  1
  B  B16  1  0.500000  0.748768  0.418170  1
  B  B17  1  0.500000  0.251117  0.581690  1
  B  B18  1  0.500000  0.248811  0.082631  1
  B  B19  1  0.500000  0.751154  0.918004  1
  B  B20  1  0.500000  0.791365  0.266114  1
  B  B21  1  0.500000  0.208705  0.733253  1
  B  B22  1  0.500000  0.291246  0.234156  1
  B  B23  1  0.500000  0.708552  0.765860  1
  B  B24  1  0.500000  0.631101  0.185831  1
  B  B25  1  0.500000  0.369544  0.813706  1
  B  B26  1  0.500000  0.131413  0.314543  1
  B  B27  1  0.500000  0.868679  0.685786  1
  B  B28  1  0.500000  0.983557  0.213109  1
  B  B29  1  0.500000  0.016231  0.786579  1
  B  B30  1  0.500000  0.483644  0.287110  1
  B  B31  1  0.500000  0.516666  0.712705  1
  B  B32  1  0.500000  0.601896  0.028344  1
  B  B33  1  0.500000  0.398153  0.971504  1
  B  B34  1  0.500000  0.106026  0.470990  1
  B  B35  1  0.500000  0.893988  0.529551  1
