# generated using pymatgen
data_Ba2TmGaO5
_symmetry_space_group_name_H-M   'P 1'
_cell_length_a   6.08823800
_cell_length_b   7.81125046
_cell_length_c   12.67066331
_cell_angle_alpha   92.05578637
_cell_angle_beta   90.00000000
_cell_angle_gamma   90.00000000
_symmetry_Int_Tables_number   1
_chemical_formula_structural   Ba2TmGaO5
_chemical_formula_sum   'Ba8 Tm4 Ga4 O20'
_cell_volume   602.18775732
_cell_formula_units_Z   4
loop_
 _symmetry_equiv_pos_site_id
 _symmetry_equiv_pos_as_xyz
  1  'x, y, z'
loop_
 _atom_site_type_symbol
 _atom_site_label
 _atom_site_symmetry_multiplicity
 _atom_site_fract_x
 _atom_site_fract_y
 _atom_site_fract_z
 _atom_site_occupancy
  Ba  Ba0  1  0.761438  0.483254  0.348098  1
  Ba  Ba1  1  0.738562  0.983254  0.848098  1
  Ba  Ba2  1  0.238562  0.516746  0.651902  1
  Ba  Ba3  1  0.261438  0.016746  0.151902  1
  Ba  Ba4  1  0.756528  0.993408  0.381069  1
  Ba  Ba5  1  0.743472  0.493408  0.881069  1
  Ba  Ba6  1  0.243472  0.006592  0.618931  1
  Ba  Ba7  1  0.256528  0.506592  0.118931  1
  Tm  Tm8  1  0.749462  0.265418  0.629876  1
  Tm  Tm9  1  0.750538  0.765418  0.129876  1
  Tm  Tm10  1  0.250538  0.734582  0.370124  1
  Tm  Tm11  1  0.249462  0.234582  0.870124  1
  Ga  Ga12  1  0.735146  0.741891  0.581096  1
  Ga  Ga13  1  0.764854  0.241891  0.081096  1
  Ga  Ga14  1  0.264854  0.258109  0.418904  1
  Ga  Ga15  1  0.235146  0.758109  0.918904  1
  O  O16  1  0.759138  0.972465  0.629178  1
  O  O17  1  0.740862  0.472465  0.129178  1
  O  O18  1  0.240862  0.027535  0.370822  1
  O  O19  1  0.259138  0.527535  0.870822  1
  O  O20  1  0.732486  0.064282  0.174161  1
  O  O21  1  0.767514  0.564282  0.674161  1
  O  O22  1  0.267514  0.935718  0.825839  1
  O  O23  1  0.232486  0.435718  0.325839  1
  O  O24  1  0.538547  0.745523  0.269544  1
  O  O25  1  0.961453  0.245523  0.769544  1
  O  O26  1  0.461453  0.254477  0.730456  1
  O  O27  1  0.038547  0.754477  0.230456  1
  O  O28  1  0.543889  0.223070  0.976453  1
  O  O29  1  0.956111  0.723070  0.476453  1
  O  O30  1  0.456111  0.776930  0.023547  1
  O  O31  1  0.043889  0.276930  0.523547  1
  O  O32  1  0.042090  0.229005  0.016355  1
  O  O33  1  0.457910  0.729005  0.516355  1
  O  O34  1  0.957910  0.770995  0.983645  1
  O  O35  1  0.542090  0.270995  0.483645  1
