# generated using pymatgen
data_CsBaGd6F20
_symmetry_space_group_name_H-M   'P 1'
_cell_length_a   8.51081748
_cell_length_b   8.51081748
_cell_length_c   8.51081700
_cell_angle_alpha   59.99999799
_cell_angle_beta   59.99999800
_cell_angle_gamma   59.99999417
_symmetry_Int_Tables_number   1
_chemical_formula_structural   CsBaGd6F20
_chemical_formula_sum   'Cs1 Ba1 Gd6 F20'
_cell_volume   435.91195165
_cell_formula_units_Z   1
loop_
 _symmetry_equiv_pos_site_id
 _symmetry_equiv_pos_as_xyz
  1  'x, y, z'
loop_
 _atom_site_type_symbol
 _atom_site_label
 _atom_site_symmetry_multiplicity
 _atom_site_fract_x
 _atom_site_fract_y
 _atom_site_fract_z
 _atom_site_occupancy
  Cs  Cs0  1  0.250000  0.250000  0.250000  1
  Ba  Ba1  1  0.750000  0.750000  0.750000  1
  Gd  Gd2  1  0.759428  0.759428  0.240572  1
  Gd  Gd3  1  0.240572  0.759428  0.240572  1
  Gd  Gd4  1  0.759428  0.240572  0.240572  1
  Gd  Gd5  1  0.240572  0.240572  0.759428  1
  Gd  Gd6  1  0.759428  0.240572  0.759428  1
  Gd  Gd7  1  0.240572  0.759428  0.759428  1
  F  F8  1  0.879477  0.879477  0.361568  1
  F  F9  1  0.879477  0.361568  0.879477  1
  F  F10  1  0.361568  0.879477  0.879477  1
  F  F11  1  0.879477  0.879477  0.879477  1
  F  F12  1  0.102765  0.102765  0.691705  1
  F  F13  1  0.102765  0.691705  0.102765  1
  F  F14  1  0.691705  0.102765  0.102765  1
  F  F15  1  0.102765  0.102765  0.102765  1
  F  F16  1  0.502391  0.502391  0.829930  1
  F  F17  1  0.165290  0.502391  0.829930  1
  F  F18  1  0.502391  0.165290  0.829930  1
  F  F19  1  0.165290  0.829930  0.502391  1
  F  F20  1  0.502391  0.829930  0.502391  1
  F  F21  1  0.502391  0.829930  0.165290  1
  F  F22  1  0.829930  0.165290  0.502391  1
  F  F23  1  0.829930  0.502391  0.165290  1
  F  F24  1  0.829930  0.502391  0.502391  1
  F  F25  1  0.502391  0.502391  0.165290  1
  F  F26  1  0.502391  0.165290  0.502391  1
  F  F27  1  0.165290  0.502391  0.502391  1
