# generated using pymatgen
data_Er4Ga5Tc3
_symmetry_space_group_name_H-M   'P 1'
_cell_length_a   5.45269061
_cell_length_b   5.51273564
_cell_length_c   8.67800700
_cell_angle_alpha   90.00000000
_cell_angle_beta   90.00000000
_cell_angle_gamma   120.36495104
_symmetry_Int_Tables_number   1
_chemical_formula_structural   Er4Ga5Tc3
_chemical_formula_sum   'Er4 Ga5 Tc3'
_cell_volume   225.07111460
_cell_formula_units_Z   1
loop_
 _symmetry_equiv_pos_site_id
 _symmetry_equiv_pos_as_xyz
  1  'x, y, z'
loop_
 _atom_site_type_symbol
 _atom_site_label
 _atom_site_symmetry_multiplicity
 _atom_site_fract_x
 _atom_site_fract_y
 _atom_site_fract_z
 _atom_site_occupancy
  Er  Er0  1  0.334460  0.667231  0.443491  1
  Er  Er1  1  0.662604  0.331302  0.552225  1
  Er  Er2  1  0.662604  0.331302  0.947775  1
  Er  Er3  1  0.334460  0.667231  0.056509  1
  Ga  Ga4  1  0.835478  0.164864  0.250000  1
  Ga  Ga5  1  0.835478  0.670615  0.250000  1
  Ga  Ga6  1  0.326561  0.163281  0.250000  1
  Ga  Ga7  1  0.189284  0.841249  0.750000  1
  Ga  Ga8  1  0.189284  0.348034  0.750000  1
  Tc  Tc9  1  0.975653  0.987827  0.510085  1
  Tc  Tc10  1  0.975653  0.987827  0.989915  1
  Tc  Tc11  1  0.678479  0.839239  0.750000  1
