# generated using pymatgen
data_NdTlIrPdO7
_symmetry_space_group_name_H-M   'P 1'
_cell_length_a   7.37301870
_cell_length_b   7.37301639
_cell_length_c   7.50928200
_cell_angle_alpha   59.38673387
_cell_angle_beta   59.38674450
_cell_angle_gamma   58.91238056
_symmetry_Int_Tables_number   1
_chemical_formula_structural   NdTlIrPdO7
_chemical_formula_sum   'Nd2 Tl2 Ir2 Pd2 O14'
_cell_volume   283.56621603
_cell_formula_units_Z   2
loop_
 _symmetry_equiv_pos_site_id
 _symmetry_equiv_pos_as_xyz
  1  'x, y, z'
loop_
 _atom_site_type_symbol
 _atom_site_label
 _atom_site_symmetry_multiplicity
 _atom_site_fract_x
 _atom_site_fract_y
 _atom_site_fract_z
 _atom_site_occupancy
  Nd  Nd0  1  0.125000  0.125000  0.625000  1
  Nd  Nd1  1  0.125000  0.125000  0.125000  1
  Tl  Tl2  1  0.625000  0.125000  0.125000  1
  Tl  Tl3  1  0.125000  0.625000  0.125000  1
  Ir  Ir4  1  0.625000  0.625000  0.125000  1
  Ir  Ir5  1  0.625000  0.625000  0.625000  1
  Pd  Pd6  1  0.125000  0.625000  0.625000  1
  Pd  Pd7  1  0.625000  0.125000  0.625000  1
  O  O8  1  0.701760  0.701760  0.298240  1
  O  O9  1  0.283393  0.283393  0.716607  1
  O  O10  1  0.702286  0.298733  0.709308  1
  O  O11  1  0.298733  0.702286  0.289673  1
  O  O12  1  0.298733  0.702286  0.709308  1
  O  O13  1  0.702286  0.298733  0.289673  1
  O  O14  1  0.548240  0.548240  0.951760  1
  O  O15  1  0.966607  0.966607  0.533393  1
  O  O16  1  0.547714  0.951267  0.540692  1
  O  O17  1  0.951267  0.547714  0.960327  1
  O  O18  1  0.951267  0.547714  0.540692  1
  O  O19  1  0.547714  0.951267  0.960327  1
  O  O20  1  0.255226  0.255226  0.244774  1
  O  O21  1  0.994774  0.994774  0.005226  1
