# generated using pymatgen
data_Pr12CoTcI17
_symmetry_space_group_name_H-M   'P 1'
_cell_length_a   10.11482529
_cell_length_b   12.14872694
_cell_length_c   12.18853469
_cell_angle_alpha   93.50042323
_cell_angle_beta   104.70387520
_cell_angle_gamma   114.38944434
_symmetry_Int_Tables_number   1
_chemical_formula_structural   Pr12CoTcI17
_chemical_formula_sum   'Pr12 Co1 Tc1 I17'
_cell_volume   1295.82199100
_cell_formula_units_Z   1
loop_
 _symmetry_equiv_pos_site_id
 _symmetry_equiv_pos_as_xyz
  1  'x, y, z'
loop_
 _atom_site_type_symbol
 _atom_site_label
 _atom_site_symmetry_multiplicity
 _atom_site_fract_x
 _atom_site_fract_y
 _atom_site_fract_z
 _atom_site_occupancy
  Pr  Pr0  1  0.061386  0.515779  0.324830  1
  Pr  Pr1  1  0.989946  0.809360  0.584236  1
  Pr  Pr2  1  0.647275  0.240180  0.283785  1
  Pr  Pr3  1  0.011351  0.188093  0.420576  1
  Pr  Pr4  1  0.221690  0.671061  0.985731  1
  Pr  Pr5  1  0.257218  0.981530  0.890806  1
  Pr  Pr6  1  0.352363  0.758826  0.716553  1
  Pr  Pr7  1  0.945345  0.493023  0.678965  1
  Pr  Pr8  1  0.737630  0.008697  0.106688  1
  Pr  Pr9  1  0.149197  0.287695  0.151387  1
  Pr  Pr10  1  0.775675  0.331765  0.007002  1
  Pr  Pr11  1  0.851201  0.712265  0.848800  1
  Co  Co12  1  0.103610  0.738366  0.784951  1
  Tc  Tc13  1  0.895346  0.261883  0.213731  1
  I  I14  1  0.785425  0.528772  0.419446  1
  I  I15  1  0.641393  0.420676  0.756747  1
  I  I16  1  0.843897  0.894028  0.326708  1
  I  I17  1  0.323849  0.212753  0.369923  1
  I  I18  1  0.157068  0.102918  0.677307  1
  I  I19  1  0.585213  0.051565  0.843205  1
  I  I20  1  0.756894  0.186145  0.539260  1
  I  I21  1  0.547259  0.704808  0.951386  1
  I  I22  1  0.357503  0.581683  0.238896  1
  I  I23  1  0.215307  0.471834  0.583127  1
  I  I24  1  0.056546  0.369012  0.896872  1
  I  I25  1  0.451228  0.289462  0.045297  1
  I  I26  1  0.000428  0.000102  0.999268  1
  I  I27  1  0.246233  0.819189  0.464648  1
  I  I28  1  0.410952  0.946758  0.155443  1
  I  I29  1  0.674674  0.787922  0.632022  1
  I  I30  1  0.946900  0.633853  0.102404  1
