# generated using pymatgen
data_La4Zn8PdRh3
_symmetry_space_group_name_H-M   'P 1'
_cell_length_a   5.67522576
_cell_length_b   7.80114880
_cell_length_c   7.29811200
_cell_angle_alpha   90.00000000
_cell_angle_beta   90.00000000
_cell_angle_gamma   90.37115693
_symmetry_Int_Tables_number   1
_chemical_formula_structural   La4Zn8PdRh3
_chemical_formula_sum   'La4 Zn8 Pd1 Rh3'
_cell_volume   323.10458115
_cell_formula_units_Z   1
loop_
 _symmetry_equiv_pos_site_id
 _symmetry_equiv_pos_as_xyz
  1  'x, y, z'
loop_
 _atom_site_type_symbol
 _atom_site_label
 _atom_site_symmetry_multiplicity
 _atom_site_fract_x
 _atom_site_fract_y
 _atom_site_fract_z
 _atom_site_occupancy
  La  La0  1  0.414940  0.546153  0.250000  1
  La  La1  1  0.086139  0.043344  0.250000  1
  La  La2  1  0.603599  0.446563  0.750000  1
  La  La3  1  0.905336  0.963333  0.750000  1
  Zn  Zn4  1  0.923743  0.657290  0.060101  1
  Zn  Zn5  1  0.572531  0.154217  0.439710  1
  Zn  Zn6  1  0.079907  0.342285  0.552576  1
  Zn  Zn7  1  0.425245  0.845279  0.939675  1
  Zn  Zn8  1  0.079907  0.342285  0.947424  1
  Zn  Zn9  1  0.425245  0.845279  0.560325  1
  Zn  Zn10  1  0.923743  0.657290  0.439899  1
  Zn  Zn11  1  0.572531  0.154217  0.060290  1
  Pd  Pd12  1  0.156712  0.630185  0.750000  1
  Rh  Rh13  1  0.661377  0.867399  0.250000  1
  Rh  Rh14  1  0.833955  0.368092  0.250000  1
  Rh  Rh15  1  0.335091  0.136788  0.750000  1
