# generated using pymatgen
data_Sr2Bi2RuRh3O14
_symmetry_space_group_name_H-M   'P 1'
_cell_length_a   7.42531543
_cell_length_b   7.38067482
_cell_length_c   7.38067472
_cell_angle_alpha   58.85305991
_cell_angle_beta   59.57835933
_cell_angle_gamma   59.57835977
_symmetry_Int_Tables_number   1
_chemical_formula_structural   Sr2Bi2RuRh3O14
_chemical_formula_sum   'Sr2 Bi2 Ru1 Rh3 O14'
_cell_volume   281.66699236
_cell_formula_units_Z   1
loop_
 _symmetry_equiv_pos_site_id
 _symmetry_equiv_pos_as_xyz
  1  'x, y, z'
loop_
 _atom_site_type_symbol
 _atom_site_label
 _atom_site_symmetry_multiplicity
 _atom_site_fract_x
 _atom_site_fract_y
 _atom_site_fract_z
 _atom_site_occupancy
  Sr  Sr0  1  0.125000  0.625000  0.125000  1
  Sr  Sr1  1  0.125000  0.125000  0.625000  1
  Bi  Bi2  1  0.125000  0.125000  0.125000  1
  Bi  Bi3  1  0.625000  0.125000  0.125000  1
  Ru  Ru4  1  0.625000  0.625000  0.625000  1
  Rh  Rh5  1  0.625000  0.625000  0.125000  1
  Rh  Rh6  1  0.125000  0.625000  0.625000  1
  Rh  Rh7  1  0.625000  0.125000  0.625000  1
  O  O8  1  0.264558  0.233875  0.233875  1
  O  O9  1  0.295123  0.714199  0.291900  1
  O  O10  1  0.954877  0.958100  0.535801  1
  O  O11  1  0.559442  0.949984  0.538888  1
  O  O12  1  0.690558  0.711112  0.300016  1
  O  O13  1  0.938326  0.556804  0.556804  1
  O  O14  1  0.690558  0.300016  0.711112  1
  O  O15  1  0.295123  0.291900  0.714199  1
  O  O16  1  0.702233  0.295863  0.295863  1
  O  O17  1  0.311674  0.693196  0.693196  1
  O  O18  1  0.954877  0.535801  0.958100  1
  O  O19  1  0.559442  0.538888  0.949984  1
  O  O20  1  0.985442  0.016125  0.016125  1
  O  O21  1  0.547767  0.954137  0.954137  1
