# generated using pymatgen
data_HoEr11(TcRu)2
_symmetry_space_group_name_H-M   'P 1'
_cell_length_a   6.23328601
_cell_length_b   7.31952901
_cell_length_c   9.03601300
_cell_angle_alpha   90.00000000
_cell_angle_beta   90.00000000
_cell_angle_gamma   89.99395433
_symmetry_Int_Tables_number   1
_chemical_formula_structural   HoEr11(TcRu)2
_chemical_formula_sum   'Ho1 Er11 Tc2 Ru2'
_cell_volume   412.26554059
_cell_formula_units_Z   1
loop_
 _symmetry_equiv_pos_site_id
 _symmetry_equiv_pos_as_xyz
  1  'x, y, z'
loop_
 _atom_site_type_symbol
 _atom_site_label
 _atom_site_symmetry_multiplicity
 _atom_site_fract_x
 _atom_site_fract_y
 _atom_site_fract_z
 _atom_site_occupancy
  Ho  Ho0  1  0.874643  0.539475  0.250000  1
  Er  Er1  1  0.334504  0.676233  0.063265  1
  Er  Er2  1  0.165776  0.176208  0.436651  1
  Er  Er3  1  0.664344  0.324182  0.562727  1
  Er  Er4  1  0.835541  0.824315  0.937340  1
  Er  Er5  1  0.664344  0.324182  0.937273  1
  Er  Er6  1  0.835541  0.824315  0.562660  1
  Er  Er7  1  0.334504  0.676233  0.436735  1
  Er  Er8  1  0.165776  0.176208  0.063349  1
  Er  Er9  1  0.625437  0.039677  0.250000  1
  Er  Er10  1  0.131444  0.457132  0.750000  1
  Er  Er11  1  0.368531  0.957070  0.750000  1
  Tc  Tc12  1  0.038487  0.885935  0.250000  1
  Tc  Tc13  1  0.461171  0.385616  0.250000  1
  Ru  Ru14  1  0.960727  0.116578  0.750000  1
  Ru  Ru15  1  0.539230  0.616643  0.750000  1
