# generated using pymatgen
data_Y3Ho3Si5SnRh12
_symmetry_space_group_name_H-M   'P 1'
_cell_length_a   5.60581400
_cell_length_b   5.60581321
_cell_length_c   15.27840600
_cell_angle_alpha   90.00000000
_cell_angle_beta   90.00000000
_cell_angle_gamma   119.99999285
_symmetry_Int_Tables_number   1
_chemical_formula_structural   Y3Ho3Si5SnRh12
_chemical_formula_sum   'Y3 Ho3 Si5 Sn1 Rh12'
_cell_volume   415.80146595
_cell_formula_units_Z   1
loop_
 _symmetry_equiv_pos_site_id
 _symmetry_equiv_pos_as_xyz
  1  'x, y, z'
loop_
 _atom_site_type_symbol
 _atom_site_label
 _atom_site_symmetry_multiplicity
 _atom_site_fract_x
 _atom_site_fract_y
 _atom_site_fract_z
 _atom_site_occupancy
  Y  Y0  1  0.666667  0.333333  0.752405  1
  Y  Y1  1  0.333333  0.666667  0.461222  1
  Y  Y2  1  0.333333  0.666667  0.247525  1
  Ho  Ho3  1  0.666667  0.333333  0.964135  1
  Ho  Ho4  1  0.666667  0.333333  0.538822  1
  Ho  Ho5  1  0.333333  0.666667  0.035838  1
  Si  Si6  1  0.666667  0.333333  0.244163  1
  Si  Si7  1  0.000000  0.000000  0.245740  1
  Si  Si8  1  0.000000  0.000000  0.754297  1
  Si  Si9  1  0.333333  0.666667  0.755920  1
  Si  Si10  1  0.000000  0.000000  0.999987  1
  Sn  Sn11  1  0.000000  0.000000  0.500024  1
  Rh  Rh12  1  0.166131  0.332262  0.871680  1
  Rh  Rh13  1  0.168725  0.337449  0.640479  1
  Rh  Rh14  1  0.667738  0.833869  0.871680  1
  Rh  Rh15  1  0.337610  0.168806  0.359511  1
  Rh  Rh16  1  0.831194  0.662390  0.359511  1
  Rh  Rh17  1  0.831194  0.168806  0.359511  1
  Rh  Rh18  1  0.833879  0.166121  0.128305  1
  Rh  Rh19  1  0.332243  0.166121  0.128305  1
  Rh  Rh20  1  0.662551  0.831275  0.640479  1
  Rh  Rh21  1  0.168725  0.831275  0.640479  1
  Rh  Rh22  1  0.833879  0.667757  0.128305  1
  Rh  Rh23  1  0.166131  0.833869  0.871680  1
