# generated using pymatgen
data_Ba2EuTa5O15
_symmetry_space_group_name_H-M   'P 1'
_cell_length_a   4.00430600
_cell_length_b   12.72223800
_cell_length_c   12.72117600
_cell_angle_alpha   90.00000000
_cell_angle_beta   90.00000000
_cell_angle_gamma   90.00000000
_symmetry_Int_Tables_number   1
_chemical_formula_structural   Ba2EuTa5O15
_chemical_formula_sum   'Ba4 Eu2 Ta10 O30'
_cell_volume   648.06420576
_cell_formula_units_Z   2
loop_
 _symmetry_equiv_pos_site_id
 _symmetry_equiv_pos_as_xyz
  1  'x, y, z'
loop_
 _atom_site_type_symbol
 _atom_site_label
 _atom_site_symmetry_multiplicity
 _atom_site_fract_x
 _atom_site_fract_y
 _atom_site_fract_z
 _atom_site_occupancy
  Ba  Ba0  1  0.000000  0.169483  0.668872  1
  Ba  Ba1  1  0.000000  0.830517  0.331128  1
  Ba  Ba2  1  0.000000  0.330517  0.168872  1
  Ba  Ba3  1  0.000000  0.669483  0.831128  1
  Eu  Eu4  1  0.000000  0.500000  0.500000  1
  Eu  Eu5  1  0.000000  0.000000  0.000000  1
  Ta  Ta6  1  0.500000  0.576132  0.288950  1
  Ta  Ta7  1  0.500000  0.423868  0.711050  1
  Ta  Ta8  1  0.500000  0.076132  0.211050  1
  Ta  Ta9  1  0.500000  0.923868  0.788950  1
  Ta  Ta10  1  0.500000  0.000000  0.500000  1
  Ta  Ta11  1  0.500000  0.500000  0.000000  1
  Ta  Ta12  1  0.500000  0.710627  0.575985  1
  Ta  Ta13  1  0.500000  0.289373  0.424015  1
  Ta  Ta14  1  0.500000  0.789373  0.075985  1
  Ta  Ta15  1  0.500000  0.210627  0.924015  1
  O  O16  1  0.500000  0.506770  0.842719  1
  O  O17  1  0.500000  0.493230  0.157281  1
  O  O18  1  0.500000  0.993230  0.342719  1
  O  O19  1  0.500000  0.006770  0.657281  1
  O  O20  1  0.500000  0.842869  0.494071  1
  O  O21  1  0.500000  0.157131  0.505929  1
  O  O22  1  0.500000  0.342869  0.005929  1
  O  O23  1  0.500000  0.657131  0.994071  1
  O  O24  1  0.500000  0.565015  0.636687  1
  O  O25  1  0.500000  0.434985  0.363313  1
  O  O26  1  0.500000  0.934985  0.136687  1
  O  O27  1  0.500000  0.065015  0.863313  1
  O  O28  1  0.500000  0.637982  0.434027  1
  O  O29  1  0.500000  0.362018  0.565973  1
  O  O30  1  0.500000  0.137982  0.065973  1
  O  O31  1  0.500000  0.862018  0.934027  1
  O  O32  1  0.000000  0.702179  0.577109  1
  O  O33  1  0.000000  0.297821  0.422891  1
  O  O34  1  0.000000  0.797821  0.077109  1
  O  O35  1  0.000000  0.202179  0.922891  1
  O  O36  1  0.000000  0.576970  0.297236  1
  O  O37  1  0.000000  0.423030  0.702764  1
  O  O38  1  0.000000  0.076970  0.202764  1
  O  O39  1  0.000000  0.923030  0.797236  1
  O  O40  1  0.500000  0.281623  0.781865  1
  O  O41  1  0.500000  0.718377  0.218135  1
  O  O42  1  0.500000  0.218377  0.281865  1
  O  O43  1  0.500000  0.781623  0.718135  1
  O  O44  1  0.000000  0.000000  0.500000  1
  O  O45  1  0.000000  0.500000  0.000000  1
