# generated using pymatgen
data_HoLuNi2Hg
_symmetry_space_group_name_H-M   'P 1'
_cell_length_a   7.20110810
_cell_length_b   7.20110841
_cell_length_c   3.58118300
_cell_angle_alpha   90.00000000
_cell_angle_beta   90.00000000
_cell_angle_gamma   148.39598214
_symmetry_Int_Tables_number   1
_chemical_formula_structural   HoLuNi2Hg
_chemical_formula_sum   'Ho1 Lu1 Ni2 Hg1'
_cell_volume   97.31825187
_cell_formula_units_Z   1
loop_
 _symmetry_equiv_pos_site_id
 _symmetry_equiv_pos_as_xyz
  1  'x, y, z'
loop_
 _atom_site_type_symbol
 _atom_site_label
 _atom_site_symmetry_multiplicity
 _atom_site_fract_x
 _atom_site_fract_y
 _atom_site_fract_z
 _atom_site_occupancy
  Ho  Ho0  1  0.636677  0.363323  0.500000  1
  Lu  Lu1  1  0.361744  0.638256  0.500000  1
  Ni  Ni2  1  0.802737  0.197263  0.000000  1
  Ni  Ni3  1  0.199875  0.800125  0.000000  1
  Hg  Hg4  1  0.998967  0.001033  0.000000  1
