# generated using pymatgen
data_V9Re3Si4
_symmetry_space_group_name_H-M   'P 1'
_cell_length_a   4.72918281
_cell_length_b   4.73062835
_cell_length_c   9.45449556
_cell_angle_alpha   89.96328318
_cell_angle_beta   90.04524420
_cell_angle_gamma   89.98941722
_symmetry_Int_Tables_number   1
_chemical_formula_structural   V9Re3Si4
_chemical_formula_sum   'V9 Re3 Si4'
_cell_volume   211.51592092
_cell_formula_units_Z   1
loop_
 _symmetry_equiv_pos_site_id
 _symmetry_equiv_pos_as_xyz
  1  'x, y, z'
loop_
 _atom_site_type_symbol
 _atom_site_label
 _atom_site_symmetry_multiplicity
 _atom_site_fract_x
 _atom_site_fract_y
 _atom_site_fract_z
 _atom_site_occupancy
  V  V0  1  0.996912  0.497038  0.625052  1
  V  V1  1  0.500991  0.251354  0.249174  1
  V  V2  1  0.751278  0.001121  0.000407  1
  V  V3  1  0.002295  0.497003  0.869053  1
  V  V4  1  0.996948  0.501710  0.380711  1
  V  V5  1  0.500678  0.748250  0.749809  1
  V  V6  1  0.501270  0.752275  0.249980  1
  V  V7  1  0.252162  0.001453  0.999904  1
  V  V8  1  0.247860  0.000219  0.500988  1
  Re  Re9  1  0.000767  0.500786  0.124623  1
  Re  Re10  1  0.499684  0.249450  0.750259  1
  Re  Re11  1  0.749322  0.999586  0.499937  1
  Si  Si12  1  0.500577  0.504821  0.999515  1
  Si  Si13  1  0.491610  0.502825  0.497041  1
  Si  Si14  1  0.002904  0.991688  0.753023  1
  Si  Si15  1  0.004742  0.000421  0.250524  1
