# generated using pymatgen
data_ZnSn14Rh3O14
_symmetry_space_group_name_H-M   'P 1'
_cell_length_a   7.19520279
_cell_length_b   7.25830723
_cell_length_c   13.09358032
_cell_angle_alpha   73.90492779
_cell_angle_beta   74.05224634
_cell_angle_gamma   60.28718868
_symmetry_Int_Tables_number   1
_chemical_formula_structural   ZnSn14Rh3O14
_chemical_formula_sum   'Zn1 Sn14 Rh3 O14'
_cell_volume   562.84318298
_cell_formula_units_Z   1
loop_
 _symmetry_equiv_pos_site_id
 _symmetry_equiv_pos_as_xyz
  1  'x, y, z'
loop_
 _atom_site_type_symbol
 _atom_site_label
 _atom_site_symmetry_multiplicity
 _atom_site_fract_x
 _atom_site_fract_y
 _atom_site_fract_z
 _atom_site_occupancy
  Zn  Zn0  1  0.903014  0.017533  0.176440  1
  Sn  Sn1  1  0.487708  0.606340  0.418245  1
  Sn  Sn2  1  0.494075  0.080122  0.423215  1
  Sn  Sn3  1  0.002590  0.080122  0.423215  1
  Sn  Sn4  1  0.096794  0.150369  0.656042  1
  Sn  Sn5  1  0.437101  0.983059  0.142740  1
  Sn  Sn6  1  0.148138  0.782979  0.920744  1
  Sn  Sn7  1  0.432811  0.502456  0.160800  1
  Sn  Sn8  1  0.903934  0.502456  0.160800  1
  Sn  Sn9  1  0.678892  0.753825  0.888390  1
  Sn  Sn10  1  0.677464  0.263372  0.916419  1
  Sn  Sn11  1  0.142745  0.263372  0.916419  1
  Sn  Sn12  1  0.575937  0.676216  0.651360  1
  Sn  Sn13  1  0.096487  0.676216  0.651360  1
  Sn  Sn14  1  0.016475  0.589528  0.377522  1
  Rh  Rh15  1  0.696676  0.301101  0.305546  1
  Rh  Rh16  1  0.884407  0.463064  0.768124  1
  Rh  Rh17  1  0.289639  0.385834  0.034888  1
  O  O18  1  0.120338  0.717523  0.466687  1
  O  O19  1  0.695451  0.717523  0.466687  1
  O  O20  1  0.951850  0.091606  0.004695  1
  O  O21  1  0.122017  0.278949  0.477016  1
  O  O22  1  0.631797  0.680328  0.056077  1
  O  O23  1  0.426434  0.558679  0.588454  1
  O  O24  1  0.343483  0.949196  0.363836  1
  O  O25  1  0.428990  0.007471  0.593451  1
  O  O26  1  0.970086  0.007471  0.593451  1
  O  O27  1  0.355966  0.948085  0.880853  1
  O  O28  1  0.815097  0.948085  0.880853  1
  O  O29  1  0.749119  0.828878  0.185383  1
  O  O30  1  0.236619  0.828878  0.185383  1
  O  O31  1  0.228239  0.797849  0.745673  1
