# generated using pymatgen
data_EuErZr2(NiAs)4
_symmetry_space_group_name_H-M   'P 1'
_cell_length_a   4.01370600
_cell_length_b   4.01370705
_cell_length_c   15.16516300
_cell_angle_alpha   90.00000000
_cell_angle_beta   90.00000000
_cell_angle_gamma   120.00000779
_symmetry_Int_Tables_number   1
_chemical_formula_structural   EuErZr2(NiAs)4
_chemical_formula_sum   'Eu1 Er1 Zr2 Ni4 As4'
_cell_volume   211.57722158
_cell_formula_units_Z   1
loop_
 _symmetry_equiv_pos_site_id
 _symmetry_equiv_pos_as_xyz
  1  'x, y, z'
loop_
 _atom_site_type_symbol
 _atom_site_label
 _atom_site_symmetry_multiplicity
 _atom_site_fract_x
 _atom_site_fract_y
 _atom_site_fract_z
 _atom_site_occupancy
  Eu  Eu0  1  0.000000  0.000000  0.000000  1
  Er  Er1  1  0.000000  0.000000  0.500000  1
  Zr  Zr2  1  0.000000  0.000000  0.254516  1
  Zr  Zr3  1  0.000000  0.000000  0.745484  1
  Ni  Ni4  1  0.333333  0.666667  0.166025  1
  Ni  Ni5  1  0.666667  0.333333  0.833975  1
  Ni  Ni6  1  0.666667  0.333333  0.648303  1
  Ni  Ni7  1  0.333333  0.666667  0.351697  1
  As  As8  1  0.333333  0.666667  0.618005  1
  As  As9  1  0.666667  0.333333  0.381995  1
  As  As10  1  0.666667  0.333333  0.131203  1
  As  As11  1  0.333333  0.666667  0.868797  1
