# generated using pymatgen
data_TmBi2WO7
_symmetry_space_group_name_H-M   'P 1'
_cell_length_a   6.44654456
_cell_length_b   6.81970671
_cell_length_c   7.64526600
_cell_angle_alpha   106.48730946
_cell_angle_beta   89.80442296
_cell_angle_gamma   99.00160968
_symmetry_Int_Tables_number   1
_chemical_formula_structural   TmBi2WO7
_chemical_formula_sum   'Tm2 Bi4 W2 O14'
_cell_volume   318.02522011
_cell_formula_units_Z   2
loop_
 _symmetry_equiv_pos_site_id
 _symmetry_equiv_pos_as_xyz
  1  'x, y, z'
loop_
 _atom_site_type_symbol
 _atom_site_label
 _atom_site_symmetry_multiplicity
 _atom_site_fract_x
 _atom_site_fract_y
 _atom_site_fract_z
 _atom_site_occupancy
  Tm  Tm0  1  0.544571  0.992648  0.746642  1
  Tm  Tm1  1  0.455429  0.007352  0.253358  1
  Bi  Bi2  1  0.253309  0.513945  0.881532  1
  Bi  Bi3  1  0.746691  0.486055  0.118468  1
  Bi  Bi4  1  0.727885  0.457198  0.610506  1
  Bi  Bi5  1  0.272115  0.542802  0.389494  1
  W  W6  1  0.000000  0.000000  0.500000  1
  W  W7  1  0.000000  0.000000  0.000000  1
  O  O8  1  0.459721  0.663728  0.179251  1
  O  O9  1  0.540279  0.336272  0.820749  1
  O  O10  1  0.288633  0.952761  0.948145  1
  O  O11  1  0.711367  0.047239  0.051855  1
  O  O12  1  0.293713  0.919294  0.511330  1
  O  O13  1  0.706287  0.080706  0.488670  1
  O  O14  1  0.524707  0.348097  0.347210  1
  O  O15  1  0.475293  0.651903  0.652790  1
  O  O16  1  0.915896  0.683161  0.952727  1
  O  O17  1  0.084104  0.316839  0.047273  1
  O  O18  1  0.100359  0.296525  0.614258  1
  O  O19  1  0.899641  0.703475  0.385742  1
  O  O20  1  0.896238  0.953184  0.737787  1
  O  O21  1  0.103762  0.046816  0.262213  1
