# generated using pymatgen
data_Dy12Co4NiPb
_symmetry_space_group_name_H-M   'P 1'
_cell_length_a   8.29459351
_cell_length_b   8.29459450
_cell_length_c   8.29459381
_cell_angle_alpha   110.80948960
_cell_angle_beta   110.55981230
_cell_angle_gamma   107.07080126
_symmetry_Int_Tables_number   1
_chemical_formula_structural   Dy12Co4NiPb
_chemical_formula_sum   'Dy12 Co4 Ni1 Pb1'
_cell_volume   438.72488009
_cell_formula_units_Z   1
loop_
 _symmetry_equiv_pos_site_id
 _symmetry_equiv_pos_as_xyz
  1  'x, y, z'
loop_
 _atom_site_type_symbol
 _atom_site_label
 _atom_site_symmetry_multiplicity
 _atom_site_fract_x
 _atom_site_fract_y
 _atom_site_fract_z
 _atom_site_occupancy
  Dy  Dy0  1  0.404736  0.208578  0.196160  1
  Dy  Dy1  1  0.595264  0.791422  0.803840  1
  Dy  Dy2  1  0.012419  0.208578  0.803840  1
  Dy  Dy3  1  0.987581  0.791422  0.196160  1
  Dy  Dy4  1  0.184899  0.292764  0.477663  1
  Dy  Dy5  1  0.815101  0.707236  0.522337  1
  Dy  Dy6  1  0.184899  0.707236  0.892134  1
  Dy  Dy7  1  0.815101  0.292764  0.107866  1
  Dy  Dy8  1  0.314255  0.621136  0.306881  1
  Dy  Dy9  1  0.685745  0.378864  0.693119  1
  Dy  Dy10  1  0.314255  0.007373  0.693119  1
  Dy  Dy11  1  0.685745  0.992627  0.306881  1
  Co  Co12  1  0.376424  0.000000  0.376424  1
  Co  Co13  1  0.623576  0.000000  0.623576  1
  Co  Co14  1  0.112463  0.612463  0.500000  1
  Co  Co15  1  0.887537  0.387537  0.500000  1
  Ni  Ni16  1  0.000000  0.000000  0.000000  1
  Pb  Pb17  1  0.500000  0.500000  0.000000  1
