# generated using pymatgen
data_Ac4Zn2NiSn8
_symmetry_space_group_name_H-M   'P 1'
_cell_length_a   4.71996000
_cell_length_b   4.67038600
_cell_length_c   19.09988800
_cell_angle_alpha   90.00000000
_cell_angle_beta   90.00000000
_cell_angle_gamma   90.00000000
_symmetry_Int_Tables_number   1
_chemical_formula_structural   Ac4Zn2NiSn8
_chemical_formula_sum   'Ac4 Zn2 Ni1 Sn8'
_cell_volume   421.03860157
_cell_formula_units_Z   1
loop_
 _symmetry_equiv_pos_site_id
 _symmetry_equiv_pos_as_xyz
  1  'x, y, z'
loop_
 _atom_site_type_symbol
 _atom_site_label
 _atom_site_symmetry_multiplicity
 _atom_site_fract_x
 _atom_site_fract_y
 _atom_site_fract_z
 _atom_site_occupancy
  Ac  Ac0  1  0.500000  0.000000  0.605376  1
  Ac  Ac1  1  0.000000  0.000000  0.109332  1
  Ac  Ac2  1  0.000000  0.500000  0.898519  1
  Ac  Ac3  1  0.500000  0.500000  0.397435  1
  Zn  Zn4  1  0.000000  0.500000  0.678390  1
  Zn  Zn5  1  0.500000  0.500000  0.175772  1
  Ni  Ni6  1  0.000000  0.000000  0.315919  1
  Sn  Sn7  1  0.500000  0.000000  0.945581  1
  Sn  Sn8  1  0.000000  0.000000  0.450075  1
  Sn  Sn9  1  0.000000  0.500000  0.540572  1
  Sn  Sn10  1  0.500000  0.500000  0.038875  1
  Sn  Sn11  1  0.000000  0.000000  0.758882  1
  Sn  Sn12  1  0.500000  0.000000  0.257021  1
  Sn  Sn13  1  0.500000  0.500000  0.758133  1
  Sn  Sn14  1  0.000000  0.500000  0.255418  1
