# generated using pymatgen
data_La8Pr4Ga8Ir7Rh
_symmetry_space_group_name_H-M   'P 1'
_cell_length_a   5.80048030
_cell_length_b   8.30340814
_cell_length_c   13.76493088
_cell_angle_alpha   89.95319495
_cell_angle_beta   89.96172014
_cell_angle_gamma   89.93321308
_symmetry_Int_Tables_number   1
_chemical_formula_structural   La8Pr4Ga8Ir7Rh
_chemical_formula_sum   'La8 Pr4 Ga8 Ir7 Rh1'
_cell_volume   662.96994367
_cell_formula_units_Z   1
loop_
 _symmetry_equiv_pos_site_id
 _symmetry_equiv_pos_as_xyz
  1  'x, y, z'
loop_
 _atom_site_type_symbol
 _atom_site_label
 _atom_site_symmetry_multiplicity
 _atom_site_fract_x
 _atom_site_fract_y
 _atom_site_fract_z
 _atom_site_occupancy
  La  La0  1  0.153199  0.399468  0.096528  1
  La  La1  1  0.849320  0.598527  0.904093  1
  La  La2  1  0.848697  0.598657  0.597451  1
  La  La3  1  0.848648  0.900975  0.403220  1
  La  La4  1  0.150314  0.401723  0.402866  1
  La  La5  1  0.151412  0.098262  0.597232  1
  La  La6  1  0.151111  0.098389  0.902527  1
  La  La7  1  0.849243  0.904065  0.097159  1
  Pr  Pr8  1  0.633178  0.258731  0.250669  1
  Pr  Pr9  1  0.367252  0.740686  0.750195  1
  Pr  Pr10  1  0.365192  0.759876  0.250646  1
  Pr  Pr11  1  0.633584  0.241456  0.750226  1
  Ga  Ga12  1  0.139256  0.109566  0.250347  1
  Ga  Ga13  1  0.860491  0.890729  0.750260  1
  Ga  Ga14  1  0.859427  0.609402  0.249114  1
  Ga  Ga15  1  0.139377  0.391680  0.750013  1
  Ga  Ga16  1  0.622577  0.249088  0.999003  1
  Ga  Ga17  1  0.377635  0.750007  0.999951  1
  Ga  Ga18  1  0.378555  0.750204  0.500405  1
  Ga  Ga19  1  0.621082  0.250075  0.500158  1
  Ir  Ir20  1  0.355325  0.029790  0.091741  1
  Ir  Ir21  1  0.643853  0.969385  0.908500  1
  Ir  Ir22  1  0.645040  0.970707  0.591727  1
  Ir  Ir23  1  0.644713  0.529331  0.407761  1
  Ir  Ir24  1  0.355132  0.029348  0.408425  1
  Ir  Ir25  1  0.355212  0.470775  0.591710  1
  Ir  Ir26  1  0.354913  0.470570  0.908613  1
  Rh  Rh27  1  0.646263  0.528528  0.089458  1
