# generated using pymatgen
data_PrNd4(CoO6)2
_symmetry_space_group_name_H-M   'P 1'
_cell_length_a   6.98272074
_cell_length_b   6.98271934
_cell_length_c   7.54781970
_cell_angle_alpha   74.49367066
_cell_angle_beta   74.49367569
_cell_angle_gamma   49.95660510
_symmetry_Int_Tables_number   1
_chemical_formula_structural   PrNd4(CoO6)2
_chemical_formula_sum   'Pr1 Nd4 Co2 O12'
_cell_volume   269.20787189
_cell_formula_units_Z   1
loop_
 _symmetry_equiv_pos_site_id
 _symmetry_equiv_pos_as_xyz
  1  'x, y, z'
loop_
 _atom_site_type_symbol
 _atom_site_label
 _atom_site_symmetry_multiplicity
 _atom_site_fract_x
 _atom_site_fract_y
 _atom_site_fract_z
 _atom_site_occupancy
  Pr  Pr0  1  0.000000  0.000000  0.500000  1
  Nd  Nd1  1  0.308884  0.308884  0.353333  1
  Nd  Nd2  1  0.691116  0.691116  0.646667  1
  Nd  Nd3  1  0.693381  0.693381  0.161616  1
  Nd  Nd4  1  0.306619  0.306619  0.838384  1
  Co  Co5  1  0.757209  0.242791  0.000000  1
  Co  Co6  1  0.242791  0.757209  0.000000  1
  O  O7  1  0.095744  0.595040  0.579438  1
  O  O8  1  0.999078  0.999078  0.162477  1
  O  O9  1  0.404960  0.904256  0.420562  1
  O  O10  1  0.500539  0.500539  0.164915  1
  O  O11  1  0.101715  0.590466  0.075006  1
  O  O12  1  0.904256  0.404960  0.420562  1
  O  O13  1  0.000922  0.000922  0.837523  1
  O  O14  1  0.595040  0.095743  0.579438  1
  O  O15  1  0.499461  0.499461  0.835085  1
  O  O16  1  0.590466  0.101715  0.075006  1
  O  O17  1  0.409534  0.898285  0.924994  1
  O  O18  1  0.898285  0.409534  0.924994  1
