# generated using pymatgen
data_PrNd2Th(AgAs2)4
_symmetry_space_group_name_H-M   'P 1'
_cell_length_a   4.09582900
_cell_length_b   4.10890826
_cell_length_c   21.12519701
_cell_angle_alpha   89.67666193
_cell_angle_beta   90.00000000
_cell_angle_gamma   90.00000000
_symmetry_Int_Tables_number   1
_chemical_formula_structural   PrNd2Th(AgAs2)4
_chemical_formula_sum   'Pr1 Nd2 Th1 Ag4 As8'
_cell_volume   355.51842510
_cell_formula_units_Z   1
loop_
 _symmetry_equiv_pos_site_id
 _symmetry_equiv_pos_as_xyz
  1  'x, y, z'
loop_
 _atom_site_type_symbol
 _atom_site_label
 _atom_site_symmetry_multiplicity
 _atom_site_fract_x
 _atom_site_fract_y
 _atom_site_fract_z
 _atom_site_occupancy
  Pr  Pr0  1  0.250000  0.767663  0.616154  1
  Nd  Nd1  1  0.750000  0.232384  0.385956  1
  Nd  Nd2  1  0.750000  0.259790  0.886784  1
  Th  Th3  1  0.250000  0.741704  0.110606  1
  Ag  Ag4  1  0.750000  0.730549  0.249393  1
  Ag  Ag5  1  0.250000  0.230259  0.249406  1
  Ag  Ag6  1  0.750000  0.769629  0.751390  1
  Ag  Ag7  1  0.250000  0.269695  0.751464  1
  As  As8  1  0.750000  0.239908  0.156005  1
  As  As9  1  0.250000  0.731462  0.338149  1
  As  As10  1  0.750000  0.267855  0.661597  1
  As  As11  1  0.250000  0.762580  0.841215  1
  As  As12  1  0.250000  0.246773  0.001281  1
  As  As13  1  0.750000  0.720769  0.499162  1
  As  As14  1  0.250000  0.278636  0.500310  1
  As  As15  1  0.750000  0.750342  0.001126  1
