# generated using pymatgen
data_Nd19SmSi15P
_symmetry_space_group_name_H-M   'P 1'
_cell_length_a   7.77808745
_cell_length_b   7.90925844
_cell_length_c   15.13260954
_cell_angle_alpha   89.91716039
_cell_angle_beta   90.14549950
_cell_angle_gamma   90.09509205
_symmetry_Int_Tables_number   1
_chemical_formula_structural   Nd19SmSi15P
_chemical_formula_sum   'Nd19 Sm1 Si15 P1'
_cell_volume   930.93630074
_cell_formula_units_Z   1
loop_
 _symmetry_equiv_pos_site_id
 _symmetry_equiv_pos_as_xyz
  1  'x, y, z'
loop_
 _atom_site_type_symbol
 _atom_site_label
 _atom_site_symmetry_multiplicity
 _atom_site_fract_x
 _atom_site_fract_y
 _atom_site_fract_z
 _atom_site_occupancy
  Nd  Nd0  1  0.810369  0.323872  0.618825  1
  Nd  Nd1  1  0.458085  0.686166  0.898200  1
  Nd  Nd2  1  0.958709  0.813126  0.898608  1
  Nd  Nd3  1  0.188867  0.680533  0.122367  1
  Nd  Nd4  1  0.689293  0.819078  0.122243  1
  Nd  Nd5  1  0.310685  0.180654  0.878063  1
  Nd  Nd6  1  0.188225  0.679426  0.378935  1
  Nd  Nd7  1  0.040636  0.186788  0.101743  1
  Nd  Nd8  1  0.309819  0.181342  0.620984  1
  Nd  Nd9  1  0.863479  0.489630  0.250373  1
  Nd  Nd10  1  0.362858  0.010055  0.250106  1
  Nd  Nd11  1  0.543088  0.315265  0.399086  1
  Nd  Nd12  1  0.811008  0.319262  0.878019  1
  Nd  Nd13  1  0.957339  0.811747  0.599978  1
  Nd  Nd14  1  0.451652  0.691179  0.603194  1
  Nd  Nd15  1  0.041656  0.188010  0.399881  1
  Nd  Nd16  1  0.692026  0.814064  0.380753  1
  Nd  Nd17  1  0.637492  0.989902  0.749618  1
  Nd  Nd18  1  0.541681  0.313301  0.101899  1
  Sm  Sm19  1  0.136659  0.510477  0.749385  1
  Si  Si20  1  0.482964  0.600921  0.251014  1
  Si  Si21  1  0.251947  0.378114  0.251376  1
  Si  Si22  1  0.516386  0.399526  0.749960  1
  Si  Si23  1  0.634568  0.026475  0.959352  1
  Si  Si24  1  0.015672  0.102564  0.748717  1
  Si  Si25  1  0.749637  0.620842  0.748468  1
  Si  Si26  1  0.750845  0.120661  0.251372  1
  Si  Si27  1  0.366573  0.974152  0.458113  1
  Si  Si28  1  0.982621  0.900226  0.251768  1
  Si  Si29  1  0.365313  0.973051  0.040760  1
  Si  Si30  1  0.634190  0.027128  0.540125  1
  Si  Si31  1  0.134840  0.473981  0.958452  1
  Si  Si32  1  0.138256  0.474643  0.541790  1
  Si  Si33  1  0.865470  0.525649  0.041305  1
  Si  Si34  1  0.246015  0.877367  0.749611  1
  P  P35  1  0.871073  0.520823  0.455558  1
