# generated using pymatgen
data_Tb6Zn4PdPt12
_symmetry_space_group_name_H-M   'P 1'
_cell_length_a   8.28599553
_cell_length_b   8.28115584
_cell_length_c   8.28115549
_cell_angle_alpha   109.43160889
_cell_angle_beta   109.47917953
_cell_angle_gamma   109.47919345
_symmetry_Int_Tables_number   1
_chemical_formula_structural   Tb6Zn4PdPt12
_chemical_formula_sum   'Tb6 Zn4 Pd1 Pt12'
_cell_volume   437.55382098
_cell_formula_units_Z   1
loop_
 _symmetry_equiv_pos_site_id
 _symmetry_equiv_pos_as_xyz
  1  'x, y, z'
loop_
 _atom_site_type_symbol
 _atom_site_label
 _atom_site_symmetry_multiplicity
 _atom_site_fract_x
 _atom_site_fract_y
 _atom_site_fract_z
 _atom_site_occupancy
  Tb  Tb0  1  0.699209  0.698516  0.000693  1
  Tb  Tb1  1  0.301276  0.999948  0.301328  1
  Tb  Tb2  1  0.999859  0.300765  0.300765  1
  Tb  Tb3  1  0.301276  0.301328  0.999948  1
  Tb  Tb4  1  0.699209  0.000693  0.698516  1
  Tb  Tb5  1  0.999859  0.699094  0.699094  1
  Zn  Zn6  1  0.999962  0.999981  0.499981  1
  Zn  Zn7  1  0.999962  0.499981  0.999981  1
  Zn  Zn8  1  0.499635  0.999419  0.999419  1
  Zn  Zn9  1  0.499635  0.500215  0.500215  1
  Pd  Pd10  1  0.333739  0.666870  0.666870  1
  Pt  Pt11  1  0.332666  0.333144  0.665151  1
  Pt  Pt12  1  0.667357  0.000085  0.332428  1
  Pt  Pt13  1  0.000615  0.667421  0.333194  1
  Pt  Pt14  1  0.667357  0.332428  0.000085  1
  Pt  Pt15  1  0.332666  0.665151  0.333144  1
  Pt  Pt16  1  0.000615  0.333194  0.667421  1
  Pt  Pt17  1  0.332666  0.667516  0.999521  1
  Pt  Pt18  1  0.332666  0.999521  0.667516  1
  Pt  Pt19  1  0.665413  0.332705  0.332705  1
  Pt  Pt20  1  0.667357  0.667272  0.334927  1
  Pt  Pt21  1  0.667357  0.334927  0.667272  1
  Pt  Pt22  1  0.999648  0.999824  0.999824  1
