# generated using pymatgen
data_PrBPtRh2Au
_symmetry_space_group_name_H-M   'P 1'
_cell_length_a   5.53135900
_cell_length_b   5.55797178
_cell_length_c   7.57066900
_cell_angle_alpha   90.00000000
_cell_angle_beta   90.00000000
_cell_angle_gamma   119.84172711
_symmetry_Int_Tables_number   1
_chemical_formula_structural   PrBPtRh2Au
_chemical_formula_sum   'Pr2 B2 Pt2 Rh4 Au2'
_cell_volume   201.88474640
_cell_formula_units_Z   2
loop_
 _symmetry_equiv_pos_site_id
 _symmetry_equiv_pos_as_xyz
  1  'x, y, z'
loop_
 _atom_site_type_symbol
 _atom_site_label
 _atom_site_symmetry_multiplicity
 _atom_site_fract_x
 _atom_site_fract_y
 _atom_site_fract_z
 _atom_site_occupancy
  Pr  Pr0  1  0.000000  0.000000  0.500000  1
  Pr  Pr1  1  0.000000  0.000000  0.000000  1
  B  B2  1  0.664182  0.328363  0.500000  1
  B  B3  1  0.335818  0.671637  0.500000  1
  Pt  Pt4  1  0.500000  0.500000  0.695363  1
  Pt  Pt5  1  0.000000  0.500000  0.304637  1
  Rh  Rh6  1  0.500000  0.500000  0.309503  1
  Rh  Rh7  1  0.500000  0.000000  0.308832  1
  Rh  Rh8  1  0.500000  0.000000  0.691168  1
  Rh  Rh9  1  0.000000  0.500000  0.690497  1
  Au  Au10  1  0.665161  0.330320  0.000000  1
  Au  Au11  1  0.334839  0.669680  0.000000  1
