# generated using pymatgen
data_La(MoC)4
_symmetry_space_group_name_H-M   'P 1'
_cell_length_a   6.23205369
_cell_length_b   6.23205473
_cell_length_c   6.23205467
_cell_angle_alpha   94.15692925
_cell_angle_beta   94.15694860
_cell_angle_gamma   148.76224988
_symmetry_Int_Tables_number   1
_chemical_formula_structural   La(MoC)4
_chemical_formula_sum   'La1 Mo4 C4'
_cell_volume   120.88651057
_cell_formula_units_Z   1
loop_
 _symmetry_equiv_pos_site_id
 _symmetry_equiv_pos_as_xyz
  1  'x, y, z'
loop_
 _atom_site_type_symbol
 _atom_site_label
 _atom_site_symmetry_multiplicity
 _atom_site_fract_x
 _atom_site_fract_y
 _atom_site_fract_z
 _atom_site_occupancy
  La  La0  1  0.000000  0.000000  0.000000  1
  Mo  Mo1  1  0.631700  0.819248  0.450949  1
  Mo  Mo2  1  0.368300  0.180752  0.549051  1
  Mo  Mo3  1  0.819248  0.368300  0.187546  1
  Mo  Mo4  1  0.180752  0.631700  0.812454  1
  C  C5  1  0.259040  0.399626  0.658667  1
  C  C6  1  0.740960  0.600374  0.341333  1
  C  C7  1  0.399626  0.740960  0.140585  1
  C  C8  1  0.600374  0.259040  0.859415  1
