# generated using pymatgen
data_Ho3U(Si5Os3)2
_symmetry_space_group_name_H-M   'P 1'
_cell_length_a   8.11454333
_cell_length_b   8.10133459
_cell_length_c   5.78076545
_cell_angle_alpha   70.67316540
_cell_angle_beta   70.70299807
_cell_angle_gamma   93.84939009
_symmetry_Int_Tables_number   1
_chemical_formula_structural   Ho3U(Si5Os3)2
_chemical_formula_sum   'Ho3 U1 Si10 Os6'
_cell_volume   331.74404439
_cell_formula_units_Z   1
loop_
 _symmetry_equiv_pos_site_id
 _symmetry_equiv_pos_as_xyz
  1  'x, y, z'
loop_
 _atom_site_type_symbol
 _atom_site_label
 _atom_site_symmetry_multiplicity
 _atom_site_fract_x
 _atom_site_fract_y
 _atom_site_fract_z
 _atom_site_occupancy
  Ho  Ho0  1  0.870520  0.600702  0.752726  1
  Ho  Ho1  1  0.400229  0.134479  0.740018  1
  Ho  Ho2  1  0.133165  0.398215  0.243864  1
  U  U3  1  0.594197  0.869970  0.260079  1
  Si  Si4  1  0.067586  0.259984  0.836397  1
  Si  Si5  1  0.736175  0.934659  0.667915  1
  Si  Si6  1  0.931816  0.739133  0.163388  1
  Si  Si7  1  0.265020  0.064630  0.332357  1
  Si  Si8  1  0.207891  0.796647  0.740999  1
  Si  Si9  1  0.795338  0.206341  0.256667  1
  Si  Si10  1  0.515171  0.486479  0.749981  1
  Si  Si11  1  0.484678  0.510774  0.254070  1
  Si  Si12  1  0.774758  0.226362  0.744410  1
  Si  Si13  1  0.224581  0.776436  0.254662  1
  Os  Os14  1  0.256470  0.541103  0.633340  1
  Os  Os15  1  0.453924  0.745715  0.868697  1
  Os  Os16  1  0.743908  0.459724  0.364134  1
  Os  Os17  1  0.549381  0.252243  0.130290  1
  Os  Os18  1  0.000741  0.996877  0.751725  1
  Os  Os19  1  0.994453  0.999528  0.254281  1
