# generated using pymatgen
data_CeYTh(InRh)3
_symmetry_space_group_name_H-M   'P 1'
_cell_length_a   7.58850086
_cell_length_b   7.67191869
_cell_length_c   3.92137600
_cell_angle_alpha   90.00000000
_cell_angle_beta   90.00000000
_cell_angle_gamma   118.84376735
_symmetry_Int_Tables_number   1
_chemical_formula_structural   CeYTh(InRh)3
_chemical_formula_sum   'Ce1 Y1 Th1 In3 Rh3'
_cell_volume   199.97331276
_cell_formula_units_Z   1
loop_
 _symmetry_equiv_pos_site_id
 _symmetry_equiv_pos_as_xyz
  1  'x, y, z'
loop_
 _atom_site_type_symbol
 _atom_site_label
 _atom_site_symmetry_multiplicity
 _atom_site_fract_x
 _atom_site_fract_y
 _atom_site_fract_z
 _atom_site_occupancy
  Ce  Ce0  1  0.998217  0.587591  0.500000  1
  Y  Y1  1  0.593218  0.002035  0.500000  1
  Th  Th2  1  0.412209  0.414101  0.500000  1
  In  In3  1  0.985428  0.243818  0.000000  1
  In  In4  1  0.264509  0.995309  0.000000  1
  In  In5  1  0.751315  0.761018  0.000000  1
  Rh  Rh6  1  0.316575  0.641603  0.000000  1
  Rh  Rh7  1  0.014998  0.003822  0.500000  1
  Rh  Rh8  1  0.663531  0.350703  0.000000  1
