# generated using pymatgen
data_Y20Tc3IrAu8
_symmetry_space_group_name_H-M   'P 1'
_cell_length_a   11.35478000
_cell_length_b   11.35478000
_cell_length_c   6.42527700
_cell_angle_alpha   90.00000000
_cell_angle_beta   90.00000000
_cell_angle_gamma   90.00000000
_symmetry_Int_Tables_number   1
_chemical_formula_structural   Y20Tc3IrAu8
_chemical_formula_sum   'Y20 Tc3 Ir1 Au8'
_cell_volume   828.41757425
_cell_formula_units_Z   1
loop_
 _symmetry_equiv_pos_site_id
 _symmetry_equiv_pos_as_xyz
  1  'x, y, z'
loop_
 _atom_site_type_symbol
 _atom_site_label
 _atom_site_symmetry_multiplicity
 _atom_site_fract_x
 _atom_site_fract_y
 _atom_site_fract_z
 _atom_site_occupancy
  Y  Y0  1  0.300495  0.082101  0.347489  1
  Y  Y1  1  0.300584  0.918128  0.847885  1
  Y  Y2  1  0.699416  0.081872  0.847885  1
  Y  Y3  1  0.699505  0.917899  0.347489  1
  Y  Y4  1  0.581872  0.800584  0.847885  1
  Y  Y5  1  0.582101  0.199505  0.347489  1
  Y  Y6  1  0.417899  0.800495  0.347489  1
  Y  Y7  1  0.418128  0.199416  0.847885  1
  Y  Y8  1  0.200925  0.417368  0.653546  1
  Y  Y9  1  0.200063  0.582807  0.149502  1
  Y  Y10  1  0.799937  0.417193  0.149502  1
  Y  Y11  1  0.799075  0.582632  0.653546  1
  Y  Y12  1  0.917193  0.700063  0.149502  1
  Y  Y13  1  0.917368  0.299075  0.653546  1
  Y  Y14  1  0.082632  0.700925  0.653546  1
  Y  Y15  1  0.082807  0.299937  0.149502  1
  Y  Y16  1  0.000000  0.000000  0.499229  1
  Y  Y17  1  0.000000  0.000000  0.999117  1
  Y  Y18  1  0.500000  0.500000  0.999117  1
  Y  Y19  1  0.500000  0.500000  0.499229  1
  Tc  Tc20  1  0.500000  0.000000  0.100936  1
  Tc  Tc21  1  0.500000  0.000000  0.600427  1
  Tc  Tc22  1  0.000000  0.500000  0.900156  1
  Ir  Ir23  1  0.000000  0.500000  0.402782  1
  Au  Au24  1  0.844904  0.156225  0.250840  1
  Au  Au25  1  0.844266  0.843741  0.750490  1
  Au  Au26  1  0.155734  0.156259  0.750490  1
  Au  Au27  1  0.155096  0.843775  0.250840  1
  Au  Au28  1  0.656259  0.344266  0.750490  1
  Au  Au29  1  0.656225  0.655096  0.250840  1
  Au  Au30  1  0.343775  0.344904  0.250840  1
  Au  Au31  1  0.343741  0.655734  0.750490  1
