# generated using pymatgen
data_Ho11ErTm8(CoBi2)4
_symmetry_space_group_name_H-M   'P 1'
_cell_length_a   7.90488855
_cell_length_b   8.86041300
_cell_length_c   12.36692539
_cell_angle_alpha   90.00000000
_cell_angle_beta   90.02155089
_cell_angle_gamma   90.00000000
_symmetry_Int_Tables_number   1
_chemical_formula_structural   Ho11ErTm8(CoBi2)4
_chemical_formula_sum   'Ho11 Er1 Tm8 Co4 Bi8'
_cell_volume   866.18653264
_cell_formula_units_Z   1
loop_
 _symmetry_equiv_pos_site_id
 _symmetry_equiv_pos_as_xyz
  1  'x, y, z'
loop_
 _atom_site_type_symbol
 _atom_site_label
 _atom_site_symmetry_multiplicity
 _atom_site_fract_x
 _atom_site_fract_y
 _atom_site_fract_z
 _atom_site_occupancy
  Ho  Ho0  1  0.651327  0.250000  0.300638  1
  Ho  Ho1  1  0.849010  0.250000  0.800852  1
  Ho  Ho2  1  0.150738  0.750000  0.198817  1
  Ho  Ho3  1  0.882497  0.750000  0.812829  1
  Ho  Ho4  1  0.117355  0.250000  0.187094  1
  Ho  Ho5  1  0.382433  0.250000  0.687170  1
  Ho  Ho6  1  0.617215  0.750000  0.313130  1
  Ho  Ho7  1  0.055517  0.750000  0.497483  1
  Ho  Ho8  1  0.945996  0.250000  0.502502  1
  Ho  Ho9  1  0.553801  0.250000  0.002572  1
  Ho  Ho10  1  0.445764  0.750000  0.997078  1
  Er  Er11  1  0.348808  0.750000  0.699220  1
  Tm  Tm12  1  0.673395  0.536994  0.563241  1
  Tm  Tm13  1  0.327165  0.463451  0.437131  1
  Tm  Tm14  1  0.173168  0.463361  0.936786  1
  Tm  Tm15  1  0.327165  0.036549  0.437131  1
  Tm  Tm16  1  0.826429  0.536513  0.063109  1
  Tm  Tm17  1  0.673395  0.963006  0.563241  1
  Tm  Tm18  1  0.826429  0.963487  0.063109  1
  Tm  Tm19  1  0.173168  0.036639  0.936786  1
  Co  Co20  1  0.061642  0.750000  0.992825  1
  Co  Co21  1  0.937681  0.250000  0.007058  1
  Co  Co22  1  0.561955  0.250000  0.506890  1
  Co  Co23  1  0.438155  0.750000  0.493681  1
  Bi  Bi24  1  0.569230  0.508059  0.826621  1
  Bi  Bi25  1  0.430387  0.492169  0.173110  1
  Bi  Bi26  1  0.069815  0.492233  0.672969  1
  Bi  Bi27  1  0.430387  0.007831  0.173110  1
  Bi  Bi28  1  0.930467  0.508186  0.327113  1
  Bi  Bi29  1  0.569230  0.991941  0.826621  1
  Bi  Bi30  1  0.930467  0.991814  0.327113  1
  Bi  Bi31  1  0.069815  0.007767  0.672969  1
