# generated using pymatgen
data_LaPr7CdHgIr2
_symmetry_space_group_name_H-M   'P 1'
_cell_length_a   10.05343477
_cell_length_b   10.05343538
_cell_length_c   10.07507500
_cell_angle_alpha   59.92877489
_cell_angle_beta   59.92877288
_cell_angle_gamma   59.92288653
_symmetry_Int_Tables_number   1
_chemical_formula_structural   LaPr7CdHgIr2
_chemical_formula_sum   'La2 Pr14 Cd2 Hg2 Ir4'
_cell_volume   718.85393979
_cell_formula_units_Z   2
loop_
 _symmetry_equiv_pos_site_id
 _symmetry_equiv_pos_as_xyz
  1  'x, y, z'
loop_
 _atom_site_type_symbol
 _atom_site_label
 _atom_site_symmetry_multiplicity
 _atom_site_fract_x
 _atom_site_fract_y
 _atom_site_fract_z
 _atom_site_occupancy
  La  La0  1  0.346916  0.346916  0.347134  1
  La  La1  1  0.346916  0.346916  0.959032  1
  Pr  Pr2  1  0.349420  0.951067  0.349756  1
  Pr  Pr3  1  0.951067  0.349420  0.349756  1
  Pr  Pr4  1  0.809844  0.189471  0.191259  1
  Pr  Pr5  1  0.189471  0.809844  0.809426  1
  Pr  Pr6  1  0.189471  0.809844  0.191259  1
  Pr  Pr7  1  0.809844  0.189471  0.809426  1
  Pr  Pr8  1  0.189011  0.189011  0.810989  1
  Pr  Pr9  1  0.808639  0.808639  0.191361  1
  Pr  Pr10  1  0.938533  0.560646  0.561924  1
  Pr  Pr11  1  0.560646  0.938533  0.938898  1
  Pr  Pr12  1  0.560646  0.938533  0.561924  1
  Pr  Pr13  1  0.938533  0.560646  0.938898  1
  Pr  Pr14  1  0.561729  0.561729  0.938271  1
  Pr  Pr15  1  0.938832  0.938832  0.561168  1
  Cd  Cd16  1  0.579646  0.261588  0.579383  1
  Cd  Cd17  1  0.261588  0.579646  0.579383  1
  Hg  Hg18  1  0.583148  0.583148  0.584561  1
  Hg  Hg19  1  0.583148  0.583148  0.249142  1
  Ir  Ir20  1  0.142752  0.142752  0.139946  1
  Ir  Ir21  1  0.142752  0.142752  0.574551  1
  Ir  Ir22  1  0.143391  0.574058  0.141276  1
  Ir  Ir23  1  0.574058  0.143391  0.141276  1
