# generated using pymatgen
data_IrRu3Pb4O13
_symmetry_space_group_name_H-M   'P 1'
_cell_length_a   7.36860601
_cell_length_b   7.33379658
_cell_length_c   7.36860600
_cell_angle_alpha   59.84286446
_cell_angle_beta   60.00000005
_cell_angle_gamma   59.84285922
_symmetry_Int_Tables_number   1
_chemical_formula_structural   IrRu3Pb4O13
_chemical_formula_sum   'Ir1 Ru3 Pb4 O13'
_cell_volume   280.89818206
_cell_formula_units_Z   1
loop_
 _symmetry_equiv_pos_site_id
 _symmetry_equiv_pos_as_xyz
  1  'x, y, z'
loop_
 _atom_site_type_symbol
 _atom_site_label
 _atom_site_symmetry_multiplicity
 _atom_site_fract_x
 _atom_site_fract_y
 _atom_site_fract_z
 _atom_site_occupancy
  Ir  Ir0  1  0.874986  0.375040  0.874986  1
  Ru  Ru1  1  0.874990  0.875044  0.374975  1
  Ru  Ru2  1  0.874990  0.875044  0.874990  1
  Ru  Ru3  1  0.374975  0.875044  0.874990  1
  Pb  Pb4  1  0.880066  0.372932  0.373501  1
  Pb  Pb5  1  0.373501  0.372932  0.373501  1
  Pb  Pb6  1  0.373501  0.372932  0.880066  1
  Pb  Pb7  1  0.373094  0.880717  0.373094  1
  O  O8  1  0.198540  0.801118  0.801801  1
  O  O9  1  0.198540  0.801118  0.198540  1
  O  O10  1  0.554152  0.946173  0.945522  1
  O  O11  1  0.554152  0.946173  0.554152  1
  O  O12  1  0.945522  0.946173  0.554152  1
  O  O13  1  0.801801  0.801118  0.198540  1
  O  O14  1  0.552044  0.552481  0.947738  1
  O  O15  1  0.799568  0.200437  0.799568  1
  O  O16  1  0.799568  0.200437  0.200427  1
  O  O17  1  0.947738  0.552481  0.947738  1
  O  O18  1  0.947738  0.552481  0.552044  1
  O  O19  1  0.200427  0.200437  0.799568  1
  O  O20  1  0.500103  0.499690  0.500103  1
