# generated using pymatgen
data_LiLaCdP2
_symmetry_space_group_name_H-M   'P 1'
_cell_length_a   4.30546500
_cell_length_b   4.30546606
_cell_length_c   6.97970600
_cell_angle_alpha   90.00000000
_cell_angle_beta   90.00000000
_cell_angle_gamma   119.99999954
_symmetry_Int_Tables_number   1
_chemical_formula_structural   LiLaCdP2
_chemical_formula_sum   'Li1 La1 Cd1 P2'
_cell_volume   112.04900296
_cell_formula_units_Z   1
loop_
 _symmetry_equiv_pos_site_id
 _symmetry_equiv_pos_as_xyz
  1  'x, y, z'
loop_
 _atom_site_type_symbol
 _atom_site_label
 _atom_site_symmetry_multiplicity
 _atom_site_fract_x
 _atom_site_fract_y
 _atom_site_fract_z
 _atom_site_occupancy
  Li  Li0  1  0.333333  0.666667  0.632045  1
  La  La1  1  0.000000  0.000000  0.988774  1
  Cd  Cd2  1  0.666667  0.333333  0.382388  1
  P  P3  1  0.666667  0.333333  0.756411  1
  P  P4  1  0.333333  0.666667  0.240383  1
