# generated using pymatgen
data_Sr(RhO2)6
_symmetry_space_group_name_H-M   'P 1'
_cell_length_a   8.31655542
_cell_length_b   8.31655518
_cell_length_c   8.67056622
_cell_angle_alpha   111.64214575
_cell_angle_beta   103.87050371
_cell_angle_gamma   111.44204009
_symmetry_Int_Tables_number   1
_chemical_formula_structural   Sr(RhO2)6
_chemical_formula_sum   'Sr2 Rh12 O24'
_cell_volume   467.70322193
_cell_formula_units_Z   2
loop_
 _symmetry_equiv_pos_site_id
 _symmetry_equiv_pos_as_xyz
  1  'x, y, z'
loop_
 _atom_site_type_symbol
 _atom_site_label
 _atom_site_symmetry_multiplicity
 _atom_site_fract_x
 _atom_site_fract_y
 _atom_site_fract_z
 _atom_site_occupancy
  Sr  Sr0  1  0.066408  0.066408  0.000000  1
  Sr  Sr1  1  0.600259  0.600259  0.000000  1
  Rh  Rh2  1  0.809768  0.995912  0.470454  1
  Rh  Rh3  1  0.473062  0.659667  0.466063  1
  Rh  Rh4  1  0.141210  0.327354  0.470454  1
  Rh  Rh5  1  0.856899  0.670755  0.529546  1
  Rh  Rh6  1  0.525457  0.339313  0.529546  1
  Rh  Rh7  1  0.193604  0.006999  0.533937  1
  Rh  Rh8  1  0.995080  0.491513  0.819926  1
  Rh  Rh9  1  0.661777  0.155860  0.818269  1
  Rh  Rh10  1  0.329076  0.823159  0.818269  1
  Rh  Rh11  1  0.671586  0.175153  0.180074  1
  Rh  Rh12  1  0.337591  0.843508  0.181731  1
  Rh  Rh13  1  0.004890  0.510807  0.181731  1
  O  O14  1  0.698816  0.375331  0.407481  1
  O  O15  1  0.365553  0.044768  0.409683  1
  O  O16  1  0.031584  0.710798  0.409683  1
  O  O17  1  0.967850  0.291335  0.592519  1
  O  O18  1  0.635083  0.955869  0.590317  1
  O  O19  1  0.301114  0.621899  0.590317  1
  O  O20  1  0.956197  0.293300  0.250057  1
  O  O21  1  0.623424  0.960528  0.250057  1
  O  O22  1  0.287460  0.645877  0.266671  1
  O  O23  1  0.710470  0.373367  0.749943  1
  O  O24  1  0.379206  0.020789  0.733329  1
  O  O25  1  0.043243  0.706139  0.749943  1
  O  O26  1  0.709544  0.362508  0.069676  1
  O  O27  1  0.373835  0.026798  0.069676  1
  O  O28  1  0.040256  0.696235  0.069824  1
  O  O29  1  0.957123  0.304159  0.930324  1
  O  O30  1  0.626410  0.970431  0.930176  1
  O  O31  1  0.292832  0.639869  0.930324  1
  O  O32  1  0.005779  0.979662  0.655770  1
  O  O33  1  0.342776  0.316658  0.655770  1
  O  O34  1  0.669591  0.645520  0.648445  1
  O  O35  1  0.323891  0.350009  0.344230  1
  O  O36  1  0.660888  0.687005  0.344230  1
  O  O37  1  0.997075  0.021146  0.351555  1
