# generated using pymatgen
data_Nb4Co2Te12Pd
_symmetry_space_group_name_H-M   'P 1'
_cell_length_a   7.57281923
_cell_length_b   7.57281908
_cell_length_c   20.67503628
_cell_angle_alpha   71.15856568
_cell_angle_beta   71.15856538
_cell_angle_gamma   27.44274436
_symmetry_Int_Tables_number   1
_chemical_formula_structural   Nb4Co2Te12Pd
_chemical_formula_sum   'Nb4 Co2 Te12 Pd1'
_cell_volume   515.34930789
_cell_formula_units_Z   1
loop_
 _symmetry_equiv_pos_site_id
 _symmetry_equiv_pos_as_xyz
  1  'x, y, z'
loop_
 _atom_site_type_symbol
 _atom_site_label
 _atom_site_symmetry_multiplicity
 _atom_site_fract_x
 _atom_site_fract_y
 _atom_site_fract_z
 _atom_site_occupancy
  Nb  Nb0  1  0.741174  0.741174  0.595915  1
  Nb  Nb1  1  0.258826  0.258826  0.404085  1
  Nb  Nb2  1  0.619146  0.619146  0.850221  1
  Nb  Nb3  1  0.380854  0.380854  0.149779  1
  Co  Co4  1  0.775380  0.775380  0.280299  1
  Co  Co5  1  0.224620  0.224620  0.719701  1
  Te  Te6  1  0.868526  0.868526  0.454661  1
  Te  Te7  1  0.038899  0.038899  0.115607  1
  Te  Te8  1  0.807939  0.807939  0.766458  1
  Te  Te9  1  0.403309  0.403309  0.279316  1
  Te  Te10  1  0.187460  0.187460  0.929341  1
  Te  Te11  1  0.596691  0.596691  0.720684  1
  Te  Te12  1  0.131474  0.131474  0.545339  1
  Te  Te13  1  0.812540  0.812540  0.070659  1
  Te  Te14  1  0.374875  0.374875  0.612981  1
  Te  Te15  1  0.961101  0.961101  0.884393  1
  Te  Te16  1  0.192061  0.192061  0.233542  1
  Te  Te17  1  0.625125  0.625125  0.387019  1
  Pd  Pd18  1  0.000000  0.000000  0.000000  1
