# generated using pymatgen
data_Dy5HoInGa2
_symmetry_space_group_name_H-M   'P 1'
_cell_length_a   8.64968475
_cell_length_b   8.64752626
_cell_length_c   8.64752752
_cell_angle_alpha   112.70872291
_cell_angle_beta   112.00308176
_cell_angle_gamma   103.83601502
_symmetry_Int_Tables_number   1
_chemical_formula_structural   Dy5HoInGa2
_chemical_formula_sum   'Dy10 Ho2 In2 Ga4'
_cell_volume   494.39886618
_cell_formula_units_Z   2
loop_
 _symmetry_equiv_pos_site_id
 _symmetry_equiv_pos_as_xyz
  1  'x, y, z'
loop_
 _atom_site_type_symbol
 _atom_site_label
 _atom_site_symmetry_multiplicity
 _atom_site_fract_x
 _atom_site_fract_y
 _atom_site_fract_z
 _atom_site_occupancy
  Dy  Dy0  1  0.034127  0.236882  0.797245  1
  Dy  Dy1  1  0.965873  0.763118  0.202755  1
  Dy  Dy2  1  0.187576  0.281802  0.469084  1
  Dy  Dy3  1  0.812424  0.718198  0.530916  1
  Dy  Dy4  1  0.187576  0.718491  0.905774  1
  Dy  Dy5  1  0.812424  0.281509  0.094226  1
  Dy  Dy6  1  0.320659  0.616319  0.295909  1
  Dy  Dy7  1  0.679341  0.383681  0.704091  1
  Dy  Dy8  1  0.320659  0.024751  0.704341  1
  Dy  Dy9  1  0.679341  0.975249  0.295659  1
  Ho  Ho10  1  0.439686  0.236581  0.203107  1
  Ho  Ho11  1  0.560314  0.763419  0.796893  1
  In  In12  1  0.500000  0.500000  0.000000  1
  In  In13  1  0.000000  0.000000  0.000000  1
  Ga  Ga14  1  0.354541  0.000213  0.354328  1
  Ga  Ga15  1  0.645459  0.999787  0.645672  1
  Ga  Ga16  1  0.120684  0.620658  0.500026  1
  Ga  Ga17  1  0.879316  0.379342  0.499974  1
