# generated using pymatgen
data_Ho12InFe2Ni2Pt
_symmetry_space_group_name_H-M   'P 1'
_cell_length_a   8.29316908
_cell_length_b   8.29316733
_cell_length_c   8.29316785
_cell_angle_alpha   110.42292452
_cell_angle_beta   109.75236624
_cell_angle_gamma   108.24599132
_symmetry_Int_Tables_number   1
_chemical_formula_structural   Ho12InFe2Ni2Pt
_chemical_formula_sum   'Ho12 In1 Fe2 Ni2 Pt1'
_cell_volume   438.91024402
_cell_formula_units_Z   1
loop_
 _symmetry_equiv_pos_site_id
 _symmetry_equiv_pos_as_xyz
  1  'x, y, z'
loop_
 _atom_site_type_symbol
 _atom_site_label
 _atom_site_symmetry_multiplicity
 _atom_site_fract_x
 _atom_site_fract_y
 _atom_site_fract_z
 _atom_site_occupancy
  Ho  Ho0  1  0.315968  0.618614  0.302643  1
  Ho  Ho1  1  0.684032  0.381386  0.697357  1
  Ho  Ho2  1  0.315968  0.013324  0.697357  1
  Ho  Ho3  1  0.684032  0.986676  0.302643  1
  Ho  Ho4  1  0.183231  0.290861  0.474092  1
  Ho  Ho5  1  0.816769  0.709139  0.525908  1
  Ho  Ho6  1  0.183231  0.709139  0.892371  1
  Ho  Ho7  1  0.816769  0.290861  0.107629  1
  Ho  Ho8  1  0.415514  0.217836  0.197678  1
  Ho  Ho9  1  0.584486  0.782164  0.802322  1
  Ho  Ho10  1  0.020158  0.217836  0.802322  1
  Ho  Ho11  1  0.979842  0.782164  0.197678  1
  In  In12  1  0.500000  0.500000  0.000000  1
  Fe  Fe13  1  0.110080  0.610080  0.500000  1
  Fe  Fe14  1  0.889920  0.389920  0.500000  1
  Ni  Ni15  1  0.372526  0.000000  0.372526  1
  Ni  Ni16  1  0.627474  0.000000  0.627474  1
  Pt  Pt17  1  0.000000  0.000000  0.000000  1
