# generated using pymatgen
data_Na4HfTcBr12
_symmetry_space_group_name_H-M   'P 1'
_cell_length_a   7.51939185
_cell_length_b   7.15553884
_cell_length_c   12.51707350
_cell_angle_alpha   54.81379484
_cell_angle_beta   89.39499619
_cell_angle_gamma   90.10737432
_symmetry_Int_Tables_number   1
_chemical_formula_structural   Na4HfTcBr12
_chemical_formula_sum   'Na4 Hf1 Tc1 Br12'
_cell_volume   550.37141923
_cell_formula_units_Z   1
loop_
 _symmetry_equiv_pos_site_id
 _symmetry_equiv_pos_as_xyz
  1  'x, y, z'
loop_
 _atom_site_type_symbol
 _atom_site_label
 _atom_site_symmetry_multiplicity
 _atom_site_fract_x
 _atom_site_fract_y
 _atom_site_fract_z
 _atom_site_occupancy
  Na  Na0  1  0.416467  0.727139  0.255294  1
  Na  Na1  1  0.916441  0.255853  0.254958  1
  Na  Na2  1  0.083559  0.744147  0.745042  1
  Na  Na3  1  0.583533  0.272861  0.744706  1
  Hf  Hf4  1  0.000000  0.000000  0.000000  1
  Tc  Tc5  1  0.500000  0.000000  0.500000  1
  Br  Br6  1  0.829000  0.366590  0.941745  1
  Br  Br7  1  0.528114  0.123458  0.264941  1
  Br  Br8  1  0.471886  0.876542  0.735059  1
  Br  Br9  1  0.304486  0.216365  0.947798  1
  Br  Br10  1  0.322245  0.648072  0.561037  1
  Br  Br11  1  0.212807  0.222186  0.445573  1
  Br  Br12  1  0.171000  0.633410  0.058255  1
  Br  Br13  1  0.787193  0.777814  0.554427  1
  Br  Br14  1  0.695514  0.783635  0.052202  1
  Br  Br15  1  0.024855  0.858632  0.245664  1
  Br  Br16  1  0.975145  0.141368  0.754336  1
  Br  Br17  1  0.677755  0.351928  0.438963  1
