# generated using pymatgen
data_YbGe2O5
_symmetry_space_group_name_H-M   'P 1'
_cell_length_a   5.75478800
_cell_length_b   7.32864400
_cell_length_c   8.35540900
_cell_angle_alpha   90.00000000
_cell_angle_beta   90.00000000
_cell_angle_gamma   90.00000000
_symmetry_Int_Tables_number   1
_chemical_formula_structural   YbGe2O5
_chemical_formula_sum   'Yb4 Ge8 O20'
_cell_volume   352.38764122
_cell_formula_units_Z   4
loop_
 _symmetry_equiv_pos_site_id
 _symmetry_equiv_pos_as_xyz
  1  'x, y, z'
loop_
 _atom_site_type_symbol
 _atom_site_label
 _atom_site_symmetry_multiplicity
 _atom_site_fract_x
 _atom_site_fract_y
 _atom_site_fract_z
 _atom_site_occupancy
  Yb  Yb0  1  0.500000  0.365770  0.166936  1
  Yb  Yb1  1  0.500000  0.634230  0.833064  1
  Yb  Yb2  1  0.500000  0.865770  0.333064  1
  Yb  Yb3  1  0.500000  0.134230  0.666936  1
  Ge  Ge4  1  0.000000  0.607631  0.146663  1
  Ge  Ge5  1  0.000000  0.392369  0.853337  1
  Ge  Ge6  1  0.000000  0.107631  0.353337  1
  Ge  Ge7  1  0.000000  0.892369  0.646663  1
  Ge  Ge8  1  0.254869  0.500000  0.500000  1
  Ge  Ge9  1  0.745131  0.000000  0.000000  1
  Ge  Ge10  1  0.745131  0.500000  0.500000  1
  Ge  Ge11  1  0.254869  0.000000  0.000000  1
  O  O12  1  0.000000  0.844439  0.073348  1
  O  O13  1  0.000000  0.155561  0.926652  1
  O  O14  1  0.000000  0.344439  0.426652  1
  O  O15  1  0.000000  0.655561  0.573348  1
  O  O16  1  0.500000  0.339515  0.444130  1
  O  O17  1  0.500000  0.660485  0.555870  1
  O  O18  1  0.500000  0.839515  0.055870  1
  O  O19  1  0.500000  0.160485  0.944130  1
  O  O20  1  0.211527  0.500000  0.000000  1
  O  O21  1  0.788473  0.000000  0.500000  1
  O  O22  1  0.788473  0.500000  0.000000  1
  O  O23  1  0.211527  0.000000  0.500000  1
  O  O24  1  0.245485  0.107254  0.208793  1
  O  O25  1  0.245485  0.892746  0.791207  1
  O  O26  1  0.754515  0.607254  0.291207  1
  O  O27  1  0.754515  0.392746  0.708793  1
  O  O28  1  0.754515  0.892746  0.791207  1
  O  O29  1  0.754515  0.107254  0.208793  1
  O  O30  1  0.245485  0.392746  0.708793  1
  O  O31  1  0.245485  0.607254  0.291207  1
