# generated using pymatgen
data_LiTb5Si24Os7Ru
_symmetry_space_group_name_H-M   'P 1'
_cell_length_a   10.12850735
_cell_length_b   10.12850745
_cell_length_c   8.14681742
_cell_angle_alpha   89.98020659
_cell_angle_beta   89.98020227
_cell_angle_gamma   132.46647764
_symmetry_Int_Tables_number   1
_chemical_formula_structural   LiTb5Si24Os7Ru
_chemical_formula_sum   'Li1 Tb5 Si24 Os7 Ru1'
_cell_volume   616.51309581
_cell_formula_units_Z   1
loop_
 _symmetry_equiv_pos_site_id
 _symmetry_equiv_pos_as_xyz
  1  'x, y, z'
loop_
 _atom_site_type_symbol
 _atom_site_label
 _atom_site_symmetry_multiplicity
 _atom_site_fract_x
 _atom_site_fract_y
 _atom_site_fract_z
 _atom_site_occupancy
  Li  Li0  1  0.500084  0.500084  0.498923  1
  Tb  Tb1  1  0.000840  0.000840  0.999932  1
  Tb  Tb2  1  0.500541  0.000542  0.749576  1
  Tb  Tb3  1  0.999138  0.499493  0.250536  1
  Tb  Tb4  1  0.499493  0.999138  0.250536  1
  Tb  Tb5  1  0.000542  0.500541  0.749576  1
  Si  Si6  1  0.796991  0.202798  0.500084  1
  Si  Si7  1  0.297058  0.702810  0.000333  1
  Si  Si8  1  0.202798  0.796991  0.500084  1
  Si  Si9  1  0.702810  0.297058  0.000333  1
  Si  Si10  1  0.338442  0.338442  0.825883  1
  Si  Si11  1  0.664442  0.664442  0.171245  1
  Si  Si12  1  0.172694  0.172694  0.336202  1
  Si  Si13  1  0.827101  0.827101  0.664250  1
  Si  Si14  1  0.121934  0.888614  0.728114  1
  Si  Si15  1  0.111245  0.877366  0.271892  1
  Si  Si16  1  0.607584  0.378580  0.234225  1
  Si  Si17  1  0.620391  0.392025  0.766295  1
  Si  Si18  1  0.877366  0.111245  0.271892  1
  Si  Si19  1  0.888614  0.121934  0.728114  1
  Si  Si20  1  0.392025  0.620391  0.766295  1
  Si  Si21  1  0.378580  0.607584  0.234225  1
  Si  Si22  1  0.349234  0.120531  0.506687  1
  Si  Si23  1  0.878731  0.650564  0.493786  1
  Si  Si24  1  0.388491  0.154793  0.006387  1
  Si  Si25  1  0.844725  0.611797  0.994174  1
  Si  Si26  1  0.650564  0.878731  0.493786  1
  Si  Si27  1  0.120531  0.349234  0.506687  1
  Si  Si28  1  0.611797  0.844725  0.994174  1
  Si  Si29  1  0.154793  0.388491  0.006387  1
  Os  Os30  1  0.671337  0.328532  0.500245  1
  Os  Os31  1  0.170708  0.829179  0.999751  1
  Os  Os32  1  0.328532  0.671337  0.500245  1
  Os  Os33  1  0.829179  0.170708  0.999751  1
  Os  Os34  1  0.124063  0.124063  0.628856  1
  Os  Os35  1  0.876245  0.876245  0.370972  1
  Os  Os36  1  0.371399  0.371399  0.123695  1
  Ru  Ru37  1  0.628954  0.628954  0.875871  1
