# generated using pymatgen
data_YEr2In3IrRh2
_symmetry_space_group_name_H-M   'P 1'
_cell_length_a   7.56828623
_cell_length_b   7.55131849
_cell_length_c   3.88349800
_cell_angle_alpha   90.00000000
_cell_angle_beta   90.00000000
_cell_angle_gamma   119.88566650
_symmetry_Int_Tables_number   1
_chemical_formula_structural   YEr2In3IrRh2
_chemical_formula_sum   'Y1 Er2 In3 Ir1 Rh2'
_cell_volume   192.43020946
_cell_formula_units_Z   1
loop_
 _symmetry_equiv_pos_site_id
 _symmetry_equiv_pos_as_xyz
  1  'x, y, z'
loop_
 _atom_site_type_symbol
 _atom_site_label
 _atom_site_symmetry_multiplicity
 _atom_site_fract_x
 _atom_site_fract_y
 _atom_site_fract_z
 _atom_site_occupancy
  Y  Y0  1  0.996224  0.589507  0.500000  1
  Er  Er1  1  0.410260  0.405932  0.500000  1
  Er  Er2  1  0.594117  0.004614  0.500000  1
  In  In3  1  0.257293  0.998290  0.000000  1
  In  In4  1  0.740846  0.742689  0.000000  1
  In  In5  1  0.001870  0.259418  0.000000  1
  Ir  Ir6  1  0.663008  0.330541  0.000000  1
  Rh  Rh7  1  0.336545  0.667210  0.000000  1
  Rh  Rh8  1  0.999837  0.001800  0.500000  1
