# generated using pymatgen
data_Hf6Al2As3PRu6
_symmetry_space_group_name_H-M   'P 1'
_cell_length_a   7.64963055
_cell_length_b   7.65809506
_cell_length_c   7.64318184
_cell_angle_alpha   128.37820491
_cell_angle_beta   120.23812509
_cell_angle_gamma   82.94347838
_symmetry_Int_Tables_number   1
_chemical_formula_structural   Hf6Al2As3PRu6
_chemical_formula_sum   'Hf6 Al2 As3 P1 Ru6'
_cell_volume   291.09417263
_cell_formula_units_Z   1
loop_
 _symmetry_equiv_pos_site_id
 _symmetry_equiv_pos_as_xyz
  1  'x, y, z'
loop_
 _atom_site_type_symbol
 _atom_site_label
 _atom_site_symmetry_multiplicity
 _atom_site_fract_x
 _atom_site_fract_y
 _atom_site_fract_z
 _atom_site_occupancy
  Hf  Hf0  1  0.471745  0.711893  0.724749  1
  Hf  Hf1  1  0.516360  0.264971  0.234705  1
  Hf  Hf2  1  0.739287  0.825003  0.571945  1
  Hf  Hf3  1  0.253124  0.825704  0.083876  1
  Hf  Hf4  1  0.057883  0.261802  0.711871  1
  Hf  Hf5  1  0.954585  0.648496  0.201872  1
  Al  Al6  1  0.278609  0.275630  0.501084  1
  Al  Al7  1  0.724929  0.221032  0.999538  1
  As  As8  1  0.672652  0.920949  0.255383  1
  As  As9  1  0.157336  0.919936  0.748651  1
  As  As10  1  0.836498  0.586363  0.756911  1
  P  P11  1  0.325918  0.586861  0.246330  1
  Ru  Ru12  1  0.498227  0.495559  0.004365  1
  Ru  Ru13  1  0.000939  0.498409  0.499589  1
  Ru  Ru14  1  0.102924  0.263068  0.109696  1
  Ru  Ru15  1  0.907193  0.005457  0.156182  1
  Ru  Ru16  1  0.350218  0.996624  0.595198  1
  Ru  Ru17  1  0.651575  0.251843  0.657654  1
