# generated using pymatgen
data_Nd2Be2P4Pd21
_symmetry_space_group_name_H-M   'P 1'
_cell_length_a   8.66274182
_cell_length_b   8.58145203
_cell_length_c   8.58145354
_cell_angle_alpha   60.62769222
_cell_angle_beta   59.68614833
_cell_angle_gamma   59.68615129
_symmetry_Int_Tables_number   1
_chemical_formula_structural   Nd2Be2P4Pd21
_chemical_formula_sum   'Nd2 Be2 P4 Pd21'
_cell_volume   451.00700650
_cell_formula_units_Z   1
loop_
 _symmetry_equiv_pos_site_id
 _symmetry_equiv_pos_as_xyz
  1  'x, y, z'
loop_
 _atom_site_type_symbol
 _atom_site_label
 _atom_site_symmetry_multiplicity
 _atom_site_fract_x
 _atom_site_fract_y
 _atom_site_fract_z
 _atom_site_occupancy
  Nd  Nd0  1  0.250000  0.250000  0.250000  1
  Nd  Nd1  1  0.750000  0.750000  0.750000  1
  Be  Be2  1  0.733969  0.266031  0.266031  1
  Be  Be3  1  0.266031  0.733969  0.733969  1
  P  P4  1  0.264785  0.735215  0.264785  1
  P  P5  1  0.735215  0.264785  0.735215  1
  P  P6  1  0.264785  0.264785  0.735215  1
  P  P7  1  0.735215  0.735215  0.264785  1
  Pd  Pd8  1  0.000000  0.000000  0.000000  1
  Pd  Pd9  1  0.388863  0.383911  0.383911  1
  Pd  Pd10  1  0.611137  0.616089  0.616089  1
  Pd  Pd11  1  0.383911  0.388863  0.843318  1
  Pd  Pd12  1  0.383911  0.843318  0.388863  1
  Pd  Pd13  1  0.616089  0.611137  0.156682  1
  Pd  Pd14  1  0.616089  0.156682  0.611137  1
  Pd  Pd15  1  0.843318  0.383911  0.383911  1
  Pd  Pd16  1  0.156682  0.616089  0.616089  1
  Pd  Pd17  1  0.341940  0.000000  0.000000  1
  Pd  Pd18  1  0.658060  0.000000  0.000000  1
  Pd  Pd19  1  0.000000  0.341940  0.658060  1
  Pd  Pd20  1  0.000000  0.658060  0.341940  1
  Pd  Pd21  1  0.997326  0.341521  0.002674  1
  Pd  Pd22  1  0.658479  0.002674  0.341521  1
  Pd  Pd23  1  0.002674  0.658479  0.997326  1
  Pd  Pd24  1  0.341521  0.997326  0.658479  1
  Pd  Pd25  1  0.997326  0.002674  0.341521  1
  Pd  Pd26  1  0.002674  0.997326  0.658479  1
  Pd  Pd27  1  0.658479  0.341521  0.002674  1
  Pd  Pd28  1  0.341521  0.658479  0.997326  1
