# generated using pymatgen
data_TbDy2Th(Al3Rh)6
_symmetry_space_group_name_H-M   'P 1'
_cell_length_a   7.58164705
_cell_length_b   7.59639272
_cell_length_c   9.48710900
_cell_angle_alpha   90.00000000
_cell_angle_beta   90.00000000
_cell_angle_gamma   119.38909977
_symmetry_Int_Tables_number   1
_chemical_formula_structural   TbDy2Th(Al3Rh)6
_chemical_formula_sum   'Tb1 Dy2 Th1 Al18 Rh6'
_cell_volume   476.07585716
_cell_formula_units_Z   1
loop_
 _symmetry_equiv_pos_site_id
 _symmetry_equiv_pos_as_xyz
  1  'x, y, z'
loop_
 _atom_site_type_symbol
 _atom_site_label
 _atom_site_symmetry_multiplicity
 _atom_site_fract_x
 _atom_site_fract_y
 _atom_site_fract_z
 _atom_site_occupancy
  Tb  Tb0  1  0.671466  0.994434  0.750000  1
  Dy  Dy1  1  0.004385  0.328457  0.250000  1
  Dy  Dy2  1  0.328404  0.005048  0.250000  1
  Th  Th3  1  0.994772  0.670959  0.750000  1
  Al  Al4  1  0.130717  0.132174  0.750000  1
  Al  Al5  1  0.872442  0.874769  0.250000  1
  Al  Al6  1  0.001396  0.330980  0.572192  1
  Al  Al7  1  0.999103  0.664363  0.417902  1
  Al  Al8  1  0.999103  0.664363  0.082098  1
  Al  Al9  1  0.339934  0.005287  0.927658  1
  Al  Al10  1  0.001396  0.330980  0.927808  1
  Al  Al11  1  0.664661  0.000552  0.076429  1
  Al  Al12  1  0.664661  0.000552  0.423571  1
  Al  Al13  1  0.339934  0.005287  0.572342  1
  Al  Al14  1  0.332289  0.332387  0.054037  1
  Al  Al15  1  0.663327  0.666589  0.955952  1
  Al  Al16  1  0.663327  0.666589  0.544048  1
  Al  Al17  1  0.332289  0.332387  0.445963  1
  Al  Al18  1  0.343601  0.548342  0.750000  1
  Al  Al19  1  0.658049  0.448284  0.250000  1
  Al  Al20  1  0.544986  0.336617  0.750000  1
  Al  Al21  1  0.449247  0.660827  0.250000  1
  Rh  Rh22  1  0.673163  0.329441  0.500088  1
  Rh  Rh23  1  0.326641  0.671636  0.500254  1
  Rh  Rh24  1  0.326641  0.671636  0.999746  1
  Rh  Rh25  1  0.673163  0.329441  0.999912  1
  Rh  Rh26  1  0.000451  0.998809  0.500314  1
  Rh  Rh27  1  0.000451  0.998809  0.999686  1
