# generated using pymatgen
data_Ho4Sc4Os3Pt
_symmetry_space_group_name_H-M   'P 1'
_cell_length_a   4.26929900
_cell_length_b   7.14507224
_cell_length_c   8.70321700
_cell_angle_alpha   88.91705223
_cell_angle_beta   90.00000000
_cell_angle_gamma   90.00000000
_symmetry_Int_Tables_number   1
_chemical_formula_structural   Ho4Sc4Os3Pt
_chemical_formula_sum   'Ho4 Sc4 Os3 Pt1'
_cell_volume   265.43942502
_cell_formula_units_Z   1
loop_
 _symmetry_equiv_pos_site_id
 _symmetry_equiv_pos_as_xyz
  1  'x, y, z'
loop_
 _atom_site_type_symbol
 _atom_site_label
 _atom_site_symmetry_multiplicity
 _atom_site_fract_x
 _atom_site_fract_y
 _atom_site_fract_z
 _atom_site_occupancy
  Ho  Ho0  1  0.250000  0.012011  0.665196  1
  Ho  Ho1  1  0.250000  0.535912  0.821908  1
  Ho  Ho2  1  0.750000  0.975930  0.327665  1
  Ho  Ho3  1  0.750000  0.477829  0.180311  1
  Sc  Sc4  1  0.250000  0.141245  0.067932  1
  Sc  Sc5  1  0.250000  0.642584  0.437257  1
  Sc  Sc6  1  0.750000  0.859499  0.940610  1
  Sc  Sc7  1  0.750000  0.352243  0.558977  1
  Os  Os8  1  0.250000  0.265213  0.377316  1
  Os  Os9  1  0.250000  0.764298  0.114270  1
  Os  Os10  1  0.750000  0.729878  0.622275  1
  Pt  Pt11  1  0.750000  0.243357  0.886283  1
