# generated using pymatgen
data_HgTe12Rh2I5
_symmetry_space_group_name_H-M   'P 1'
_cell_length_a   9.75302327
_cell_length_b   9.75302289
_cell_length_c   9.88685797
_cell_angle_alpha   108.90915262
_cell_angle_beta   108.90915652
_cell_angle_gamma   108.52231533
_symmetry_Int_Tables_number   1
_chemical_formula_structural   HgTe12Rh2I5
_chemical_formula_sum   'Hg1 Te12 Rh2 I5'
_cell_volume   741.89581645
_cell_formula_units_Z   1
loop_
 _symmetry_equiv_pos_site_id
 _symmetry_equiv_pos_as_xyz
  1  'x, y, z'
loop_
 _atom_site_type_symbol
 _atom_site_label
 _atom_site_symmetry_multiplicity
 _atom_site_fract_x
 _atom_site_fract_y
 _atom_site_fract_z
 _atom_site_occupancy
  Hg  Hg0  1  0.982744  0.517256  0.250000  1
  Te  Te1  1  0.932381  0.162524  0.185348  1
  Te  Te2  1  0.187109  0.937658  0.162380  1
  Te  Te3  1  0.163347  0.190278  0.940347  1
  Te  Te4  1  0.699068  0.669068  0.444689  1
  Te  Te5  1  0.436311  0.686955  0.659787  1
  Te  Te6  1  0.662106  0.433365  0.683948  1
  Te  Te7  1  0.066635  0.837894  0.816052  1
  Te  Te8  1  0.813045  0.063689  0.840213  1
  Te  Te9  1  0.830932  0.800932  0.055311  1
  Te  Te10  1  0.309722  0.336653  0.559653  1
  Te  Te11  1  0.562342  0.312891  0.337620  1
  Te  Te12  1  0.337476  0.567619  0.314652  1
  Rh  Rh13  1  0.246282  0.253718  0.250000  1
  Rh  Rh14  1  0.751725  0.748275  0.750000  1
  I  I15  1  0.240661  0.978642  0.506583  1
  I  I16  1  0.521358  0.259339  0.993417  1
  I  I17  1  0.756183  0.014260  0.490777  1
  I  I18  1  0.485740  0.743817  0.009223  1
  I  I19  1  0.014835  0.485165  0.750000  1
