# generated using pymatgen
data_Ho3Tm7Cd2(In4Rh)2
_symmetry_space_group_name_H-M   'P 1'
_cell_length_a   3.65949300
_cell_length_b   8.18219147
_cell_length_c   18.27958900
_cell_angle_alpha   89.68144072
_cell_angle_beta   90.00000000
_cell_angle_gamma   90.00000000
_symmetry_Int_Tables_number   1
_chemical_formula_structural   Ho3Tm7Cd2(In4Rh)2
_chemical_formula_sum   'Ho3 Tm7 Cd2 In8 Rh2'
_cell_volume   547.33128511
_cell_formula_units_Z   1
loop_
 _symmetry_equiv_pos_site_id
 _symmetry_equiv_pos_as_xyz
  1  'x, y, z'
loop_
 _atom_site_type_symbol
 _atom_site_label
 _atom_site_symmetry_multiplicity
 _atom_site_fract_x
 _atom_site_fract_y
 _atom_site_fract_z
 _atom_site_occupancy
  Ho  Ho0  1  0.000000  0.709965  0.276988  1
  Ho  Ho1  1  0.000000  0.999884  0.999868  1
  Ho  Ho2  1  0.000000  0.500082  0.500071  1
  Tm  Tm3  1  0.000000  0.123783  0.424741  1
  Tm  Tm4  1  0.000000  0.876530  0.575805  1
  Tm  Tm5  1  0.000000  0.385364  0.914704  1
  Tm  Tm6  1  0.000000  0.614352  0.084954  1
  Tm  Tm7  1  0.000000  0.269400  0.212501  1
  Tm  Tm8  1  0.000000  0.730125  0.787083  1
  Tm  Tm9  1  0.000000  0.290845  0.723387  1
  Cd  Cd10  1  0.500000  0.025581  0.300170  1
  Cd  Cd11  1  0.500000  0.976278  0.700167  1
  In  In12  1  0.500000  0.416168  0.351569  1
  In  In13  1  0.500000  0.582570  0.648626  1
  In  In14  1  0.500000  0.083463  0.853233  1
  In  In15  1  0.500000  0.916843  0.146591  1
  In  In16  1  0.500000  0.295371  0.064402  1
  In  In17  1  0.500000  0.704327  0.935243  1
  In  In18  1  0.500000  0.209701  0.569315  1
  In  In19  1  0.500000  0.791174  0.431379  1
  Rh  Rh20  1  0.500000  0.475126  0.805695  1
  Rh  Rh21  1  0.500000  0.523069  0.193507  1
