# generated using pymatgen
data_Dy3Y7B2I15
_symmetry_space_group_name_H-M   'P 1'
_cell_length_a   9.62040490
_cell_length_b   10.36852549
_cell_length_c   11.31664604
_cell_angle_alpha   91.76878899
_cell_angle_beta   114.40214838
_cell_angle_gamma   110.43410085
_symmetry_Int_Tables_number   1
_chemical_formula_structural   Dy3Y7B2I15
_chemical_formula_sum   'Dy3 Y7 B2 I15'
_cell_volume   942.80380839
_cell_formula_units_Z   1
loop_
 _symmetry_equiv_pos_site_id
 _symmetry_equiv_pos_as_xyz
  1  'x, y, z'
loop_
 _atom_site_type_symbol
 _atom_site_label
 _atom_site_symmetry_multiplicity
 _atom_site_fract_x
 _atom_site_fract_y
 _atom_site_fract_z
 _atom_site_occupancy
  Dy  Dy0  1  0.419608  0.956079  0.691215  1
  Dy  Dy1  1  0.707287  0.069885  0.045527  1
  Dy  Dy2  1  0.292713  0.930117  0.954443  1
  Y  Y3  1  0.784235  0.393313  0.267764  1
  Y  Y4  1  0.215762  0.606673  0.732253  1
  Y  Y5  1  0.663074  0.752142  0.825460  1
  Y  Y6  1  0.336938  0.247845  0.174567  1
  Y  Y7  1  0.523132  0.712945  0.085740  1
  Y  Y8  1  0.476870  0.287038  0.914304  1
  Y  Y9  1  0.580415  0.043826  0.308899  1
  B  B10  1  0.468529  0.823535  0.880055  1
  B  B11  1  0.531391  0.176723  0.119615  1
  I  I12  1  0.999998  0.999988  0.000004  1
  I  I13  1  0.638376  0.882514  0.583007  1
  I  I14  1  0.361527  0.117509  0.417078  1
  I  I15  1  0.884822  0.299339  0.531166  1
  I  I16  1  0.115404  0.700856  0.468992  1
  I  I17  1  0.284619  0.760180  0.177406  1
  I  I18  1  0.715196  0.239602  0.822484  1
  I  I19  1  0.054811  0.340076  0.225587  1
  I  I20  1  0.160260  0.055839  0.702026  1
  I  I21  1  0.839854  0.944058  0.297943  1
  I  I22  1  0.228279  0.409880  0.942037  1
  I  I23  1  0.771722  0.590119  0.057970  1
  I  I24  1  0.409805  0.459528  0.660036  1
  I  I25  1  0.590208  0.540477  0.339997  1
  I  I26  1  0.945166  0.659913  0.774424  1
