# generated using pymatgen
data_Yb5Er3(Si4W3)4
_symmetry_space_group_name_H-M   'P 1'
_cell_length_a   6.70516755
_cell_length_b   6.91644655
_cell_length_c   12.96316223
_cell_angle_alpha   89.91343235
_cell_angle_beta   89.97351525
_cell_angle_gamma   89.94920823
_symmetry_Int_Tables_number   1
_chemical_formula_structural   Yb5Er3(Si4W3)4
_chemical_formula_sum   'Yb5 Er3 Si16 W12'
_cell_volume   601.17775635
_cell_formula_units_Z   1
loop_
 _symmetry_equiv_pos_site_id
 _symmetry_equiv_pos_as_xyz
  1  'x, y, z'
loop_
 _atom_site_type_symbol
 _atom_site_label
 _atom_site_symmetry_multiplicity
 _atom_site_fract_x
 _atom_site_fract_y
 _atom_site_fract_z
 _atom_site_occupancy
  Yb  Yb0  1  0.498392  0.334379  0.090179  1
  Yb  Yb1  1  0.998457  0.167902  0.408526  1
  Yb  Yb2  1  0.500949  0.668279  0.591603  1
  Yb  Yb3  1  0.001097  0.831298  0.908269  1
  Yb  Yb4  1  0.501040  0.667071  0.909821  1
  Er  Er5  1  0.000526  0.829670  0.593438  1
  Er  Er6  1  0.499133  0.331113  0.406790  1
  Er  Er7  1  0.998900  0.169213  0.093007  1
  Si  Si8  1  0.662332  0.041274  0.544215  1
  Si  Si9  1  0.161324  0.458075  0.955419  1
  Si  Si10  1  0.338243  0.958594  0.045185  1
  Si  Si11  1  0.837839  0.541342  0.455278  1
  Si  Si12  1  0.337579  0.958161  0.455285  1
  Si  Si13  1  0.838871  0.542675  0.044942  1
  Si  Si14  1  0.661845  0.041175  0.955227  1
  Si  Si15  1  0.162549  0.457932  0.544236  1
  Si  Si16  1  0.534307  0.376951  0.749989  1
  Si  Si17  1  0.035085  0.122769  0.749484  1
  Si  Si18  1  0.465342  0.626278  0.249193  1
  Si  Si19  1  0.965678  0.875347  0.250290  1
  Si  Si20  1  0.798413  0.633057  0.750837  1
  Si  Si21  1  0.302032  0.865373  0.751070  1
  Si  Si22  1  0.199730  0.366393  0.249849  1
  Si  Si23  1  0.699057  0.134439  0.249960  1
  W  W24  1  0.833373  0.333665  0.625637  1
  W  W25  1  0.333806  0.167090  0.873200  1
  W  W26  1  0.165834  0.665328  0.126297  1
  W  W27  1  0.666817  0.834343  0.374487  1
  W  W28  1  0.166537  0.665738  0.373956  1
  W  W29  1  0.667419  0.835923  0.126919  1
  W  W30  1  0.835771  0.331444  0.873137  1
  W  W31  1  0.333974  0.166479  0.625521  1
  W  W32  1  0.661425  0.008450  0.749310  1
  W  W33  1  0.160329  0.491105  0.748900  1
  W  W34  1  0.337779  0.994845  0.250645  1
  W  W35  1  0.838220  0.506833  0.249900  1
