# generated using pymatgen
data_Ho6Er10In6CoPt
_symmetry_space_group_name_H-M   'P 1'
_cell_length_a   10.38030000
_cell_length_b   10.38029907
_cell_length_c   6.95212000
_cell_angle_alpha   90.00000000
_cell_angle_beta   90.00000000
_cell_angle_gamma   119.99999660
_symmetry_Int_Tables_number   1
_chemical_formula_structural   Ho6Er10In6CoPt
_chemical_formula_sum   'Ho6 Er10 In6 Co1 Pt1'
_cell_volume   648.73552067
_cell_formula_units_Z   1
loop_
 _symmetry_equiv_pos_site_id
 _symmetry_equiv_pos_as_xyz
  1  'x, y, z'
loop_
 _atom_site_type_symbol
 _atom_site_label
 _atom_site_symmetry_multiplicity
 _atom_site_fract_x
 _atom_site_fract_y
 _atom_site_fract_z
 _atom_site_occupancy
  Ho  Ho0  1  0.530787  0.061574  0.795103  1
  Ho  Ho1  1  0.938426  0.469213  0.795103  1
  Ho  Ho2  1  0.530787  0.469213  0.795103  1
  Ho  Ho3  1  0.464603  0.929208  0.292239  1
  Ho  Ho4  1  0.070792  0.535397  0.292239  1
  Ho  Ho5  1  0.464603  0.535397  0.292239  1
  Er  Er6  1  0.824618  0.649236  0.499416  1
  Er  Er7  1  0.350764  0.175382  0.499416  1
  Er  Er8  1  0.824618  0.175382  0.499416  1
  Er  Er9  1  0.178163  0.356326  0.000615  1
  Er  Er10  1  0.643674  0.821837  0.000615  1
  Er  Er11  1  0.178163  0.821837  0.000615  1
  Er  Er12  1  0.666667  0.333333  0.171004  1
  Er  Er13  1  0.333333  0.666667  0.683045  1
  Er  Er14  1  0.000000  0.000000  0.778461  1
  Er  Er15  1  0.000000  0.000000  0.277132  1
  In  In16  1  0.837730  0.675460  0.037544  1
  In  In17  1  0.324540  0.162270  0.037544  1
  In  In18  1  0.837730  0.162270  0.037544  1
  In  In19  1  0.162926  0.325851  0.538362  1
  In  In20  1  0.674149  0.837074  0.538362  1
  In  In21  1  0.162926  0.837074  0.538362  1
  Co  Co22  1  0.333333  0.666667  0.067983  1
  Pt  Pt23  1  0.666667  0.333333  0.568447  1
