# generated using pymatgen
data_Y6Ga14CoNi15
_symmetry_space_group_name_H-M   'P 1'
_cell_length_a   4.07136700
_cell_length_b   8.77344721
_cell_length_c   15.53181768
_cell_angle_alpha   89.23315601
_cell_angle_beta   90.00000000
_cell_angle_gamma   90.00000000
_symmetry_Int_Tables_number   1
_chemical_formula_structural   Y6Ga14CoNi15
_chemical_formula_sum   'Y6 Ga14 Co1 Ni15'
_cell_volume   554.74564887
_cell_formula_units_Z   1
loop_
 _symmetry_equiv_pos_site_id
 _symmetry_equiv_pos_as_xyz
  1  'x, y, z'
loop_
 _atom_site_type_symbol
 _atom_site_label
 _atom_site_symmetry_multiplicity
 _atom_site_fract_x
 _atom_site_fract_y
 _atom_site_fract_z
 _atom_site_occupancy
  Y  Y0  1  0.000000  0.001127  0.336402  1
  Y  Y1  1  0.000000  0.499943  0.835059  1
  Y  Y2  1  0.000000  0.501956  0.169401  1
  Y  Y3  1  0.000000  0.007616  0.671188  1
  Y  Y4  1  0.500000  0.994280  0.998042  1
  Y  Y5  1  0.500000  0.497195  0.495804  1
  Ga  Ga6  1  0.500000  0.018374  0.503652  1
  Ga  Ga7  1  0.500000  0.515892  0.001437  1
  Ga  Ga8  1  0.500000  0.744929  0.260610  1
  Ga  Ga9  1  0.500000  0.248696  0.759580  1
  Ga  Ga10  1  0.500000  0.242732  0.244375  1
  Ga  Ga11  1  0.500000  0.747258  0.745741  1
  Ga  Ga12  1  0.000000  0.145901  0.146767  1
  Ga  Ga13  1  0.000000  0.650888  0.646829  1
  Ga  Ga14  1  0.000000  0.779006  0.494114  1
  Ga  Ga15  1  0.000000  0.273027  0.992840  1
  Ga  Ga16  1  0.000000  0.848919  0.137198  1
  Ga  Ga17  1  0.000000  0.354810  0.634877  1
  Ga  Ga18  1  0.000000  0.363959  0.364581  1
  Ga  Ga19  1  0.000000  0.866861  0.865882  1
  Co  Co20  1  0.000000  0.149163  0.850648  1
  Ni  Ni21  1  0.500000  0.988658  0.183055  1
  Ni  Ni22  1  0.500000  0.494354  0.681919  1
  Ni  Ni23  1  0.500000  0.223616  0.400626  1
  Ni  Ni24  1  0.500000  0.724695  0.901310  1
  Ni  Ni25  1  0.500000  0.788212  0.412587  1
  Ni  Ni26  1  0.500000  0.284596  0.911969  1
  Ni  Ni27  1  0.500000  0.487628  0.313090  1
  Ni  Ni28  1  0.500000  0.993439  0.815385  1
  Ni  Ni29  1  0.500000  0.721772  0.099623  1
  Ni  Ni30  1  0.500000  0.227064  0.599504  1
  Ni  Ni31  1  0.500000  0.279872  0.087368  1
  Ni  Ni32  1  0.500000  0.781355  0.588161  1
  Ni  Ni33  1  0.000000  0.203492  0.499261  1
  Ni  Ni34  1  0.000000  0.701276  0.999707  1
  Ni  Ni35  1  0.000000  0.647639  0.351406  1
