# generated using pymatgen
data_Ac2MgZn4Sn
_symmetry_space_group_name_H-M   'P 1'
_cell_length_a   9.08123534
_cell_length_b   9.08123532
_cell_length_c   9.47766300
_cell_angle_alpha   90.00000000
_cell_angle_beta   90.00000000
_cell_angle_gamma   149.95235660
_symmetry_Int_Tables_number   1
_chemical_formula_structural   Ac2MgZn4Sn
_chemical_formula_sum   'Ac4 Mg2 Zn8 Sn2'
_cell_volume   391.36864007
_cell_formula_units_Z   2
loop_
 _symmetry_equiv_pos_site_id
 _symmetry_equiv_pos_as_xyz
  1  'x, y, z'
loop_
 _atom_site_type_symbol
 _atom_site_label
 _atom_site_symmetry_multiplicity
 _atom_site_fract_x
 _atom_site_fract_y
 _atom_site_fract_z
 _atom_site_occupancy
  Ac  Ac0  1  0.207081  0.792919  0.250000  1
  Ac  Ac1  1  0.792919  0.207081  0.750000  1
  Ac  Ac2  1  0.000000  0.000000  0.500000  1
  Ac  Ac3  1  0.000000  0.000000  0.000000  1
  Mg  Mg4  1  0.399722  0.600278  0.250000  1
  Mg  Mg5  1  0.600278  0.399722  0.750000  1
  Zn  Zn6  1  0.814981  0.185019  0.390600  1
  Zn  Zn7  1  0.185019  0.814981  0.609400  1
  Zn  Zn8  1  0.814981  0.185019  0.109400  1
  Zn  Zn9  1  0.185019  0.814981  0.890600  1
  Zn  Zn10  1  0.660665  0.339335  0.481892  1
  Zn  Zn11  1  0.339335  0.660665  0.518108  1
  Zn  Zn12  1  0.660665  0.339335  0.018108  1
  Zn  Zn13  1  0.339335  0.660665  0.981892  1
  Sn  Sn14  1  0.561705  0.438295  0.250000  1
  Sn  Sn15  1  0.438295  0.561705  0.750000  1
