# generated using pymatgen
data_Ho2As2Cl2O5
_symmetry_space_group_name_H-M   'P 1'
_cell_length_a   7.03591641
_cell_length_b   7.68567075
_cell_length_c   9.44306583
_cell_angle_alpha   109.48860708
_cell_angle_beta   104.15665266
_cell_angle_gamma   102.29598610
_symmetry_Int_Tables_number   1
_chemical_formula_structural   Ho2As2Cl2O5
_chemical_formula_sum   'Ho4 As4 Cl4 O10'
_cell_volume   441.86680141
_cell_formula_units_Z   2
loop_
 _symmetry_equiv_pos_site_id
 _symmetry_equiv_pos_as_xyz
  1  'x, y, z'
loop_
 _atom_site_type_symbol
 _atom_site_label
 _atom_site_symmetry_multiplicity
 _atom_site_fract_x
 _atom_site_fract_y
 _atom_site_fract_z
 _atom_site_occupancy
  Ho  Ho0  1  0.398503  0.698543  0.520196  1
  Ho  Ho1  1  0.601497  0.301457  0.479804  1
  Ho  Ho2  1  0.845829  0.766341  0.334475  1
  Ho  Ho3  1  0.154171  0.233659  0.665525  1
  As  As4  1  0.885840  0.848129  0.743278  1
  As  As5  1  0.114160  0.151871  0.256722  1
  As  As6  1  0.708408  0.231391  0.796528  1
  As  As7  1  0.291592  0.768609  0.203472  1
  Cl  Cl8  1  0.234842  0.623893  0.729269  1
  Cl  Cl9  1  0.765158  0.376107  0.270731  1
  Cl  Cl10  1  0.771531  0.723169  0.039856  1
  Cl  Cl11  1  0.228469  0.276831  0.960144  1
  O  O12  1  0.844012  0.272619  0.664164  1
  O  O13  1  0.155988  0.727381  0.335836  1
  O  O14  1  0.534025  0.787644  0.342558  1
  O  O15  1  0.465975  0.212356  0.657442  1
  O  O16  1  0.664305  0.961316  0.723474  1
  O  O17  1  0.335695  0.038684  0.276526  1
  O  O18  1  0.691170  0.621417  0.593594  1
  O  O19  1  0.308830  0.378583  0.406406  1
  O  O20  1  0.989039  0.917815  0.605698  1
  O  O21  1  0.010961  0.082185  0.394302  1
