# generated using pymatgen
data_Zr6Al2Pt3RhN2
_symmetry_space_group_name_H-M   'P 1'
_cell_length_a   8.63409091
_cell_length_b   8.63409949
_cell_length_c   8.63085600
_cell_angle_alpha   60.01276324
_cell_angle_beta   60.01280574
_cell_angle_gamma   60.03265349
_symmetry_Int_Tables_number   1
_chemical_formula_structural   Zr6Al2Pt3RhN2
_chemical_formula_sum   'Zr12 Al4 Pt6 Rh2 N4'
_cell_volume   455.15941992
_cell_formula_units_Z   2
loop_
 _symmetry_equiv_pos_site_id
 _symmetry_equiv_pos_as_xyz
  1  'x, y, z'
loop_
 _atom_site_type_symbol
 _atom_site_label
 _atom_site_symmetry_multiplicity
 _atom_site_fract_x
 _atom_site_fract_y
 _atom_site_fract_z
 _atom_site_occupancy
  Zr  Zr0  1  0.811526  0.811522  0.188476  1
  Zr  Zr1  1  0.188794  0.188798  0.811206  1
  Zr  Zr2  1  0.811594  0.185829  0.811270  1
  Zr  Zr3  1  0.185826  0.811595  0.191309  1
  Zr  Zr4  1  0.185824  0.811594  0.811272  1
  Zr  Zr5  1  0.811596  0.185826  0.191309  1
  Zr  Zr6  1  0.439934  0.439936  0.060065  1
  Zr  Zr7  1  0.059491  0.059491  0.440506  1
  Zr  Zr8  1  0.440518  0.059537  0.440050  1
  Zr  Zr9  1  0.059536  0.440518  0.059893  1
  Zr  Zr10  1  0.059537  0.440518  0.440052  1
  Zr  Zr11  1  0.440518  0.059535  0.059895  1
  Al  Al12  1  0.124718  0.626651  0.624317  1
  Al  Al13  1  0.626652  0.124717  0.624318  1
  Al  Al14  1  0.625653  0.625654  0.125284  1
  Al  Al15  1  0.625652  0.625650  0.623410  1
  Pt  Pt16  1  0.761005  0.413320  0.412837  1
  Pt  Pt17  1  0.413321  0.761004  0.412836  1
  Pt  Pt18  1  0.413432  0.413431  0.760519  1
  Pt  Pt19  1  0.413431  0.413431  0.412618  1
  Pt  Pt20  1  0.491971  0.837088  0.835471  1
  Pt  Pt21  1  0.837088  0.491971  0.835471  1
  Rh  Rh22  1  0.835858  0.835860  0.493419  1
  Rh  Rh23  1  0.835861  0.835860  0.834863  1
  N  N24  1  0.625734  0.125153  0.124556  1
  N  N25  1  0.125152  0.625734  0.124557  1
  N  N26  1  0.124889  0.124889  0.625866  1
  N  N27  1  0.124891  0.124888  0.124357  1
