# generated using pymatgen
data_Er2U2In2Ir3Ru
_symmetry_space_group_name_H-M   'P 1'
_cell_length_a   7.69449201
_cell_length_b   7.69449292
_cell_length_c   3.53341300
_cell_angle_alpha   90.00000000
_cell_angle_beta   90.00000000
_cell_angle_gamma   84.41725575
_symmetry_Int_Tables_number   1
_chemical_formula_structural   Er2U2In2Ir3Ru
_chemical_formula_sum   'Er2 U2 In2 Ir3 Ru1'
_cell_volume   208.20420119
_cell_formula_units_Z   1
loop_
 _symmetry_equiv_pos_site_id
 _symmetry_equiv_pos_as_xyz
  1  'x, y, z'
loop_
 _atom_site_type_symbol
 _atom_site_label
 _atom_site_symmetry_multiplicity
 _atom_site_fract_x
 _atom_site_fract_y
 _atom_site_fract_z
 _atom_site_occupancy
  Er  Er0  1  0.669146  0.174316  0.500000  1
  Er  Er1  1  0.325684  0.830854  0.500000  1
  U  U2  1  0.168478  0.331522  0.500000  1
  U  U3  1  0.823168  0.676832  0.500000  1
  In  In4  1  0.497423  0.500544  0.000000  1
  In  In5  1  0.999456  0.002577  0.000000  1
  Ir  Ir6  1  0.123147  0.622688  0.000000  1
  Ir  Ir7  1  0.877312  0.376853  0.000000  1
  Ir  Ir8  1  0.360585  0.139415  0.000000  1
  Ru  Ru9  1  0.655601  0.844399  0.000000  1
