# generated using pymatgen
data_LaTb4NdIrBr10
_symmetry_space_group_name_H-M   'P 1'
_cell_length_a   7.50805304
_cell_length_b   9.43397189
_cell_length_c   9.43550728
_cell_angle_alpha   109.02174412
_cell_angle_beta   96.71037312
_cell_angle_gamma   104.22097739
_symmetry_Int_Tables_number   1
_chemical_formula_structural   LaTb4NdIrBr10
_chemical_formula_sum   'La1 Tb4 Nd1 Ir1 Br10'
_cell_volume   598.16156141
_cell_formula_units_Z   1
loop_
 _symmetry_equiv_pos_site_id
 _symmetry_equiv_pos_as_xyz
  1  'x, y, z'
loop_
 _atom_site_type_symbol
 _atom_site_label
 _atom_site_symmetry_multiplicity
 _atom_site_fract_x
 _atom_site_fract_y
 _atom_site_fract_z
 _atom_site_occupancy
  La  La0  1  0.967775  0.297808  0.097565  1
  Tb  Tb1  1  0.640113  0.868175  0.817955  1
  Tb  Tb2  1  0.360153  0.130295  0.181890  1
  Tb  Tb3  1  0.125488  0.045162  0.750877  1
  Tb  Tb4  1  0.874184  0.954420  0.248784  1
  Nd  Nd5  1  0.031379  0.705640  0.903136  1
  Ir  Ir6  1  0.999497  0.002400  0.000721  1
  Br  Br7  1  0.538273  0.170326  0.915754  1
  Br  Br8  1  0.458379  0.827273  0.082220  1
  Br  Br9  1  0.755471  0.917667  0.545091  1
  Br  Br10  1  0.244248  0.081977  0.454756  1
  Br  Br11  1  0.092392  0.362018  0.821559  1
  Br  Br12  1  0.908958  0.639443  0.174881  1
  Br  Br13  1  0.224750  0.752822  0.648529  1
  Br  Br14  1  0.772725  0.244673  0.354356  1
  Br  Br15  1  0.640141  0.554577  0.728307  1
  Br  Br16  1  0.366074  0.445324  0.273618  1
