# generated using pymatgen
data_CsH2Br3
_symmetry_space_group_name_H-M   'P 1'
_cell_length_a   5.41762524
_cell_length_b   6.95884693
_cell_length_c   7.21222281
_cell_angle_alpha   117.96306556
_cell_angle_beta   67.96371390
_cell_angle_gamma   90.31821327
_symmetry_Int_Tables_number   1
_chemical_formula_structural   CsH2Br3
_chemical_formula_sum   'Cs1 H2 Br3'
_cell_volume   217.74112240
_cell_formula_units_Z   1
loop_
 _symmetry_equiv_pos_site_id
 _symmetry_equiv_pos_as_xyz
  1  'x, y, z'
loop_
 _atom_site_type_symbol
 _atom_site_label
 _atom_site_symmetry_multiplicity
 _atom_site_fract_x
 _atom_site_fract_y
 _atom_site_fract_z
 _atom_site_occupancy
  Cs  Cs0  1  0.332017  0.993666  0.238868  1
  H  H1  1  0.719951  0.671023  0.467877  1
  H  H2  1  0.935219  0.460157  0.029409  1
  Br  Br3  1  0.829686  0.353710  0.250612  1
  Br  Br4  1  0.641148  0.929131  0.624186  1
  Br  Br5  1  0.013024  0.559970  0.868022  1
