# generated using pymatgen
data_Li4Sm3DySi8
_symmetry_space_group_name_H-M   'P 1'
_cell_length_a   3.83683200
_cell_length_b   7.64189726
_cell_length_c   10.33974003
_cell_angle_alpha   89.97755326
_cell_angle_beta   90.00000000
_cell_angle_gamma   90.00000000
_symmetry_Int_Tables_number   1
_chemical_formula_structural   Li4Sm3DySi8
_chemical_formula_sum   'Li4 Sm3 Dy1 Si8'
_cell_volume   303.16814336
_cell_formula_units_Z   1
loop_
 _symmetry_equiv_pos_site_id
 _symmetry_equiv_pos_as_xyz
  1  'x, y, z'
loop_
 _atom_site_type_symbol
 _atom_site_label
 _atom_site_symmetry_multiplicity
 _atom_site_fract_x
 _atom_site_fract_y
 _atom_site_fract_z
 _atom_site_occupancy
  Li  Li0  1  0.250000  0.992187  0.389819  1
  Li  Li1  1  0.750000  0.006517  0.610088  1
  Li  Li2  1  0.250000  0.493038  0.108261  1
  Li  Li3  1  0.750000  0.509232  0.890712  1
  Sm  Sm4  1  0.750000  0.860745  0.134868  1
  Sm  Sm5  1  0.250000  0.639775  0.635569  1
  Sm  Sm6  1  0.750000  0.358540  0.365316  1
  Dy  Dy7  1  0.250000  0.138563  0.865180  1
  Si  Si8  1  0.750000  0.270138  0.066653  1
  Si  Si9  1  0.250000  0.732782  0.930106  1
  Si  Si10  1  0.750000  0.770433  0.430177  1
  Si  Si11  1  0.250000  0.226619  0.572256  1
  Si  Si12  1  0.750000  0.844259  0.821801  1
  Si  Si13  1  0.250000  0.160214  0.176390  1
  Si  Si14  1  0.750000  0.337962  0.681299  1
  Si  Si15  1  0.250000  0.658998  0.321506  1
