# generated using pymatgen
data_Np6Sb8(IrPt)3
_symmetry_space_group_name_H-M   'P 1'
_cell_length_a   8.51105998
_cell_length_b   8.50828234
_cell_length_c   8.50828200
_cell_angle_alpha   109.42182191
_cell_angle_beta   109.55406199
_cell_angle_gamma   109.42456296
_symmetry_Int_Tables_number   1
_chemical_formula_structural   Np6Sb8(IrPt)3
_chemical_formula_sum   'Np6 Sb8 Ir3 Pt3'
_cell_volume   474.36842322
_cell_formula_units_Z   1
loop_
 _symmetry_equiv_pos_site_id
 _symmetry_equiv_pos_as_xyz
  1  'x, y, z'
loop_
 _atom_site_type_symbol
 _atom_site_label
 _atom_site_symmetry_multiplicity
 _atom_site_fract_x
 _atom_site_fract_y
 _atom_site_fract_z
 _atom_site_occupancy
  Np  Np0  1  0.867559  0.245039  0.120114  1
  Np  Np1  1  0.632441  0.752555  0.377480  1
  Np  Np2  1  0.250000  0.132272  0.882272  1
  Np  Np3  1  0.750000  0.369061  0.619061  1
  Np  Np4  1  0.118248  0.875326  0.247437  1
  Np  Np5  1  0.381752  0.629189  0.757079  1
  Sb  Sb6  1  0.671588  0.502197  0.002947  1
  Sb  Sb7  1  0.502178  0.999658  0.669845  1
  Sb  Sb8  1  0.997822  0.667666  0.497479  1
  Sb  Sb9  1  0.828412  0.831359  0.830609  1
  Sb  Sb10  1  0.503335  0.002198  0.172379  1
  Sb  Sb11  1  0.168019  0.497298  0.998028  1
  Sb  Sb12  1  0.996665  0.169044  0.498862  1
  Sb  Sb13  1  0.331981  0.330009  0.329278  1
  Ir  Ir14  1  0.750000  0.874056  0.124056  1
  Ir  Ir15  1  0.624763  0.372561  0.247121  1
  Ir  Ir16  1  0.875237  0.122358  0.747797  1
  Pt  Pt17  1  0.374276  0.250752  0.627437  1
  Pt  Pt18  1  0.125724  0.753161  0.876476  1
  Pt  Pt19  1  0.250000  0.624245  0.374245  1
