# generated using pymatgen
data_Ho8Si12Ir2PdRh
_symmetry_space_group_name_H-M   'P 1'
_cell_length_a   8.15850100
_cell_length_b   8.15849068
_cell_length_c   7.86368700
_cell_angle_alpha   90.00002107
_cell_angle_beta   90.00001405
_cell_angle_gamma   119.99993237
_symmetry_Int_Tables_number   1
_chemical_formula_structural   Ho8Si12Ir2PdRh
_chemical_formula_sum   'Ho8 Si12 Ir2 Pd1 Rh1'
_cell_volume   453.29125365
_cell_formula_units_Z   1
loop_
 _symmetry_equiv_pos_site_id
 _symmetry_equiv_pos_as_xyz
  1  'x, y, z'
loop_
 _atom_site_type_symbol
 _atom_site_label
 _atom_site_symmetry_multiplicity
 _atom_site_fract_x
 _atom_site_fract_y
 _atom_site_fract_z
 _atom_site_occupancy
  Ho  Ho0  1  0.512777  0.025555  0.247141  1
  Ho  Ho1  1  0.490741  0.981482  0.752059  1
  Ho  Ho2  1  0.974445  0.487222  0.247140  1
  Ho  Ho3  1  0.018517  0.509258  0.752059  1
  Ho  Ho4  1  0.512777  0.487222  0.247140  1
  Ho  Ho5  1  0.490742  0.509259  0.752060  1
  Ho  Ho6  1  0.000001  0.999999  0.251229  1
  Ho  Ho7  1  0.000001  0.000000  0.751058  1
  Si  Si8  1  0.167131  0.334260  0.003613  1
  Si  Si9  1  0.833841  0.667683  0.997061  1
  Si  Si10  1  0.665740  0.832869  0.003613  1
  Si  Si11  1  0.832651  0.665302  0.501189  1
  Si  Si12  1  0.332318  0.166160  0.997061  1
  Si  Si13  1  0.164788  0.329577  0.500281  1
  Si  Si14  1  0.167131  0.832870  0.003613  1
  Si  Si15  1  0.334699  0.167349  0.501189  1
  Si  Si16  1  0.833841  0.166159  0.997061  1
  Si  Si17  1  0.670423  0.835212  0.500281  1
  Si  Si18  1  0.832651  0.167349  0.501189  1
  Si  Si19  1  0.164788  0.835212  0.500281  1
  Ir  Ir20  1  0.666667  0.333334  0.962436  1
  Ir  Ir21  1  0.666666  0.333333  0.540322  1
  Pd  Pd22  1  0.333333  0.666667  0.458049  1
  Rh  Rh23  1  0.333334  0.666667  0.032872  1
