# generated using pymatgen
data_Dy5Cr3P12Ir11Ru5
_symmetry_space_group_name_H-M   'P 1'
_cell_length_a   12.66674821
_cell_length_b   12.71100099
_cell_length_c   3.92940000
_cell_angle_alpha   90.00000000
_cell_angle_beta   90.00000000
_cell_angle_gamma   120.15426122
_symmetry_Int_Tables_number   1
_chemical_formula_structural   Dy5Cr3P12Ir11Ru5
_chemical_formula_sum   'Dy5 Cr3 P12 Ir11 Ru5'
_cell_volume   547.04692087
_cell_formula_units_Z   1
loop_
 _symmetry_equiv_pos_site_id
 _symmetry_equiv_pos_as_xyz
  1  'x, y, z'
loop_
 _atom_site_type_symbol
 _atom_site_label
 _atom_site_symmetry_multiplicity
 _atom_site_fract_x
 _atom_site_fract_y
 _atom_site_fract_z
 _atom_site_occupancy
  Dy  Dy0  1  0.333146  0.666636  0.500000  1
  Dy  Dy1  1  0.666158  0.334151  0.500000  1
  Dy  Dy2  1  0.000310  0.809423  0.000000  1
  Dy  Dy3  1  0.190428  0.189711  0.000000  1
  Dy  Dy4  1  0.810420  0.998854  0.000000  1
  Cr  Cr5  1  0.997655  0.445470  0.500000  1
  Cr  Cr6  1  0.552628  0.552648  0.500000  1
  Cr  Cr7  1  0.449783  0.003893  0.500000  1
  P  P8  1  0.000655  0.635014  0.500000  1
  P  P9  1  0.364507  0.365162  0.500000  1
  P  P10  1  0.631925  0.995369  0.500000  1
  P  P11  1  0.520008  0.691157  0.000000  1
  P  P12  1  0.309671  0.829506  0.000000  1
  P  P13  1  0.169758  0.479261  0.000000  1
  P  P14  1  0.479560  0.172180  0.000000  1
  P  P15  1  0.690530  0.520719  0.000000  1
  P  P16  1  0.830301  0.312891  0.000000  1
  P  P17  1  0.003207  0.180111  0.500000  1
  P  P18  1  0.819636  0.818284  0.500000  1
  P  P19  1  0.181434  0.999289  0.500000  1
  Ir  Ir20  1  0.509143  0.873796  0.000000  1
  Ir  Ir21  1  0.128768  0.635202  0.000000  1
  Ir  Ir22  1  0.363560  0.493468  0.000000  1
  Ir  Ir23  1  0.492188  0.364828  0.000000  1
  Ir  Ir24  1  0.871257  0.508242  0.000000  1
  Ir  Ir25  1  0.636941  0.133194  0.000000  1
  Ir  Ir26  1  0.997480  0.281740  0.000000  1
  Ir  Ir27  1  0.716892  0.716836  0.000000  1
  Ir  Ir28  1  0.283830  0.999975  0.000000  1
  Ir  Ir29  1  0.817003  0.192168  0.500000  1
  Ir  Ir30  1  0.000365  0.999105  0.500000  1
  Ru  Ru31  1  0.621497  0.802195  0.500000  1
  Ru  Ru32  1  0.198035  0.818583  0.500000  1
  Ru  Ru33  1  0.179874  0.377210  0.500000  1
  Ru  Ru34  1  0.378021  0.181755  0.500000  1
  Ru  Ru35  1  0.803427  0.621972  0.500000  1
