# generated using pymatgen
data_Tb3In3HgPd2
_symmetry_space_group_name_H-M   'P 1'
_cell_length_a   7.76582600
_cell_length_b   7.76582685
_cell_length_c   3.99382000
_cell_angle_alpha   90.00000000
_cell_angle_beta   90.00000000
_cell_angle_gamma   120.00000490
_symmetry_Int_Tables_number   1
_chemical_formula_structural   Tb3In3HgPd2
_chemical_formula_sum   'Tb3 In3 Hg1 Pd2'
_cell_volume   208.59046696
_cell_formula_units_Z   1
loop_
 _symmetry_equiv_pos_site_id
 _symmetry_equiv_pos_as_xyz
  1  'x, y, z'
loop_
 _atom_site_type_symbol
 _atom_site_label
 _atom_site_symmetry_multiplicity
 _atom_site_fract_x
 _atom_site_fract_y
 _atom_site_fract_z
 _atom_site_occupancy
  Tb  Tb0  1  0.586741  0.984315  0.500000  1
  Tb  Tb1  1  0.397573  0.413259  0.500000  1
  Tb  Tb2  1  0.015685  0.602427  0.500000  1
  In  In3  1  0.743957  0.748991  0.000000  1
  In  In4  1  0.251009  0.994966  0.000000  1
  In  In5  1  0.005034  0.256043  0.000000  1
  Hg  Hg6  1  0.666667  0.333333  0.000000  1
  Pd  Pd7  1  0.000000  0.000000  0.500000  1
  Pd  Pd8  1  0.333333  0.666667  0.000000  1
