# generated using pymatgen
data_PuPa5(Sb4Pt3)2
_symmetry_space_group_name_H-M   'P 1'
_cell_length_a   8.50915139
_cell_length_b   8.50915240
_cell_length_c   8.50915300
_cell_angle_alpha   109.37423336
_cell_angle_beta   109.66536224
_cell_angle_gamma   109.37424195
_symmetry_Int_Tables_number   1
_chemical_formula_structural   PuPa5(Sb4Pt3)2
_chemical_formula_sum   'Pu1 Pa5 Sb8 Pt6'
_cell_volume   474.27829228
_cell_formula_units_Z   1
loop_
 _symmetry_equiv_pos_site_id
 _symmetry_equiv_pos_as_xyz
  1  'x, y, z'
loop_
 _atom_site_type_symbol
 _atom_site_label
 _atom_site_symmetry_multiplicity
 _atom_site_fract_x
 _atom_site_fract_y
 _atom_site_fract_z
 _atom_site_occupancy
  Pu  Pu0  1  0.875000  0.250000  0.125000  1
  Pa  Pa1  1  0.625000  0.750000  0.375000  1
  Pa  Pa2  1  0.249216  0.123340  0.876362  1
  Pa  Pa3  1  0.753022  0.376660  0.625876  1
  Pa  Pa4  1  0.123638  0.872853  0.246978  1
  Pa  Pa5  1  0.374124  0.627147  0.750784  1
  Sb  Sb6  1  0.677554  0.496616  0.998232  1
  Sb  Sb7  1  0.501616  0.003384  0.680939  1
  Sb  Sb8  1  0.001110  0.674572  0.496752  1
  Sb  Sb9  1  0.822181  0.825428  0.826539  1
  Sb  Sb10  1  0.503248  0.004358  0.177819  1
  Sb  Sb11  1  0.173461  0.495642  0.998890  1
  Sb  Sb12  1  0.001768  0.179324  0.498384  1
  Sb  Sb13  1  0.319061  0.320676  0.322446  1
  Pt  Pt14  1  0.375000  0.250000  0.625000  1
  Pt  Pt15  1  0.125000  0.750000  0.875000  1
  Pt  Pt16  1  0.266224  0.636044  0.381767  1
  Pt  Pt17  1  0.745722  0.863956  0.130180  1
  Pt  Pt18  1  0.618233  0.384457  0.254278  1
  Pt  Pt19  1  0.869820  0.115543  0.733776  1
