# generated using pymatgen
data_Nd10Sn6HC
_symmetry_space_group_name_H-M   'P 1'
_cell_length_a   9.29360300
_cell_length_b   9.29360350
_cell_length_c   6.81288700
_cell_angle_alpha   90.00000000
_cell_angle_beta   90.00000000
_cell_angle_gamma   120.00000890
_symmetry_Int_Tables_number   1
_chemical_formula_structural   Nd10Sn6HC
_chemical_formula_sum   'Nd10 Sn6 H1 C1'
_cell_volume   509.60072218
_cell_formula_units_Z   1
loop_
 _symmetry_equiv_pos_site_id
 _symmetry_equiv_pos_as_xyz
  1  'x, y, z'
loop_
 _atom_site_type_symbol
 _atom_site_label
 _atom_site_symmetry_multiplicity
 _atom_site_fract_x
 _atom_site_fract_y
 _atom_site_fract_z
 _atom_site_occupancy
  Nd  Nd0  1  0.333333  0.666667  0.500000  1
  Nd  Nd1  1  0.666667  0.333333  0.500000  1
  Nd  Nd2  1  0.666667  0.333333  0.000000  1
  Nd  Nd3  1  0.333333  0.666667  0.000000  1
  Nd  Nd4  1  0.226453  0.000000  0.769935  1
  Nd  Nd5  1  0.773547  0.000000  0.230065  1
  Nd  Nd6  1  0.000000  0.226453  0.769935  1
  Nd  Nd7  1  0.000000  0.773547  0.230065  1
  Nd  Nd8  1  0.773547  0.773547  0.769935  1
  Nd  Nd9  1  0.226453  0.226453  0.230065  1
  Sn  Sn10  1  0.599480  0.000000  0.750254  1
  Sn  Sn11  1  0.400520  0.000000  0.249746  1
  Sn  Sn12  1  0.000000  0.599480  0.750254  1
  Sn  Sn13  1  0.000000  0.400520  0.249746  1
  Sn  Sn14  1  0.400520  0.400520  0.750254  1
  Sn  Sn15  1  0.599480  0.599480  0.249746  1
  H  H16  1  0.000000  0.000000  0.500000  1
  C  C17  1  0.000000  0.000000  0.000000  1
