# generated using pymatgen
data_Er6Tc16N
_symmetry_space_group_name_H-M   'P 1'
_cell_length_a   8.03737140
_cell_length_b   8.03737148
_cell_length_c   8.03737200
_cell_angle_alpha   109.47122950
_cell_angle_beta   109.47122971
_cell_angle_gamma   109.47121135
_symmetry_Int_Tables_number   1
_chemical_formula_structural   Er6Tc16N
_chemical_formula_sum   'Er6 Tc16 N1'
_cell_volume   399.68717315
_cell_formula_units_Z   1
loop_
 _symmetry_equiv_pos_site_id
 _symmetry_equiv_pos_as_xyz
  1  'x, y, z'
loop_
 _atom_site_type_symbol
 _atom_site_label
 _atom_site_symmetry_multiplicity
 _atom_site_fract_x
 _atom_site_fract_y
 _atom_site_fract_z
 _atom_site_occupancy
  Er  Er0  1  0.740521  0.740521  0.000000  1
  Er  Er1  1  0.259478  0.000000  0.259479  1
  Er  Er2  1  0.740521  0.000000  0.740521  1
  Er  Er3  1  0.000000  0.740521  0.740522  1
  Er  Er4  1  0.000000  0.259478  0.259479  1
  Er  Er5  1  0.259478  0.259478  0.000000  1
  Tc  Tc6  1  0.000000  0.500000  0.000000  1
  Tc  Tc7  1  0.500000  0.000000  0.000000  1
  Tc  Tc8  1  0.000000  0.000000  0.500000  1
  Tc  Tc9  1  0.500000  0.500000  0.500000  1
  Tc  Tc10  1  0.339887  0.339887  0.679774  1
  Tc  Tc11  1  0.660113  0.660113  0.320226  1
  Tc  Tc12  1  0.000000  0.339887  0.660113  1
  Tc  Tc13  1  0.320226  0.660113  0.660113  1
  Tc  Tc14  1  0.660113  0.320226  0.660113  1
  Tc  Tc15  1  0.339887  0.000000  0.660113  1
  Tc  Tc16  1  0.660113  0.339887  0.000000  1
  Tc  Tc17  1  0.339887  0.660113  0.000000  1
  Tc  Tc18  1  0.339887  0.679774  0.339887  1
  Tc  Tc19  1  0.000000  0.660113  0.339887  1
  Tc  Tc20  1  0.660113  0.000000  0.339887  1
  Tc  Tc21  1  0.679774  0.339887  0.339887  1
  N  N22  1  0.000000  0.000000  0.000000  1
