# generated using pymatgen
data_Pr9Nd3(NiCl3)4
_symmetry_space_group_name_H-M   'P 1'
_cell_length_a   10.20978637
_cell_length_b   10.21013098
_cell_length_c   10.21448700
_cell_angle_alpha   109.48506576
_cell_angle_beta   109.48369037
_cell_angle_gamma   109.42693689
_symmetry_Int_Tables_number   1
_chemical_formula_structural   Pr9Nd3(NiCl3)4
_chemical_formula_sum   'Pr9 Nd3 Ni4 Cl12'
_cell_volume   819.85830581
_cell_formula_units_Z   1
loop_
 _symmetry_equiv_pos_site_id
 _symmetry_equiv_pos_as_xyz
  1  'x, y, z'
loop_
 _atom_site_type_symbol
 _atom_site_label
 _atom_site_symmetry_multiplicity
 _atom_site_fract_x
 _atom_site_fract_y
 _atom_site_fract_z
 _atom_site_occupancy
  Pr  Pr0  1  0.474025  0.486589  0.236770  1
  Pr  Pr1  1  0.749785  0.237179  0.262821  1
  Pr  Pr2  1  0.750627  0.013233  0.487425  1
  Pr  Pr3  1  0.236792  0.474095  0.487343  1
  Pr  Pr4  1  0.262647  0.750071  0.236780  1
  Pr  Pr5  1  0.026040  0.262919  0.012510  1
  Pr  Pr6  1  0.013153  0.025783  0.262864  1
  Pr  Pr7  1  0.486462  0.749494  0.012422  1
  Pr  Pr8  1  0.487140  0.237233  0.474374  1
  Nd  Nd9  1  0.013437  0.486447  0.749970  1
  Nd  Nd10  1  0.263156  0.013289  0.026450  1
  Nd  Nd11  1  0.236520  0.263519  0.749968  1
  Ni  Ni12  1  0.249985  0.249405  0.249323  1
  Ni  Ni13  1  0.499693  0.000159  0.249654  1
  Ni  Ni14  1  0.000408  0.250618  0.501063  1
  Ni  Ni15  1  0.249475  0.499500  0.999040  1
  Cl  Cl16  1  0.247685  0.751316  0.749389  1
  Cl  Cl17  1  0.502133  0.499924  0.752069  1
  Cl  Cl18  1  0.997938  0.748552  0.996132  1
  Cl  Cl19  1  0.749938  0.252116  0.752054  1
  Cl  Cl20  1  0.001703  0.998050  0.749371  1
  Cl  Cl21  1  0.250310  0.999693  0.503269  1
  Cl  Cl22  1  0.752961  0.503541  0.503262  1
  Cl  Cl23  1  0.498191  0.247554  0.996129  1
  Cl  Cl24  1  0.751887  0.748063  0.249899  1
  Cl  Cl25  1  0.748093  0.998072  0.996175  1
  Cl  Cl26  1  0.998022  0.501810  0.249900  1
  Cl  Cl27  1  0.501792  0.751776  0.503572  1
