# generated using pymatgen
data_Mn3Si3TcRu5
_symmetry_space_group_name_H-M   'P 1'
_cell_length_a   4.19295302
_cell_length_b   5.92529903
_cell_length_c   12.55760312
_cell_angle_alpha   89.98902269
_cell_angle_beta   89.98861208
_cell_angle_gamma   89.99801562
_symmetry_Int_Tables_number   1
_chemical_formula_structural   Mn3Si3TcRu5
_chemical_formula_sum   'Mn6 Si6 Tc2 Ru10'
_cell_volume   311.98736443
_cell_formula_units_Z   2
loop_
 _symmetry_equiv_pos_site_id
 _symmetry_equiv_pos_as_xyz
  1  'x, y, z'
loop_
 _atom_site_type_symbol
 _atom_site_label
 _atom_site_symmetry_multiplicity
 _atom_site_fract_x
 _atom_site_fract_y
 _atom_site_fract_z
 _atom_site_occupancy
  Mn  Mn0  1  0.999921  0.000095  0.999945  1
  Mn  Mn1  1  0.499906  0.500089  0.164944  1
  Mn  Mn2  1  0.999858  0.000227  0.333543  1
  Mn  Mn3  1  0.499850  0.499887  0.500043  1
  Mn  Mn4  1  0.000092  0.999642  0.666522  1
  Mn  Mn5  1  0.500299  0.499766  0.835136  1
  Si  Si6  1  0.999959  0.500070  0.000030  1
  Si  Si7  1  0.500021  0.000176  0.167899  1
  Si  Si8  1  0.999886  0.500026  0.333183  1
  Si  Si9  1  0.499978  0.999975  0.499999  1
  Si  Si10  1  0.000129  0.499921  0.666750  1
  Si  Si11  1  0.500051  0.999989  0.832079  1
  Tc  Tc12  1  0.499966  0.250535  0.000020  1
  Tc  Tc13  1  0.499959  0.749671  0.999999  1
  Ru  Ru14  1  0.000002  0.250497  0.167661  1
  Ru  Ru15  1  0.000008  0.749848  0.167639  1
  Ru  Ru16  1  0.499890  0.249812  0.334343  1
  Ru  Ru17  1  0.499880  0.750345  0.334360  1
  Ru  Ru18  1  0.999961  0.250618  0.500004  1
  Ru  Ru19  1  0.999965  0.749243  0.499951  1
  Ru  Ru20  1  0.500107  0.249639  0.665646  1
  Ru  Ru21  1  0.500111  0.750040  0.665669  1
  Ru  Ru22  1  0.000101  0.250438  0.832302  1
  Ru  Ru23  1  0.000098  0.749448  0.832335  1
