# generated using pymatgen
data_Na2Pr(B3Rh4)2
_symmetry_space_group_name_H-M   'P 1'
_cell_length_a   9.81719786
_cell_length_b   8.94402606
_cell_length_c   5.63994561
_cell_angle_alpha   81.20412629
_cell_angle_beta   64.20310825
_cell_angle_gamma   34.59277705
_symmetry_Int_Tables_number   1
_chemical_formula_structural   Na2Pr(B3Rh4)2
_chemical_formula_sum   'Na2 Pr1 B6 Rh8'
_cell_volume   231.81452896
_cell_formula_units_Z   1
loop_
 _symmetry_equiv_pos_site_id
 _symmetry_equiv_pos_as_xyz
  1  'x, y, z'
loop_
 _atom_site_type_symbol
 _atom_site_label
 _atom_site_symmetry_multiplicity
 _atom_site_fract_x
 _atom_site_fract_y
 _atom_site_fract_z
 _atom_site_occupancy
  Na  Na0  1  0.309106  0.309106  0.690894  1
  Na  Na1  1  0.690894  0.690894  0.309106  1
  Pr  Pr2  1  0.500000  0.500000  0.500000  1
  B  B3  1  0.830740  0.169260  0.830740  1
  B  B4  1  0.667106  0.987256  0.012744  1
  B  B5  1  0.987256  0.667106  0.332894  1
  B  B6  1  0.012744  0.332894  0.667106  1
  B  B7  1  0.332894  0.012744  0.987256  1
  B  B8  1  0.169260  0.830740  0.169260  1
  Rh  Rh9  1  0.914266  0.914266  0.585734  1
  Rh  Rh10  1  0.085734  0.085734  0.414266  1
  Rh  Rh11  1  0.750000  0.750000  0.750000  1
  Rh  Rh12  1  0.088349  0.088349  0.911651  1
  Rh  Rh13  1  0.911651  0.911651  0.088349  1
  Rh  Rh14  1  0.414266  0.414266  0.085734  1
  Rh  Rh15  1  0.585734  0.585734  0.914266  1
  Rh  Rh16  1  0.250000  0.250000  0.250000  1
