# generated using pymatgen
data_La16YTm3Sn16
_symmetry_space_group_name_H-M   'P 1'
_cell_length_a   8.40852814
_cell_length_b   8.50090014
_cell_length_c   16.25262700
_cell_angle_alpha   90.00000000
_cell_angle_beta   90.00000000
_cell_angle_gamma   89.97929019
_symmetry_Int_Tables_number   1
_chemical_formula_structural   La16YTm3Sn16
_chemical_formula_sum   'La16 Y1 Tm3 Sn16'
_cell_volume   1161.73864488
_cell_formula_units_Z   1
loop_
 _symmetry_equiv_pos_site_id
 _symmetry_equiv_pos_as_xyz
  1  'x, y, z'
loop_
 _atom_site_type_symbol
 _atom_site_label
 _atom_site_symmetry_multiplicity
 _atom_site_fract_x
 _atom_site_fract_y
 _atom_site_fract_z
 _atom_site_occupancy
  La  La0  1  0.972905  0.818861  0.899473  1
  La  La1  1  0.473145  0.680868  0.600556  1
  La  La2  1  0.526968  0.318960  0.100624  1
  La  La3  1  0.026888  0.181063  0.399366  1
  La  La4  1  0.972905  0.818861  0.600527  1
  La  La5  1  0.473145  0.680868  0.899444  1
  La  La6  1  0.526968  0.318960  0.399376  1
  La  La7  1  0.026888  0.181063  0.100634  1
  La  La8  1  0.880026  0.660686  0.382347  1
  La  La9  1  0.380026  0.839343  0.117697  1
  La  La10  1  0.620293  0.160841  0.617555  1
  La  La11  1  0.119800  0.339506  0.882429  1
  La  La12  1  0.119800  0.339506  0.617571  1
  La  La13  1  0.620293  0.160841  0.882445  1
  La  La14  1  0.380026  0.839343  0.382303  1
  La  La15  1  0.880026  0.660686  0.117653  1
  Y  Y16  1  0.288256  0.002820  0.750000  1
  Tm  Tm17  1  0.787906  0.496924  0.750000  1
  Tm  Tm18  1  0.212057  0.502931  0.250000  1
  Tm  Tm19  1  0.712106  0.997113  0.250000  1
  Sn  Sn20  1  0.781108  0.470225  0.546210  1
  Sn  Sn21  1  0.281138  0.029804  0.953991  1
  Sn  Sn22  1  0.718811  0.970224  0.453790  1
  Sn  Sn23  1  0.218872  0.529778  0.046218  1
  Sn  Sn24  1  0.218872  0.529778  0.453782  1
  Sn  Sn25  1  0.718811  0.970224  0.046210  1
  Sn  Sn26  1  0.281138  0.029804  0.546009  1
  Sn  Sn27  1  0.781108  0.470225  0.953790  1
  Sn  Sn28  1  0.168653  0.644206  0.750000  1
  Sn  Sn29  1  0.668721  0.855429  0.750000  1
  Sn  Sn30  1  0.331316  0.144656  0.250000  1
  Sn  Sn31  1  0.831280  0.355299  0.250000  1
  Sn  Sn32  1  0.923189  0.117501  0.750000  1
  Sn  Sn33  1  0.423468  0.382787  0.750000  1
  Sn  Sn34  1  0.576614  0.617480  0.250000  1
  Sn  Sn35  1  0.076472  0.882538  0.250000  1
