# generated using pymatgen
data_LaHoMo2O7
_symmetry_space_group_name_H-M   'P 1'
_cell_length_a   7.38688094
_cell_length_b   7.47154112
_cell_length_c   7.47154108
_cell_angle_alpha   60.92940927
_cell_angle_beta   60.37413517
_cell_angle_gamma   60.37412314
_symmetry_Int_Tables_number   1
_chemical_formula_structural   LaHoMo2O7
_chemical_formula_sum   'La2 Ho2 Mo4 O14'
_cell_volume   295.25136779
_cell_formula_units_Z   2
loop_
 _symmetry_equiv_pos_site_id
 _symmetry_equiv_pos_as_xyz
  1  'x, y, z'
loop_
 _atom_site_type_symbol
 _atom_site_label
 _atom_site_symmetry_multiplicity
 _atom_site_fract_x
 _atom_site_fract_y
 _atom_site_fract_z
 _atom_site_occupancy
  La  La0  1  0.125000  0.625000  0.125000  1
  La  La1  1  0.125000  0.125000  0.625000  1
  Ho  Ho2  1  0.125000  0.125000  0.125000  1
  Ho  Ho3  1  0.625000  0.125000  0.125000  1
  Mo  Mo4  1  0.625000  0.625000  0.625000  1
  Mo  Mo5  1  0.125000  0.625000  0.625000  1
  Mo  Mo6  1  0.625000  0.125000  0.625000  1
  Mo  Mo7  1  0.625000  0.625000  0.125000  1
  O  O8  1  0.256657  0.243343  0.243343  1
  O  O9  1  0.993343  0.006657  0.006657  1
  O  O10  1  0.548958  0.960063  0.530474  1
  O  O11  1  0.289495  0.719526  0.289937  1
  O  O12  1  0.548958  0.530474  0.960063  1
  O  O13  1  0.957650  0.542350  0.542350  1
  O  O14  1  0.534718  0.965282  0.965282  1
  O  O15  1  0.960505  0.960063  0.530474  1
  O  O16  1  0.960505  0.530474  0.960063  1
  O  O17  1  0.715282  0.284718  0.284718  1
  O  O18  1  0.292350  0.707650  0.707650  1
  O  O19  1  0.701042  0.719526  0.289937  1
  O  O20  1  0.289495  0.289937  0.719526  1
  O  O21  1  0.701042  0.289937  0.719526  1
