# generated using pymatgen
data_ErTmFe2I
_symmetry_space_group_name_H-M   'P 1'
_cell_length_a   3.93490500
_cell_length_b   3.93490415
_cell_length_c   16.92982700
_cell_angle_alpha   90.00000000
_cell_angle_beta   90.00000000
_cell_angle_gamma   119.99999873
_symmetry_Int_Tables_number   1
_chemical_formula_structural   ErTmFe2I
_chemical_formula_sum   'Er2 Tm2 Fe4 I2'
_cell_volume   227.01343867
_cell_formula_units_Z   2
loop_
 _symmetry_equiv_pos_site_id
 _symmetry_equiv_pos_as_xyz
  1  'x, y, z'
loop_
 _atom_site_type_symbol
 _atom_site_label
 _atom_site_symmetry_multiplicity
 _atom_site_fract_x
 _atom_site_fract_y
 _atom_site_fract_z
 _atom_site_occupancy
  Er  Er0  1  0.000000  0.000000  0.603852  1
  Er  Er1  1  0.000000  0.000000  0.896148  1
  Tm  Tm2  1  0.000000  0.000000  0.103666  1
  Tm  Tm3  1  0.000000  0.000000  0.396334  1
  Fe  Fe4  1  0.333334  0.666667  0.005345  1
  Fe  Fe5  1  0.333334  0.666667  0.494655  1
  Fe  Fe6  1  0.666667  0.333332  0.504637  1
  Fe  Fe7  1  0.666667  0.333332  0.995363  1
  I  I8  1  0.666667  0.333332  0.250000  1
  I  I9  1  0.333334  0.666667  0.750000  1
