# generated using pymatgen
data_Li2La3Al7
_symmetry_space_group_name_H-M   'P 1'
_cell_length_a   9.50926690
_cell_length_b   9.50926709
_cell_length_c   9.50926616
_cell_angle_alpha   34.95922151
_cell_angle_beta   34.95922325
_cell_angle_gamma   34.95921239
_symmetry_Int_Tables_number   1
_chemical_formula_structural   Li2La3Al7
_chemical_formula_sum   'Li2 La3 Al7'
_cell_volume   252.05962124
_cell_formula_units_Z   1
loop_
 _symmetry_equiv_pos_site_id
 _symmetry_equiv_pos_as_xyz
  1  'x, y, z'
loop_
 _atom_site_type_symbol
 _atom_site_label
 _atom_site_symmetry_multiplicity
 _atom_site_fract_x
 _atom_site_fract_y
 _atom_site_fract_z
 _atom_site_occupancy
  Li  Li0  1  0.664809  0.664809  0.664809  1
  Li  Li1  1  0.335191  0.335191  0.335191  1
  La  La2  1  0.000000  0.000000  0.000000  1
  La  La3  1  0.141059  0.141059  0.141059  1
  La  La4  1  0.858941  0.858941  0.858941  1
  Al  Al5  1  0.415530  0.415530  0.925169  1
  Al  Al6  1  0.925169  0.415530  0.415530  1
  Al  Al7  1  0.500000  0.500000  0.500000  1
  Al  Al8  1  0.584470  0.584470  0.074831  1
  Al  Al9  1  0.415530  0.925169  0.415530  1
  Al  Al10  1  0.074831  0.584470  0.584470  1
  Al  Al11  1  0.584470  0.074831  0.584470  1
