# generated using pymatgen
data_La6Tm2TiPd24
_symmetry_space_group_name_H-M   'P 1'
_cell_length_a   8.53856504
_cell_length_b   8.53856508
_cell_length_c   8.53856500
_cell_angle_alpha   90.00556950
_cell_angle_beta   89.99443050
_cell_angle_gamma   89.99443105
_symmetry_Int_Tables_number   1
_chemical_formula_structural   La6Tm2TiPd24
_chemical_formula_sum   'La6 Tm2 Ti1 Pd24'
_cell_volume   622.52194622
_cell_formula_units_Z   1
loop_
 _symmetry_equiv_pos_site_id
 _symmetry_equiv_pos_as_xyz
  1  'x, y, z'
loop_
 _atom_site_type_symbol
 _atom_site_label
 _atom_site_symmetry_multiplicity
 _atom_site_fract_x
 _atom_site_fract_y
 _atom_site_fract_z
 _atom_site_occupancy
  La  La0  1  0.253133  0.253197  0.253197  1
  La  La1  1  0.746867  0.746803  0.746803  1
  La  La2  1  0.746803  0.746867  0.253197  1
  La  La3  1  0.746803  0.253197  0.746867  1
  La  La4  1  0.253197  0.253133  0.746803  1
  La  La5  1  0.253197  0.746803  0.253133  1
  Tm  Tm6  1  0.252610  0.747390  0.747390  1
  Tm  Tm7  1  0.747390  0.252610  0.252610  1
  Ti  Ti8  1  0.000000  0.000000  0.000000  1
  Pd  Pd9  1  0.262403  0.501970  0.997363  1
  Pd  Pd10  1  0.737597  0.498030  0.002637  1
  Pd  Pd11  1  0.997363  0.262403  0.498030  1
  Pd  Pd12  1  0.501970  0.262403  0.002637  1
  Pd  Pd13  1  0.002637  0.737597  0.501970  1
  Pd  Pd14  1  0.498030  0.737597  0.997363  1
  Pd  Pd15  1  0.501970  0.002637  0.262403  1
  Pd  Pd16  1  0.262403  0.997363  0.501970  1
  Pd  Pd17  1  0.498030  0.997363  0.737597  1
  Pd  Pd18  1  0.737597  0.002637  0.498030  1
  Pd  Pd19  1  0.997363  0.498030  0.262403  1
  Pd  Pd20  1  0.002637  0.501970  0.737597  1
  Pd  Pd21  1  0.253628  0.502574  0.502574  1
  Pd  Pd22  1  0.746372  0.497426  0.497426  1
  Pd  Pd23  1  0.502574  0.253628  0.497426  1
  Pd  Pd24  1  0.497426  0.746372  0.502574  1
  Pd  Pd25  1  0.502574  0.497426  0.253628  1
  Pd  Pd26  1  0.497426  0.502574  0.746372  1
  Pd  Pd27  1  0.296897  0.997570  0.997570  1
  Pd  Pd28  1  0.703103  0.002430  0.002430  1
  Pd  Pd29  1  0.997570  0.296897  0.002430  1
  Pd  Pd30  1  0.002430  0.703103  0.997570  1
  Pd  Pd31  1  0.997570  0.002430  0.296897  1
  Pd  Pd32  1  0.002430  0.997570  0.703103  1
