# generated using pymatgen
data_Ca2Hf3Ni9As7
_symmetry_space_group_name_H-M   'P 1'
_cell_length_a   9.81514000
_cell_length_b   9.81513913
_cell_length_c   3.86087200
_cell_angle_alpha   90.00000000
_cell_angle_beta   90.00000000
_cell_angle_gamma   120.00000967
_symmetry_Int_Tables_number   1
_chemical_formula_structural   Ca2Hf3Ni9As7
_chemical_formula_sum   'Ca2 Hf3 Ni9 As7'
_cell_volume   322.11351852
_cell_formula_units_Z   1
loop_
 _symmetry_equiv_pos_site_id
 _symmetry_equiv_pos_as_xyz
  1  'x, y, z'
loop_
 _atom_site_type_symbol
 _atom_site_label
 _atom_site_symmetry_multiplicity
 _atom_site_fract_x
 _atom_site_fract_y
 _atom_site_fract_z
 _atom_site_occupancy
  Ca  Ca0  1  0.333333  0.666667  0.000000  1
  Ca  Ca1  1  0.666667  0.333333  0.500000  1
  Hf  Hf2  1  0.229793  0.118384  0.500000  1
  Hf  Hf3  1  0.881616  0.111408  0.500000  1
  Hf  Hf4  1  0.888592  0.770207  0.500000  1
  Ni  Ni5  1  0.127859  0.280641  0.000000  1
  Ni  Ni6  1  0.719359  0.847218  0.000000  1
  Ni  Ni7  1  0.152782  0.872141  0.000000  1
  Ni  Ni8  1  0.419238  0.352920  0.000000  1
  Ni  Ni9  1  0.647080  0.066319  0.000000  1
  Ni  Ni10  1  0.933681  0.580762  0.000000  1
  Ni  Ni11  1  0.059009  0.433919  0.500000  1
  Ni  Ni12  1  0.566081  0.625090  0.500000  1
  Ni  Ni13  1  0.374910  0.940991  0.500000  1
  As  As14  1  0.297746  0.418139  0.500000  1
  As  As15  1  0.581861  0.879606  0.500000  1
  As  As16  1  0.120394  0.702254  0.500000  1
  As  As17  1  0.423437  0.103207  0.000000  1
  As  As18  1  0.896793  0.320230  0.000000  1
  As  As19  1  0.679770  0.576563  0.000000  1
  As  As20  1  0.000000  0.000000  0.000000  1
