# generated using pymatgen
data_Tb16Cd3Ni4Ag
_symmetry_space_group_name_H-M   'P 1'
_cell_length_a   9.53068256
_cell_length_b   9.53068258
_cell_length_c   9.53068227
_cell_angle_alpha   60.29143622
_cell_angle_beta   60.29143572
_cell_angle_gamma   60.29144079
_symmetry_Int_Tables_number   1
_chemical_formula_structural   Tb16Cd3Ni4Ag
_chemical_formula_sum   'Tb16 Cd3 Ni4 Ag1'
_cell_volume   616.18614871
_cell_formula_units_Z   1
loop_
 _symmetry_equiv_pos_site_id
 _symmetry_equiv_pos_as_xyz
  1  'x, y, z'
loop_
 _atom_site_type_symbol
 _atom_site_label
 _atom_site_symmetry_multiplicity
 _atom_site_fract_x
 _atom_site_fract_y
 _atom_site_fract_z
 _atom_site_occupancy
  Tb  Tb0  1  0.347221  0.347221  0.347221  1
  Tb  Tb1  1  0.349695  0.349695  0.951196  1
  Tb  Tb2  1  0.349695  0.951196  0.349695  1
  Tb  Tb3  1  0.951196  0.349695  0.349695  1
  Tb  Tb4  1  0.811980  0.189977  0.189977  1
  Tb  Tb5  1  0.188980  0.810784  0.810784  1
  Tb  Tb6  1  0.189977  0.811980  0.189977  1
  Tb  Tb7  1  0.810784  0.188980  0.810784  1
  Tb  Tb8  1  0.189977  0.189977  0.811980  1
  Tb  Tb9  1  0.810784  0.810784  0.188980  1
  Tb  Tb10  1  0.934921  0.563238  0.563238  1
  Tb  Tb11  1  0.562131  0.936557  0.936557  1
  Tb  Tb12  1  0.563238  0.934921  0.563238  1
  Tb  Tb13  1  0.936557  0.562131  0.936557  1
  Tb  Tb14  1  0.563238  0.563238  0.934921  1
  Tb  Tb15  1  0.936557  0.936557  0.562131  1
  Cd  Cd16  1  0.581511  0.581511  0.257390  1
  Cd  Cd17  1  0.581511  0.257390  0.581511  1
  Cd  Cd18  1  0.257390  0.581511  0.581511  1
  Ni  Ni19  1  0.143230  0.143230  0.143230  1
  Ni  Ni20  1  0.142271  0.142271  0.572528  1
  Ni  Ni21  1  0.142271  0.572528  0.142271  1
  Ni  Ni22  1  0.572528  0.142271  0.142271  1
  Ag  Ag23  1  0.582352  0.582352  0.582352  1
