# generated using pymatgen
data_Yb20PdPt11
_symmetry_space_group_name_H-M   'P 1'
_cell_length_a   6.33202500
_cell_length_b   11.05756700
_cell_length_c   11.05756700
_cell_angle_alpha   90.00000000
_cell_angle_beta   90.00000000
_cell_angle_gamma   90.00000000
_symmetry_Int_Tables_number   1
_chemical_formula_structural   Yb20PdPt11
_chemical_formula_sum   'Yb20 Pd1 Pt11'
_cell_volume   774.21535410
_cell_formula_units_Z   1
loop_
 _symmetry_equiv_pos_site_id
 _symmetry_equiv_pos_as_xyz
  1  'x, y, z'
loop_
 _atom_site_type_symbol
 _atom_site_label
 _atom_site_symmetry_multiplicity
 _atom_site_fract_x
 _atom_site_fract_y
 _atom_site_fract_z
 _atom_site_occupancy
  Yb  Yb0  1  0.366119  0.835647  0.541607  1
  Yb  Yb1  1  0.865975  0.663879  0.541446  1
  Yb  Yb2  1  0.865975  0.836121  0.958554  1
  Yb  Yb3  1  0.366119  0.664353  0.958393  1
  Yb  Yb4  1  0.865975  0.541446  0.836121  1
  Yb  Yb5  1  0.366119  0.958393  0.835647  1
  Yb  Yb6  1  0.366119  0.541607  0.664353  1
  Yb  Yb7  1  0.865975  0.958554  0.663879  1
  Yb  Yb8  1  0.636401  0.163119  0.460262  1
  Yb  Yb9  1  0.130139  0.336473  0.460298  1
  Yb  Yb10  1  0.130139  0.163527  0.039703  1
  Yb  Yb11  1  0.636401  0.336881  0.039739  1
  Yb  Yb12  1  0.130139  0.460298  0.163527  1
  Yb  Yb13  1  0.636401  0.039739  0.163119  1
  Yb  Yb14  1  0.636401  0.460262  0.336881  1
  Yb  Yb15  1  0.130139  0.039703  0.336473  1
  Yb  Yb16  1  0.500934  0.750000  0.250000  1
  Yb  Yb17  1  0.000676  0.750000  0.250000  1
  Yb  Yb18  1  0.000676  0.250000  0.750000  1
  Yb  Yb19  1  0.500934  0.250000  0.750000  1
  Pd  Pd20  1  0.386913  0.250000  0.250000  1
  Pt  Pt21  1  0.250946  0.904747  0.096783  1
  Pt  Pt22  1  0.750254  0.595627  0.096482  1
  Pt  Pt23  1  0.750254  0.904373  0.403518  1
  Pt  Pt24  1  0.250946  0.595253  0.403217  1
  Pt  Pt25  1  0.750254  0.096482  0.904373  1
  Pt  Pt26  1  0.250946  0.403217  0.904747  1
  Pt  Pt27  1  0.250946  0.096783  0.595253  1
  Pt  Pt28  1  0.750254  0.403518  0.595627  1
  Pt  Pt29  1  0.110634  0.750000  0.750000  1
  Pt  Pt30  1  0.611562  0.750000  0.750000  1
  Pt  Pt31  1  0.888339  0.250000  0.250000  1
