# generated using pymatgen
data_AgSnIrSe4
_symmetry_space_group_name_H-M   'P 1'
_cell_length_a   7.84335356
_cell_length_b   7.84335416
_cell_length_c   7.84335384
_cell_angle_alpha   120.17671366
_cell_angle_beta   119.56531200
_cell_angle_gamma   90.22437079
_symmetry_Int_Tables_number   1
_chemical_formula_structural   AgSnIrSe4
_chemical_formula_sum   'Ag2 Sn2 Ir2 Se8'
_cell_volume   341.83563408
_cell_formula_units_Z   2
loop_
 _symmetry_equiv_pos_site_id
 _symmetry_equiv_pos_as_xyz
  1  'x, y, z'
loop_
 _atom_site_type_symbol
 _atom_site_label
 _atom_site_symmetry_multiplicity
 _atom_site_fract_x
 _atom_site_fract_y
 _atom_site_fract_z
 _atom_site_occupancy
  Ag  Ag0  1  0.883052  0.633052  0.250000  1
  Ag  Ag1  1  0.116948  0.366948  0.750000  1
  Sn  Sn2  1  0.500000  0.000000  0.500000  1
  Sn  Sn3  1  0.000000  0.000000  0.000000  1
  Ir  Ir4  1  0.500000  0.000000  0.000000  1
  Ir  Ir5  1  0.500000  0.500000  0.500000  1
  Se  Se6  1  0.727511  0.734632  0.507120  1
  Se  Se7  1  0.727511  0.220391  0.992880  1
  Se  Se8  1  0.710862  0.754194  0.956668  1
  Se  Se9  1  0.297526  0.754194  0.543332  1
  Se  Se10  1  0.272489  0.265368  0.492880  1
  Se  Se11  1  0.272489  0.779609  0.007120  1
  Se  Se12  1  0.289138  0.245806  0.043332  1
  Se  Se13  1  0.702474  0.245806  0.456668  1
