# generated using pymatgen
data_Mn2Hg(P2O7)2
_symmetry_space_group_name_H-M   'P 1'
_cell_length_a   4.97851482
_cell_length_b   6.94786183
_cell_length_c   8.22804123
_cell_angle_alpha   91.09499906
_cell_angle_beta   97.67228493
_cell_angle_gamma   105.26649389
_symmetry_Int_Tables_number   1
_chemical_formula_structural   Mn2Hg(P2O7)2
_chemical_formula_sum   'Mn2 Hg1 P4 O14'
_cell_volume   271.66827997
_cell_formula_units_Z   1
loop_
 _symmetry_equiv_pos_site_id
 _symmetry_equiv_pos_as_xyz
  1  'x, y, z'
loop_
 _atom_site_type_symbol
 _atom_site_label
 _atom_site_symmetry_multiplicity
 _atom_site_fract_x
 _atom_site_fract_y
 _atom_site_fract_z
 _atom_site_occupancy
  Mn  Mn0  1  0.500000  0.500000  0.500000  1
  Mn  Mn1  1  0.000000  0.000000  0.000000  1
  Hg  Hg2  1  0.000000  0.000000  0.500000  1
  P  P3  1  0.016404  0.638863  0.254660  1
  P  P4  1  0.983596  0.361137  0.745340  1
  P  P5  1  0.611040  0.244283  0.203005  1
  P  P6  1  0.388960  0.755717  0.796995  1
  O  O7  1  0.769569  0.468382  0.152089  1
  O  O8  1  0.230431  0.531618  0.847911  1
  O  O9  1  0.540506  0.267779  0.380134  1
  O  O10  1  0.459494  0.732221  0.619866  1
  O  O11  1  0.253360  0.546131  0.313671  1
  O  O12  1  0.746640  0.453869  0.686329  1
  O  O13  1  0.875399  0.703291  0.399686  1
  O  O14  1  0.189461  0.888078  0.794126  1
  O  O15  1  0.810539  0.111922  0.205874  1
  O  O16  1  0.884450  0.189785  0.852451  1
  O  O17  1  0.115550  0.810215  0.147549  1
  O  O18  1  0.644662  0.808025  0.929781  1
  O  O19  1  0.355338  0.191975  0.070219  1
  O  O20  1  0.124601  0.296709  0.600314  1
