# generated using pymatgen
data_V10GaSi3Tc2
_symmetry_space_group_name_H-M   'P 1'
_cell_length_a   4.71064200
_cell_length_b   4.73795182
_cell_length_c   9.51480371
_cell_angle_alpha   89.86125754
_cell_angle_beta   90.00000000
_cell_angle_gamma   90.00000000
_symmetry_Int_Tables_number   1
_chemical_formula_structural   V10GaSi3Tc2
_chemical_formula_sum   'V10 Ga1 Si3 Tc2'
_cell_volume   212.35832929
_cell_formula_units_Z   1
loop_
 _symmetry_equiv_pos_site_id
 _symmetry_equiv_pos_as_xyz
  1  'x, y, z'
loop_
 _atom_site_type_symbol
 _atom_site_label
 _atom_site_symmetry_multiplicity
 _atom_site_fract_x
 _atom_site_fract_y
 _atom_site_fract_z
 _atom_site_occupancy
  V  V0  1  0.000000  0.498277  0.627162  1
  V  V1  1  0.500000  0.247028  0.254007  1
  V  V2  1  0.755737  0.000822  0.001355  1
  V  V3  1  0.752002  0.000002  0.499182  1
  V  V4  1  0.000000  0.498007  0.869631  1
  V  V5  1  0.000000  0.500900  0.377408  1
  V  V6  1  0.500000  0.750770  0.744723  1
  V  V7  1  0.500000  0.756497  0.252694  1
  V  V8  1  0.244263  0.000822  0.001355  1
  V  V9  1  0.247998  0.000002  0.499182  1
  Ga  Ga10  1  0.500000  0.502624  0.999394  1
  Si  Si11  1  0.500000  0.503193  0.497866  1
  Si  Si12  1  0.000000  0.993836  0.750056  1
  Si  Si13  1  0.000000  0.998922  0.252598  1
  Tc  Tc14  1  0.000000  0.500485  0.126665  1
  Tc  Tc15  1  0.500000  0.247814  0.746723  1
