# generated using pymatgen
data_Hf18Re5Mo2As2W
_symmetry_space_group_name_H-M   'P 1'
_cell_length_a   8.65974723
_cell_length_b   8.66408489
_cell_length_c   8.62318744
_cell_angle_alpha   89.90397207
_cell_angle_beta   89.99882905
_cell_angle_gamma   120.02721320
_symmetry_Int_Tables_number   1
_chemical_formula_structural   Hf18Re5Mo2As2W
_chemical_formula_sum   'Hf18 Re5 Mo2 As2 W1'
_cell_volume   560.15264545
_cell_formula_units_Z   1
loop_
 _symmetry_equiv_pos_site_id
 _symmetry_equiv_pos_as_xyz
  1  'x, y, z'
loop_
 _atom_site_type_symbol
 _atom_site_label
 _atom_site_symmetry_multiplicity
 _atom_site_fract_x
 _atom_site_fract_y
 _atom_site_fract_z
 _atom_site_occupancy
  Hf  Hf0  1  0.804889  0.610048  0.545011  1
  Hf  Hf1  1  0.804837  0.194779  0.545045  1
  Hf  Hf2  1  0.390997  0.195460  0.543756  1
  Hf  Hf3  1  0.194298  0.388741  0.451287  1
  Hf  Hf4  1  0.194365  0.805673  0.451266  1
  Hf  Hf5  1  0.611954  0.806072  0.452067  1
  Hf  Hf6  1  0.192508  0.384755  0.049618  1
  Hf  Hf7  1  0.192404  0.807702  0.049628  1
  Hf  Hf8  1  0.615220  0.807561  0.048337  1
  Hf  Hf9  1  0.806317  0.613712  0.954260  1
  Hf  Hf10  1  0.806437  0.192658  0.954334  1
  Hf  Hf11  1  0.387234  0.193684  0.955320  1
  Hf  Hf12  1  0.460430  0.919660  0.750976  1
  Hf  Hf13  1  0.460436  0.540798  0.751059  1
  Hf  Hf14  1  0.079639  0.539772  0.751607  1
  Hf  Hf15  1  0.542150  0.083432  0.249136  1
  Hf  Hf16  1  0.542041  0.458709  0.249016  1
  Hf  Hf17  1  0.916387  0.458154  0.248907  1
  Re  Re18  1  0.778395  0.889197  0.748970  1
  Re  Re19  1  0.889722  0.780135  0.250717  1
  Re  Re20  1  0.889740  0.109592  0.250769  1
  Re  Re21  1  0.219891  0.109950  0.250553  1
  Re  Re22  1  0.999365  0.999662  0.000549  1
  Mo  Mo23  1  0.109626  0.219126  0.749265  1
  Mo  Mo24  1  0.109642  0.890472  0.749222  1
  As  As25  1  0.667424  0.333687  0.751599  1
  As  As26  1  0.333967  0.666976  0.248364  1
  W  W27  1  0.999685  0.999835  0.499362  1
