# generated using pymatgen
data_Tm10Sn6HC
_symmetry_space_group_name_H-M   'P 1'
_cell_length_a   8.81353000
_cell_length_b   8.81353061
_cell_length_c   6.44658700
_cell_angle_alpha   90.00000000
_cell_angle_beta   90.00000000
_cell_angle_gamma   120.00000523
_symmetry_Int_Tables_number   1
_chemical_formula_structural   Tm10Sn6HC
_chemical_formula_sum   'Tm10 Sn6 H1 C1'
_cell_volume   433.67087976
_cell_formula_units_Z   1
loop_
 _symmetry_equiv_pos_site_id
 _symmetry_equiv_pos_as_xyz
  1  'x, y, z'
loop_
 _atom_site_type_symbol
 _atom_site_label
 _atom_site_symmetry_multiplicity
 _atom_site_fract_x
 _atom_site_fract_y
 _atom_site_fract_z
 _atom_site_occupancy
  Tm  Tm0  1  0.333333  0.666667  0.500000  1
  Tm  Tm1  1  0.666667  0.333333  0.500000  1
  Tm  Tm2  1  0.666667  0.333333  0.000000  1
  Tm  Tm3  1  0.333333  0.666667  0.000000  1
  Tm  Tm4  1  0.225777  0.000000  0.772736  1
  Tm  Tm5  1  0.774223  0.000000  0.227264  1
  Tm  Tm6  1  0.000000  0.225777  0.772736  1
  Tm  Tm7  1  0.000000  0.774223  0.227264  1
  Tm  Tm8  1  0.774223  0.774223  0.772736  1
  Tm  Tm9  1  0.225777  0.225777  0.227264  1
  Sn  Sn10  1  0.600273  0.000000  0.749180  1
  Sn  Sn11  1  0.399727  0.000000  0.250820  1
  Sn  Sn12  1  0.000000  0.600273  0.749180  1
  Sn  Sn13  1  0.000000  0.399727  0.250820  1
  Sn  Sn14  1  0.399727  0.399727  0.749180  1
  Sn  Sn15  1  0.600273  0.600273  0.250820  1
  H  H16  1  0.000000  0.000000  0.500000  1
  C  C17  1  0.000000  0.000000  0.000000  1
