# generated using pymatgen
data_Tb8In4IrAu7
_symmetry_space_group_name_H-M   'P 1'
_cell_length_a   8.02319530
_cell_length_b   8.02319596
_cell_length_c   7.38715318
_cell_angle_alpha   90.06449301
_cell_angle_beta   90.06449634
_cell_angle_gamma   90.18241008
_symmetry_Int_Tables_number   1
_chemical_formula_structural   Tb8In4IrAu7
_chemical_formula_sum   'Tb8 In4 Ir1 Au7'
_cell_volume   475.52035795
_cell_formula_units_Z   1
loop_
 _symmetry_equiv_pos_site_id
 _symmetry_equiv_pos_as_xyz
  1  'x, y, z'
loop_
 _atom_site_type_symbol
 _atom_site_label
 _atom_site_symmetry_multiplicity
 _atom_site_fract_x
 _atom_site_fract_y
 _atom_site_fract_z
 _atom_site_occupancy
  Tb  Tb0  1  0.178998  0.178998  0.008049  1
  Tb  Tb1  1  0.832020  0.832020  0.998495  1
  Tb  Tb2  1  0.658244  0.325548  0.493634  1
  Tb  Tb3  1  0.325548  0.658244  0.493634  1
  Tb  Tb4  1  0.658743  0.325776  0.006361  1
  Tb  Tb5  1  0.325776  0.658743  0.006361  1
  Tb  Tb6  1  0.831142  0.831142  0.500720  1
  Tb  Tb7  1  0.179053  0.179053  0.492816  1
  In  In8  1  0.497046  0.004509  0.248594  1
  In  In9  1  0.499450  0.993282  0.750558  1
  In  In10  1  0.004509  0.497046  0.248594  1
  In  In11  1  0.993282  0.499450  0.750558  1
  Ir  Ir12  1  0.373580  0.373580  0.250115  1
  Au  Au13  1  0.628924  0.628924  0.750813  1
  Au  Au14  1  0.630750  0.630750  0.248950  1
  Au  Au15  1  0.874209  0.133345  0.750061  1
  Au  Au16  1  0.873526  0.129115  0.250558  1
  Au  Au17  1  0.372736  0.372736  0.750511  1
  Au  Au18  1  0.129115  0.873526  0.250558  1
  Au  Au19  1  0.133345  0.874209  0.750061  1
