# generated using pymatgen
data_Ho4Sn5PIr7
_symmetry_space_group_name_H-M   'P 1'
_cell_length_a   7.51075792
_cell_length_b   7.51075725
_cell_length_c   7.51075775
_cell_angle_alpha   109.24559494
_cell_angle_beta   109.58415469
_cell_angle_gamma   109.58415397
_symmetry_Int_Tables_number   1
_chemical_formula_structural   Ho4Sn5PIr7
_chemical_formula_sum   'Ho4 Sn5 P1 Ir7'
_cell_volume   326.15517264
_cell_formula_units_Z   1
loop_
 _symmetry_equiv_pos_site_id
 _symmetry_equiv_pos_as_xyz
  1  'x, y, z'
loop_
 _atom_site_type_symbol
 _atom_site_label
 _atom_site_symmetry_multiplicity
 _atom_site_fract_x
 _atom_site_fract_y
 _atom_site_fract_z
 _atom_site_occupancy
  Ho  Ho0  1  0.000000  0.987950  0.532048  1
  Ho  Ho1  1  0.000000  0.532048  0.987950  1
  Ho  Ho2  1  0.455904  0.987950  0.987950  1
  Ho  Ho3  1  0.544096  0.532048  0.532048  1
  Sn  Sn4  1  0.686113  0.701172  0.015060  1
  Sn  Sn5  1  0.313887  0.015060  0.328948  1
  Sn  Sn6  1  0.000000  0.287635  0.287635  1
  Sn  Sn7  1  0.313887  0.328948  0.015060  1
  Sn  Sn8  1  0.686113  0.015060  0.701172  1
  P  P9  1  0.000000  0.643897  0.643897  1
  Ir  Ir10  1  0.757815  0.255770  0.497954  1
  Ir  Ir11  1  0.757815  0.497954  0.255770  1
  Ir  Ir12  1  0.500000  0.261288  0.761288  1
  Ir  Ir13  1  0.242185  0.497954  0.740139  1
  Ir  Ir14  1  0.242185  0.740139  0.497954  1
  Ir  Ir15  1  0.500000  0.761288  0.261288  1
  Ir  Ir16  1  0.000000  0.953840  0.953840  1
