# generated using pymatgen
data_Pr20(RuRh3)3
_symmetry_space_group_name_H-M   'P 1'
_cell_length_a   11.35239300
_cell_length_b   11.35239300
_cell_length_c   6.64338700
_cell_angle_alpha   90.00000000
_cell_angle_beta   90.00000000
_cell_angle_gamma   90.00000000
_symmetry_Int_Tables_number   1
_chemical_formula_structural   Pr20(RuRh3)3
_chemical_formula_sum   'Pr20 Ru3 Rh9'
_cell_volume   856.17863594
_cell_formula_units_Z   1
loop_
 _symmetry_equiv_pos_site_id
 _symmetry_equiv_pos_as_xyz
  1  'x, y, z'
loop_
 _atom_site_type_symbol
 _atom_site_label
 _atom_site_symmetry_multiplicity
 _atom_site_fract_x
 _atom_site_fract_y
 _atom_site_fract_z
 _atom_site_occupancy
  Pr  Pr0  1  0.294367  0.089066  0.382181  1
  Pr  Pr1  1  0.294634  0.911328  0.882411  1
  Pr  Pr2  1  0.705366  0.088672  0.882411  1
  Pr  Pr3  1  0.705633  0.910934  0.382181  1
  Pr  Pr4  1  0.588672  0.794634  0.882411  1
  Pr  Pr5  1  0.589066  0.205633  0.382181  1
  Pr  Pr6  1  0.410934  0.794367  0.382181  1
  Pr  Pr7  1  0.411328  0.205366  0.882411  1
  Pr  Pr8  1  0.207365  0.409625  0.620270  1
  Pr  Pr9  1  0.207270  0.590220  0.115749  1
  Pr  Pr10  1  0.792730  0.409780  0.115749  1
  Pr  Pr11  1  0.792635  0.590375  0.620270  1
  Pr  Pr12  1  0.909780  0.707270  0.115749  1
  Pr  Pr13  1  0.909625  0.292635  0.620270  1
  Pr  Pr14  1  0.090375  0.707365  0.620270  1
  Pr  Pr15  1  0.090220  0.292730  0.115749  1
  Pr  Pr16  1  0.000000  0.000000  0.498288  1
  Pr  Pr17  1  0.000000  0.000000  0.998994  1
  Pr  Pr18  1  0.500000  0.500000  0.998994  1
  Pr  Pr19  1  0.500000  0.500000  0.498288  1
  Ru  Ru20  1  0.500000  0.000000  0.119165  1
  Ru  Ru21  1  0.500000  0.000000  0.618791  1
  Ru  Ru22  1  0.000000  0.500000  0.881327  1
  Rh  Rh23  1  0.847322  0.154064  0.250388  1
  Rh  Rh24  1  0.846856  0.845885  0.750171  1
  Rh  Rh25  1  0.153144  0.154115  0.750171  1
  Rh  Rh26  1  0.152678  0.845936  0.250388  1
  Rh  Rh27  1  0.654115  0.346856  0.750171  1
  Rh  Rh28  1  0.654064  0.652678  0.250388  1
  Rh  Rh29  1  0.345936  0.347322  0.250388  1
  Rh  Rh30  1  0.345885  0.653144  0.750171  1
  Rh  Rh31  1  0.000000  0.500000  0.381471  1
