# generated using pymatgen
data_MnBiPt2O7
_symmetry_space_group_name_H-M   'P 1'
_cell_length_a   7.24829245
_cell_length_b   7.33857065
_cell_length_c   7.24829234
_cell_angle_alpha   59.58713092
_cell_angle_beta   59.21029589
_cell_angle_gamma   59.58712703
_symmetry_Int_Tables_number   1
_chemical_formula_structural   MnBiPt2O7
_chemical_formula_sum   'Mn2 Bi2 Pt4 O14'
_cell_volume   269.27901036
_cell_formula_units_Z   2
loop_
 _symmetry_equiv_pos_site_id
 _symmetry_equiv_pos_as_xyz
  1  'x, y, z'
loop_
 _atom_site_type_symbol
 _atom_site_label
 _atom_site_symmetry_multiplicity
 _atom_site_fract_x
 _atom_site_fract_y
 _atom_site_fract_z
 _atom_site_occupancy
  Mn  Mn0  1  0.125000  0.125000  0.625000  1
  Mn  Mn1  1  0.625000  0.125000  0.125000  1
  Bi  Bi2  1  0.125000  0.625000  0.125000  1
  Bi  Bi3  1  0.125000  0.125000  0.125000  1
  Pt  Pt4  1  0.625000  0.625000  0.125000  1
  Pt  Pt5  1  0.625000  0.125000  0.625000  1
  Pt  Pt6  1  0.125000  0.625000  0.625000  1
  Pt  Pt7  1  0.625000  0.625000  0.625000  1
  O  O8  1  0.267354  0.232646  0.267354  1
  O  O9  1  0.982646  0.017354  0.982646  1
  O  O10  1  0.538314  0.961686  0.538314  1
  O  O11  1  0.287918  0.712082  0.287918  1
  O  O12  1  0.543601  0.532173  0.963125  1
  O  O13  1  0.963125  0.532173  0.543601  1
  O  O14  1  0.543601  0.961101  0.963125  1
  O  O15  1  0.963125  0.961101  0.543601  1
  O  O16  1  0.962082  0.537918  0.962082  1
  O  O17  1  0.706399  0.288899  0.286875  1
  O  O18  1  0.286875  0.717827  0.706399  1
  O  O19  1  0.711686  0.288314  0.711686  1
  O  O20  1  0.286875  0.288899  0.706399  1
  O  O21  1  0.706399  0.717827  0.286875  1
