# generated using pymatgen
data_Tm2Al3(Ga2Ir)3
_symmetry_space_group_name_H-M   'P 1'
_cell_length_a   7.54565802
_cell_length_b   7.54362683
_cell_length_c   9.48916412
_cell_angle_alpha   90.18166171
_cell_angle_beta   89.90806967
_cell_angle_gamma   119.71986691
_symmetry_Int_Tables_number   1
_chemical_formula_structural   Tm2Al3(Ga2Ir)3
_chemical_formula_sum   'Tm4 Al6 Ga12 Ir6'
_cell_volume   469.08629291
_cell_formula_units_Z   2
loop_
 _symmetry_equiv_pos_site_id
 _symmetry_equiv_pos_as_xyz
  1  'x, y, z'
loop_
 _atom_site_type_symbol
 _atom_site_label
 _atom_site_symmetry_multiplicity
 _atom_site_fract_x
 _atom_site_fract_y
 _atom_site_fract_z
 _atom_site_occupancy
  Tm  Tm0  1  0.998887  0.667149  0.251037  1
  Tm  Tm1  1  0.001113  0.332851  0.748963  1
  Tm  Tm2  1  0.672217  0.000944  0.255055  1
  Tm  Tm3  1  0.327783  0.999056  0.744945  1
  Al  Al4  1  0.664143  0.998222  0.928004  1
  Al  Al5  1  0.335857  0.001778  0.071996  1
  Al  Al6  1  0.332007  0.332060  0.554135  1
  Al  Al7  1  0.667993  0.667940  0.445865  1
  Al  Al8  1  0.668433  0.667910  0.055755  1
  Al  Al9  1  0.331567  0.332090  0.944245  1
  Ga  Ga10  1  0.128805  0.125145  0.249283  1
  Ga  Ga11  1  0.871195  0.874855  0.750717  1
  Ga  Ga12  1  0.998405  0.333574  0.078915  1
  Ga  Ga13  1  0.001595  0.666426  0.921085  1
  Ga  Ga14  1  0.998526  0.664359  0.580369  1
  Ga  Ga15  1  0.335192  0.999374  0.417249  1
  Ga  Ga16  1  0.001474  0.335641  0.419631  1
  Ga  Ga17  1  0.664808  0.000626  0.582751  1
  Ga  Ga18  1  0.346057  0.551303  0.250001  1
  Ga  Ga19  1  0.653943  0.448697  0.749999  1
  Ga  Ga20  1  0.548657  0.344385  0.248947  1
  Ga  Ga21  1  0.451343  0.655615  0.751053  1
  Ir  Ir22  1  0.667763  0.325844  0.999096  1
  Ir  Ir23  1  0.332237  0.674156  0.000904  1
  Ir  Ir24  1  0.330141  0.669920  0.500876  1
  Ir  Ir25  1  0.669859  0.330080  0.499124  1
  Ir  Ir26  1  0.000000  0.000000  0.000000  1
  Ir  Ir27  1  0.000000  0.000000  0.500000  1
