# generated using pymatgen
data_Hf3UFeCo3Sn2
_symmetry_space_group_name_H-M   'P 1'
_cell_length_a   7.17199030
_cell_length_b   7.17199059
_cell_length_c   3.29712100
_cell_angle_alpha   90.00000000
_cell_angle_beta   90.00000000
_cell_angle_gamma   93.48172613
_symmetry_Int_Tables_number   1
_chemical_formula_structural   Hf3UFeCo3Sn2
_chemical_formula_sum   'Hf3 U1 Fe1 Co3 Sn2'
_cell_volume   169.28245010
_cell_formula_units_Z   1
loop_
 _symmetry_equiv_pos_site_id
 _symmetry_equiv_pos_as_xyz
  1  'x, y, z'
loop_
 _atom_site_type_symbol
 _atom_site_label
 _atom_site_symmetry_multiplicity
 _atom_site_fract_x
 _atom_site_fract_y
 _atom_site_fract_z
 _atom_site_occupancy
  Hf  Hf0  1  0.327761  0.827761  0.500000  1
  Hf  Hf1  1  0.834634  0.670250  0.500000  1
  Hf  Hf2  1  0.170250  0.334634  0.500000  1
  U  U3  1  0.675299  0.175299  0.500000  1
  Fe  Fe4  1  0.845808  0.345808  0.000000  1
  Co  Co5  1  0.388897  0.133921  0.000000  1
  Co  Co6  1  0.115292  0.615292  0.000000  1
  Co  Co7  1  0.633921  0.888897  0.000000  1
  Sn  Sn8  1  0.014863  0.993275  0.000000  1
  Sn  Sn9  1  0.493275  0.514863  0.000000  1
