# generated using pymatgen
data_Pr3SmV4F28
_symmetry_space_group_name_H-M   'P 1'
_cell_length_a   5.63265213
_cell_length_b   9.12875823
_cell_length_c   12.15167166
_cell_angle_alpha   62.66882733
_cell_angle_beta   90.01022391
_cell_angle_gamma   90.02433322
_symmetry_Int_Tables_number   1
_chemical_formula_structural   Pr3SmV4F28
_chemical_formula_sum   'Pr3 Sm1 V4 F28'
_cell_volume   555.07710738
_cell_formula_units_Z   1
loop_
 _symmetry_equiv_pos_site_id
 _symmetry_equiv_pos_as_xyz
  1  'x, y, z'
loop_
 _atom_site_type_symbol
 _atom_site_label
 _atom_site_symmetry_multiplicity
 _atom_site_fract_x
 _atom_site_fract_y
 _atom_site_fract_z
 _atom_site_occupancy
  Pr  Pr0  1  0.258194  0.190725  0.732528  1
  Pr  Pr1  1  0.241843  0.193155  0.232110  1
  Pr  Pr2  1  0.741538  0.805202  0.268211  1
  Sm  Sm3  1  0.759297  0.804985  0.768503  1
  V  V4  1  0.754551  0.276490  0.955383  1
  V  V5  1  0.255627  0.726243  0.546292  1
  V  V6  1  0.246047  0.725954  0.040797  1
  V  V7  1  0.746532  0.272526  0.457651  1
  F  F8  1  0.444702  0.709211  0.921223  1
  F  F9  1  0.940772  0.291498  0.577692  1
  F  F10  1  0.559632  0.293296  0.076076  1
  F  F11  1  0.057628  0.708903  0.426615  1
  F  F12  1  0.467210  0.285241  0.542416  1
  F  F13  1  0.967507  0.715405  0.953686  1
  F  F14  1  0.531864  0.714234  0.459385  1
  F  F15  1  0.033710  0.287642  0.040677  1
  F  F16  1  0.762660  0.503969  0.864246  1
  F  F17  1  0.264616  0.499726  0.637303  1
  F  F18  1  0.234274  0.499515  0.132012  1
  F  F19  1  0.736161  0.499693  0.366475  1
  F  F20  1  0.760998  0.051343  0.045298  1
  F  F21  1  0.261015  0.951297  0.455467  1
  F  F22  1  0.239543  0.951413  0.952602  1
  F  F23  1  0.739815  0.047740  0.547318  1
  F  F24  1  0.984228  0.732900  0.637483  1
  F  F25  1  0.482194  0.268672  0.866265  1
  F  F26  1  0.020559  0.268312  0.368315  1
  F  F27  1  0.517405  0.731220  0.131341  1
  F  F28  1  0.049767  0.743156  0.162842  1
  F  F29  1  0.553378  0.256025  0.334652  1
  F  F30  1  0.947790  0.258599  0.833121  1
  F  F31  1  0.455160  0.746064  0.666605  1
  F  F32  1  0.405167  0.966993  0.227754  1
  F  F33  1  0.905252  0.031726  0.272014  1
  F  F34  1  0.590710  0.024013  0.770843  1
  F  F35  1  0.082654  0.966915  0.728802  1
