# generated using pymatgen
data_SrCd9Au2
_symmetry_space_group_name_H-M   'P 1'
_cell_length_a   9.37995135
_cell_length_b   9.37926358
_cell_length_c   9.37995240
_cell_angle_alpha   99.49853552
_cell_angle_beta   99.48473646
_cell_angle_gamma   132.08667303
_symmetry_Int_Tables_number   1
_chemical_formula_structural   SrCd9Au2
_chemical_formula_sum   'Sr2 Cd18 Au4'
_cell_volume   559.64329799
_cell_formula_units_Z   2
loop_
 _symmetry_equiv_pos_site_id
 _symmetry_equiv_pos_as_xyz
  1  'x, y, z'
loop_
 _atom_site_type_symbol
 _atom_site_label
 _atom_site_symmetry_multiplicity
 _atom_site_fract_x
 _atom_site_fract_y
 _atom_site_fract_z
 _atom_site_occupancy
  Sr  Sr0  1  0.750125  0.250083  0.499958  1
  Sr  Sr1  1  0.499875  0.499917  0.000042  1
  Cd  Cd2  1  0.993277  0.316108  0.919006  1
  Cd  Cd3  1  0.683923  0.602834  0.677146  1
  Cd  Cd4  1  0.397102  0.316108  0.322831  1
  Cd  Cd5  1  0.683906  0.006702  0.081076  1
  Cd  Cd6  1  0.852898  0.433892  0.177169  1
  Cd  Cd7  1  0.397071  0.074187  0.081038  1
  Cd  Cd8  1  0.000286  0.000309  0.000023  1
  Cd  Cd9  1  0.852929  0.675813  0.418962  1
  Cd  Cd10  1  0.249714  0.749691  0.499977  1
  Cd  Cd11  1  0.324375  0.743298  0.177204  1
  Cd  Cd12  1  0.256723  0.433892  0.580994  1
  Cd  Cd13  1  0.566094  0.743298  0.418924  1
  Cd  Cd14  1  0.993148  0.074187  0.677116  1
  Cd  Cd15  1  0.925625  0.006702  0.322796  1
  Cd  Cd16  1  0.324313  0.147166  0.581089  1
  Cd  Cd17  1  0.256852  0.675813  0.822884  1
  Cd  Cd18  1  0.566077  0.147166  0.822854  1
  Cd  Cd19  1  0.925687  0.602834  0.918911  1
  Au  Au20  1  0.125000  0.875000  0.750000  1
  Au  Au21  1  0.125000  0.875000  0.250000  1
  Au  Au22  1  0.625000  0.875000  0.750000  1
  Au  Au23  1  0.125000  0.375000  0.250000  1
