# generated using pymatgen
data_Lu3Sc3Bi2W
_symmetry_space_group_name_H-M   'P 1'
_cell_length_a   7.91015300
_cell_length_b   7.91015063
_cell_length_c   4.28413200
_cell_angle_alpha   90.00000000
_cell_angle_beta   90.00000000
_cell_angle_gamma   120.00000572
_symmetry_Int_Tables_number   1
_chemical_formula_structural   Lu3Sc3Bi2W
_chemical_formula_sum   'Lu3 Sc3 Bi2 W1'
_cell_volume   232.14700647
_cell_formula_units_Z   1
loop_
 _symmetry_equiv_pos_site_id
 _symmetry_equiv_pos_as_xyz
  1  'x, y, z'
loop_
 _atom_site_type_symbol
 _atom_site_label
 _atom_site_symmetry_multiplicity
 _atom_site_fract_x
 _atom_site_fract_y
 _atom_site_fract_z
 _atom_site_occupancy
  Lu  Lu0  1  0.614617  0.000000  0.000000  1
  Lu  Lu1  1  0.000000  0.614617  0.000000  1
  Lu  Lu2  1  0.385383  0.385383  0.000000  1
  Sc  Sc3  1  0.230485  0.000000  0.500000  1
  Sc  Sc4  1  0.000000  0.230485  0.500000  1
  Sc  Sc5  1  0.769515  0.769515  0.500000  1
  Bi  Bi6  1  0.333333  0.666667  0.500000  1
  Bi  Bi7  1  0.666667  0.333333  0.500000  1
  W  W8  1  0.000000  0.000000  0.000000  1
