# generated using pymatgen
data_Sm3Sc4U(ReB6)4
_symmetry_space_group_name_H-M   'P 1'
_cell_length_a   3.62100200
_cell_length_b   9.03086930
_cell_length_c   11.43114189
_cell_angle_alpha   89.91839087
_cell_angle_beta   90.00000000
_cell_angle_gamma   90.00000000
_symmetry_Int_Tables_number   1
_chemical_formula_structural   Sm3Sc4U(ReB6)4
_chemical_formula_sum   'Sm3 Sc4 U1 Re4 B24'
_cell_volume   373.80705737
_cell_formula_units_Z   1
loop_
 _symmetry_equiv_pos_site_id
 _symmetry_equiv_pos_as_xyz
  1  'x, y, z'
loop_
 _atom_site_type_symbol
 _atom_site_label
 _atom_site_symmetry_multiplicity
 _atom_site_fract_x
 _atom_site_fract_y
 _atom_site_fract_z
 _atom_site_occupancy
  Sm  Sm0  1  0.000000  0.322090  0.413793  1
  Sm  Sm1  1  0.000000  0.678320  0.585604  1
  Sm  Sm2  1  0.000000  0.819303  0.085579  1
  Sc  Sc3  1  0.000000  0.944014  0.370485  1
  Sc  Sc4  1  0.000000  0.055625  0.627937  1
  Sc  Sc5  1  0.000000  0.445732  0.127604  1
  Sc  Sc6  1  0.000000  0.555785  0.873070  1
  U  U7  1  0.000000  0.177592  0.914698  1
  Re  Re8  1  0.000000  0.640859  0.317959  1
  Re  Re9  1  0.000000  0.354779  0.686730  1
  Re  Re10  1  0.000000  0.140859  0.176991  1
  Re  Re11  1  0.000000  0.864162  0.819431  1
  B  B12  1  0.500000  0.554563  0.431945  1
  B  B13  1  0.500000  0.443828  0.570053  1
  B  B14  1  0.500000  0.057071  0.065949  1
  B  B15  1  0.500000  0.947962  0.931031  1
  B  B16  1  0.500000  0.754279  0.417365  1
  B  B17  1  0.500000  0.245875  0.583599  1
  B  B18  1  0.500000  0.253779  0.079492  1
  B  B19  1  0.500000  0.746307  0.917144  1
  B  B20  1  0.500000  0.794642  0.265257  1
  B  B21  1  0.500000  0.204871  0.736966  1
  B  B22  1  0.500000  0.294435  0.233155  1
  B  B23  1  0.500000  0.705957  0.766308  1
  B  B24  1  0.500000  0.628610  0.183407  1
  B  B25  1  0.500000  0.368496  0.818965  1
  B  B26  1  0.500000  0.128661  0.315323  1
  B  B27  1  0.500000  0.871992  0.683665  1
  B  B28  1  0.500000  0.982541  0.214221  1
  B  B29  1  0.500000  0.019566  0.786970  1
  B  B30  1  0.500000  0.481911  0.284909  1
  B  B31  1  0.500000  0.516919  0.715983  1
  B  B32  1  0.500000  0.597689  0.026182  1
  B  B33  1  0.500000  0.400313  0.973093  1
  B  B34  1  0.500000  0.095678  0.473473  1
  B  B35  1  0.500000  0.904937  0.525664  1
