# generated using pymatgen
data_YHo3Fe4(CoO5)4
_symmetry_space_group_name_H-M   'P 1'
_cell_length_a   5.76398600
_cell_length_b   7.27366583
_cell_length_c   8.50244699
_cell_angle_alpha   90.05507388
_cell_angle_beta   90.00000000
_cell_angle_gamma   90.00000000
_symmetry_Int_Tables_number   1
_chemical_formula_structural   YHo3Fe4(CoO5)4
_chemical_formula_sum   'Y1 Ho3 Fe4 Co4 O20'
_cell_volume   356.46754440
_cell_formula_units_Z   1
loop_
 _symmetry_equiv_pos_site_id
 _symmetry_equiv_pos_as_xyz
  1  'x, y, z'
loop_
 _atom_site_type_symbol
 _atom_site_label
 _atom_site_symmetry_multiplicity
 _atom_site_fract_x
 _atom_site_fract_y
 _atom_site_fract_z
 _atom_site_occupancy
  Y  Y0  1  0.500000  0.365391  0.330316  1
  Ho  Ho1  1  0.500000  0.634907  0.669833  1
  Ho  Ho2  1  0.500000  0.134614  0.830444  1
  Ho  Ho3  1  0.500000  0.865621  0.169581  1
  Fe  Fe4  1  0.000000  0.109217  0.146487  1
  Fe  Fe5  1  0.000000  0.890634  0.852886  1
  Fe  Fe6  1  0.000000  0.390767  0.647150  1
  Fe  Fe7  1  0.000000  0.609866  0.353046  1
  Co  Co8  1  0.250732  0.999431  0.500249  1
  Co  Co9  1  0.749268  0.999431  0.500249  1
  Co  Co10  1  0.749394  0.500299  0.999781  1
  Co  Co11  1  0.250606  0.500299  0.999781  1
  O  O12  1  0.235594  0.000355  0.999629  1
  O  O13  1  0.764406  0.000355  0.999629  1
  O  O14  1  0.765292  0.501185  0.500781  1
  O  O15  1  0.234708  0.501185  0.500781  1
  O  O16  1  0.000000  0.353658  0.068743  1
  O  O17  1  0.000000  0.646628  0.930912  1
  O  O18  1  0.000000  0.146746  0.568529  1
  O  O19  1  0.000000  0.853028  0.433003  1
  O  O20  1  0.259815  0.103387  0.297455  1
  O  O21  1  0.739500  0.894286  0.702418  1
  O  O22  1  0.260500  0.894286  0.702418  1
  O  O23  1  0.739488  0.394105  0.797821  1
  O  O24  1  0.740185  0.103387  0.297455  1
  O  O25  1  0.259572  0.607038  0.201681  1
  O  O26  1  0.740428  0.607038  0.201681  1
  O  O27  1  0.260512  0.394105  0.797821  1
  O  O28  1  0.500000  0.341862  0.055669  1
  O  O29  1  0.500000  0.658561  0.943413  1
  O  O30  1  0.500000  0.157467  0.556751  1
  O  O31  1  0.500000  0.840861  0.443609  1
