# generated using pymatgen
data_La3Tb2(Sn5Pd2)2
_symmetry_space_group_name_H-M   'P 1'
_cell_length_a   14.31882400
_cell_length_b   14.31882400
_cell_length_c   4.66299200
_cell_angle_alpha   90.00000000
_cell_angle_beta   90.00000000
_cell_angle_gamma   90.00000000
_symmetry_Int_Tables_number   1
_chemical_formula_structural   La3Tb2(Sn5Pd2)2
_chemical_formula_sum   'La6 Tb4 Sn20 Pd8'
_cell_volume   956.04728459
_cell_formula_units_Z   2
loop_
 _symmetry_equiv_pos_site_id
 _symmetry_equiv_pos_as_xyz
  1  'x, y, z'
loop_
 _atom_site_type_symbol
 _atom_site_label
 _atom_site_symmetry_multiplicity
 _atom_site_fract_x
 _atom_site_fract_y
 _atom_site_fract_z
 _atom_site_occupancy
  La  La0  1  0.500000  0.500000  0.000000  1
  La  La1  1  0.000000  0.000000  0.000000  1
  La  La2  1  0.888903  0.388903  0.500000  1
  La  La3  1  0.111097  0.611097  0.500000  1
  La  La4  1  0.388903  0.111097  0.500000  1
  La  La5  1  0.611097  0.888903  0.500000  1
  Tb  Tb6  1  0.676724  0.176724  0.500000  1
  Tb  Tb7  1  0.323276  0.823276  0.500000  1
  Tb  Tb8  1  0.176724  0.323276  0.500000  1
  Tb  Tb9  1  0.823276  0.676724  0.500000  1
  Sn  Sn10  1  0.569261  0.069261  0.000000  1
  Sn  Sn11  1  0.430739  0.930739  0.000000  1
  Sn  Sn12  1  0.069261  0.430739  0.000000  1
  Sn  Sn13  1  0.930739  0.569261  0.000000  1
  Sn  Sn14  1  0.656305  0.698741  0.000000  1
  Sn  Sn15  1  0.343695  0.301259  0.000000  1
  Sn  Sn16  1  0.156305  0.801259  0.000000  1
  Sn  Sn17  1  0.843695  0.198741  0.000000  1
  Sn  Sn18  1  0.301259  0.656305  0.000000  1
  Sn  Sn19  1  0.698741  0.343695  0.000000  1
  Sn  Sn20  1  0.198741  0.156305  0.000000  1
  Sn  Sn21  1  0.801259  0.843695  0.000000  1
  Sn  Sn22  1  0.662710  0.505374  0.500000  1
  Sn  Sn23  1  0.337290  0.494626  0.500000  1
  Sn  Sn24  1  0.162710  0.994626  0.500000  1
  Sn  Sn25  1  0.837290  0.005374  0.500000  1
  Sn  Sn26  1  0.494626  0.662710  0.500000  1
  Sn  Sn27  1  0.505374  0.337290  0.500000  1
  Sn  Sn28  1  0.005374  0.162710  0.500000  1
  Sn  Sn29  1  0.994626  0.837290  0.500000  1
  Pd  Pd30  1  0.746734  0.529233  0.000000  1
  Pd  Pd31  1  0.253266  0.470767  0.000000  1
  Pd  Pd32  1  0.246734  0.970767  0.000000  1
  Pd  Pd33  1  0.753266  0.029233  0.000000  1
  Pd  Pd34  1  0.470767  0.746734  0.000000  1
  Pd  Pd35  1  0.529233  0.253266  0.000000  1
  Pd  Pd36  1  0.029233  0.246734  0.000000  1
  Pd  Pd37  1  0.970767  0.753266  0.000000  1
