# generated using pymatgen
data_UMnCoP2
_symmetry_space_group_name_H-M   'P 1'
_cell_length_a   3.96597000
_cell_length_b   3.96597000
_cell_length_c   8.75583500
_cell_angle_alpha   90.00000000
_cell_angle_beta   90.00000000
_cell_angle_gamma   90.00000000
_symmetry_Int_Tables_number   1
_chemical_formula_structural   UMnCoP2
_chemical_formula_sum   'U2 Mn2 Co2 P4'
_cell_volume   137.71981109
_cell_formula_units_Z   2
loop_
 _symmetry_equiv_pos_site_id
 _symmetry_equiv_pos_as_xyz
  1  'x, y, z'
loop_
 _atom_site_type_symbol
 _atom_site_label
 _atom_site_symmetry_multiplicity
 _atom_site_fract_x
 _atom_site_fract_y
 _atom_site_fract_z
 _atom_site_occupancy
  U  U0  1  0.500000  0.000000  0.257817  1
  U  U1  1  0.000000  0.500000  0.742183  1
  Mn  Mn2  1  0.000000  0.000000  0.500000  1
  Mn  Mn3  1  0.500000  0.500000  0.500000  1
  Co  Co4  1  0.000000  0.500000  0.110469  1
  Co  Co5  1  0.500000  0.000000  0.889531  1
  P  P6  1  0.000000  0.500000  0.365495  1
  P  P7  1  0.500000  0.500000  0.000000  1
  P  P8  1  0.500000  0.000000  0.634505  1
  P  P9  1  0.000000  0.000000  0.000000  1
