# generated using pymatgen
data_Ho5Ta3(Co4P3)4
_symmetry_space_group_name_H-M   'P 1'
_cell_length_a   12.13183000
_cell_length_b   12.13182966
_cell_length_c   3.69241800
_cell_angle_alpha   90.00000000
_cell_angle_beta   90.00000000
_cell_angle_gamma   120.00000639
_symmetry_Int_Tables_number   1
_chemical_formula_structural   Ho5Ta3(Co4P3)4
_chemical_formula_sum   'Ho5 Ta3 Co16 P12'
_cell_volume   470.64568672
_cell_formula_units_Z   1
loop_
 _symmetry_equiv_pos_site_id
 _symmetry_equiv_pos_as_xyz
  1  'x, y, z'
loop_
 _atom_site_type_symbol
 _atom_site_label
 _atom_site_symmetry_multiplicity
 _atom_site_fract_x
 _atom_site_fract_y
 _atom_site_fract_z
 _atom_site_occupancy
  Ho  Ho0  1  0.666667  0.333333  0.000000  1
  Ho  Ho1  1  0.333333  0.666667  0.000000  1
  Ho  Ho2  1  0.816231  0.816231  0.500000  1
  Ho  Ho3  1  0.183769  0.000000  0.500000  1
  Ho  Ho4  1  0.000000  0.183769  0.500000  1
  Ta  Ta5  1  0.443352  0.443352  0.000000  1
  Ta  Ta6  1  0.556648  0.000000  0.000000  1
  Ta  Ta7  1  0.000000  0.556648  0.000000  1
  Co  Co8  1  0.873461  0.355048  0.500000  1
  Co  Co9  1  0.644952  0.518413  0.500000  1
  Co  Co10  1  0.481587  0.126539  0.500000  1
  Co  Co11  1  0.355048  0.873461  0.500000  1
  Co  Co12  1  0.518413  0.644952  0.500000  1
  Co  Co13  1  0.126539  0.481587  0.500000  1
  Co  Co14  1  0.802404  0.176809  0.000000  1
  Co  Co15  1  0.823191  0.625594  0.000000  1
  Co  Co16  1  0.374406  0.197596  0.000000  1
  Co  Co17  1  0.176809  0.802404  0.000000  1
  Co  Co18  1  0.625594  0.823191  0.000000  1
  Co  Co19  1  0.197596  0.374406  0.000000  1
  Co  Co20  1  0.279960  0.279960  0.500000  1
  Co  Co21  1  0.720040  0.000000  0.500000  1
  Co  Co22  1  0.000000  0.720040  0.500000  1
  Co  Co23  1  0.000000  0.000000  0.000000  1
  P  P24  1  0.688395  0.168399  0.500000  1
  P  P25  1  0.831601  0.519995  0.500000  1
  P  P26  1  0.480005  0.311605  0.500000  1
  P  P27  1  0.168399  0.688395  0.500000  1
  P  P28  1  0.519995  0.831601  0.500000  1
  P  P29  1  0.311605  0.480005  0.500000  1
  P  P30  1  0.177382  0.177382  0.000000  1
  P  P31  1  0.822618  0.000000  0.000000  1
  P  P32  1  0.000000  0.822618  0.000000  1
  P  P33  1  0.644503  0.644503  0.000000  1
  P  P34  1  0.355497  0.000000  0.000000  1
  P  P35  1  0.000000  0.355497  0.000000  1
