# generated using pymatgen
data_Er2Al8GeIr3
_symmetry_space_group_name_H-M   'P 1'
_cell_length_a   7.53994850
_cell_length_b   7.53994932
_cell_length_c   9.40867500
_cell_angle_alpha   90.00000000
_cell_angle_beta   90.00000000
_cell_angle_gamma   119.71506952
_symmetry_Int_Tables_number   1
_chemical_formula_structural   Er2Al8GeIr3
_chemical_formula_sum   'Er4 Al16 Ge2 Ir6'
_cell_volume   464.55344278
_cell_formula_units_Z   2
loop_
 _symmetry_equiv_pos_site_id
 _symmetry_equiv_pos_as_xyz
  1  'x, y, z'
loop_
 _atom_site_type_symbol
 _atom_site_label
 _atom_site_symmetry_multiplicity
 _atom_site_fract_x
 _atom_site_fract_y
 _atom_site_fract_z
 _atom_site_occupancy
  Er  Er0  1  0.995389  0.675785  0.250000  1
  Er  Er1  1  0.004611  0.324215  0.750000  1
  Er  Er2  1  0.675785  0.995389  0.250000  1
  Er  Er3  1  0.324215  0.004611  0.750000  1
  Al  Al4  1  0.000269  0.337423  0.074623  1
  Al  Al5  1  0.999731  0.662577  0.925377  1
  Al  Al6  1  0.999731  0.662577  0.574623  1
  Al  Al7  1  0.337423  0.000269  0.425377  1
  Al  Al8  1  0.000269  0.337423  0.425377  1
  Al  Al9  1  0.662577  0.999731  0.574623  1
  Al  Al10  1  0.662577  0.999731  0.925377  1
  Al  Al11  1  0.337423  0.000269  0.074623  1
  Al  Al12  1  0.335435  0.335435  0.559552  1
  Al  Al13  1  0.664565  0.664565  0.440448  1
  Al  Al14  1  0.664565  0.664565  0.059552  1
  Al  Al15  1  0.335435  0.335435  0.940448  1
  Al  Al16  1  0.335968  0.553404  0.250000  1
  Al  Al17  1  0.664032  0.446596  0.750000  1
  Al  Al18  1  0.553404  0.335968  0.250000  1
  Al  Al19  1  0.446596  0.664032  0.750000  1
  Ge  Ge20  1  0.133663  0.133663  0.250000  1
  Ge  Ge21  1  0.866337  0.866337  0.750000  1
  Ir  Ir22  1  0.671284  0.328716  0.000000  1
  Ir  Ir23  1  0.328716  0.671284  0.000000  1
  Ir  Ir24  1  0.328716  0.671284  0.500000  1
  Ir  Ir25  1  0.671284  0.328716  0.500000  1
  Ir  Ir26  1  0.000000  0.000000  0.000000  1
  Ir  Ir27  1  0.000000  0.000000  0.500000  1
