# generated using pymatgen
data_Tb6Er10Cd4TcPd3
_symmetry_space_group_name_H-M   'P 1'
_cell_length_a   9.69135952
_cell_length_b   9.69135911
_cell_length_c   9.69135944
_cell_angle_alpha   59.33195924
_cell_angle_beta   59.33196297
_cell_angle_gamma   59.33195204
_symmetry_Int_Tables_number   1
_chemical_formula_structural   Tb6Er10Cd4TcPd3
_chemical_formula_sum   'Tb6 Er10 Cd4 Tc1 Pd3'
_cell_volume   633.84548678
_cell_formula_units_Z   1
loop_
 _symmetry_equiv_pos_site_id
 _symmetry_equiv_pos_as_xyz
  1  'x, y, z'
loop_
 _atom_site_type_symbol
 _atom_site_label
 _atom_site_symmetry_multiplicity
 _atom_site_fract_x
 _atom_site_fract_y
 _atom_site_fract_z
 _atom_site_occupancy
  Tb  Tb0  1  0.935214  0.565151  0.565151  1
  Tb  Tb1  1  0.555756  0.938257  0.938257  1
  Tb  Tb2  1  0.565151  0.935214  0.565151  1
  Tb  Tb3  1  0.938257  0.555756  0.938257  1
  Tb  Tb4  1  0.565151  0.565151  0.935214  1
  Tb  Tb5  1  0.938257  0.938257  0.555756  1
  Er  Er6  1  0.352714  0.352714  0.352714  1
  Er  Er7  1  0.351070  0.351070  0.945929  1
  Er  Er8  1  0.351070  0.945929  0.351070  1
  Er  Er9  1  0.945929  0.351070  0.351070  1
  Er  Er10  1  0.817356  0.187069  0.187069  1
  Er  Er11  1  0.187648  0.810899  0.810899  1
  Er  Er12  1  0.187069  0.817356  0.187069  1
  Er  Er13  1  0.810899  0.187648  0.810899  1
  Er  Er14  1  0.187069  0.187069  0.817356  1
  Er  Er15  1  0.810899  0.810899  0.187648  1
  Cd  Cd16  1  0.579634  0.579634  0.579634  1
  Cd  Cd17  1  0.580519  0.580519  0.255072  1
  Cd  Cd18  1  0.580519  0.255072  0.580519  1
  Cd  Cd19  1  0.255072  0.580519  0.580519  1
  Tc  Tc20  1  0.144864  0.144864  0.144864  1
  Pd  Pd21  1  0.145029  0.145029  0.569826  1
  Pd  Pd22  1  0.145029  0.569826  0.145029  1
  Pd  Pd23  1  0.569826  0.145029  0.145029  1
