# generated using pymatgen
data_Hf17ZrFe2(Re3Mo)2
_symmetry_space_group_name_H-M   'P 1'
_cell_length_a   8.60215071
_cell_length_b   8.62074870
_cell_length_c   8.46486800
_cell_angle_alpha   90.00000000
_cell_angle_beta   90.00000000
_cell_angle_gamma   120.07154687
_symmetry_Int_Tables_number   1
_chemical_formula_structural   Hf17ZrFe2(Re3Mo)2
_chemical_formula_sum   'Hf17 Zr1 Fe2 Re6 Mo2'
_cell_volume   543.23694257
_cell_formula_units_Z   1
loop_
 _symmetry_equiv_pos_site_id
 _symmetry_equiv_pos_as_xyz
  1  'x, y, z'
loop_
 _atom_site_type_symbol
 _atom_site_label
 _atom_site_symmetry_multiplicity
 _atom_site_fract_x
 _atom_site_fract_y
 _atom_site_fract_z
 _atom_site_occupancy
  Hf  Hf0  1  0.201129  0.799760  0.440301  1
  Hf  Hf1  1  0.201129  0.401369  0.440301  1
  Hf  Hf2  1  0.598141  0.799070  0.440899  1
  Hf  Hf3  1  0.798544  0.200263  0.558647  1
  Hf  Hf4  1  0.798544  0.598282  0.558647  1
  Hf  Hf5  1  0.401891  0.200946  0.559050  1
  Hf  Hf6  1  0.798544  0.200263  0.941353  1
  Hf  Hf7  1  0.798544  0.598282  0.941353  1
  Hf  Hf8  1  0.401891  0.200946  0.940950  1
  Hf  Hf9  1  0.201129  0.799760  0.059699  1
  Hf  Hf10  1  0.201129  0.401369  0.059699  1
  Hf  Hf11  1  0.598141  0.799070  0.059101  1
  Hf  Hf12  1  0.540859  0.459261  0.250000  1
  Hf  Hf13  1  0.540859  0.081599  0.250000  1
  Hf  Hf14  1  0.918616  0.459309  0.250000  1
  Hf  Hf15  1  0.460072  0.540579  0.750000  1
  Hf  Hf16  1  0.460072  0.919492  0.750000  1
  Zr  Zr17  1  0.082965  0.541482  0.750000  1
  Fe  Fe18  1  0.332905  0.666453  0.250000  1
  Fe  Fe19  1  0.665926  0.332962  0.750000  1
  Re  Re20  1  0.887832  0.111676  0.250000  1
  Re  Re21  1  0.887832  0.776156  0.250000  1
  Re  Re22  1  0.223638  0.111819  0.250000  1
  Re  Re23  1  0.112020  0.889309  0.750000  1
  Re  Re24  1  0.112020  0.222711  0.750000  1
  Re  Re25  1  0.775646  0.887823  0.750000  1
  Mo  Mo26  1  0.999989  0.999995  0.499907  1
  Mo  Mo27  1  0.999989  0.999995  0.000093  1
