# generated using pymatgen
data_Dy15Y4HoBi12
_symmetry_space_group_name_H-M   'P 1'
_cell_length_a   8.26515211
_cell_length_b   9.53677200
_cell_length_c   12.07436217
_cell_angle_alpha   90.00000000
_cell_angle_beta   90.01899711
_cell_angle_gamma   90.00000000
_symmetry_Int_Tables_number   1
_chemical_formula_structural   Dy15Y4HoBi12
_chemical_formula_sum   'Dy15 Y4 Ho1 Bi12'
_cell_volume   951.73584215
_cell_formula_units_Z   1
loop_
 _symmetry_equiv_pos_site_id
 _symmetry_equiv_pos_as_xyz
  1  'x, y, z'
loop_
 _atom_site_type_symbol
 _atom_site_label
 _atom_site_symmetry_multiplicity
 _atom_site_fract_x
 _atom_site_fract_y
 _atom_site_fract_z
 _atom_site_occupancy
  Dy  Dy0  1  0.526013  0.750000  0.511657  1
  Dy  Dy1  1  0.974018  0.250000  0.011679  1
  Dy  Dy2  1  0.473999  0.250000  0.488326  1
  Dy  Dy3  1  0.186315  0.750000  0.719076  1
  Dy  Dy4  1  0.686414  0.750000  0.781073  1
  Dy  Dy5  1  0.813622  0.250000  0.280946  1
  Dy  Dy6  1  0.313688  0.250000  0.219022  1
  Dy  Dy7  1  0.306311  0.436895  0.940569  1
  Dy  Dy8  1  0.806397  0.063127  0.559459  1
  Dy  Dy9  1  0.693746  0.936813  0.059435  1
  Dy  Dy10  1  0.193593  0.563123  0.440513  1
  Dy  Dy11  1  0.693746  0.563187  0.059435  1
  Dy  Dy12  1  0.193593  0.936877  0.440513  1
  Dy  Dy13  1  0.306311  0.063105  0.940569  1
  Dy  Dy14  1  0.806397  0.436873  0.559459  1
  Y  Y15  1  0.353980  0.750000  0.215360  1
  Y  Y16  1  0.853995  0.750000  0.284505  1
  Y  Y17  1  0.645988  0.250000  0.784685  1
  Y  Y18  1  0.146020  0.250000  0.715384  1
  Ho  Ho19  1  0.025946  0.750000  0.988343  1
  Bi  Bi20  1  0.433305  0.003732  0.673842  1
  Bi  Bi21  1  0.933469  0.496542  0.826351  1
  Bi  Bi22  1  0.566707  0.503755  0.326156  1
  Bi  Bi23  1  0.066704  0.996063  0.173659  1
  Bi  Bi24  1  0.566707  0.996245  0.326156  1
  Bi  Bi25  1  0.066704  0.503937  0.173659  1
  Bi  Bi26  1  0.433305  0.496268  0.673842  1
  Bi  Bi27  1  0.933469  0.003458  0.826351  1
  Bi  Bi28  1  0.408746  0.750000  0.957781  1
  Bi  Bi29  1  0.909170  0.750000  0.542243  1
  Bi  Bi30  1  0.590803  0.250000  0.042216  1
  Bi  Bi31  1  0.090824  0.250000  0.457737  1
