# generated using pymatgen
data_Li4SmY3Sb4
_symmetry_space_group_name_H-M   'P 1'
_cell_length_a   4.59487400
_cell_length_b   7.25456873
_cell_length_c   8.26696398
_cell_angle_alpha   89.90163915
_cell_angle_beta   90.00000000
_cell_angle_gamma   90.00000000
_symmetry_Int_Tables_number   1
_chemical_formula_structural   Li4SmY3Sb4
_chemical_formula_sum   'Li4 Sm1 Y3 Sb4'
_cell_volume   275.56915958
_cell_formula_units_Z   1
loop_
 _symmetry_equiv_pos_site_id
 _symmetry_equiv_pos_as_xyz
  1  'x, y, z'
loop_
 _atom_site_type_symbol
 _atom_site_label
 _atom_site_symmetry_multiplicity
 _atom_site_fract_x
 _atom_site_fract_y
 _atom_site_fract_z
 _atom_site_occupancy
  Li  Li0  1  0.250000  0.819729  0.921312  1
  Li  Li1  1  0.750000  0.180536  0.077892  1
  Li  Li2  1  0.750000  0.680893  0.421605  1
  Li  Li3  1  0.250000  0.318178  0.578796  1
  Sm  Sm4  1  0.250000  0.993730  0.288077  1
  Y  Y5  1  0.250000  0.493005  0.211685  1
  Y  Y6  1  0.750000  0.507812  0.788233  1
  Y  Y7  1  0.750000  0.006218  0.710750  1
  Sb  Sb8  1  0.250000  0.727476  0.594181  1
  Sb  Sb9  1  0.750000  0.274143  0.410313  1
  Sb  Sb10  1  0.750000  0.767714  0.088652  1
  Sb  Sb11  1  0.250000  0.230565  0.908504  1
