# generated using pymatgen
data_Np4VW3N8
_symmetry_space_group_name_H-M   'P 1'
_cell_length_a   3.17223600
_cell_length_b   5.57917472
_cell_length_c   10.85165329
_cell_angle_alpha   89.91040896
_cell_angle_beta   90.00000000
_cell_angle_gamma   90.00000000
_symmetry_Int_Tables_number   1
_chemical_formula_structural   Np4VW3N8
_chemical_formula_sum   'Np4 V1 W3 N8'
_cell_volume   192.05730489
_cell_formula_units_Z   1
loop_
 _symmetry_equiv_pos_site_id
 _symmetry_equiv_pos_as_xyz
  1  'x, y, z'
loop_
 _atom_site_type_symbol
 _atom_site_label
 _atom_site_symmetry_multiplicity
 _atom_site_fract_x
 _atom_site_fract_y
 _atom_site_fract_z
 _atom_site_occupancy
  Np  Np0  1  0.750000  0.076568  0.856997  1
  Np  Np1  1  0.750000  0.577710  0.639545  1
  Np  Np2  1  0.250000  0.924340  0.146835  1
  Np  Np3  1  0.250000  0.424052  0.357985  1
  V  V4  1  0.750000  0.925546  0.400894  1
  W  W5  1  0.250000  0.070332  0.600367  1
  W  W6  1  0.750000  0.429756  0.103575  1
  W  W7  1  0.250000  0.570267  0.897140  1
  N  N8  1  0.250000  0.335830  0.744257  1
  N  N9  1  0.750000  0.163267  0.247155  1
  N  N10  1  0.250000  0.244168  0.005425  1
  N  N11  1  0.750000  0.667308  0.257434  1
  N  N12  1  0.250000  0.834671  0.753709  1
  N  N13  1  0.750000  0.755937  0.996284  1
  N  N14  1  0.750000  0.244958  0.501999  1
  N  N15  1  0.250000  0.755290  0.490399  1
