# generated using pymatgen
data_LuMn(TeBr2)4
_symmetry_space_group_name_H-M   'P 1'
_cell_length_a   7.14221987
_cell_length_b   7.77487681
_cell_length_c   9.44555930
_cell_angle_alpha   95.65113286
_cell_angle_beta   98.06783587
_cell_angle_gamma   100.45856399
_symmetry_Int_Tables_number   1
_chemical_formula_structural   LuMn(TeBr2)4
_chemical_formula_sum   'Lu1 Mn1 Te4 Br8'
_cell_volume   506.53680622
_cell_formula_units_Z   1
loop_
 _symmetry_equiv_pos_site_id
 _symmetry_equiv_pos_as_xyz
  1  'x, y, z'
loop_
 _atom_site_type_symbol
 _atom_site_label
 _atom_site_symmetry_multiplicity
 _atom_site_fract_x
 _atom_site_fract_y
 _atom_site_fract_z
 _atom_site_occupancy
  Lu  Lu0  1  0.720543  0.932231  0.410920  1
  Mn  Mn1  1  0.279741  0.072584  0.601471  1
  Te  Te2  1  0.893705  0.603462  0.833929  1
  Te  Te3  1  0.103824  0.394569  0.159522  1
  Te  Te4  1  0.770762  0.314027  0.962874  1
  Te  Te5  1  0.229871  0.678903  0.026371  1
  Br  Br6  1  0.551315  0.593878  0.305726  1
  Br  Br7  1  0.452855  0.373419  0.685798  1
  Br  Br8  1  0.777652  0.978276  0.134774  1
  Br  Br9  1  0.206043  0.034590  0.841897  1
  Br  Br10  1  0.599838  0.912826  0.672024  1
  Br  Br11  1  0.391252  0.080893  0.358571  1
  Br  Br12  1  0.049386  0.788764  0.500042  1
  Br  Br13  1  0.973212  0.241578  0.506079  1
