# generated using pymatgen
data_Th3CuSi4Pd3
_symmetry_space_group_name_H-M   'P 1'
_cell_length_a   4.21576546
_cell_length_b   4.17431107
_cell_length_c   12.58963340
_cell_angle_alpha   99.54275387
_cell_angle_beta   99.63843485
_cell_angle_gamma   90.00000784
_symmetry_Int_Tables_number   1
_chemical_formula_structural   Th3CuSi4Pd3
_chemical_formula_sum   'Th3 Cu1 Si4 Pd3'
_cell_volume   215.31356919
_cell_formula_units_Z   1
loop_
 _symmetry_equiv_pos_site_id
 _symmetry_equiv_pos_as_xyz
  1  'x, y, z'
loop_
 _atom_site_type_symbol
 _atom_site_label
 _atom_site_symmetry_multiplicity
 _atom_site_fract_x
 _atom_site_fract_y
 _atom_site_fract_z
 _atom_site_occupancy
  Th  Th0  1  0.853532  0.353532  0.707067  1
  Th  Th1  1  0.146728  0.646728  0.293455  1
  Th  Th2  1  0.998109  0.998109  0.996217  1
  Cu  Cu3  1  0.403969  0.903969  0.807939  1
  Si  Si4  1  0.449600  0.449600  0.899201  1
  Si  Si5  1  0.546483  0.546483  0.092965  1
  Si  Si6  1  0.695421  0.195421  0.390842  1
  Si  Si7  1  0.308088  0.808088  0.616176  1
  Pd  Pd8  1  0.250172  0.250172  0.500342  1
  Pd  Pd9  1  0.751382  0.751382  0.502764  1
  Pd  Pd10  1  0.596516  0.096516  0.193032  1
