# generated using pymatgen
data_Ta3NbS6
_symmetry_space_group_name_H-M   'P 1'
_cell_length_a   5.78972200
_cell_length_b   5.78972121
_cell_length_c   12.80487900
_cell_angle_alpha   90.00000000
_cell_angle_beta   90.00000000
_cell_angle_gamma   119.99999308
_symmetry_Int_Tables_number   1
_chemical_formula_structural   Ta3NbS6
_chemical_formula_sum   'Ta6 Nb2 S12'
_cell_volume   371.72477221
_cell_formula_units_Z   2
loop_
 _symmetry_equiv_pos_site_id
 _symmetry_equiv_pos_as_xyz
  1  'x, y, z'
loop_
 _atom_site_type_symbol
 _atom_site_label
 _atom_site_symmetry_multiplicity
 _atom_site_fract_x
 _atom_site_fract_y
 _atom_site_fract_z
 _atom_site_occupancy
  Ta  Ta0  1  0.000000  0.000000  0.500000  1
  Ta  Ta1  1  0.000000  0.000000  0.000000  1
  Ta  Ta2  1  0.333333  0.666667  0.998738  1
  Ta  Ta3  1  0.666667  0.333333  0.001262  1
  Ta  Ta4  1  0.666667  0.333333  0.498738  1
  Ta  Ta5  1  0.333333  0.666667  0.501262  1
  Nb  Nb6  1  0.333333  0.666667  0.250000  1
  Nb  Nb7  1  0.666667  0.333333  0.750000  1
  S  S8  1  0.332466  0.331407  0.376794  1
  S  S9  1  0.668593  0.001060  0.376794  1
  S  S10  1  0.998940  0.667534  0.376794  1
  S  S11  1  0.331407  0.332466  0.623206  1
  S  S12  1  0.001060  0.668593  0.623206  1
  S  S13  1  0.667534  0.998940  0.623206  1
  S  S14  1  0.667534  0.668593  0.876794  1
  S  S15  1  0.331407  0.998940  0.876794  1
  S  S16  1  0.001060  0.332466  0.876794  1
  S  S17  1  0.668593  0.667534  0.123206  1
  S  S18  1  0.998940  0.331407  0.123206  1
  S  S19  1  0.332466  0.001060  0.123206  1
