# generated using pymatgen
data_Gd4CdSnAu4
_symmetry_space_group_name_H-M   'P 1'
_cell_length_a   7.85484600
_cell_length_b   7.85484600
_cell_length_c   3.82860000
_cell_angle_alpha   90.00000000
_cell_angle_beta   90.00000000
_cell_angle_gamma   90.00000000
_symmetry_Int_Tables_number   1
_chemical_formula_structural   Gd4CdSnAu4
_chemical_formula_sum   'Gd4 Cd1 Sn1 Au4'
_cell_volume   236.21928172
_cell_formula_units_Z   1
loop_
 _symmetry_equiv_pos_site_id
 _symmetry_equiv_pos_as_xyz
  1  'x, y, z'
loop_
 _atom_site_type_symbol
 _atom_site_label
 _atom_site_symmetry_multiplicity
 _atom_site_fract_x
 _atom_site_fract_y
 _atom_site_fract_z
 _atom_site_occupancy
  Gd  Gd0  1  0.320875  0.165143  0.499999  1
  Gd  Gd1  1  0.834856  0.320875  0.499999  1
  Gd  Gd2  1  0.165143  0.679125  0.499999  1
  Gd  Gd3  1  0.679125  0.834856  0.499999  1
  Cd  Cd4  1  0.500000  0.500000  0.000000  1
  Sn  Sn5  1  0.000000  0.000000  0.000000  1
  Au  Au6  1  0.621895  0.135154  0.000000  1
  Au  Au7  1  0.135154  0.378105  0.000000  1
  Au  Au8  1  0.864846  0.621895  0.000000  1
  Au  Au9  1  0.378105  0.864846  0.000000  1
