# generated using pymatgen
data_Y3Tm2InBi2
_symmetry_space_group_name_H-M   'P 1'
_cell_length_a   9.08584300
_cell_length_b   9.08584185
_cell_length_c   6.50630000
_cell_angle_alpha   90.00000000
_cell_angle_beta   90.00000000
_cell_angle_gamma   119.80684711
_symmetry_Int_Tables_number   1
_chemical_formula_structural   Y3Tm2InBi2
_chemical_formula_sum   'Y6 Tm4 In2 Bi4'
_cell_volume   466.05493850
_cell_formula_units_Z   2
loop_
 _symmetry_equiv_pos_site_id
 _symmetry_equiv_pos_as_xyz
  1  'x, y, z'
loop_
 _atom_site_type_symbol
 _atom_site_label
 _atom_site_symmetry_multiplicity
 _atom_site_fract_x
 _atom_site_fract_y
 _atom_site_fract_z
 _atom_site_occupancy
  Y  Y0  1  0.759685  0.759685  0.750000  1
  Y  Y1  1  0.236920  0.998330  0.750000  1
  Y  Y2  1  0.998330  0.236920  0.750000  1
  Y  Y3  1  0.237051  0.237051  0.250000  1
  Y  Y4  1  0.763790  0.007560  0.250000  1
  Y  Y5  1  0.007560  0.763790  0.250000  1
  Tm  Tm6  1  0.668832  0.328948  0.004110  1
  Tm  Tm7  1  0.328948  0.668832  0.004110  1
  Tm  Tm8  1  0.328948  0.668832  0.495890  1
  Tm  Tm9  1  0.668832  0.328948  0.495890  1
  In  In10  1  0.396877  0.001737  0.250000  1
  In  In11  1  0.001737  0.396877  0.250000  1
  Bi  Bi12  1  0.393952  0.393952  0.750000  1
  Bi  Bi13  1  0.602743  0.997038  0.750000  1
  Bi  Bi14  1  0.997038  0.602743  0.750000  1
  Bi  Bi15  1  0.608758  0.608758  0.250000  1
