# generated using pymatgen
data_Ti2GaSnIr3
_symmetry_space_group_name_H-M   'P 1'
_cell_length_a   7.56880005
_cell_length_b   7.56879812
_cell_length_c   7.56879930
_cell_angle_alpha   33.35053261
_cell_angle_beta   33.35054517
_cell_angle_gamma   33.35053309
_symmetry_Int_Tables_number   1
_chemical_formula_structural   Ti2GaSnIr3
_chemical_formula_sum   'Ti2 Ga1 Sn1 Ir3'
_cell_volume   116.68703395
_cell_formula_units_Z   1
loop_
 _symmetry_equiv_pos_site_id
 _symmetry_equiv_pos_as_xyz
  1  'x, y, z'
loop_
 _atom_site_type_symbol
 _atom_site_label
 _atom_site_symmetry_multiplicity
 _atom_site_fract_x
 _atom_site_fract_y
 _atom_site_fract_z
 _atom_site_occupancy
  Ti  Ti0  1  0.752840  0.752840  0.752840  1
  Ti  Ti1  1  0.249277  0.249277  0.249277  1
  Ga  Ga2  1  0.992295  0.992295  0.992295  1
  Sn  Sn3  1  0.505923  0.505923  0.505923  1
  Ir  Ir4  1  0.121392  0.121392  0.121392  1
  Ir  Ir5  1  0.630101  0.630101  0.630101  1
  Ir  Ir6  1  0.373173  0.373173  0.373173  1
