# generated using pymatgen
data_Tb8Ga(Si4Rh)3
_symmetry_space_group_name_H-M   'P 1'
_cell_length_a   8.16803900
_cell_length_b   8.16803815
_cell_length_c   8.14687100
_cell_angle_alpha   90.00000000
_cell_angle_beta   90.00000000
_cell_angle_gamma   120.00000750
_symmetry_Int_Tables_number   1
_chemical_formula_structural   Tb8Ga(Si4Rh)3
_chemical_formula_sum   'Tb8 Ga1 Si12 Rh3'
_cell_volume   470.71387348
_cell_formula_units_Z   1
loop_
 _symmetry_equiv_pos_site_id
 _symmetry_equiv_pos_as_xyz
  1  'x, y, z'
loop_
 _atom_site_type_symbol
 _atom_site_label
 _atom_site_symmetry_multiplicity
 _atom_site_fract_x
 _atom_site_fract_y
 _atom_site_fract_z
 _atom_site_occupancy
  Tb  Tb0  1  0.503409  0.006817  0.245551  1
  Tb  Tb1  1  0.499875  0.999751  0.753849  1
  Tb  Tb2  1  0.993183  0.496591  0.245551  1
  Tb  Tb3  1  0.000249  0.500125  0.753849  1
  Tb  Tb4  1  0.503409  0.496591  0.245551  1
  Tb  Tb5  1  0.499875  0.500125  0.753849  1
  Tb  Tb6  1  0.000000  0.000000  0.249463  1
  Tb  Tb7  1  0.000000  0.000000  0.753473  1
  Ga  Ga8  1  0.333333  0.666667  0.486586  1
  Si  Si9  1  0.167412  0.334824  0.002413  1
  Si  Si10  1  0.833443  0.666887  0.997966  1
  Si  Si11  1  0.665176  0.832588  0.002413  1
  Si  Si12  1  0.831081  0.662161  0.498818  1
  Si  Si13  1  0.333113  0.166557  0.997966  1
  Si  Si14  1  0.161758  0.323516  0.503892  1
  Si  Si15  1  0.167412  0.832588  0.002413  1
  Si  Si16  1  0.337839  0.168919  0.498818  1
  Si  Si17  1  0.833443  0.166557  0.997966  1
  Si  Si18  1  0.676484  0.838242  0.503892  1
  Si  Si19  1  0.831081  0.168919  0.498818  1
  Si  Si20  1  0.161758  0.838242  0.503892  1
  Rh  Rh21  1  0.333333  0.666667  0.004484  1
  Rh  Rh22  1  0.666667  0.333333  0.995946  1
  Rh  Rh23  1  0.666667  0.333333  0.502580  1
