# generated using pymatgen
data_BaSr3Sb2O
_symmetry_space_group_name_H-M   'P 1'
_cell_length_a   9.62942698
_cell_length_b   9.62942696
_cell_length_c   9.62942673
_cell_angle_alpha   149.57041050
_cell_angle_beta   149.57041096
_cell_angle_gamma   43.57236049
_symmetry_Int_Tables_number   1
_chemical_formula_structural   BaSr3Sb2O
_chemical_formula_sum   'Ba1 Sr3 Sb2 O1'
_cell_volume   228.41944749
_cell_formula_units_Z   1
loop_
 _symmetry_equiv_pos_site_id
 _symmetry_equiv_pos_as_xyz
  1  'x, y, z'
loop_
 _atom_site_type_symbol
 _atom_site_label
 _atom_site_symmetry_multiplicity
 _atom_site_fract_x
 _atom_site_fract_y
 _atom_site_fract_z
 _atom_site_occupancy
  Ba  Ba0  1  0.323795  0.323795  0.000000  1
  Sr  Sr1  1  0.660553  0.660553  0.000000  1
  Sr  Sr2  1  0.501260  0.001260  0.500000  1
  Sr  Sr3  1  0.001260  0.501260  0.500000  1
  Sb  Sb4  1  0.864260  0.864260  0.000000  1
  Sb  Sb5  1  0.133229  0.133229  0.000000  1
  O  O6  1  0.515642  0.515642  0.000000  1
