# generated using pymatgen
data_TmSc3VSi7Pt9
_symmetry_space_group_name_H-M   'P 1'
_cell_length_a   9.96041440
_cell_length_b   9.96103421
_cell_length_c   3.91747700
_cell_angle_alpha   90.00000000
_cell_angle_beta   90.00000000
_cell_angle_gamma   119.70127194
_symmetry_Int_Tables_number   1
_chemical_formula_structural   TmSc3VSi7Pt9
_chemical_formula_sum   'Tm1 Sc3 V1 Si7 Pt9'
_cell_volume   337.61239028
_cell_formula_units_Z   1
loop_
 _symmetry_equiv_pos_site_id
 _symmetry_equiv_pos_as_xyz
  1  'x, y, z'
loop_
 _atom_site_type_symbol
 _atom_site_label
 _atom_site_symmetry_multiplicity
 _atom_site_fract_x
 _atom_site_fract_y
 _atom_site_fract_z
 _atom_site_occupancy
  Tm  Tm0  1  0.331198  0.666264  0.500000  1
  Sc  Sc1  1  0.001147  0.996988  0.000000  1
  Sc  Sc2  1  0.566795  0.107923  0.500000  1
  Sc  Sc3  1  0.544461  0.436508  0.500000  1
  V  V4  1  0.886640  0.456694  0.500000  1
  Si  Si5  1  0.240834  0.194759  0.500000  1
  Si  Si6  1  0.810666  0.048118  0.500000  1
  Si  Si7  1  0.951328  0.746695  0.500000  1
  Si  Si8  1  0.554605  0.645122  0.000000  1
  Si  Si9  1  0.353973  0.910413  0.000000  1
  Si  Si10  1  0.081612  0.445966  0.000000  1
  Si  Si11  1  0.677584  0.338113  0.000000  1
  Pt  Pt12  1  0.216620  0.938411  0.500000  1
  Pt  Pt13  1  0.061055  0.284177  0.500000  1
  Pt  Pt14  1  0.722005  0.780737  0.500000  1
  Pt  Pt15  1  0.310037  0.414883  0.000000  1
  Pt  Pt16  1  0.586011  0.899485  0.000000  1
  Pt  Pt17  1  0.097766  0.688942  0.000000  1
  Pt  Pt18  1  0.389383  0.175989  0.000000  1
  Pt  Pt19  1  0.828338  0.209851  0.000000  1
  Pt  Pt20  1  0.787940  0.613965  0.000000  1
