# generated using pymatgen
data_Tb2Al5Cu4Pd
_symmetry_space_group_name_H-M   'P 1'
_cell_length_a   4.14319500
_cell_length_b   5.30255100
_cell_length_c   9.06609800
_cell_angle_alpha   90.00000000
_cell_angle_beta   90.00000000
_cell_angle_gamma   90.00000000
_symmetry_Int_Tables_number   1
_chemical_formula_structural   Tb2Al5Cu4Pd
_chemical_formula_sum   'Tb2 Al5 Cu4 Pd1'
_cell_volume   199.17766531
_cell_formula_units_Z   1
loop_
 _symmetry_equiv_pos_site_id
 _symmetry_equiv_pos_as_xyz
  1  'x, y, z'
loop_
 _atom_site_type_symbol
 _atom_site_label
 _atom_site_symmetry_multiplicity
 _atom_site_fract_x
 _atom_site_fract_y
 _atom_site_fract_z
 _atom_site_occupancy
  Tb  Tb0  1  0.000000  0.500000  0.002113  1
  Tb  Tb1  1  0.000000  0.000000  0.497903  1
  Al  Al2  1  0.500000  0.000000  0.002387  1
  Al  Al3  1  0.500000  0.748730  0.260488  1
  Al  Al4  1  0.500000  0.253534  0.738234  1
  Al  Al5  1  0.500000  0.251270  0.260488  1
  Al  Al6  1  0.500000  0.746466  0.738234  1
  Cu  Cu7  1  0.000000  0.500000  0.335590  1
  Cu  Cu8  1  0.000000  0.000000  0.167277  1
  Cu  Cu9  1  0.000000  0.500000  0.664808  1
  Cu  Cu10  1  0.500000  0.500000  0.498913  1
  Pd  Pd11  1  0.000000  0.000000  0.833565  1
