# generated using pymatgen
data_Nb4GaFe6Si
_symmetry_space_group_name_H-M   'P 1'
_cell_length_a   4.86395600
_cell_length_b   4.86395560
_cell_length_c   7.95793800
_cell_angle_alpha   90.00000000
_cell_angle_beta   90.00000000
_cell_angle_gamma   120.00000270
_symmetry_Int_Tables_number   1
_chemical_formula_structural   Nb4GaFe6Si
_chemical_formula_sum   'Nb4 Ga1 Fe6 Si1'
_cell_volume   163.04609839
_cell_formula_units_Z   1
loop_
 _symmetry_equiv_pos_site_id
 _symmetry_equiv_pos_as_xyz
  1  'x, y, z'
loop_
 _atom_site_type_symbol
 _atom_site_label
 _atom_site_symmetry_multiplicity
 _atom_site_fract_x
 _atom_site_fract_y
 _atom_site_fract_z
 _atom_site_occupancy
  Nb  Nb0  1  0.333333  0.666667  0.437869  1
  Nb  Nb1  1  0.666667  0.333333  0.562131  1
  Nb  Nb2  1  0.666667  0.333333  0.933698  1
  Nb  Nb3  1  0.333333  0.666667  0.066302  1
  Ga  Ga4  1  0.000000  0.000000  0.000000  1
  Fe  Fe5  1  0.827975  0.172025  0.254036  1
  Fe  Fe6  1  0.827975  0.655951  0.254036  1
  Fe  Fe7  1  0.344049  0.172025  0.254036  1
  Fe  Fe8  1  0.172025  0.827975  0.745964  1
  Fe  Fe9  1  0.172025  0.344049  0.745964  1
  Fe  Fe10  1  0.655951  0.827975  0.745964  1
  Si  Si11  1  0.000000  0.000000  0.500000  1
