# generated using pymatgen
data_Tm20(HgBi3)3
_symmetry_space_group_name_H-M   'P 1'
_cell_length_a   8.11675155
_cell_length_b   9.38243600
_cell_length_c   11.85933169
_cell_angle_alpha   90.00000000
_cell_angle_beta   89.87849906
_cell_angle_gamma   90.00000000
_symmetry_Int_Tables_number   1
_chemical_formula_structural   Tm20(HgBi3)3
_chemical_formula_sum   'Tm20 Hg3 Bi9'
_cell_volume   903.14421091
_cell_formula_units_Z   1
loop_
 _symmetry_equiv_pos_site_id
 _symmetry_equiv_pos_as_xyz
  1  'x, y, z'
loop_
 _atom_site_type_symbol
 _atom_site_label
 _atom_site_symmetry_multiplicity
 _atom_site_fract_x
 _atom_site_fract_y
 _atom_site_fract_z
 _atom_site_occupancy
  Tm  Tm0  1  0.032242  0.250000  0.507924  1
  Tm  Tm1  1  0.965743  0.750000  0.491742  1
  Tm  Tm2  1  0.464612  0.750000  0.007204  1
  Tm  Tm3  1  0.522433  0.250000  0.991286  1
  Tm  Tm4  1  0.348021  0.250000  0.290194  1
  Tm  Tm5  1  0.654233  0.750000  0.707353  1
  Tm  Tm6  1  0.144863  0.750000  0.791687  1
  Tm  Tm7  1  0.849131  0.250000  0.215461  1
  Tm  Tm8  1  0.194516  0.250000  0.778697  1
  Tm  Tm9  1  0.816484  0.750000  0.214545  1
  Tm  Tm10  1  0.318193  0.750000  0.285028  1
  Tm  Tm11  1  0.681054  0.250000  0.712748  1
  Tm  Tm12  1  0.193518  0.054976  0.060854  1
  Tm  Tm13  1  0.809644  0.930790  0.943217  1
  Tm  Tm14  1  0.311868  0.939817  0.557508  1
  Tm  Tm15  1  0.809644  0.569210  0.943217  1
  Tm  Tm16  1  0.687211  0.060887  0.444546  1
  Tm  Tm17  1  0.193518  0.445024  0.060854  1
  Tm  Tm18  1  0.687211  0.439113  0.444546  1
  Tm  Tm19  1  0.311868  0.560183  0.557508  1
  Hg  Hg20  1  0.405541  0.250000  0.538734  1
  Hg  Hg21  1  0.591709  0.750000  0.459628  1
  Hg  Hg22  1  0.092960  0.750000  0.041752  1
  Bi  Bi23  1  0.908021  0.250000  0.955206  1
  Bi  Bi24  1  0.058759  0.000871  0.322542  1
  Bi  Bi25  1  0.940978  0.999678  0.677148  1
  Bi  Bi26  1  0.442486  0.998440  0.822801  1
  Bi  Bi27  1  0.940978  0.500322  0.677148  1
  Bi  Bi28  1  0.560659  0.001762  0.176790  1
  Bi  Bi29  1  0.058759  0.499129  0.322542  1
  Bi  Bi30  1  0.560659  0.498238  0.176790  1
  Bi  Bi31  1  0.442486  0.501560  0.822801  1
