# generated using pymatgen
data_Y8Ti12Si15Ge
_symmetry_space_group_name_H-M   'P 1'
_cell_length_a   6.89297637
_cell_length_b   7.07384237
_cell_length_c   13.36283941
_cell_angle_alpha   90.00687088
_cell_angle_beta   89.89786053
_cell_angle_gamma   90.03991231
_symmetry_Int_Tables_number   1
_chemical_formula_structural   Y8Ti12Si15Ge
_chemical_formula_sum   'Y8 Ti12 Si15 Ge1'
_cell_volume   651.56855674
_cell_formula_units_Z   1
loop_
 _symmetry_equiv_pos_site_id
 _symmetry_equiv_pos_as_xyz
  1  'x, y, z'
loop_
 _atom_site_type_symbol
 _atom_site_label
 _atom_site_symmetry_multiplicity
 _atom_site_fract_x
 _atom_site_fract_y
 _atom_site_fract_z
 _atom_site_occupancy
  Y  Y0  1  0.996056  0.171286  0.403736  1
  Y  Y1  1  0.497236  0.329157  0.096930  1
  Y  Y2  1  0.504343  0.671280  0.596005  1
  Y  Y3  1  0.001097  0.826759  0.902950  1
  Y  Y4  1  0.003940  0.828739  0.596084  1
  Y  Y5  1  0.504068  0.670782  0.903429  1
  Y  Y6  1  0.495850  0.328153  0.403878  1
  Y  Y7  1  0.995493  0.172213  0.097247  1
  Ti  Ti8  1  0.338093  0.823522  0.128623  1
  Ti  Ti9  1  0.836795  0.675052  0.372947  1
  Ti  Ti10  1  0.663141  0.174470  0.627210  1
  Ti  Ti11  1  0.160073  0.328681  0.871314  1
  Ti  Ti12  1  0.164108  0.324724  0.627351  1
  Ti  Ti13  1  0.666430  0.175420  0.872494  1
  Ti  Ti14  1  0.336236  0.010616  0.747428  1
  Ti  Ti15  1  0.836869  0.674485  0.127987  1
  Ti  Ti16  1  0.663631  0.989023  0.250233  1
  Ti  Ti17  1  0.164020  0.510638  0.250129  1
  Ti  Ti18  1  0.836240  0.489479  0.749876  1
  Ti  Ti19  1  0.336533  0.825374  0.372629  1
  Si  Si20  1  0.341577  0.039015  0.541706  1
  Si  Si21  1  0.840381  0.460260  0.958746  1
  Si  Si22  1  0.662631  0.959217  0.043282  1
  Si  Si23  1  0.158504  0.539370  0.458070  1
  Si  Si24  1  0.159110  0.539944  0.041966  1
  Si  Si25  1  0.658625  0.960688  0.457838  1
  Si  Si26  1  0.842068  0.460380  0.542269  1
  Si  Si27  1  0.797560  0.378594  0.250557  1
  Si  Si28  1  0.297895  0.121043  0.250081  1
  Si  Si29  1  0.701285  0.879035  0.749787  1
  Si  Si30  1  0.202973  0.622679  0.749295  1
  Si  Si31  1  0.040102  0.872242  0.250201  1
  Si  Si32  1  0.540645  0.627689  0.250782  1
  Si  Si33  1  0.460467  0.371795  0.749989  1
  Si  Si34  1  0.960230  0.127398  0.749425  1
  Ge  Ge35  1  0.335694  0.040799  0.957522  1
