# generated using pymatgen
data_TmIrO4
_symmetry_space_group_name_H-M   'P 1'
_cell_length_a   5.28291700
_cell_length_b   7.34634191
_cell_length_c   7.57349322
_cell_angle_alpha   81.26920986
_cell_angle_beta   90.00000000
_cell_angle_gamma   90.00000000
_symmetry_Int_Tables_number   1
_chemical_formula_structural   TmIrO4
_chemical_formula_sum   'Tm4 Ir4 O16'
_cell_volume   290.52223498
_cell_formula_units_Z   4
loop_
 _symmetry_equiv_pos_site_id
 _symmetry_equiv_pos_as_xyz
  1  'x, y, z'
loop_
 _atom_site_type_symbol
 _atom_site_label
 _atom_site_symmetry_multiplicity
 _atom_site_fract_x
 _atom_site_fract_y
 _atom_site_fract_z
 _atom_site_occupancy
  Tm  Tm0  1  0.281007  0.387699  0.352426  1
  Tm  Tm1  1  0.218993  0.887699  0.352426  1
  Tm  Tm2  1  0.781007  0.112301  0.647574  1
  Tm  Tm3  1  0.718993  0.612301  0.647574  1
  Ir  Ir4  1  0.772676  0.198448  0.161889  1
  Ir  Ir5  1  0.727324  0.698448  0.161889  1
  Ir  Ir6  1  0.272676  0.301552  0.838111  1
  Ir  Ir7  1  0.227324  0.801552  0.838111  1
  O  O8  1  0.096613  0.309818  0.063097  1
  O  O9  1  0.403387  0.809818  0.063097  1
  O  O10  1  0.618192  0.442636  0.170823  1
  O  O11  1  0.881808  0.942636  0.170823  1
  O  O12  1  0.483478  0.117075  0.313681  1
  O  O13  1  0.980883  0.173808  0.391663  1
  O  O14  1  0.016522  0.617075  0.313681  1
  O  O15  1  0.519117  0.673808  0.391663  1
  O  O16  1  0.480883  0.326192  0.608337  1
  O  O17  1  0.983478  0.382925  0.686319  1
  O  O18  1  0.019117  0.826192  0.608337  1
  O  O19  1  0.516522  0.882925  0.686319  1
  O  O20  1  0.118192  0.057364  0.829177  1
  O  O21  1  0.381808  0.557364  0.829177  1
  O  O22  1  0.596613  0.190182  0.936903  1
  O  O23  1  0.903387  0.690182  0.936903  1
