# generated using pymatgen
data_TbY2Fe(Co4P3)2
_symmetry_space_group_name_H-M   'P 1'
_cell_length_a   3.70283400
_cell_length_b   10.52956700
_cell_length_c   12.18390100
_cell_angle_alpha   90.00000000
_cell_angle_beta   90.00000000
_cell_angle_gamma   90.00000000
_symmetry_Int_Tables_number   1
_chemical_formula_structural   TbY2Fe(Co4P3)2
_chemical_formula_sum   'Tb2 Y4 Fe2 Co16 P12'
_cell_volume   475.04102430
_cell_formula_units_Z   2
loop_
 _symmetry_equiv_pos_site_id
 _symmetry_equiv_pos_as_xyz
  1  'x, y, z'
loop_
 _atom_site_type_symbol
 _atom_site_label
 _atom_site_symmetry_multiplicity
 _atom_site_fract_x
 _atom_site_fract_y
 _atom_site_fract_z
 _atom_site_occupancy
  Tb  Tb0  1  0.000000  0.500000  0.521911  1
  Tb  Tb1  1  0.500000  0.000000  0.478089  1
  Y  Y2  1  0.500000  0.817681  0.205055  1
  Y  Y3  1  0.500000  0.182319  0.205055  1
  Y  Y4  1  0.000000  0.682319  0.794945  1
  Y  Y5  1  0.000000  0.317681  0.794945  1
  Fe  Fe6  1  0.500000  0.500000  0.156997  1
  Fe  Fe7  1  0.000000  0.000000  0.843003  1
  Co  Co8  1  0.500000  0.500000  0.702015  1
  Co  Co9  1  0.000000  0.000000  0.297985  1
  Co  Co10  1  0.000000  0.500000  0.986289  1
  Co  Co11  1  0.500000  0.000000  0.013711  1
  Co  Co12  1  0.500000  0.333016  0.994233  1
  Co  Co13  1  0.500000  0.666984  0.994233  1
  Co  Co14  1  0.000000  0.166984  0.005767  1
  Co  Co15  1  0.000000  0.833016  0.005767  1
  Co  Co16  1  0.500000  0.296850  0.430711  1
  Co  Co17  1  0.500000  0.703150  0.430711  1
  Co  Co18  1  0.000000  0.203150  0.569289  1
  Co  Co19  1  0.000000  0.796850  0.569289  1
  Co  Co20  1  0.500000  0.879151  0.709188  1
  Co  Co21  1  0.500000  0.120849  0.709188  1
  Co  Co22  1  0.000000  0.620849  0.290812  1
  Co  Co23  1  0.000000  0.379151  0.290812  1
  P  P24  1  0.500000  0.500000  0.882344  1
  P  P25  1  0.000000  0.000000  0.117656  1
  P  P26  1  0.500000  0.500000  0.342321  1
  P  P27  1  0.000000  0.000000  0.657679  1
  P  P28  1  0.500000  0.309972  0.616065  1
  P  P29  1  0.500000  0.690028  0.616065  1
  P  P30  1  0.000000  0.190028  0.383935  1
  P  P31  1  0.000000  0.809972  0.383935  1
  P  P32  1  0.500000  0.847706  0.892913  1
  P  P33  1  0.500000  0.152294  0.892913  1
  P  P34  1  0.000000  0.652294  0.107087  1
  P  P35  1  0.000000  0.347706  0.107087  1
