# generated using pymatgen
data_Er4Si10RuPt3Rh2
_symmetry_space_group_name_H-M   'P 1'
_cell_length_a   8.13881488
_cell_length_b   8.14332472
_cell_length_c   8.13560676
_cell_angle_alpha   138.08477221
_cell_angle_beta   104.03391705
_cell_angle_gamma   90.83397192
_symmetry_Int_Tables_number   1
_chemical_formula_structural   Er4Si10RuPt3Rh2
_chemical_formula_sum   'Er4 Si10 Ru1 Pt3 Rh2'
_cell_volume   333.25902750
_cell_formula_units_Z   1
loop_
 _symmetry_equiv_pos_site_id
 _symmetry_equiv_pos_as_xyz
  1  'x, y, z'
loop_
 _atom_site_type_symbol
 _atom_site_label
 _atom_site_symmetry_multiplicity
 _atom_site_fract_x
 _atom_site_fract_y
 _atom_site_fract_z
 _atom_site_occupancy
  Er  Er0  1  0.898066  0.128949  0.765634  1
  Er  Er1  1  0.101678  0.868547  0.229559  1
  Er  Er2  1  0.639560  0.370776  0.271055  1
  Er  Er3  1  0.362732  0.632449  0.734301  1
  Si  Si4  1  0.995773  0.751849  0.750627  1
  Si  Si5  1  0.996915  0.246187  0.243750  1
  Si  Si6  1  0.722164  0.478348  0.751575  1
  Si  Si7  1  0.277714  0.027396  0.750589  1
  Si  Si8  1  0.279147  0.528857  0.251160  1
  Si  Si9  1  0.719567  0.968658  0.243788  1
  Si  Si10  1  0.242897  0.397053  0.848178  1
  Si  Si11  1  0.553733  0.894075  0.656208  1
  Si  Si12  1  0.452118  0.102237  0.346825  1
  Si  Si13  1  0.756078  0.605665  0.154336  1
  Ru  Ru14  1  0.499637  0.749704  0.251538  1
  Pt  Pt15  1  0.973782  0.358433  0.610911  1
  Pt  Pt16  1  0.026202  0.639266  0.384662  1
  Pt  Pt17  1  0.253953  0.140469  0.115406  1
  Rh  Rh18  1  0.748710  0.863332  0.889867  1
  Rh  Rh19  1  0.499575  0.247751  0.750032  1
