# generated using pymatgen
data_Mg4GaSiPt10
_symmetry_space_group_name_H-M   'P 1'
_cell_length_a   4.09177100
_cell_length_b   5.54186834
_cell_length_c   10.88215500
_cell_angle_alpha   90.03982472
_cell_angle_beta   90.00000000
_cell_angle_gamma   90.00000000
_symmetry_Int_Tables_number   1
_chemical_formula_structural   Mg4GaSiPt10
_chemical_formula_sum   'Mg4 Ga1 Si1 Pt10'
_cell_volume   246.76429825
_cell_formula_units_Z   1
loop_
 _symmetry_equiv_pos_site_id
 _symmetry_equiv_pos_as_xyz
  1  'x, y, z'
loop_
 _atom_site_type_symbol
 _atom_site_label
 _atom_site_symmetry_multiplicity
 _atom_site_fract_x
 _atom_site_fract_y
 _atom_site_fract_z
 _atom_site_occupancy
  Mg  Mg0  1  0.500000  0.179019  0.640973  1
  Mg  Mg1  1  0.500000  0.820981  0.359027  1
  Mg  Mg2  1  0.500000  0.686526  0.859770  1
  Mg  Mg3  1  0.500000  0.313474  0.140230  1
  Ga  Ga4  1  0.000000  0.000000  0.000000  1
  Si  Si5  1  0.000000  0.500000  0.500000  1
  Pt  Pt6  1  0.500000  0.312000  0.399415  1
  Pt  Pt7  1  0.500000  0.688000  0.600585  1
  Pt  Pt8  1  0.500000  0.799810  0.109575  1
  Pt  Pt9  1  0.500000  0.200190  0.890425  1
  Pt  Pt10  1  0.000000  0.440701  0.734997  1
  Pt  Pt11  1  0.000000  0.559299  0.265003  1
  Pt  Pt12  1  0.000000  0.939217  0.757816  1
  Pt  Pt13  1  0.000000  0.060783  0.242184  1
  Pt  Pt14  1  0.000000  0.500000  0.000000  1
  Pt  Pt15  1  0.000000  0.000000  0.500000  1
