# generated using pymatgen
data_Sm3ScHg5
_symmetry_space_group_name_H-M   'P 1'
_cell_length_a   8.31674244
_cell_length_b   8.31674310
_cell_length_c   8.31674168
_cell_angle_alpha   66.60542931
_cell_angle_beta   66.60543670
_cell_angle_gamma   66.60541444
_symmetry_Int_Tables_number   1
_chemical_formula_structural   Sm3ScHg5
_chemical_formula_sum   'Sm6 Sc2 Hg10'
_cell_volume   464.57852536
_cell_formula_units_Z   2
loop_
 _symmetry_equiv_pos_site_id
 _symmetry_equiv_pos_as_xyz
  1  'x, y, z'
loop_
 _atom_site_type_symbol
 _atom_site_label
 _atom_site_symmetry_multiplicity
 _atom_site_fract_x
 _atom_site_fract_y
 _atom_site_fract_z
 _atom_site_occupancy
  Sm  Sm0  1  0.889702  0.188291  0.620148  1
  Sm  Sm1  1  0.620148  0.889702  0.188291  1
  Sm  Sm2  1  0.188291  0.620148  0.889702  1
  Sm  Sm3  1  0.110298  0.811709  0.379852  1
  Sm  Sm4  1  0.379852  0.110298  0.811709  1
  Sm  Sm5  1  0.811709  0.379852  0.110298  1
  Sc  Sc6  1  0.659350  0.659350  0.659350  1
  Sc  Sc7  1  0.340650  0.340650  0.340650  1
  Hg  Hg8  1  0.000000  0.000000  0.000000  1
  Hg  Hg9  1  0.500000  0.500000  0.500000  1
  Hg  Hg10  1  0.809360  0.809360  0.809360  1
  Hg  Hg11  1  0.190640  0.190640  0.190640  1
  Hg  Hg12  1  0.942402  0.557097  0.314873  1
  Hg  Hg13  1  0.314873  0.942402  0.557097  1
  Hg  Hg14  1  0.557097  0.314873  0.942402  1
  Hg  Hg15  1  0.057598  0.442903  0.685127  1
  Hg  Hg16  1  0.685127  0.057598  0.442903  1
  Hg  Hg17  1  0.442903  0.685127  0.057598  1
