# generated using pymatgen
data_Tm4Al21Pt10
_symmetry_space_group_name_H-M   'P 1'
_cell_length_a   10.95474617
_cell_length_b   10.95474756
_cell_length_c   15.98492530
_cell_angle_alpha   55.94483658
_cell_angle_beta   55.94483244
_cell_angle_gamma   22.03586543
_symmetry_Int_Tables_number   1
_chemical_formula_structural   Tm4Al21Pt10
_chemical_formula_sum   'Tm4 Al21 Pt10'
_cell_volume   591.10012066
_cell_formula_units_Z   1
loop_
 _symmetry_equiv_pos_site_id
 _symmetry_equiv_pos_as_xyz
  1  'x, y, z'
loop_
 _atom_site_type_symbol
 _atom_site_label
 _atom_site_symmetry_multiplicity
 _atom_site_fract_x
 _atom_site_fract_y
 _atom_site_fract_z
 _atom_site_occupancy
  Tm  Tm0  1  0.877716  0.877716  0.333688  1
  Tm  Tm1  1  0.122284  0.122284  0.666312  1
  Tm  Tm2  1  0.229273  0.229273  0.175676  1
  Tm  Tm3  1  0.770727  0.770727  0.824324  1
  Al  Al4  1  0.459244  0.459244  0.368904  1
  Al  Al5  1  0.540756  0.540756  0.631096  1
  Al  Al6  1  0.800610  0.800610  0.001229  1
  Al  Al7  1  0.199390  0.199390  0.998771  1
  Al  Al8  1  0.701072  0.701072  0.497403  1
  Al  Al9  1  0.298928  0.298928  0.502597  1
  Al  Al10  1  0.884154  0.884154  0.550079  1
  Al  Al11  1  0.115846  0.115846  0.449921  1
  Al  Al12  1  0.615260  0.615260  0.297372  1
  Al  Al13  1  0.384740  0.384740  0.702628  1
  Al  Al14  1  0.750428  0.750428  0.293713  1
  Al  Al15  1  0.249572  0.249572  0.706287  1
  Al  Al16  1  0.602181  0.602181  0.003279  1
  Al  Al17  1  0.397819  0.397819  0.996721  1
  Al  Al18  1  0.992388  0.992388  0.092346  1
  Al  Al19  1  0.007612  0.007612  0.907654  1
  Al  Al20  1  0.935614  0.935614  0.796108  1
  Al  Al21  1  0.064386  0.064386  0.203892  1
  Al  Al22  1  0.500000  0.500000  0.500000  1
  Al  Al23  1  0.370767  0.370767  0.195852  1
  Al  Al24  1  0.629233  0.629233  0.804148  1
  Pt  Pt25  1  0.493410  0.493410  0.187225  1
  Pt  Pt26  1  0.506590  0.506590  0.812775  1
  Pt  Pt27  1  0.866487  0.866487  0.103642  1
  Pt  Pt28  1  0.133513  0.133513  0.896358  1
  Pt  Pt29  1  0.749050  0.749050  0.614622  1
  Pt  Pt30  1  0.250950  0.250950  0.385378  1
  Pt  Pt31  1  0.656499  0.656499  0.112007  1
  Pt  Pt32  1  0.343501  0.343501  0.887993  1
  Pt  Pt33  1  0.973797  0.973797  0.611783  1
  Pt  Pt34  1  0.026203  0.026203  0.388217  1
