# generated using pymatgen
data_Ta3VF20
_symmetry_space_group_name_H-M   'P 1'
_cell_length_a   5.58454411
_cell_length_b   8.43601923
_cell_length_c   9.04639900
_cell_angle_alpha   90.00000000
_cell_angle_beta   90.00000000
_cell_angle_gamma   89.97521236
_symmetry_Int_Tables_number   1
_chemical_formula_structural   Ta3VF20
_chemical_formula_sum   'Ta3 V1 F20'
_cell_volume   426.18777194
_cell_formula_units_Z   1
loop_
 _symmetry_equiv_pos_site_id
 _symmetry_equiv_pos_as_xyz
  1  'x, y, z'
loop_
 _atom_site_type_symbol
 _atom_site_label
 _atom_site_symmetry_multiplicity
 _atom_site_fract_x
 _atom_site_fract_y
 _atom_site_fract_z
 _atom_site_occupancy
  Ta  Ta0  1  0.234344  0.430398  0.750000  1
  Ta  Ta1  1  0.265526  0.920679  0.250000  1
  Ta  Ta2  1  0.733757  0.070364  0.750000  1
  V  V3  1  0.764076  0.576025  0.250000  1
  F  F4  1  0.976677  0.030423  0.250000  1
  F  F5  1  0.047406  0.611486  0.750000  1
  F  F6  1  0.054937  0.714840  0.250000  1
  F  F7  1  0.223077  0.391039  0.955420  1
  F  F8  1  0.223077  0.391039  0.544580  1
  F  F9  1  0.276477  0.879349  0.044649  1
  F  F10  1  0.276477  0.879349  0.455351  1
  F  F11  1  0.433760  0.217618  0.750000  1
  F  F12  1  0.450393  0.103024  0.250000  1
  F  F13  1  0.529289  0.532086  0.750000  1
  F  F14  1  0.493239  0.474514  0.250000  1
  F  F15  1  0.550955  0.887860  0.750000  1
  F  F16  1  0.568921  0.779618  0.250000  1
  F  F17  1  0.720899  0.112723  0.545412  1
  F  F18  1  0.720899  0.112723  0.954588  1
  F  F19  1  0.772204  0.610935  0.057537  1
  F  F20  1  0.772204  0.610935  0.442463  1
  F  F21  1  0.936100  0.283404  0.750000  1
  F  F22  1  0.946295  0.409952  0.250000  1
  F  F23  1  0.029012  0.969617  0.750000  1
