# generated using pymatgen
data_Pr2InSnRh2
_symmetry_space_group_name_H-M   'P 1'
_cell_length_a   7.65027700
_cell_length_b   7.66442446
_cell_length_c   8.21240100
_cell_angle_alpha   90.00118069
_cell_angle_beta   90.00000000
_cell_angle_gamma   119.93896248
_symmetry_Int_Tables_number   1
_chemical_formula_structural   Pr2InSnRh2
_chemical_formula_sum   'Pr6 In3 Sn3 Rh6'
_cell_volume   417.27683328
_cell_formula_units_Z   3
loop_
 _symmetry_equiv_pos_site_id
 _symmetry_equiv_pos_as_xyz
  1  'x, y, z'
loop_
 _atom_site_type_symbol
 _atom_site_label
 _atom_site_symmetry_multiplicity
 _atom_site_fract_x
 _atom_site_fract_y
 _atom_site_fract_z
 _atom_site_occupancy
  Pr  Pr0  1  0.589155  0.999486  0.751364  1
  Pr  Pr1  1  0.411285  0.411137  0.750366  1
  Pr  Pr2  1  0.000786  0.589220  0.750358  1
  Pr  Pr3  1  0.589668  0.000514  0.248636  1
  Pr  Pr4  1  0.411568  0.410780  0.249642  1
  Pr  Pr5  1  0.000147  0.588863  0.249634  1
  In  In6  1  0.254596  0.000000  0.000000  1
  In  In7  1  0.751844  0.750972  0.499969  1
  In  In8  1  0.000872  0.249028  0.500031  1
  Sn  Sn9  1  0.000555  0.253644  0.999940  1
  Sn  Sn10  1  0.746911  0.746356  0.000060  1
  Sn  Sn11  1  0.246606  0.000000  0.500000  1
  Rh  Rh12  1  0.670287  0.334994  0.998854  1
  Rh  Rh13  1  0.661852  0.331176  0.501183  1
  Rh  Rh14  1  0.335292  0.665006  0.001146  1
  Rh  Rh15  1  0.330674  0.668824  0.498817  1
  Rh  Rh16  1  0.998929  0.999958  0.754680  1
  Rh  Rh17  1  0.998971  0.000042  0.245320  1
