# generated using pymatgen
data_Sm3Lu6ThSn8
_symmetry_space_group_name_H-M   'P 1'
_cell_length_a   8.03174800
_cell_length_b   8.14151379
_cell_length_c   15.33889706
_cell_angle_alpha   89.87555548
_cell_angle_beta   90.00000000
_cell_angle_gamma   90.00000000
_symmetry_Int_Tables_number   1
_chemical_formula_structural   Sm3Lu6ThSn8
_chemical_formula_sum   'Sm6 Lu12 Th2 Sn16'
_cell_volume   1003.01711874
_cell_formula_units_Z   2
loop_
 _symmetry_equiv_pos_site_id
 _symmetry_equiv_pos_as_xyz
  1  'x, y, z'
loop_
 _atom_site_type_symbol
 _atom_site_label
 _atom_site_symmetry_multiplicity
 _atom_site_fract_x
 _atom_site_fract_y
 _atom_site_fract_z
 _atom_site_occupancy
  Sm  Sm0  1  0.481144  0.678372  0.402822  1
  Sm  Sm1  1  0.981144  0.821628  0.097178  1
  Sm  Sm2  1  0.480958  0.678457  0.097205  1
  Sm  Sm3  1  0.980958  0.821543  0.402795  1
  Sm  Sm4  1  0.520377  0.321613  0.597071  1
  Sm  Sm5  1  0.020377  0.178387  0.902929  1
  Lu  Lu6  1  0.364185  0.836816  0.876429  1
  Lu  Lu7  1  0.864185  0.663184  0.623571  1
  Lu  Lu8  1  0.636371  0.163021  0.376422  1
  Lu  Lu9  1  0.136371  0.336979  0.123578  1
  Lu  Lu10  1  0.635556  0.163260  0.123661  1
  Lu  Lu11  1  0.135556  0.336740  0.376339  1
  Lu  Lu12  1  0.363864  0.836215  0.623532  1
  Lu  Lu13  1  0.863864  0.663785  0.876468  1
  Lu  Lu14  1  0.194839  0.504319  0.749793  1
  Lu  Lu15  1  0.694839  0.995681  0.750207  1
  Lu  Lu16  1  0.804354  0.495731  0.249762  1
  Lu  Lu17  1  0.304354  0.004269  0.250238  1
  Th  Th18  1  0.518762  0.321597  0.903981  1
  Th  Th19  1  0.018762  0.178403  0.596019  1
  Sn  Sn20  1  0.299451  0.040517  0.041652  1
  Sn  Sn21  1  0.799451  0.459483  0.458348  1
  Sn  Sn22  1  0.700196  0.959649  0.542021  1
  Sn  Sn23  1  0.200196  0.540351  0.957979  1
  Sn  Sn24  1  0.701446  0.960708  0.957577  1
  Sn  Sn25  1  0.201446  0.539292  0.542423  1
  Sn  Sn26  1  0.299410  0.039825  0.458002  1
  Sn  Sn27  1  0.799410  0.460175  0.041998  1
  Sn  Sn28  1  0.560944  0.624922  0.750532  1
  Sn  Sn29  1  0.060944  0.875078  0.749468  1
  Sn  Sn30  1  0.437899  0.375829  0.250170  1
  Sn  Sn31  1  0.937899  0.124171  0.249830  1
  Sn  Sn32  1  0.328092  0.145058  0.749391  1
  Sn  Sn33  1  0.828092  0.354942  0.750609  1
  Sn  Sn34  1  0.672150  0.854353  0.250007  1
  Sn  Sn35  1  0.172150  0.645647  0.249993  1
