# generated using pymatgen
data_Sr4TbU7N16
_symmetry_space_group_name_H-M   'P 1'
_cell_length_a   10.14852475
_cell_length_b   3.52612400
_cell_length_c   11.91001172
_cell_angle_alpha   90.00000000
_cell_angle_beta   89.77197371
_cell_angle_gamma   90.00000000
_symmetry_Int_Tables_number   1
_chemical_formula_structural   Sr4TbU7N16
_chemical_formula_sum   'Sr4 Tb1 U7 N16'
_cell_volume   426.19587798
_cell_formula_units_Z   1
loop_
 _symmetry_equiv_pos_site_id
 _symmetry_equiv_pos_as_xyz
  1  'x, y, z'
loop_
 _atom_site_type_symbol
 _atom_site_label
 _atom_site_symmetry_multiplicity
 _atom_site_fract_x
 _atom_site_fract_y
 _atom_site_fract_z
 _atom_site_occupancy
  Sr  Sr0  1  0.755193  0.500001  0.142454  1
  Sr  Sr1  1  0.248804  0.500001  0.350134  1
  Sr  Sr2  1  0.750260  0.000000  0.648550  1
  Sr  Sr3  1  0.253787  0.000000  0.851547  1
  Tb  Tb4  1  0.085403  0.500001  0.109087  1
  U  U5  1  0.421669  0.000000  0.114331  1
  U  U6  1  0.922910  0.000000  0.388486  1
  U  U7  1  0.577541  0.500001  0.385533  1
  U  U8  1  0.422725  0.000000  0.613333  1
  U  U9  1  0.076212  0.500001  0.613124  1
  U  U10  1  0.574961  0.500001  0.889734  1
  U  U11  1  0.928730  0.000000  0.889234  1
  N  N12  1  0.603868  0.000000  0.011429  1
  N  N13  1  0.925303  0.000000  0.060310  1
  N  N14  1  0.229730  0.000000  0.175152  1
  N  N15  1  0.488039  0.500001  0.215402  1
  N  N16  1  0.975621  0.500001  0.290590  1
  N  N17  1  0.707973  0.000000  0.338776  1
  N  N18  1  0.443455  0.000000  0.425313  1
  N  N19  1  0.114527  0.000000  0.495851  1
  N  N20  1  0.886356  0.500001  0.509331  1
  N  N21  1  0.557976  0.500001  0.574597  1
  N  N22  1  0.290423  0.500001  0.665137  1
  N  N23  1  0.008049  0.000000  0.712475  1
  N  N24  1  0.516481  0.000000  0.786033  1
  N  N25  1  0.789918  0.500001  0.842985  1
  N  N26  1  0.059693  0.500001  0.910790  1
  N  N27  1  0.384407  0.500001  0.990291  1
