# generated using pymatgen
data_TmMg(Si7Rh3)2
_symmetry_space_group_name_H-M   'P 1'
_cell_length_a   7.95569543
_cell_length_b   7.95569520
_cell_length_c   7.95569611
_cell_angle_alpha   57.00653865
_cell_angle_beta   57.00653703
_cell_angle_gamma   57.00653070
_symmetry_Int_Tables_number   1
_chemical_formula_structural   TmMg(Si7Rh3)2
_chemical_formula_sum   'Tm1 Mg1 Si14 Rh6'
_cell_volume   331.48183625
_cell_formula_units_Z   1
loop_
 _symmetry_equiv_pos_site_id
 _symmetry_equiv_pos_as_xyz
  1  'x, y, z'
loop_
 _atom_site_type_symbol
 _atom_site_label
 _atom_site_symmetry_multiplicity
 _atom_site_fract_x
 _atom_site_fract_y
 _atom_site_fract_z
 _atom_site_occupancy
  Tm  Tm0  1  0.500000  0.500000  0.500000  1
  Mg  Mg1  1  0.000000  0.000000  0.000000  1
  Si  Si2  1  0.749804  0.749804  0.749804  1
  Si  Si3  1  0.250196  0.250196  0.250196  1
  Si  Si4  1  0.852052  0.064968  0.673650  1
  Si  Si5  1  0.673650  0.852052  0.064968  1
  Si  Si6  1  0.064968  0.673650  0.852052  1
  Si  Si7  1  0.649303  0.828587  0.433817  1
  Si  Si8  1  0.433817  0.649303  0.828587  1
  Si  Si9  1  0.828587  0.433817  0.649303  1
  Si  Si10  1  0.171413  0.566183  0.350697  1
  Si  Si11  1  0.566183  0.350697  0.171413  1
  Si  Si12  1  0.350697  0.171413  0.566183  1
  Si  Si13  1  0.935032  0.326350  0.147948  1
  Si  Si14  1  0.326350  0.147948  0.935032  1
  Si  Si15  1  0.147948  0.935032  0.326350  1
  Rh  Rh16  1  0.072435  0.427568  0.750012  1
  Rh  Rh17  1  0.249988  0.927565  0.572432  1
  Rh  Rh18  1  0.572432  0.249988  0.927565  1
  Rh  Rh19  1  0.927565  0.572432  0.249988  1
  Rh  Rh20  1  0.427568  0.750012  0.072435  1
  Rh  Rh21  1  0.750012  0.072435  0.427568  1
