# generated using pymatgen
data_SrTi(GaPt)2
_symmetry_space_group_name_H-M   'P 1'
_cell_length_a   4.39649200
_cell_length_b   4.39649221
_cell_length_c   7.25224200
_cell_angle_alpha   90.00000000
_cell_angle_beta   90.00000000
_cell_angle_gamma   119.99999843
_symmetry_Int_Tables_number   1
_chemical_formula_structural   SrTi(GaPt)2
_chemical_formula_sum   'Sr1 Ti1 Ga2 Pt2'
_cell_volume   121.39911514
_cell_formula_units_Z   1
loop_
 _symmetry_equiv_pos_site_id
 _symmetry_equiv_pos_as_xyz
  1  'x, y, z'
loop_
 _atom_site_type_symbol
 _atom_site_label
 _atom_site_symmetry_multiplicity
 _atom_site_fract_x
 _atom_site_fract_y
 _atom_site_fract_z
 _atom_site_occupancy
  Sr  Sr0  1  0.000000  0.000000  0.000000  1
  Ti  Ti1  1  0.000000  0.000000  0.500000  1
  Ga  Ga2  1  0.333333  0.666667  0.310988  1
  Ga  Ga3  1  0.666667  0.333333  0.689012  1
  Pt  Pt4  1  0.333333  0.666667  0.679285  1
  Pt  Pt5  1  0.666667  0.333333  0.320715  1
