# generated using pymatgen
data_Yb6Pu2SiPd24
_symmetry_space_group_name_H-M   'P 1'
_cell_length_a   8.29103728
_cell_length_b   8.29103756
_cell_length_c   8.29103700
_cell_angle_alpha   89.98516992
_cell_angle_beta   90.01483008
_cell_angle_gamma   90.01483392
_symmetry_Int_Tables_number   1
_chemical_formula_structural   Yb6Pu2SiPd24
_chemical_formula_sum   'Yb6 Pu2 Si1 Pd24'
_cell_volume   569.93661642
_cell_formula_units_Z   1
loop_
 _symmetry_equiv_pos_site_id
 _symmetry_equiv_pos_as_xyz
  1  'x, y, z'
loop_
 _atom_site_type_symbol
 _atom_site_label
 _atom_site_symmetry_multiplicity
 _atom_site_fract_x
 _atom_site_fract_y
 _atom_site_fract_z
 _atom_site_occupancy
  Yb  Yb0  1  0.251430  0.252267  0.252267  1
  Yb  Yb1  1  0.748570  0.747733  0.747733  1
  Yb  Yb2  1  0.747733  0.748570  0.252267  1
  Yb  Yb3  1  0.747733  0.252267  0.748570  1
  Yb  Yb4  1  0.252267  0.251430  0.747733  1
  Yb  Yb5  1  0.252267  0.747733  0.251430  1
  Pu  Pu6  1  0.254434  0.745566  0.745566  1
  Pu  Pu7  1  0.745566  0.254434  0.254434  1
  Si  Si8  1  0.000000  0.000000  0.000000  1
  Pd  Pd9  1  0.257427  0.501021  0.998180  1
  Pd  Pd10  1  0.742573  0.498979  0.001820  1
  Pd  Pd11  1  0.998180  0.257427  0.498979  1
  Pd  Pd12  1  0.501021  0.257427  0.001820  1
  Pd  Pd13  1  0.001820  0.742573  0.501021  1
  Pd  Pd14  1  0.498979  0.742573  0.998180  1
  Pd  Pd15  1  0.501021  0.001820  0.257427  1
  Pd  Pd16  1  0.257427  0.998180  0.501021  1
  Pd  Pd17  1  0.498979  0.998180  0.742573  1
  Pd  Pd18  1  0.742573  0.001820  0.498979  1
  Pd  Pd19  1  0.998180  0.498979  0.257427  1
  Pd  Pd20  1  0.001820  0.501021  0.742573  1
  Pd  Pd21  1  0.252053  0.500838  0.500838  1
  Pd  Pd22  1  0.747947  0.499162  0.499162  1
  Pd  Pd23  1  0.500838  0.252053  0.499162  1
  Pd  Pd24  1  0.499162  0.747947  0.500838  1
  Pd  Pd25  1  0.500838  0.499162  0.252053  1
  Pd  Pd26  1  0.499162  0.500838  0.747947  1
  Pd  Pd27  1  0.281338  0.000170  0.000170  1
  Pd  Pd28  1  0.718662  0.999830  0.999830  1
  Pd  Pd29  1  0.000170  0.281338  0.999830  1
  Pd  Pd30  1  0.999830  0.718662  0.000170  1
  Pd  Pd31  1  0.000170  0.999830  0.281338  1
  Pd  Pd32  1  0.999830  0.000170  0.718662  1
