# generated using pymatgen
data_SmMnOs2C
_symmetry_space_group_name_H-M   'P 1'
_cell_length_a   5.82067715
_cell_length_b   5.82067831
_cell_length_c   7.37475200
_cell_angle_alpha   90.00000000
_cell_angle_beta   90.00000000
_cell_angle_gamma   140.99314556
_symmetry_Int_Tables_number   1
_chemical_formula_structural   SmMnOs2C
_chemical_formula_sum   'Sm2 Mn2 Os4 C2'
_cell_volume   157.26442283
_cell_formula_units_Z   2
loop_
 _symmetry_equiv_pos_site_id
 _symmetry_equiv_pos_as_xyz
  1  'x, y, z'
loop_
 _atom_site_type_symbol
 _atom_site_label
 _atom_site_symmetry_multiplicity
 _atom_site_fract_x
 _atom_site_fract_y
 _atom_site_fract_z
 _atom_site_occupancy
  Sm  Sm0  1  0.540056  0.459944  0.250000  1
  Sm  Sm1  1  0.459944  0.540056  0.750000  1
  Mn  Mn2  1  0.269176  0.730824  0.250000  1
  Mn  Mn3  1  0.730824  0.269176  0.750000  1
  Os  Os4  1  0.830487  0.169513  0.059764  1
  Os  Os5  1  0.169513  0.830487  0.940236  1
  Os  Os6  1  0.169513  0.830487  0.559764  1
  Os  Os7  1  0.830487  0.169513  0.440236  1
  C  C8  1  0.000000  0.000000  0.000000  1
  C  C9  1  0.000000  0.000000  0.500000  1
