# generated using pymatgen
data_Tb7Dy9Cd4NiRu3
_symmetry_space_group_name_H-M   'P 1'
_cell_length_a   9.54562691
_cell_length_b   9.67215932
_cell_length_c   9.67022300
_cell_angle_alpha   60.00661875
_cell_angle_beta   59.56726953
_cell_angle_gamma   59.58846217
_symmetry_Int_Tables_number   1
_chemical_formula_structural   Tb7Dy9Cd4NiRu3
_chemical_formula_sum   'Tb7 Dy9 Cd4 Ni1 Ru3'
_cell_volume   627.29248623
_cell_formula_units_Z   1
loop_
 _symmetry_equiv_pos_site_id
 _symmetry_equiv_pos_as_xyz
  1  'x, y, z'
loop_
 _atom_site_type_symbol
 _atom_site_label
 _atom_site_symmetry_multiplicity
 _atom_site_fract_x
 _atom_site_fract_y
 _atom_site_fract_z
 _atom_site_occupancy
  Tb  Tb0  1  0.811143  0.812162  0.188347  1
  Tb  Tb1  1  0.936624  0.561942  0.562305  1
  Tb  Tb2  1  0.558655  0.937425  0.937245  1
  Tb  Tb3  1  0.558655  0.937425  0.566674  1
  Tb  Tb4  1  0.936624  0.561942  0.939129  1
  Tb  Tb5  1  0.558730  0.566362  0.937454  1
  Tb  Tb6  1  0.936520  0.939191  0.562144  1
  Dy  Dy7  1  0.350205  0.346137  0.346149  1
  Dy  Dy8  1  0.350205  0.346137  0.957509  1
  Dy  Dy9  1  0.350045  0.957730  0.346113  1
  Dy  Dy10  1  0.961890  0.345797  0.346157  1
  Dy  Dy11  1  0.811313  0.188471  0.188253  1
  Dy  Dy12  1  0.188001  0.811711  0.811571  1
  Dy  Dy13  1  0.188001  0.811711  0.188716  1
  Dy  Dy14  1  0.811313  0.188471  0.811964  1
  Dy  Dy15  1  0.187697  0.188556  0.811873  1
  Cd  Cd16  1  0.579047  0.580062  0.580345  1
  Cd  Cd17  1  0.579047  0.580062  0.260546  1
  Cd  Cd18  1  0.579128  0.260417  0.580228  1
  Cd  Cd19  1  0.257930  0.580599  0.580735  1
  Ni  Ni20  1  0.576071  0.142468  0.140731  1
  Ru  Ru21  1  0.144368  0.138635  0.138889  1
  Ru  Ru22  1  0.144368  0.138635  0.578108  1
  Ru  Ru23  1  0.144421  0.577953  0.138813  1
