# generated using pymatgen
data_Hf5VSnSb
_symmetry_space_group_name_H-M   'P 1'
_cell_length_a   5.53599869
_cell_length_b   8.31378785
_cell_length_c   8.34610534
_cell_angle_alpha   83.66045283
_cell_angle_beta   70.63095030
_cell_angle_gamma   70.55262429
_symmetry_Int_Tables_number   1
_chemical_formula_structural   Hf5VSnSb
_chemical_formula_sum   'Hf10 V2 Sn2 Sb2'
_cell_volume   341.71429411
_cell_formula_units_Z   2
loop_
 _symmetry_equiv_pos_site_id
 _symmetry_equiv_pos_as_xyz
  1  'x, y, z'
loop_
 _atom_site_type_symbol
 _atom_site_label
 _atom_site_symmetry_multiplicity
 _atom_site_fract_x
 _atom_site_fract_y
 _atom_site_fract_z
 _atom_site_occupancy
  Hf  Hf0  1  0.073423  0.130918  0.722236  1
  Hf  Hf1  1  0.926577  0.869082  0.277764  1
  Hf  Hf2  1  0.795893  0.277238  0.130976  1
  Hf  Hf3  1  0.426868  0.277238  0.869024  1
  Hf  Hf4  1  0.204107  0.722762  0.869024  1
  Hf  Hf5  1  0.573132  0.722762  0.130976  1
  Hf  Hf6  1  0.704341  0.869082  0.722236  1
  Hf  Hf7  1  0.295659  0.130918  0.277764  1
  Hf  Hf8  1  0.247980  0.500000  0.500000  1
  Hf  Hf9  1  0.752020  0.500000  0.500000  1
  V  V10  1  0.250000  0.000000  0.000000  1
  V  V11  1  0.750000  0.000000  0.000000  1
  Sn  Sn12  1  0.163328  0.500000  0.173345  1
  Sn  Sn13  1  0.836672  0.500000  0.826655  1
  Sb  Sb14  1  0.336785  0.826431  0.500000  1
  Sb  Sb15  1  0.663215  0.173569  0.500000  1
