# generated using pymatgen
data_La11Yb(ZnAu5)4
_symmetry_space_group_name_H-M   'P 1'
_cell_length_a   8.77035306
_cell_length_b   8.77035368
_cell_length_c   13.86948000
_cell_angle_alpha   90.03927575
_cell_angle_beta   89.96072424
_cell_angle_gamma   127.15374684
_symmetry_Int_Tables_number   1
_chemical_formula_structural   La11Yb(ZnAu5)4
_chemical_formula_sum   'La11 Yb1 Zn4 Au20'
_cell_volume   850.28050074
_cell_formula_units_Z   1
loop_
 _symmetry_equiv_pos_site_id
 _symmetry_equiv_pos_as_xyz
  1  'x, y, z'
loop_
 _atom_site_type_symbol
 _atom_site_label
 _atom_site_symmetry_multiplicity
 _atom_site_fract_x
 _atom_site_fract_y
 _atom_site_fract_z
 _atom_site_occupancy
  La  La0  1  0.927743  0.072257  0.251233  1
  La  La1  1  0.069631  0.930369  0.748884  1
  La  La2  1  0.320002  0.679998  0.250954  1
  La  La3  1  0.679790  0.320210  0.748247  1
  La  La4  1  0.371772  0.628228  0.540564  1
  La  La5  1  0.629375  0.370625  0.040760  1
  La  La6  1  0.370327  0.629673  0.959020  1
  La  La7  1  0.882806  0.117194  0.952003  1
  La  La8  1  0.117810  0.882190  0.049244  1
  La  La9  1  0.881144  0.118856  0.549047  1
  La  La10  1  0.118224  0.881776  0.450608  1
  Yb  Yb11  1  0.629259  0.370741  0.460972  1
  Zn  Zn12  1  0.720245  0.279755  0.252952  1
  Zn  Zn13  1  0.277260  0.722740  0.749220  1
  Zn  Zn14  1  0.532483  0.467517  0.252224  1
  Zn  Zn15  1  0.469480  0.530520  0.748883  1
  Au  Au16  1  0.324221  0.070374  0.248936  1
  Au  Au17  1  0.069937  0.324919  0.749825  1
  Au  Au18  1  0.675081  0.930063  0.749825  1
  Au  Au19  1  0.929626  0.675779  0.248936  1
  Au  Au20  1  0.571679  0.011541  0.396936  1
  Au  Au21  1  0.003651  0.570295  0.603764  1
  Au  Au22  1  0.571081  0.003701  0.105594  1
  Au  Au23  1  0.003158  0.570333  0.894636  1
  Au  Au24  1  0.429705  0.996349  0.603764  1
  Au  Au25  1  0.988459  0.428321  0.396936  1
  Au  Au26  1  0.429667  0.996842  0.894636  1
  Au  Au27  1  0.996299  0.428919  0.105594  1
  Au  Au28  1  0.684092  0.735883  0.393620  1
  Au  Au29  1  0.740721  0.678647  0.604004  1
  Au  Au30  1  0.683815  0.741119  0.107885  1
  Au  Au31  1  0.741182  0.684079  0.892394  1
  Au  Au32  1  0.321353  0.259279  0.604004  1
  Au  Au33  1  0.264117  0.315908  0.393620  1
  Au  Au34  1  0.315921  0.258818  0.892394  1
  Au  Au35  1  0.258881  0.316185  0.107885  1
