# generated using pymatgen
data_TbDy15Cd4TcNi3
_symmetry_space_group_name_H-M   'P 1'
_cell_length_a   9.59936413
_cell_length_b   9.59936423
_cell_length_c   9.59936402
_cell_angle_alpha   59.39825011
_cell_angle_beta   59.39825030
_cell_angle_gamma   59.39824584
_symmetry_Int_Tables_number   1
_chemical_formula_structural   TbDy15Cd4TcNi3
_chemical_formula_sum   'Tb1 Dy15 Cd4 Tc1 Ni3'
_cell_volume   616.91330724
_cell_formula_units_Z   1
loop_
 _symmetry_equiv_pos_site_id
 _symmetry_equiv_pos_as_xyz
  1  'x, y, z'
loop_
 _atom_site_type_symbol
 _atom_site_label
 _atom_site_symmetry_multiplicity
 _atom_site_fract_x
 _atom_site_fract_y
 _atom_site_fract_z
 _atom_site_occupancy
  Tb  Tb0  1  0.597478  0.597478  0.597478  1
  Dy  Dy1  1  0.601721  0.601721  0.203837  1
  Dy  Dy2  1  0.601721  0.203837  0.601721  1
  Dy  Dy3  1  0.203837  0.601721  0.601721  1
  Dy  Dy4  1  0.060946  0.437685  0.437685  1
  Dy  Dy5  1  0.437347  0.060722  0.060722  1
  Dy  Dy6  1  0.437685  0.060946  0.437685  1
  Dy  Dy7  1  0.060722  0.437347  0.060722  1
  Dy  Dy8  1  0.437685  0.437685  0.060946  1
  Dy  Dy9  1  0.060722  0.060722  0.437347  1
  Dy  Dy10  1  0.185981  0.815373  0.815373  1
  Dy  Dy11  1  0.805387  0.189014  0.189014  1
  Dy  Dy12  1  0.815373  0.185981  0.815373  1
  Dy  Dy13  1  0.189014  0.805387  0.189014  1
  Dy  Dy14  1  0.815373  0.815373  0.185981  1
  Dy  Dy15  1  0.189014  0.189014  0.805387  1
  Cd  Cd16  1  0.829872  0.829872  0.829872  1
  Cd  Cd17  1  0.829879  0.829879  0.505584  1
  Cd  Cd18  1  0.829879  0.505584  0.829879  1
  Cd  Cd19  1  0.505584  0.829879  0.829879  1
  Tc  Tc20  1  0.393711  0.393711  0.393711  1
  Ni  Ni21  1  0.392655  0.392655  0.825756  1
  Ni  Ni22  1  0.392655  0.825756  0.392655  1
  Ni  Ni23  1  0.825756  0.392655  0.392655  1
