# generated using pymatgen
data_Ho3Ga3GePt2
_symmetry_space_group_name_H-M   'P 1'
_cell_length_a   7.15716500
_cell_length_b   7.15716550
_cell_length_c   4.02276500
_cell_angle_alpha   90.00000000
_cell_angle_beta   90.00000000
_cell_angle_gamma   119.99999430
_symmetry_Int_Tables_number   1
_chemical_formula_structural   Ho3Ga3GePt2
_chemical_formula_sum   'Ho3 Ga3 Ge1 Pt2'
_cell_volume   178.45857014
_cell_formula_units_Z   1
loop_
 _symmetry_equiv_pos_site_id
 _symmetry_equiv_pos_as_xyz
  1  'x, y, z'
loop_
 _atom_site_type_symbol
 _atom_site_label
 _atom_site_symmetry_multiplicity
 _atom_site_fract_x
 _atom_site_fract_y
 _atom_site_fract_z
 _atom_site_occupancy
  Ho  Ho0  1  0.591711  0.004465  0.500000  1
  Ho  Ho1  1  0.412754  0.408289  0.500000  1
  Ho  Ho2  1  0.995535  0.587246  0.500000  1
  Ga  Ga3  1  0.760900  0.746730  0.000000  1
  Ga  Ga4  1  0.985831  0.239100  0.000000  1
  Ga  Ga5  1  0.253270  0.014169  0.000000  1
  Ge  Ge6  1  0.333333  0.666667  0.000000  1
  Pt  Pt7  1  0.666667  0.333333  0.000000  1
  Pt  Pt8  1  0.000000  0.000000  0.500000  1
