# generated using pymatgen
data_ErLuNb2(Fe4P3)2
_symmetry_space_group_name_H-M   'P 1'
_cell_length_a   3.67674800
_cell_length_b   10.43076400
_cell_length_c   12.32188600
_cell_angle_alpha   90.00000000
_cell_angle_beta   90.00000000
_cell_angle_gamma   90.00000000
_symmetry_Int_Tables_number   1
_chemical_formula_structural   ErLuNb2(Fe4P3)2
_chemical_formula_sum   'Er2 Lu2 Nb4 Fe16 P12'
_cell_volume   472.56023166
_cell_formula_units_Z   2
loop_
 _symmetry_equiv_pos_site_id
 _symmetry_equiv_pos_as_xyz
  1  'x, y, z'
loop_
 _atom_site_type_symbol
 _atom_site_label
 _atom_site_symmetry_multiplicity
 _atom_site_fract_x
 _atom_site_fract_y
 _atom_site_fract_z
 _atom_site_occupancy
  Er  Er0  1  0.750000  0.416690  0.286641  1
  Er  Er1  1  0.750000  0.083310  0.786641  1
  Lu  Lu2  1  0.250000  0.585803  0.713770  1
  Lu  Lu3  1  0.250000  0.914197  0.213770  1
  Nb  Nb4  1  0.250000  0.705313  0.992537  1
  Nb  Nb5  1  0.250000  0.794687  0.492537  1
  Nb  Nb6  1  0.750000  0.293561  0.008571  1
  Nb  Nb7  1  0.750000  0.206439  0.508571  1
  Fe  Fe8  1  0.250000  0.419634  0.492791  1
  Fe  Fe9  1  0.250000  0.080367  0.992791  1
  Fe  Fe10  1  0.750000  0.583748  0.508626  1
  Fe  Fe11  1  0.750000  0.916252  0.008626  1
  Fe  Fe12  1  0.250000  0.213800  0.172888  1
  Fe  Fe13  1  0.250000  0.286200  0.672888  1
  Fe  Fe14  1  0.750000  0.783132  0.827410  1
  Fe  Fe15  1  0.750000  0.716868  0.327410  1
  Fe  Fe16  1  0.250000  0.880362  0.698374  1
  Fe  Fe17  1  0.250000  0.619638  0.198374  1
  Fe  Fe18  1  0.750000  0.119279  0.300496  1
  Fe  Fe19  1  0.750000  0.380721  0.800496  1
  Fe  Fe20  1  0.250000  0.464031  0.932731  1
  Fe  Fe21  1  0.250000  0.035969  0.432731  1
  Fe  Fe22  1  0.750000  0.535570  0.065931  1
  Fe  Fe23  1  0.750000  0.964430  0.565931  1
  P  P24  1  0.250000  0.425981  0.112765  1
  P  P25  1  0.250000  0.074019  0.612765  1
  P  P26  1  0.750000  0.575373  0.885908  1
  P  P27  1  0.750000  0.924627  0.385908  1
  P  P28  1  0.250000  0.271390  0.856531  1
  P  P29  1  0.250000  0.228610  0.356531  1
  P  P30  1  0.750000  0.727894  0.144949  1
  P  P31  1  0.750000  0.772106  0.644949  1
  P  P32  1  0.250000  0.595960  0.376253  1
  P  P33  1  0.250000  0.904040  0.876253  1
  P  P34  1  0.750000  0.408548  0.622828  1
  P  P35  1  0.750000  0.091452  0.122828  1
