# generated using pymatgen
data_Lu4OsWC4
_symmetry_space_group_name_H-M   'P 1'
_cell_length_a   4.97753600
_cell_length_b   6.49425581
_cell_length_c   9.70197568
_cell_angle_alpha   89.25366077
_cell_angle_beta   90.00000000
_cell_angle_gamma   90.00000000
_symmetry_Int_Tables_number   1
_chemical_formula_structural   Lu4OsWC4
_chemical_formula_sum   'Lu8 Os2 W2 C8'
_cell_volume   313.59356070
_cell_formula_units_Z   2
loop_
 _symmetry_equiv_pos_site_id
 _symmetry_equiv_pos_as_xyz
  1  'x, y, z'
loop_
 _atom_site_type_symbol
 _atom_site_label
 _atom_site_symmetry_multiplicity
 _atom_site_fract_x
 _atom_site_fract_y
 _atom_site_fract_z
 _atom_site_occupancy
  Lu  Lu0  1  0.250000  0.674983  0.559027  1
  Lu  Lu1  1  0.750000  0.325017  0.440973  1
  Lu  Lu2  1  0.750000  0.827691  0.059976  1
  Lu  Lu3  1  0.250000  0.172309  0.940024  1
  Lu  Lu4  1  0.250000  0.542490  0.219779  1
  Lu  Lu5  1  0.750000  0.457510  0.780221  1
  Lu  Lu6  1  0.750000  0.967004  0.717667  1
  Lu  Lu7  1  0.250000  0.032996  0.282333  1
  Os  Os8  1  0.750000  0.783827  0.370778  1
  Os  Os9  1  0.250000  0.216173  0.629222  1
  W  W10  1  0.250000  0.711218  0.871857  1
  W  W11  1  0.750000  0.288782  0.128143  1
  C  C12  1  0.250000  0.444937  0.758514  1
  C  C13  1  0.750000  0.555063  0.241486  1
  C  C14  1  0.750000  0.052463  0.259993  1
  C  C15  1  0.250000  0.947537  0.740007  1
  C  C16  1  0.250000  0.830223  0.059365  1
  C  C17  1  0.750000  0.169777  0.940635  1
  C  C18  1  0.750000  0.671437  0.554731  1
  C  C19  1  0.250000  0.328563  0.445269  1
