# generated using pymatgen
data_SmY3Ga2(Co2B)6
_symmetry_space_group_name_H-M   'P 1'
_cell_length_a   5.15018109
_cell_length_b   5.15150525
_cell_length_c   12.46030200
_cell_angle_alpha   89.99988280
_cell_angle_beta   90.00015990
_cell_angle_gamma   119.99328953
_symmetry_Int_Tables_number   1
_chemical_formula_structural   SmY3Ga2(Co2B)6
_chemical_formula_sum   'Sm1 Y3 Ga2 Co12 B6'
_cell_volume   286.31573057
_cell_formula_units_Z   1
loop_
 _symmetry_equiv_pos_site_id
 _symmetry_equiv_pos_as_xyz
  1  'x, y, z'
loop_
 _atom_site_type_symbol
 _atom_site_label
 _atom_site_symmetry_multiplicity
 _atom_site_fract_x
 _atom_site_fract_y
 _atom_site_fract_z
 _atom_site_occupancy
  Sm  Sm0  1  0.999987  0.999996  0.999985  1
  Y  Y1  1  0.999993  0.000001  0.500026  1
  Y  Y2  1  0.999989  0.000001  0.259641  1
  Y  Y3  1  0.999997  0.000000  0.740407  1
  Ga  Ga4  1  0.333287  0.666550  0.999939  1
  Ga  Ga5  1  0.666692  0.333444  0.999939  1
  Co  Co6  1  0.499988  0.000001  0.160588  1
  Co  Co7  1  0.499988  0.500001  0.160579  1
  Co  Co8  1  0.999987  0.500001  0.160624  1
  Co  Co9  1  0.499995  0.999999  0.839366  1
  Co  Co10  1  0.499995  0.500000  0.839391  1
  Co  Co11  1  0.999995  0.499999  0.839406  1
  Co  Co12  1  0.499991  0.000002  0.385390  1
  Co  Co13  1  0.499991  0.500001  0.385373  1
  Co  Co14  1  0.999990  0.500001  0.385377  1
  Co  Co15  1  0.499995  0.000000  0.614644  1
  Co  Co16  1  0.499995  0.500001  0.614658  1
  Co  Co17  1  0.999995  0.500000  0.614610  1
  B  B18  1  0.333314  0.666755  0.500003  1
  B  B19  1  0.666669  0.333246  0.500004  1
  B  B20  1  0.333369  0.666675  0.268907  1
  B  B21  1  0.666608  0.333326  0.268907  1
  B  B22  1  0.666817  0.333344  0.731117  1
  B  B23  1  0.333173  0.666656  0.731117  1
