# generated using pymatgen
data_Nd6Ge(P3Rh5)4
_symmetry_space_group_name_H-M   'P 1'
_cell_length_a   13.55174500
_cell_length_b   13.55174351
_cell_length_c   3.93904700
_cell_angle_alpha   90.00000000
_cell_angle_beta   90.00000000
_cell_angle_gamma   120.00000120
_symmetry_Int_Tables_number   1
_chemical_formula_structural   Nd6Ge(P3Rh5)4
_chemical_formula_sum   'Nd6 Ge1 P12 Rh20'
_cell_volume   626.48717294
_cell_formula_units_Z   1
loop_
 _symmetry_equiv_pos_site_id
 _symmetry_equiv_pos_as_xyz
  1  'x, y, z'
loop_
 _atom_site_type_symbol
 _atom_site_label
 _atom_site_symmetry_multiplicity
 _atom_site_fract_x
 _atom_site_fract_y
 _atom_site_fract_z
 _atom_site_occupancy
  Nd  Nd0  1  0.531537  0.717946  0.248725  1
  Nd  Nd1  1  0.282054  0.813591  0.248725  1
  Nd  Nd2  1  0.186409  0.468463  0.248725  1
  Nd  Nd3  1  0.468463  0.282054  0.751275  1
  Nd  Nd4  1  0.717946  0.186409  0.751275  1
  Nd  Nd5  1  0.813591  0.531537  0.751275  1
  Ge  Ge6  1  0.000000  0.000000  0.000000  1
  P  P7  1  0.523186  0.135650  0.250168  1
  P  P8  1  0.864350  0.387537  0.250168  1
  P  P9  1  0.612463  0.476814  0.250168  1
  P  P10  1  0.948819  0.720511  0.251847  1
  P  P11  1  0.279489  0.228308  0.251847  1
  P  P12  1  0.771692  0.051181  0.251847  1
  P  P13  1  0.387537  0.523186  0.749832  1
  P  P14  1  0.476814  0.864350  0.749832  1
  P  P15  1  0.135650  0.612463  0.749832  1
  P  P16  1  0.720511  0.771692  0.748153  1
  P  P17  1  0.228308  0.948819  0.748153  1
  P  P18  1  0.051181  0.279489  0.748153  1
  Rh  Rh19  1  0.333333  0.666667  0.752828  1
  Rh  Rh20  1  0.922541  0.251127  0.252468  1
  Rh  Rh21  1  0.748873  0.671415  0.252468  1
  Rh  Rh22  1  0.328585  0.077459  0.252468  1
  Rh  Rh23  1  0.442951  0.027079  0.750857  1
  Rh  Rh24  1  0.972921  0.415873  0.750857  1
  Rh  Rh25  1  0.584127  0.557049  0.750857  1
  Rh  Rh26  1  0.666667  0.333333  0.247172  1
  Rh  Rh27  1  0.095270  0.195320  0.251505  1
  Rh  Rh28  1  0.804680  0.899951  0.251505  1
  Rh  Rh29  1  0.100049  0.904730  0.251505  1
  Rh  Rh30  1  0.027079  0.584127  0.249143  1
  Rh  Rh31  1  0.415873  0.442951  0.249143  1
  Rh  Rh32  1  0.557049  0.972921  0.249143  1
  Rh  Rh33  1  0.671415  0.922541  0.747532  1
  Rh  Rh34  1  0.077459  0.748873  0.747532  1
  Rh  Rh35  1  0.251127  0.328585  0.747532  1
  Rh  Rh36  1  0.904730  0.804680  0.748495  1
  Rh  Rh37  1  0.195320  0.100049  0.748495  1
  Rh  Rh38  1  0.899951  0.095270  0.748495  1
