# generated using pymatgen
data_Er2Tm(Ni3As2)3
_symmetry_space_group_name_H-M   'P 1'
_cell_length_a   3.87873100
_cell_length_b   10.86596600
_cell_length_c   12.69337400
_cell_angle_alpha   90.00000000
_cell_angle_beta   90.00000000
_cell_angle_gamma   90.00000000
_symmetry_Int_Tables_number   1
_chemical_formula_structural   Er2Tm(Ni3As2)3
_chemical_formula_sum   'Er4 Tm2 Ni18 As12'
_cell_volume   534.97696100
_cell_formula_units_Z   2
loop_
 _symmetry_equiv_pos_site_id
 _symmetry_equiv_pos_as_xyz
  1  'x, y, z'
loop_
 _atom_site_type_symbol
 _atom_site_label
 _atom_site_symmetry_multiplicity
 _atom_site_fract_x
 _atom_site_fract_y
 _atom_site_fract_z
 _atom_site_occupancy
  Er  Er0  1  0.750000  0.250000  0.476559  1
  Er  Er1  1  0.250000  0.750000  0.523734  1
  Er  Er2  1  0.750000  0.067108  0.206990  1
  Er  Er3  1  0.750000  0.432892  0.206990  1
  Tm  Tm4  1  0.250000  0.932598  0.792953  1
  Tm  Tm5  1  0.250000  0.567402  0.792953  1
  Ni  Ni6  1  0.250000  0.250000  0.843257  1
  Ni  Ni7  1  0.750000  0.750000  0.156181  1
  Ni  Ni8  1  0.250000  0.250000  0.301271  1
  Ni  Ni9  1  0.750000  0.750000  0.699132  1
  Ni  Ni10  1  0.750000  0.250000  0.016933  1
  Ni  Ni11  1  0.250000  0.750000  0.982374  1
  Ni  Ni12  1  0.250000  0.417114  0.002852  1
  Ni  Ni13  1  0.250000  0.082886  0.002852  1
  Ni  Ni14  1  0.750000  0.582569  0.996963  1
  Ni  Ni15  1  0.750000  0.917431  0.996963  1
  Ni  Ni16  1  0.250000  0.446900  0.573901  1
  Ni  Ni17  1  0.250000  0.053100  0.573901  1
  Ni  Ni18  1  0.750000  0.553123  0.426577  1
  Ni  Ni19  1  0.750000  0.946877  0.426577  1
  Ni  Ni20  1  0.250000  0.870741  0.292946  1
  Ni  Ni21  1  0.250000  0.629259  0.292946  1
  Ni  Ni22  1  0.750000  0.128856  0.707025  1
  Ni  Ni23  1  0.750000  0.371144  0.707025  1
  As  As24  1  0.250000  0.250000  0.124140  1
  As  As25  1  0.750000  0.750000  0.875819  1
  As  As26  1  0.250000  0.250000  0.654066  1
  As  As27  1  0.750000  0.750000  0.345882  1
  As  As28  1  0.250000  0.434958  0.386592  1
  As  As29  1  0.250000  0.065042  0.386592  1
  As  As30  1  0.750000  0.565269  0.613904  1
  As  As31  1  0.750000  0.934731  0.613904  1
  As  As32  1  0.250000  0.903086  0.110029  1
  As  As33  1  0.250000  0.596914  0.110029  1
  As  As34  1  0.750000  0.096535  0.889594  1
  As  As35  1  0.750000  0.403465  0.889594  1
