# generated using pymatgen
data_Zr10Tl4Zn2InPb
_symmetry_space_group_name_H-M   'P 1'
_cell_length_a   8.77805819
_cell_length_b   8.77906329
_cell_length_c   5.94819600
_cell_angle_alpha   90.00000000
_cell_angle_beta   90.00000000
_cell_angle_gamma   119.70562313
_symmetry_Int_Tables_number   1
_chemical_formula_structural   Zr10Tl4Zn2InPb
_chemical_formula_sum   'Zr10 Tl4 Zn2 In1 Pb1'
_cell_volume   398.14674858
_cell_formula_units_Z   1
loop_
 _symmetry_equiv_pos_site_id
 _symmetry_equiv_pos_as_xyz
  1  'x, y, z'
loop_
 _atom_site_type_symbol
 _atom_site_label
 _atom_site_symmetry_multiplicity
 _atom_site_fract_x
 _atom_site_fract_y
 _atom_site_fract_z
 _atom_site_occupancy
  Zr  Zr0  1  0.334858  0.668663  0.000150  1
  Zr  Zr1  1  0.666886  0.332445  0.500084  1
  Zr  Zr2  1  0.666886  0.332445  0.999916  1
  Zr  Zr3  1  0.334858  0.668663  0.499850  1
  Zr  Zr4  1  0.270569  0.000912  0.250000  1
  Zr  Zr5  1  0.266598  0.266417  0.750000  1
  Zr  Zr6  1  0.000763  0.729476  0.750000  1
  Zr  Zr7  1  0.998413  0.268126  0.250000  1
  Zr  Zr8  1  0.730958  0.732877  0.250000  1
  Zr  Zr9  1  0.729870  0.001061  0.750000  1
  Tl  Tl10  1  0.619811  0.618995  0.750000  1
  Tl  Tl11  1  0.000967  0.381889  0.750000  1
  Tl  Tl12  1  0.000528  0.619572  0.250000  1
  Tl  Tl13  1  0.381331  0.999683  0.750000  1
  Zn  Zn14  1  0.997861  0.997804  0.999234  1
  Zn  Zn15  1  0.997861  0.997804  0.500766  1
  In  In16  1  0.619831  0.001146  0.250000  1
  Pb  Pb17  1  0.381153  0.382022  0.250000  1
