# generated using pymatgen
data_Zr6Al16SiPt7
_symmetry_space_group_name_H-M   'P 1'
_cell_length_a   8.86566465
_cell_length_b   8.86566461
_cell_length_c   8.86566400
_cell_angle_alpha   60.00000227
_cell_angle_beta   60.00000244
_cell_angle_gamma   60.00000146
_symmetry_Int_Tables_number   1
_chemical_formula_structural   Zr6Al16SiPt7
_chemical_formula_sum   'Zr6 Al16 Si1 Pt7'
_cell_volume   492.74121272
_cell_formula_units_Z   1
loop_
 _symmetry_equiv_pos_site_id
 _symmetry_equiv_pos_as_xyz
  1  'x, y, z'
loop_
 _atom_site_type_symbol
 _atom_site_label
 _atom_site_symmetry_multiplicity
 _atom_site_fract_x
 _atom_site_fract_y
 _atom_site_fract_z
 _atom_site_occupancy
  Zr  Zr0  1  0.704032  0.295968  0.295968  1
  Zr  Zr1  1  0.295968  0.704032  0.704032  1
  Zr  Zr2  1  0.295968  0.704032  0.295968  1
  Zr  Zr3  1  0.704032  0.295968  0.704032  1
  Zr  Zr4  1  0.295968  0.295968  0.704032  1
  Zr  Zr5  1  0.704032  0.704032  0.295968  1
  Al  Al6  1  0.120134  0.120134  0.120134  1
  Al  Al7  1  0.879866  0.879866  0.879866  1
  Al  Al8  1  0.120134  0.120134  0.639598  1
  Al  Al9  1  0.120134  0.639598  0.120134  1
  Al  Al10  1  0.879866  0.879866  0.360402  1
  Al  Al11  1  0.879866  0.360402  0.879866  1
  Al  Al12  1  0.639598  0.120134  0.120134  1
  Al  Al13  1  0.360402  0.879866  0.879866  1
  Al  Al14  1  0.333519  0.333519  0.333519  1
  Al  Al15  1  0.666481  0.666481  0.666481  1
  Al  Al16  1  0.333519  0.333519  0.999445  1
  Al  Al17  1  0.333519  0.999445  0.333519  1
  Al  Al18  1  0.666481  0.666481  0.000555  1
  Al  Al19  1  0.666481  0.000555  0.666481  1
  Al  Al20  1  0.999445  0.333519  0.333519  1
  Al  Al21  1  0.000555  0.666481  0.666481  1
  Si  Si22  1  0.500000  0.500000  0.500000  1
  Pt  Pt23  1  0.500000  0.000000  0.000000  1
  Pt  Pt24  1  0.000000  0.500000  0.500000  1
  Pt  Pt25  1  0.000000  0.500000  0.000000  1
  Pt  Pt26  1  0.500000  0.000000  0.500000  1
  Pt  Pt27  1  0.000000  0.000000  0.500000  1
  Pt  Pt28  1  0.500000  0.500000  0.000000  1
  Pt  Pt29  1  0.000000  0.000000  0.000000  1
