# generated using pymatgen
data_Cs4HoOsCl12
_symmetry_space_group_name_H-M   'P 1'
_cell_length_a   12.89340963
_cell_length_b   12.89340894
_cell_length_c   12.89340800
_cell_angle_alpha   131.84035273
_cell_angle_beta   131.84035595
_cell_angle_gamma   70.48128705
_symmetry_Int_Tables_number   1
_chemical_formula_structural   Cs4HoOsCl12
_chemical_formula_sum   'Cs8 Ho2 Os2 Cl24'
_cell_volume   1165.69322498
_cell_formula_units_Z   2
loop_
 _symmetry_equiv_pos_site_id
 _symmetry_equiv_pos_as_xyz
  1  'x, y, z'
loop_
 _atom_site_type_symbol
 _atom_site_label
 _atom_site_symmetry_multiplicity
 _atom_site_fract_x
 _atom_site_fract_y
 _atom_site_fract_z
 _atom_site_occupancy
  Cs  Cs0  1  0.374998  0.848931  0.973927  1
  Cs  Cs1  1  0.598926  0.624993  0.473931  1
  Cs  Cs2  1  0.874989  0.848929  0.473928  1
  Cs  Cs3  1  0.598938  0.124989  0.973939  1
  Cs  Cs4  1  0.875006  0.401072  0.026067  1
  Cs  Cs5  1  0.151060  0.125010  0.526061  1
  Cs  Cs6  1  0.375012  0.401073  0.526080  1
  Cs  Cs7  1  0.151072  0.625009  0.026073  1
  Ho  Ho8  1  0.499995  0.499999  0.999994  1
  Ho  Ho9  1  0.250007  0.750015  0.500020  1
  Os  Os10  1  0.999998  0.999996  0.000000  1
  Os  Os11  1  0.749998  0.250001  0.499999  1
  Cl  Cl12  1  0.745572  0.495333  0.250319  1
  Cl  Cl13  1  0.504675  0.254394  0.749648  1
  Cl  Cl14  1  0.375075  0.375057  0.999881  1
  Cl  Cl15  1  0.125079  0.625068  0.499894  1
  Cl  Cl16  1  0.374937  0.874940  0.500122  1
  Cl  Cl17  1  0.624917  0.624923  0.000098  1
  Cl  Cl18  1  0.110438  0.110450  0.000150  1
  Cl  Cl19  1  0.860449  0.360445  0.500155  1
  Cl  Cl20  1  0.639565  0.139549  0.499851  1
  Cl  Cl21  1  0.889550  0.889552  0.999838  1
  Cl  Cl22  1  0.222080  0.000977  0.221227  1
  Cl  Cl23  1  0.750785  0.029650  0.278757  1
  Cl  Cl24  1  0.504803  0.755107  0.250384  1
  Cl  Cl25  1  0.527913  0.249022  0.278766  1
  Cl  Cl26  1  0.970329  0.249211  0.721229  1
  Cl  Cl27  1  0.999212  0.220351  0.221242  1
  Cl  Cl28  1  0.999035  0.777895  0.778761  1
  Cl  Cl29  1  0.779672  0.000793  0.778777  1
  Cl  Cl30  1  0.750959  0.472106  0.721237  1
  Cl  Cl31  1  0.245186  0.494871  0.249591  1
  Cl  Cl32  1  0.245336  0.995618  0.750369  1
  Cl  Cl33  1  0.004417  0.754666  0.249668  1
  Cl  Cl34  1  0.505069  0.754825  0.750359  1
  Cl  Cl35  1  0.244946  0.495182  0.749659  1
