# generated using pymatgen
data_La4Ho5TmPt8
_symmetry_space_group_name_H-M   'P 1'
_cell_length_a   7.67564900
_cell_length_b   7.81887253
_cell_length_c   14.84907200
_cell_angle_alpha   90.02110430
_cell_angle_beta   90.00000000
_cell_angle_gamma   90.00000000
_symmetry_Int_Tables_number   1
_chemical_formula_structural   La4Ho5TmPt8
_chemical_formula_sum   'La8 Ho10 Tm2 Pt16'
_cell_volume   891.16582432
_cell_formula_units_Z   2
loop_
 _symmetry_equiv_pos_site_id
 _symmetry_equiv_pos_as_xyz
  1  'x, y, z'
loop_
 _atom_site_type_symbol
 _atom_site_label
 _atom_site_symmetry_multiplicity
 _atom_site_fract_x
 _atom_site_fract_y
 _atom_site_fract_z
 _atom_site_occupancy
  La  La0  1  0.496632  0.324453  0.901818  1
  La  La1  1  0.996632  0.175547  0.598182  1
  La  La2  1  0.503312  0.675694  0.402147  1
  La  La3  1  0.003312  0.824306  0.097853  1
  La  La4  1  0.502849  0.676069  0.097796  1
  La  La5  1  0.002849  0.823931  0.402204  1
  La  La6  1  0.497458  0.323454  0.598002  1
  La  La7  1  0.997458  0.176546  0.901998  1
  Ho  Ho8  1  0.661653  0.168237  0.377369  1
  Ho  Ho9  1  0.161653  0.331763  0.122631  1
  Ho  Ho10  1  0.660622  0.167541  0.122414  1
  Ho  Ho11  1  0.160622  0.332459  0.377586  1
  Ho  Ho12  1  0.339219  0.831647  0.622902  1
  Ho  Ho13  1  0.839219  0.668353  0.877098  1
  Ho  Ho14  1  0.175090  0.495523  0.749833  1
  Ho  Ho15  1  0.675090  0.004477  0.750167  1
  Ho  Ho16  1  0.825462  0.504593  0.249904  1
  Ho  Ho17  1  0.325462  0.995407  0.250096  1
  Tm  Tm18  1  0.338790  0.832196  0.876127  1
  Tm  Tm19  1  0.838790  0.667804  0.623873  1
  Pt  Pt20  1  0.323968  0.035517  0.043292  1
  Pt  Pt21  1  0.823968  0.464483  0.456708  1
  Pt  Pt22  1  0.675871  0.961786  0.544865  1
  Pt  Pt23  1  0.175871  0.538214  0.955135  1
  Pt  Pt24  1  0.671743  0.964498  0.954074  1
  Pt  Pt25  1  0.171743  0.535502  0.545926  1
  Pt  Pt26  1  0.327281  0.036007  0.455172  1
  Pt  Pt27  1  0.827281  0.463993  0.044828  1
  Pt  Pt28  1  0.542471  0.631753  0.750149  1
  Pt  Pt29  1  0.042471  0.868247  0.749851  1
  Pt  Pt30  1  0.458001  0.369346  0.249815  1
  Pt  Pt31  1  0.958001  0.130654  0.250185  1
  Pt  Pt32  1  0.306796  0.134201  0.750815  1
  Pt  Pt33  1  0.806796  0.365799  0.749185  1
  Pt  Pt34  1  0.692780  0.864318  0.249836  1
  Pt  Pt35  1  0.192780  0.635682  0.250164  1
