# generated using pymatgen
data_DyTaCo4P3
_symmetry_space_group_name_H-M   'P 1'
_cell_length_a   3.69501000
_cell_length_b   10.54498300
_cell_length_c   12.00966300
_cell_angle_alpha   90.00000000
_cell_angle_beta   90.00000000
_cell_angle_gamma   90.00000000
_symmetry_Int_Tables_number   1
_chemical_formula_structural   DyTaCo4P3
_chemical_formula_sum   'Dy4 Ta4 Co16 P12'
_cell_volume   467.94231899
_cell_formula_units_Z   4
loop_
 _symmetry_equiv_pos_site_id
 _symmetry_equiv_pos_as_xyz
  1  'x, y, z'
loop_
 _atom_site_type_symbol
 _atom_site_label
 _atom_site_symmetry_multiplicity
 _atom_site_fract_x
 _atom_site_fract_y
 _atom_site_fract_z
 _atom_site_occupancy
  Dy  Dy0  1  0.250000  0.582241  0.705546  1
  Dy  Dy1  1  0.250000  0.917759  0.205546  1
  Dy  Dy2  1  0.750000  0.417759  0.294454  1
  Dy  Dy3  1  0.750000  0.082241  0.794454  1
  Ta  Ta4  1  0.250000  0.706618  0.988883  1
  Ta  Ta5  1  0.250000  0.793382  0.488883  1
  Ta  Ta6  1  0.750000  0.293382  0.011117  1
  Ta  Ta7  1  0.750000  0.206618  0.511117  1
  Co  Co8  1  0.250000  0.406473  0.489505  1
  Co  Co9  1  0.250000  0.093527  0.989505  1
  Co  Co10  1  0.750000  0.593527  0.510495  1
  Co  Co11  1  0.750000  0.906473  0.010495  1
  Co  Co12  1  0.250000  0.222283  0.177170  1
  Co  Co13  1  0.250000  0.277717  0.677170  1
  Co  Co14  1  0.750000  0.777717  0.822830  1
  Co  Co15  1  0.750000  0.722283  0.322830  1
  Co  Co16  1  0.250000  0.887639  0.700525  1
  Co  Co17  1  0.250000  0.612361  0.200525  1
  Co  Co18  1  0.750000  0.112361  0.299475  1
  Co  Co19  1  0.750000  0.387639  0.799475  1
  Co  Co20  1  0.250000  0.465061  0.933249  1
  Co  Co21  1  0.250000  0.034939  0.433249  1
  Co  Co22  1  0.750000  0.534939  0.066751  1
  Co  Co23  1  0.750000  0.965061  0.566751  1
  P  P24  1  0.250000  0.422077  0.116335  1
  P  P25  1  0.250000  0.077923  0.616335  1
  P  P26  1  0.750000  0.577923  0.883665  1
  P  P27  1  0.750000  0.922077  0.383665  1
  P  P28  1  0.250000  0.268918  0.861884  1
  P  P29  1  0.250000  0.231082  0.361884  1
  P  P30  1  0.750000  0.731082  0.138116  1
  P  P31  1  0.750000  0.768918  0.638116  1
  P  P32  1  0.250000  0.591609  0.389585  1
  P  P33  1  0.250000  0.908391  0.889585  1
  P  P34  1  0.750000  0.408391  0.610415  1
  P  P35  1  0.750000  0.091609  0.110415  1
