# generated using pymatgen
data_RbNaHfF6
_symmetry_space_group_name_H-M   'P 1'
_cell_length_a   6.48786600
_cell_length_b   8.40568000
_cell_length_c   11.84445400
_cell_angle_alpha   90.00000000
_cell_angle_beta   90.00000000
_cell_angle_gamma   90.00000000
_symmetry_Int_Tables_number   1
_chemical_formula_structural   RbNaHfF6
_chemical_formula_sum   'Rb4 Na4 Hf4 F24'
_cell_volume   645.93641623
_cell_formula_units_Z   4
loop_
 _symmetry_equiv_pos_site_id
 _symmetry_equiv_pos_as_xyz
  1  'x, y, z'
loop_
 _atom_site_type_symbol
 _atom_site_label
 _atom_site_symmetry_multiplicity
 _atom_site_fract_x
 _atom_site_fract_y
 _atom_site_fract_z
 _atom_site_occupancy
  Rb  Rb0  1  0.034578  0.752351  0.464819  1
  Rb  Rb1  1  0.534578  0.252351  0.035181  1
  Rb  Rb2  1  0.465422  0.752351  0.964819  1
  Rb  Rb3  1  0.965422  0.252351  0.535181  1
  Na  Na4  1  0.448905  0.500976  0.647689  1
  Na  Na5  1  0.551095  0.000976  0.352311  1
  Na  Na6  1  0.948905  0.000976  0.852311  1
  Na  Na7  1  0.051095  0.500976  0.147689  1
  Hf  Hf8  1  0.455241  0.000905  0.642425  1
  Hf  Hf9  1  0.044759  0.000905  0.142425  1
  Hf  Hf10  1  0.544759  0.500905  0.357575  1
  Hf  Hf11  1  0.955241  0.500905  0.857575  1
  F  F12  1  0.620600  0.269859  0.364422  1
  F  F13  1  0.185064  0.053084  0.715472  1
  F  F14  1  0.791176  0.967282  0.044786  1
  F  F15  1  0.470180  0.732706  0.355622  1
  F  F16  1  0.379400  0.769859  0.635578  1
  F  F17  1  0.529820  0.232706  0.644378  1
  F  F18  1  0.108259  0.464742  0.712436  1
  F  F19  1  0.291176  0.467282  0.455214  1
  F  F20  1  0.700664  0.528195  0.505349  1
  F  F21  1  0.685064  0.553084  0.784528  1
  F  F22  1  0.391741  0.464742  0.212436  1
  F  F23  1  0.891741  0.964742  0.287564  1
  F  F24  1  0.208824  0.467282  0.955214  1
  F  F25  1  0.708824  0.967282  0.544786  1
  F  F26  1  0.200664  0.028195  0.994651  1
  F  F27  1  0.970180  0.232706  0.144378  1
  F  F28  1  0.799336  0.528195  0.005349  1
  F  F29  1  0.814936  0.553084  0.284528  1
  F  F30  1  0.029820  0.732706  0.855622  1
  F  F31  1  0.314936  0.053084  0.215472  1
  F  F32  1  0.299336  0.028195  0.494651  1
  F  F33  1  0.879400  0.269859  0.864422  1
  F  F34  1  0.608259  0.964742  0.787564  1
  F  F35  1  0.120600  0.769859  0.135578  1
