# generated using pymatgen
data_La20Ir7Ru5
_symmetry_space_group_name_H-M   'P 1'
_cell_length_a   11.37748988
_cell_length_b   11.37748988
_cell_length_c   6.68540417
_cell_angle_alpha   89.98179702
_cell_angle_beta   89.98179702
_cell_angle_gamma   89.93660678
_symmetry_Int_Tables_number   1
_chemical_formula_structural   La20Ir7Ru5
_chemical_formula_sum   'La20 Ir7 Ru5'
_cell_volume   865.40674209
_cell_formula_units_Z   1
loop_
 _symmetry_equiv_pos_site_id
 _symmetry_equiv_pos_as_xyz
  1  'x, y, z'
loop_
 _atom_site_type_symbol
 _atom_site_label
 _atom_site_symmetry_multiplicity
 _atom_site_fract_x
 _atom_site_fract_y
 _atom_site_fract_z
 _atom_site_occupancy
  La  La0  1  0.294861  0.089781  0.387127  1
  La  La1  1  0.293735  0.910349  0.887136  1
  La  La2  1  0.706663  0.090295  0.888671  1
  La  La3  1  0.705587  0.910871  0.386727  1
  La  La4  1  0.589621  0.794869  0.886975  1
  La  La5  1  0.590908  0.205299  0.386805  1
  La  La6  1  0.410256  0.794589  0.386929  1
  La  La7  1  0.410524  0.205032  0.886495  1
  La  La8  1  0.205131  0.410379  0.613025  1
  La  La9  1  0.205411  0.589744  0.113071  1
  La  La10  1  0.794701  0.409092  0.113195  1
  La  La11  1  0.794968  0.589476  0.613505  1
  La  La12  1  0.910219  0.705139  0.112873  1
  La  La13  1  0.909705  0.293337  0.611329  1
  La  La14  1  0.089651  0.706265  0.612864  1
  La  La15  1  0.089129  0.294413  0.113273  1
  La  La16  1  0.998852  0.001911  0.498912  1
  La  La17  1  0.998089  0.001148  0.001088  1
  La  La18  1  0.499948  0.499687  0.000270  1
  La  La19  1  0.500313  0.500052  0.499730  1
  Ir  Ir20  1  0.847135  0.846838  0.749933  1
  Ir  Ir21  1  0.153162  0.152865  0.750067  1
  Ir  Ir22  1  0.152525  0.847475  0.250000  1
  Ir  Ir23  1  0.651561  0.348439  0.750000  1
  Ir  Ir24  1  0.652577  0.652542  0.250099  1
  Ir  Ir25  1  0.347458  0.347423  0.249901  1
  Ir  Ir26  1  0.347740  0.652260  0.750000  1
  Ru  Ru27  1  0.849841  0.150159  0.250000  1
  Ru  Ru28  1  0.500010  0.999929  0.115323  1
  Ru  Ru29  1  0.499786  0.000139  0.616151  1
  Ru  Ru30  1  0.999861  0.500214  0.883849  1
  Ru  Ru31  1  0.000071  0.499990  0.384677  1
