# generated using pymatgen
data_Tb2Er6Ti11Si16Mo
_symmetry_space_group_name_H-M   'P 1'
_cell_length_a   7.01745929
_cell_length_b   7.01822394
_cell_length_c   12.89316894
_cell_angle_alpha   89.95254554
_cell_angle_beta   89.99346973
_cell_angle_gamma   89.98222872
_symmetry_Int_Tables_number   1
_chemical_formula_structural   Tb2Er6Ti11Si16Mo
_chemical_formula_sum   'Tb2 Er6 Ti11 Si16 Mo1'
_cell_volume   634.98961728
_cell_formula_units_Z   1
loop_
 _symmetry_equiv_pos_site_id
 _symmetry_equiv_pos_as_xyz
  1  'x, y, z'
loop_
 _atom_site_type_symbol
 _atom_site_label
 _atom_site_symmetry_multiplicity
 _atom_site_fract_x
 _atom_site_fract_y
 _atom_site_fract_z
 _atom_site_occupancy
  Tb  Tb0  1  0.340139  0.003889  0.466887  1
  Tb  Tb1  1  0.496815  0.839550  0.717822  1
  Er  Er2  1  0.500368  0.159176  0.215060  1
  Er  Er3  1  0.840433  0.497823  0.282131  1
  Er  Er4  1  0.159012  0.500146  0.784942  1
  Er  Er5  1  0.657741  0.999315  0.967398  1
  Er  Er6  1  0.002499  0.341015  0.532924  1
  Er  Er7  1  0.999218  0.657482  0.032926  1
  Ti  Ti8  1  0.173839  0.827327  0.249270  1
  Ti  Ti9  1  0.827790  0.174325  0.750706  1
  Ti  Ti10  1  0.673353  0.672500  0.499788  1
  Ti  Ti11  1  0.152957  0.009133  0.876595  1
  Ti  Ti12  1  0.492108  0.651026  0.124078  1
  Ti  Ti13  1  0.507617  0.348796  0.626199  1
  Ti  Ti14  1  0.651531  0.492186  0.876197  1
  Ti  Ti15  1  0.349081  0.507010  0.373575  1
  Ti  Ti16  1  0.848351  0.992535  0.375122  1
  Ti  Ti17  1  0.008517  0.153186  0.123700  1
  Ti  Ti18  1  0.992536  0.848165  0.624677  1
  Si  Si19  1  0.201490  0.132068  0.684599  1
  Si  Si20  1  0.369368  0.701555  0.934171  1
  Si  Si21  1  0.632133  0.297869  0.433551  1
  Si  Si22  1  0.702073  0.369435  0.066390  1
  Si  Si23  1  0.295782  0.628866  0.565837  1
  Si  Si24  1  0.797520  0.869127  0.183558  1
  Si  Si25  1  0.130030  0.203506  0.315157  1
  Si  Si26  1  0.870455  0.797003  0.816810  1
  Si  Si27  1  0.290516  0.953374  0.064662  1
  Si  Si28  1  0.546860  0.791466  0.314079  1
  Si  Si29  1  0.452437  0.209451  0.815815  1
  Si  Si30  1  0.792871  0.545382  0.685439  1
  Si  Si31  1  0.208051  0.452945  0.184579  1
  Si  Si32  1  0.710495  0.048376  0.564780  1
  Si  Si33  1  0.953365  0.290769  0.935524  1
  Si  Si34  1  0.046291  0.707674  0.434845  1
  Mo  Mo35  1  0.326361  0.326552  0.000209  1
