# generated using pymatgen
data_Lu3Cr(Co4P3)2
_symmetry_space_group_name_H-M   'P 1'
_cell_length_a   3.65192900
_cell_length_b   10.44837700
_cell_length_c   12.07185300
_cell_angle_alpha   90.00000000
_cell_angle_beta   90.00000000
_cell_angle_gamma   90.00000000
_symmetry_Int_Tables_number   1
_chemical_formula_structural   Lu3Cr(Co4P3)2
_chemical_formula_sum   'Lu6 Cr2 Co16 P12'
_cell_volume   460.62244722
_cell_formula_units_Z   2
loop_
 _symmetry_equiv_pos_site_id
 _symmetry_equiv_pos_as_xyz
  1  'x, y, z'
loop_
 _atom_site_type_symbol
 _atom_site_label
 _atom_site_symmetry_multiplicity
 _atom_site_fract_x
 _atom_site_fract_y
 _atom_site_fract_z
 _atom_site_occupancy
  Lu  Lu0  1  0.000000  0.500000  0.523318  1
  Lu  Lu1  1  0.500000  0.000000  0.476682  1
  Lu  Lu2  1  0.500000  0.818294  0.204608  1
  Lu  Lu3  1  0.500000  0.181706  0.204608  1
  Lu  Lu4  1  0.000000  0.681706  0.795392  1
  Lu  Lu5  1  0.000000  0.318294  0.795392  1
  Cr  Cr6  1  0.500000  0.500000  0.156618  1
  Cr  Cr7  1  0.000000  0.000000  0.843382  1
  Co  Co8  1  0.500000  0.500000  0.701073  1
  Co  Co9  1  0.000000  0.000000  0.298927  1
  Co  Co10  1  0.000000  0.500000  0.986555  1
  Co  Co11  1  0.500000  0.000000  0.013445  1
  Co  Co12  1  0.500000  0.332340  0.991343  1
  Co  Co13  1  0.500000  0.667660  0.991343  1
  Co  Co14  1  0.000000  0.167660  0.008657  1
  Co  Co15  1  0.000000  0.832340  0.008657  1
  Co  Co16  1  0.500000  0.296686  0.430925  1
  Co  Co17  1  0.500000  0.703314  0.430925  1
  Co  Co18  1  0.000000  0.203314  0.569075  1
  Co  Co19  1  0.000000  0.796686  0.569075  1
  Co  Co20  1  0.500000  0.878095  0.707866  1
  Co  Co21  1  0.500000  0.121905  0.707866  1
  Co  Co22  1  0.000000  0.621905  0.292134  1
  Co  Co23  1  0.000000  0.378095  0.292134  1
  P  P24  1  0.500000  0.500000  0.880063  1
  P  P25  1  0.000000  0.000000  0.119937  1
  P  P26  1  0.500000  0.500000  0.345813  1
  P  P27  1  0.000000  0.000000  0.654187  1
  P  P28  1  0.500000  0.313025  0.616792  1
  P  P29  1  0.500000  0.686975  0.616792  1
  P  P30  1  0.000000  0.186975  0.383208  1
  P  P31  1  0.000000  0.813025  0.383208  1
  P  P32  1  0.500000  0.847355  0.890844  1
  P  P33  1  0.500000  0.152645  0.890844  1
  P  P34  1  0.000000  0.652645  0.109156  1
  P  P35  1  0.000000  0.347355  0.109156  1
