# generated using pymatgen
data_Dy16MgHg3Rh4
_symmetry_space_group_name_H-M   'P 1'
_cell_length_a   9.59130598
_cell_length_b   9.60293037
_cell_length_c   9.60293100
_cell_angle_alpha   60.00000126
_cell_angle_beta   59.95990148
_cell_angle_gamma   59.95990297
_symmetry_Int_Tables_number   1
_chemical_formula_structural   Dy16MgHg3Rh4
_chemical_formula_sum   'Dy16 Mg1 Hg3 Rh4'
_cell_volume   625.03862819
_cell_formula_units_Z   1
loop_
 _symmetry_equiv_pos_site_id
 _symmetry_equiv_pos_as_xyz
  1  'x, y, z'
loop_
 _atom_site_type_symbol
 _atom_site_label
 _atom_site_symmetry_multiplicity
 _atom_site_fract_x
 _atom_site_fract_y
 _atom_site_fract_z
 _atom_site_occupancy
  Dy  Dy0  1  0.066253  0.435263  0.435263  1
  Dy  Dy1  1  0.648467  0.049233  0.651151  1
  Dy  Dy2  1  0.814262  0.812391  0.186674  1
  Dy  Dy3  1  0.436459  0.063977  0.063977  1
  Dy  Dy4  1  0.436459  0.435588  0.063977  1
  Dy  Dy5  1  0.189562  0.189289  0.810574  1
  Dy  Dy6  1  0.814262  0.186674  0.186674  1
  Dy  Dy7  1  0.066253  0.435263  0.063222  1
  Dy  Dy8  1  0.436459  0.063977  0.435588  1
  Dy  Dy9  1  0.058810  0.647064  0.647064  1
  Dy  Dy10  1  0.189562  0.810574  0.810574  1
  Dy  Dy11  1  0.648467  0.651151  0.049233  1
  Dy  Dy12  1  0.189562  0.810574  0.189289  1
  Dy  Dy13  1  0.066253  0.063222  0.435263  1
  Dy  Dy14  1  0.814262  0.186674  0.812391  1
  Dy  Dy15  1  0.648467  0.651151  0.651151  1
  Mg  Mg16  1  0.716449  0.427850  0.427850  1
  Hg  Hg17  1  0.418546  0.413879  0.753696  1
  Hg  Hg18  1  0.418546  0.413879  0.413879  1
  Hg  Hg19  1  0.418546  0.753696  0.413879  1
  Rh  Rh20  1  0.858902  0.429365  0.855866  1
  Rh  Rh21  1  0.427388  0.857537  0.857537  1
  Rh  Rh22  1  0.858902  0.855866  0.429365  1
  Rh  Rh23  1  0.858902  0.855866  0.855866  1
