# generated using pymatgen
data_Mo(OsO4)3
_symmetry_space_group_name_H-M   'P 1'
_cell_length_a   5.33802111
_cell_length_b   5.34042790
_cell_length_c   7.56498142
_cell_angle_alpha   89.81820652
_cell_angle_beta   89.97678006
_cell_angle_gamma   90.00226739
_symmetry_Int_Tables_number   1
_chemical_formula_structural   Mo(OsO4)3
_chemical_formula_sum   'Mo1 Os3 O12'
_cell_volume   215.65621920
_cell_formula_units_Z   1
loop_
 _symmetry_equiv_pos_site_id
 _symmetry_equiv_pos_as_xyz
  1  'x, y, z'
loop_
 _atom_site_type_symbol
 _atom_site_label
 _atom_site_symmetry_multiplicity
 _atom_site_fract_x
 _atom_site_fract_y
 _atom_site_fract_z
 _atom_site_occupancy
  Mo  Mo0  1  0.500000  0.000000  0.500000  1
  Os  Os1  1  0.500000  0.000000  0.000000  1
  Os  Os2  1  0.000000  0.500000  0.000000  1
  Os  Os3  1  0.000000  0.500000  0.500000  1
  O  O4  1  0.719336  0.285170  0.488815  1
  O  O5  1  0.214575  0.219437  0.510659  1
  O  O6  1  0.753253  0.755119  0.010789  1
  O  O7  1  0.255287  0.747046  0.988903  1
  O  O8  1  0.280664  0.714830  0.511185  1
  O  O9  1  0.785425  0.780563  0.489341  1
  O  O10  1  0.246747  0.244881  0.989211  1
  O  O11  1  0.744713  0.252954  0.011097  1
  O  O12  1  0.020744  0.499706  0.252313  1
  O  O13  1  0.522749  0.000834  0.751245  1
  O  O14  1  0.477251  0.999166  0.248755  1
  O  O15  1  0.979256  0.500294  0.747687  1
