# generated using pymatgen
data_SrMnP3N5O2
_symmetry_space_group_name_H-M   'P 1'
_cell_length_a   6.69465100
_cell_length_b   7.11209169
_cell_length_c   14.34911042
_cell_angle_alpha   60.68146495
_cell_angle_beta   90.00000000
_cell_angle_gamma   90.00000000
_symmetry_Int_Tables_number   1
_chemical_formula_structural   SrMnP3N5O2
_chemical_formula_sum   'Sr4 Mn4 P12 N20 O8'
_cell_volume   595.69283953
_cell_formula_units_Z   4
loop_
 _symmetry_equiv_pos_site_id
 _symmetry_equiv_pos_as_xyz
  1  'x, y, z'
loop_
 _atom_site_type_symbol
 _atom_site_label
 _atom_site_symmetry_multiplicity
 _atom_site_fract_x
 _atom_site_fract_y
 _atom_site_fract_z
 _atom_site_occupancy
  Sr  Sr0  1  0.745072  0.515094  0.612293  1
  Sr  Sr1  1  0.245072  0.484906  0.887707  1
  Sr  Sr2  1  0.254928  0.484906  0.387707  1
  Sr  Sr3  1  0.754928  0.515094  0.112293  1
  Mn  Mn4  1  0.503452  0.979768  0.882018  1
  Mn  Mn5  1  0.003452  0.020232  0.617982  1
  Mn  Mn6  1  0.496548  0.020232  0.117982  1
  Mn  Mn7  1  0.996548  0.979768  0.382018  1
  P  P8  1  0.013903  0.940275  0.880449  1
  P  P9  1  0.513903  0.059725  0.619551  1
  P  P10  1  0.986097  0.059725  0.119551  1
  P  P11  1  0.486097  0.940275  0.380449  1
  P  P12  1  0.279245  0.738495  0.589215  1
  P  P13  1  0.779245  0.261505  0.910785  1
  P  P14  1  0.720755  0.261505  0.410785  1
  P  P15  1  0.220755  0.738495  0.089215  1
  P  P16  1  0.759096  0.721703  0.792549  1
  P  P17  1  0.259096  0.278297  0.707451  1
  P  P18  1  0.240904  0.278297  0.207451  1
  P  P19  1  0.740904  0.721703  0.292549  1
  N  N20  1  0.310825  0.937647  0.614519  1
  N  N21  1  0.810825  0.062353  0.885481  1
  N  N22  1  0.689175  0.062353  0.385481  1
  N  N23  1  0.189175  0.937647  0.114519  1
  N  N24  1  0.700900  0.888553  0.666158  1
  N  N25  1  0.200900  0.111447  0.833842  1
  N  N26  1  0.299100  0.111447  0.333842  1
  N  N27  1  0.799100  0.888553  0.166158  1
  N  N28  1  0.970759  0.822582  0.808485  1
  N  N29  1  0.470759  0.177418  0.691515  1
  N  N30  1  0.029241  0.177418  0.191515  1
  N  N31  1  0.529241  0.822582  0.308485  1
  N  N32  1  0.809722  0.489622  0.800355  1
  N  N33  1  0.309722  0.510378  0.699645  1
  N  N34  1  0.190278  0.510378  0.199645  1
  N  N35  1  0.690278  0.489622  0.300355  1
  N  N36  1  0.575550  0.261226  0.501988  1
  N  N37  1  0.075550  0.738774  0.998012  1
  N  N38  1  0.424450  0.738774  0.498012  1
  N  N39  1  0.924450  0.261226  0.001988  1
  O  O40  1  0.053860  0.768580  0.552836  1
  O  O41  1  0.553860  0.231420  0.947164  1
  O  O42  1  0.946140  0.231420  0.447164  1
  O  O43  1  0.446140  0.768580  0.052836  1
  O  O44  1  0.589608  0.699987  0.872047  1
  O  O45  1  0.089608  0.300013  0.627953  1
  O  O46  1  0.410392  0.300013  0.127953  1
  O  O47  1  0.910392  0.699987  0.372047  1
