# generated using pymatgen
data_YEr11InCo4Cu
_symmetry_space_group_name_H-M   'P 1'
_cell_length_a   8.25314795
_cell_length_b   8.25314776
_cell_length_c   8.22482860
_cell_angle_alpha   111.06833386
_cell_angle_beta   110.70960814
_cell_angle_gamma   106.81809076
_symmetry_Int_Tables_number   1
_chemical_formula_structural   YEr11InCo4Cu
_chemical_formula_sum   'Y1 Er11 In1 Co4 Cu1'
_cell_volume   429.75173279
_cell_formula_units_Z   1
loop_
 _symmetry_equiv_pos_site_id
 _symmetry_equiv_pos_as_xyz
  1  'x, y, z'
loop_
 _atom_site_type_symbol
 _atom_site_label
 _atom_site_symmetry_multiplicity
 _atom_site_fract_x
 _atom_site_fract_y
 _atom_site_fract_z
 _atom_site_occupancy
  Y  Y0  1  0.187010  0.290316  0.477325  1
  Er  Er1  1  0.813624  0.709253  0.522878  1
  Er  Er2  1  0.185619  0.708930  0.894549  1
  Er  Er3  1  0.813339  0.291804  0.105143  1
  Er  Er4  1  0.315768  0.620709  0.304492  1
  Er  Er5  1  0.685538  0.379952  0.695744  1
  Er  Er6  1  0.315793  0.010206  0.695744  1
  Er  Er7  1  0.683782  0.988724  0.304492  1
  Er  Er8  1  0.419044  0.217905  0.199833  1
  Er  Er9  1  0.585513  0.784906  0.801916  1
  Er  Er10  1  0.017010  0.216401  0.801916  1
  Er  Er11  1  0.981928  0.780790  0.199833  1
  In  In12  1  0.499646  0.499564  0.999210  1
  Co  Co13  1  0.110111  0.614103  0.498315  1
  Co  Co14  1  0.884212  0.388203  0.498315  1
  Co  Co15  1  0.376868  0.999337  0.376205  1
  Co  Co16  1  0.622629  0.999792  0.622421  1
  Cu  Cu17  1  0.002566  0.999105  0.001670  1
