# generated using pymatgen
data_PrTh7RhS17
_symmetry_space_group_name_H-M   'P 1'
_cell_length_a   8.04938683
_cell_length_b   8.03443959
_cell_length_c   10.66562500
_cell_angle_alpha   80.60736977
_cell_angle_beta   80.58898157
_cell_angle_gamma   65.05615224
_symmetry_Int_Tables_number   1
_chemical_formula_structural   PrTh7RhS17
_chemical_formula_sum   'Pr1 Th7 Rh1 S17'
_cell_volume   613.57835398
_cell_formula_units_Z   1
loop_
 _symmetry_equiv_pos_site_id
 _symmetry_equiv_pos_as_xyz
  1  'x, y, z'
loop_
 _atom_site_type_symbol
 _atom_site_label
 _atom_site_symmetry_multiplicity
 _atom_site_fract_x
 _atom_site_fract_y
 _atom_site_fract_z
 _atom_site_occupancy
  Pr  Pr0  1  0.812051  0.303476  0.296972  1
  Th  Th1  1  0.300283  0.814293  0.293372  1
  Th  Th2  1  0.186037  0.698577  0.704483  1
  Th  Th3  1  0.698992  0.186904  0.704448  1
  Th  Th4  1  0.205833  0.205071  0.544725  1
  Th  Th5  1  0.793894  0.794903  0.452298  1
  Th  Th6  1  0.681267  0.677693  0.978125  1
  Th  Th7  1  0.318378  0.319506  0.024771  1
  Rh  Rh8  1  0.001624  0.999275  0.999227  1
  S  S9  1  0.825188  0.431613  0.536174  1
  S  S10  1  0.430662  0.821117  0.531637  1
  S  S11  1  0.176622  0.569102  0.468843  1
  S  S12  1  0.569495  0.172621  0.473475  1
  S  S13  1  0.949373  0.316522  0.021955  1
  S  S14  1  0.317125  0.949168  0.023024  1
  S  S15  1  0.051717  0.682876  0.974202  1
  S  S16  1  0.683376  0.052962  0.974279  1
  S  S17  1  0.216733  0.203930  0.279497  1
  S  S18  1  0.791480  0.790971  0.721626  1
  S  S19  1  0.056054  0.055121  0.775990  1
  S  S20  1  0.946891  0.940834  0.223675  1
  S  S21  1  0.304350  0.304350  0.756529  1
  S  S22  1  0.688991  0.705094  0.241839  1
  S  S23  1  0.519356  0.521645  0.832166  1
  S  S24  1  0.472758  0.485934  0.162839  1
  S  S25  1  0.001468  0.996439  0.503830  1
