# generated using pymatgen
data_SrHoNp2F12
_symmetry_space_group_name_H-M   'P 1'
_cell_length_a   4.68751895
_cell_length_b   6.59764947
_cell_length_c   7.15995400
_cell_angle_alpha   90.00000000
_cell_angle_beta   90.00000000
_cell_angle_gamma   89.49876906
_symmetry_Int_Tables_number   1
_chemical_formula_structural   SrHoNp2F12
_chemical_formula_sum   'Sr1 Ho1 Np2 F12'
_cell_volume   221.42460989
_cell_formula_units_Z   1
loop_
 _symmetry_equiv_pos_site_id
 _symmetry_equiv_pos_as_xyz
  1  'x, y, z'
loop_
 _atom_site_type_symbol
 _atom_site_label
 _atom_site_symmetry_multiplicity
 _atom_site_fract_x
 _atom_site_fract_y
 _atom_site_fract_z
 _atom_site_occupancy
  Sr  Sr0  1  0.548753  0.132641  0.750000  1
  Ho  Ho1  1  0.460249  0.862879  0.250000  1
  Np  Np2  1  0.950516  0.641174  0.750000  1
  Np  Np3  1  0.054809  0.363475  0.250000  1
  F  F4  1  0.885808  0.350964  0.940951  1
  F  F5  1  0.076809  0.963925  0.750000  1
  F  F6  1  0.632858  0.819173  0.547949  1
  F  F7  1  0.876801  0.033298  0.250000  1
  F  F8  1  0.401105  0.499203  0.750000  1
  F  F9  1  0.358871  0.148048  0.424016  1
  F  F10  1  0.137962  0.670709  0.428249  1
  F  F11  1  0.632858  0.819173  0.952051  1
  F  F12  1  0.358871  0.148048  0.075984  1
  F  F13  1  0.599961  0.525617  0.250000  1
  F  F14  1  0.137962  0.670709  0.071751  1
  F  F15  1  0.885808  0.350964  0.559049  1
