# generated using pymatgen
data_LiPdRhO4
_symmetry_space_group_name_H-M   'P 1'
_cell_length_a   6.11399089
_cell_length_b   6.11399001
_cell_length_c   6.11399099
_cell_angle_alpha   119.52074636
_cell_angle_beta   119.60141517
_cell_angle_gamma   90.76194132
_symmetry_Int_Tables_number   1
_chemical_formula_structural   LiPdRhO4
_chemical_formula_sum   'Li2 Pd2 Rh2 O8'
_cell_volume   162.66314848
_cell_formula_units_Z   2
loop_
 _symmetry_equiv_pos_site_id
 _symmetry_equiv_pos_as_xyz
  1  'x, y, z'
loop_
 _atom_site_type_symbol
 _atom_site_label
 _atom_site_symmetry_multiplicity
 _atom_site_fract_x
 _atom_site_fract_y
 _atom_site_fract_z
 _atom_site_occupancy
  Li  Li0  1  0.628415  0.378415  0.250000  1
  Li  Li1  1  0.371585  0.621585  0.750000  1
  Pd  Pd2  1  0.000000  0.000000  0.500000  1
  Pd  Pd3  1  0.000000  0.500000  0.000000  1
  Rh  Rh4  1  0.000000  0.000000  0.000000  1
  Rh  Rh5  1  0.500000  0.000000  0.500000  1
  O  O6  1  0.765662  0.239002  0.526662  1
  O  O7  1  0.212340  0.239002  0.973338  1
  O  O8  1  0.761946  0.234139  0.972194  1
  O  O9  1  0.761946  0.789752  0.527806  1
  O  O10  1  0.234338  0.760998  0.473338  1
  O  O11  1  0.787660  0.760998  0.026662  1
  O  O12  1  0.238054  0.765861  0.027806  1
  O  O13  1  0.238054  0.210248  0.472194  1
