# generated using pymatgen
data_Ru7W
_symmetry_space_group_name_H-M   'P 1'
_cell_length_a   5.48428200
_cell_length_b   5.48401134
_cell_length_c   4.35653200
_cell_angle_alpha   90.00000000
_cell_angle_beta   90.00000000
_cell_angle_gamma   120.00163264
_symmetry_Int_Tables_number   1
_chemical_formula_structural   Ru7W
_chemical_formula_sum   'Ru7 W1'
_cell_volume   113.47038207
_cell_formula_units_Z   1
loop_
 _symmetry_equiv_pos_site_id
 _symmetry_equiv_pos_as_xyz
  1  'x, y, z'
loop_
 _atom_site_type_symbol
 _atom_site_label
 _atom_site_symmetry_multiplicity
 _atom_site_fract_x
 _atom_site_fract_y
 _atom_site_fract_z
 _atom_site_occupancy
  Ru  Ru0  1  0.335709  0.671421  0.750000  1
  Ru  Ru1  1  0.669795  0.339587  0.250000  1
  Ru  Ru2  1  0.669834  0.830209  0.250000  1
  Ru  Ru3  1  0.160377  0.830209  0.250000  1
  Ru  Ru4  1  0.833404  0.666810  0.750000  1
  Ru  Ru5  1  0.335668  0.164265  0.750000  1
  Ru  Ru6  1  0.828598  0.164265  0.750000  1
  W  W7  1  0.166617  0.333233  0.250000  1
