# generated using pymatgen
data_MgUTcB6
_symmetry_space_group_name_H-M   'P 1'
_cell_length_a   3.60385000
_cell_length_b   8.89933000
_cell_length_c   11.24871700
_cell_angle_alpha   90.00000000
_cell_angle_beta   90.00000000
_cell_angle_gamma   90.00000000
_symmetry_Int_Tables_number   1
_chemical_formula_structural   MgUTcB6
_chemical_formula_sum   'Mg4 U4 Tc4 B24'
_cell_volume   360.76716905
_cell_formula_units_Z   4
loop_
 _symmetry_equiv_pos_site_id
 _symmetry_equiv_pos_as_xyz
  1  'x, y, z'
loop_
 _atom_site_type_symbol
 _atom_site_label
 _atom_site_symmetry_multiplicity
 _atom_site_fract_x
 _atom_site_fract_y
 _atom_site_fract_z
 _atom_site_occupancy
  Mg  Mg0  1  0.000000  0.946801  0.377387  1
  Mg  Mg1  1  0.000000  0.053199  0.622613  1
  Mg  Mg2  1  0.000000  0.446801  0.122613  1
  Mg  Mg3  1  0.000000  0.553199  0.877387  1
  U  U4  1  0.000000  0.321364  0.413369  1
  U  U5  1  0.000000  0.678636  0.586631  1
  U  U6  1  0.000000  0.821364  0.086631  1
  U  U7  1  0.000000  0.178636  0.913369  1
  Tc  Tc8  1  0.000000  0.640785  0.319803  1
  Tc  Tc9  1  0.000000  0.359215  0.680197  1
  Tc  Tc10  1  0.000000  0.140785  0.180197  1
  Tc  Tc11  1  0.000000  0.859215  0.819803  1
  B  B12  1  0.500000  0.554031  0.434049  1
  B  B13  1  0.500000  0.445969  0.565951  1
  B  B14  1  0.500000  0.054031  0.065951  1
  B  B15  1  0.500000  0.945969  0.934049  1
  B  B16  1  0.500000  0.753953  0.420158  1
  B  B17  1  0.500000  0.246047  0.579842  1
  B  B18  1  0.500000  0.253953  0.079842  1
  B  B19  1  0.500000  0.746047  0.920158  1
  B  B20  1  0.500000  0.793847  0.262860  1
  B  B21  1  0.500000  0.206153  0.737140  1
  B  B22  1  0.500000  0.293847  0.237140  1
  B  B23  1  0.500000  0.706153  0.762860  1
  B  B24  1  0.500000  0.629658  0.181805  1
  B  B25  1  0.500000  0.370342  0.818195  1
  B  B26  1  0.500000  0.129658  0.318195  1
  B  B27  1  0.500000  0.870342  0.681805  1
  B  B28  1  0.500000  0.980654  0.212480  1
  B  B29  1  0.500000  0.019346  0.787520  1
  B  B30  1  0.500000  0.480654  0.287520  1
  B  B31  1  0.500000  0.519346  0.712480  1
  B  B32  1  0.500000  0.600295  0.027800  1
  B  B33  1  0.500000  0.399705  0.972200  1
  B  B34  1  0.500000  0.100295  0.472200  1
  B  B35  1  0.500000  0.899705  0.527800  1
