# generated using pymatgen
data_La4LuCdSn2
_symmetry_space_group_name_H-M   'P 1'
_cell_length_a   9.51251795
_cell_length_b   9.51251715
_cell_length_c   9.51251748
_cell_angle_alpha   95.92189511
_cell_angle_beta   95.92189384
_cell_angle_gamma   142.52837557
_symmetry_Int_Tables_number   1
_chemical_formula_structural   La4LuCdSn2
_chemical_formula_sum   'La8 Lu2 Cd2 Sn4'
_cell_volume   495.91531182
_cell_formula_units_Z   2
loop_
 _symmetry_equiv_pos_site_id
 _symmetry_equiv_pos_as_xyz
  1  'x, y, z'
loop_
 _atom_site_type_symbol
 _atom_site_label
 _atom_site_symmetry_multiplicity
 _atom_site_fract_x
 _atom_site_fract_y
 _atom_site_fract_z
 _atom_site_occupancy
  La  La0  1  0.909851  0.227412  0.137262  1
  La  La1  1  0.227412  0.090149  0.317561  1
  La  La2  1  0.772588  0.909851  0.682439  1
  La  La3  1  0.090149  0.772588  0.862738  1
  La  La4  1  0.727412  0.409851  0.137262  1
  La  La5  1  0.272588  0.590149  0.862738  1
  La  La6  1  0.590149  0.727412  0.317561  1
  La  La7  1  0.409851  0.272588  0.682439  1
  Lu  Lu8  1  0.750000  0.250000  0.500000  1
  Lu  Lu9  1  0.250000  0.750000  0.500000  1
  Cd  Cd10  1  0.750000  0.750000  0.000000  1
  Cd  Cd11  1  0.250000  0.250000  0.000000  1
  Sn  Sn12  1  0.847573  0.652427  0.500000  1
  Sn  Sn13  1  0.652427  0.152427  0.804855  1
  Sn  Sn14  1  0.347573  0.847573  0.195145  1
  Sn  Sn15  1  0.152427  0.347573  0.500000  1
