# generated using pymatgen
data_Cs2Ga2SiGeSe8
_symmetry_space_group_name_H-M   'P 1'
_cell_length_a   17.38566000
_cell_length_b   7.32063363
_cell_length_c   8.24484062
_cell_angle_alpha   70.23026120
_cell_angle_beta   90.00000000
_cell_angle_gamma   90.00000000
_symmetry_Int_Tables_number   1
_chemical_formula_structural   Cs2Ga2SiGeSe8
_chemical_formula_sum   'Cs4 Ga4 Si2 Ge2 Se16'
_cell_volume   987.50481810
_cell_formula_units_Z   2
loop_
 _symmetry_equiv_pos_site_id
 _symmetry_equiv_pos_as_xyz
  1  'x, y, z'
loop_
 _atom_site_type_symbol
 _atom_site_label
 _atom_site_symmetry_multiplicity
 _atom_site_fract_x
 _atom_site_fract_y
 _atom_site_fract_z
 _atom_site_occupancy
  Cs  Cs0  1  0.396485  0.955728  0.181479  1
  Cs  Cs1  1  0.896485  0.044272  0.818521  1
  Cs  Cs2  1  0.602939  0.526920  0.830463  1
  Cs  Cs3  1  0.102939  0.473080  0.169537  1
  Ga  Ga4  1  0.584868  0.166912  0.476756  1
  Ga  Ga5  1  0.084868  0.833088  0.523244  1
  Ga  Ga6  1  0.271586  0.591358  0.699052  1
  Ga  Ga7  1  0.771586  0.408642  0.300948  1
  Si  Si8  1  0.725702  0.914323  0.279450  1
  Si  Si9  1  0.225702  0.085677  0.720550  1
  Ge  Ge10  1  0.419198  0.316875  0.542427  1
  Ge  Ge11  1  0.919198  0.683125  0.457573  1
  Se  Se12  1  0.600835  0.890968  0.375858  1
  Se  Se13  1  0.100835  0.109032  0.624142  1
  Se  Se14  1  0.408710  0.594938  0.629006  1
  Se  Se15  1  0.908710  0.405062  0.370994  1
  Se  Se16  1  0.797271  0.792260  0.531460  1
  Se  Se17  1  0.297271  0.207740  0.468540  1
  Se  Se18  1  0.200412  0.715628  0.436264  1
  Se  Se19  1  0.700412  0.284372  0.563736  1
  Se  Se20  1  0.764083  0.217843  0.105988  1
  Se  Se21  1  0.264083  0.782157  0.894012  1
  Se  Se22  1  0.236132  0.266555  0.898711  1
  Se  Se23  1  0.736132  0.733445  0.101289  1
  Se  Se24  1  0.999752  0.924652  0.265224  1
  Se  Se25  1  0.499752  0.075348  0.734776  1
  Se  Se26  1  0.992025  0.605432  0.718666  1
  Se  Se27  1  0.492025  0.394568  0.281334  1
