# generated using pymatgen
data_SnBi2Te4S
_symmetry_space_group_name_H-M   'P 1'
_cell_length_a   25.51586839
_cell_length_b   25.51586943
_cell_length_c   6.51921449
_cell_angle_alpha   103.43529605
_cell_angle_beta   103.43529311
_cell_angle_gamma   12.70950926
_symmetry_Int_Tables_number   1
_chemical_formula_structural   SnBi2Te4S
_chemical_formula_sum   'Sn3 Bi6 Te12 S3'
_cell_volume   907.92485631
_cell_formula_units_Z   3
loop_
 _symmetry_equiv_pos_site_id
 _symmetry_equiv_pos_as_xyz
  1  'x, y, z'
loop_
 _atom_site_type_symbol
 _atom_site_label
 _atom_site_symmetry_multiplicity
 _atom_site_fract_x
 _atom_site_fract_y
 _atom_site_fract_z
 _atom_site_occupancy
  Sn  Sn0  1  0.954933  0.954933  0.133728  1
  Sn  Sn1  1  0.457200  0.457200  0.632995  1
  Sn  Sn2  1  0.586091  0.586091  0.516223  1
  Bi  Bi3  1  0.259126  0.259126  0.959598  1
  Bi  Bi4  1  0.744872  0.744872  0.498820  1
  Bi  Bi5  1  0.870764  0.870764  0.863396  1
  Bi  Bi6  1  0.320414  0.320414  0.200086  1
  Bi  Bi7  1  0.183364  0.183364  0.316088  1
  Bi  Bi8  1  0.648546  0.648546  0.784966  1
  Te  Te9  1  0.086428  0.086428  0.519175  1
  Te  Te10  1  0.607126  0.607126  0.069548  1
  Te  Te11  1  0.881912  0.881912  0.339778  1
  Te  Te12  1  0.368604  0.368604  0.837041  1
  Te  Te13  1  0.455571  0.455571  0.130605  1
  Te  Te14  1  0.957373  0.957373  0.632671  1
  Te  Te15  1  0.551826  0.551826  0.918920  1
  Te  Te16  1  0.033104  0.033104  0.269278  1
  Te  Te17  1  0.299227  0.299227  0.698995  1
  Te  Te18  1  0.824448  0.824448  0.217575  1
  Te  Te19  1  0.155522  0.155522  0.816243  1
  Te  Te20  1  0.683219  0.683219  0.329262  1
  S  S21  1  0.045156  0.045156  0.931491  1
  S  S22  1  0.754241  0.754241  0.934421  1
  S  S23  1  0.239022  0.239022  0.449096  1
