# generated using pymatgen
data_Dy6Al24FeIr6Ru
_symmetry_space_group_name_H-M   'P 1'
_cell_length_a   8.82405100
_cell_length_b   8.82405096
_cell_length_c   9.46133200
_cell_angle_alpha   90.00000000
_cell_angle_beta   90.00000000
_cell_angle_gamma   120.00000388
_symmetry_Int_Tables_number   1
_chemical_formula_structural   Dy6Al24FeIr6Ru
_chemical_formula_sum   'Dy6 Al24 Fe1 Ir6 Ru1'
_cell_volume   637.99740781
_cell_formula_units_Z   1
loop_
 _symmetry_equiv_pos_site_id
 _symmetry_equiv_pos_as_xyz
  1  'x, y, z'
loop_
 _atom_site_type_symbol
 _atom_site_label
 _atom_site_symmetry_multiplicity
 _atom_site_fract_x
 _atom_site_fract_y
 _atom_site_fract_z
 _atom_site_occupancy
  Dy  Dy0  1  0.192843  0.807157  0.249477  1
  Dy  Dy1  1  0.192843  0.385685  0.249477  1
  Dy  Dy2  1  0.614315  0.807157  0.249477  1
  Dy  Dy3  1  0.807157  0.192843  0.750523  1
  Dy  Dy4  1  0.807157  0.614315  0.750523  1
  Dy  Dy5  1  0.385685  0.192843  0.750523  1
  Al  Al6  1  0.562636  0.437364  0.249897  1
  Al  Al7  1  0.562636  0.125271  0.249897  1
  Al  Al8  1  0.874729  0.437364  0.249897  1
  Al  Al9  1  0.437364  0.562636  0.750103  1
  Al  Al10  1  0.437364  0.874729  0.750103  1
  Al  Al11  1  0.125271  0.562636  0.750103  1
  Al  Al12  1  0.320409  0.160205  0.425278  1
  Al  Al13  1  0.839795  0.160205  0.425278  1
  Al  Al14  1  0.839795  0.679591  0.425278  1
  Al  Al15  1  0.679591  0.839795  0.574722  1
  Al  Al16  1  0.160205  0.839795  0.574722  1
  Al  Al17  1  0.160205  0.320409  0.574722  1
  Al  Al18  1  0.674938  0.837468  0.924690  1
  Al  Al19  1  0.162532  0.837468  0.924690  1
  Al  Al20  1  0.162532  0.325062  0.924690  1
  Al  Al21  1  0.325062  0.162532  0.075310  1
  Al  Al22  1  0.837468  0.162532  0.075310  1
  Al  Al23  1  0.837468  0.674938  0.075310  1
  Al  Al24  1  0.666667  0.333333  0.527781  1
  Al  Al25  1  0.333333  0.666667  0.472219  1
  Al  Al26  1  0.333333  0.666667  0.029097  1
  Al  Al27  1  0.666667  0.333333  0.970903  1
  Al  Al28  1  0.000000  0.000000  0.255470  1
  Al  Al29  1  0.000000  0.000000  0.744530  1
  Fe  Fe30  1  0.000000  0.000000  0.500000  1
  Ir  Ir31  1  0.500000  0.500000  0.500000  1
  Ir  Ir32  1  0.500000  0.000000  0.500000  1
  Ir  Ir33  1  0.000000  0.500000  0.500000  1
  Ir  Ir34  1  0.500000  0.500000  0.000000  1
  Ir  Ir35  1  0.500000  0.000000  0.000000  1
  Ir  Ir36  1  0.000000  0.500000  0.000000  1
  Ru  Ru37  1  0.000000  0.000000  0.000000  1
