# generated using pymatgen
data_Tm2TcC2
_symmetry_space_group_name_H-M   'P 1'
_cell_length_a   5.01027000
_cell_length_b   6.49496300
_cell_length_c   9.72591700
_cell_angle_alpha   90.00000000
_cell_angle_beta   90.00000000
_cell_angle_gamma   90.00000000
_symmetry_Int_Tables_number   1
_chemical_formula_structural   Tm2TcC2
_chemical_formula_sum   'Tm8 Tc4 C8'
_cell_volume   316.49610575
_cell_formula_units_Z   4
loop_
 _symmetry_equiv_pos_site_id
 _symmetry_equiv_pos_as_xyz
  1  'x, y, z'
loop_
 _atom_site_type_symbol
 _atom_site_label
 _atom_site_symmetry_multiplicity
 _atom_site_fract_x
 _atom_site_fract_y
 _atom_site_fract_z
 _atom_site_occupancy
  Tm  Tm0  1  0.250000  0.824214  0.941845  1
  Tm  Tm1  1  0.250000  0.324214  0.558155  1
  Tm  Tm2  1  0.750000  0.175786  0.058155  1
  Tm  Tm3  1  0.750000  0.675786  0.441845  1
  Tm  Tm4  1  0.250000  0.465424  0.217690  1
  Tm  Tm5  1  0.250000  0.965424  0.282310  1
  Tm  Tm6  1  0.750000  0.534576  0.782310  1
  Tm  Tm7  1  0.750000  0.034576  0.717690  1
  Tc  Tc8  1  0.250000  0.284200  0.868443  1
  Tc  Tc9  1  0.250000  0.784200  0.631557  1
  Tc  Tc10  1  0.750000  0.715800  0.131557  1
  Tc  Tc11  1  0.750000  0.215800  0.368443  1
  C  C12  1  0.250000  0.051456  0.741127  1
  C  C13  1  0.250000  0.551456  0.758873  1
  C  C14  1  0.750000  0.948544  0.258873  1
  C  C15  1  0.750000  0.448544  0.241127  1
  C  C16  1  0.250000  0.675154  0.447225  1
  C  C17  1  0.250000  0.175154  0.052775  1
  C  C18  1  0.750000  0.324846  0.552775  1
  C  C19  1  0.750000  0.824846  0.947225  1
