# generated using pymatgen
data_YbYAlIr2
_symmetry_space_group_name_H-M   'P 1'
_cell_length_a   5.59352403
_cell_length_b   5.59352294
_cell_length_c   5.59352307
_cell_angle_alpha   137.83664071
_cell_angle_beta   117.44448053
_cell_angle_gamma   78.33888371
_symmetry_Int_Tables_number   1
_chemical_formula_structural   YbYAlIr2
_chemical_formula_sum   'Yb1 Y1 Al1 Ir2'
_cell_volume   101.35344196
_cell_formula_units_Z   1
loop_
 _symmetry_equiv_pos_site_id
 _symmetry_equiv_pos_as_xyz
  1  'x, y, z'
loop_
 _atom_site_type_symbol
 _atom_site_label
 _atom_site_symmetry_multiplicity
 _atom_site_fract_x
 _atom_site_fract_y
 _atom_site_fract_z
 _atom_site_occupancy
  Yb  Yb0  1  0.297085  0.797086  0.500001  1
  Y  Y1  1  0.701471  0.201472  0.499999  1
  Al  Al2  1  0.999890  0.999890  0.000000  1
  Ir  Ir3  1  0.735454  0.500776  0.234678  1
  Ir  Ir4  1  0.266098  0.500777  0.765322  1
