# generated using pymatgen
data_Tb11Y5Cd4NiIr3
_symmetry_space_group_name_H-M   'P 1'
_cell_length_a   9.64938161
_cell_length_b   9.69249738
_cell_length_c   9.69249590
_cell_angle_alpha   59.98613819
_cell_angle_beta   59.78113665
_cell_angle_gamma   59.78112855
_symmetry_Int_Tables_number   1
_chemical_formula_structural   Tb11Y5Cd4NiIr3
_chemical_formula_sum   'Tb11 Y5 Cd4 Ni1 Ir3'
_cell_volume   638.80148153
_cell_formula_units_Z   1
loop_
 _symmetry_equiv_pos_site_id
 _symmetry_equiv_pos_as_xyz
  1  'x, y, z'
loop_
 _atom_site_type_symbol
 _atom_site_label
 _atom_site_symmetry_multiplicity
 _atom_site_fract_x
 _atom_site_fract_y
 _atom_site_fract_z
 _atom_site_occupancy
  Tb  Tb0  1  0.601379  0.596448  0.596448  1
  Tb  Tb1  1  0.602716  0.598059  0.202850  1
  Tb  Tb2  1  0.602716  0.202850  0.598059  1
  Tb  Tb3  1  0.202015  0.599655  0.599655  1
  Tb  Tb4  1  0.058329  0.439665  0.439665  1
  Tb  Tb5  1  0.437275  0.060434  0.060434  1
  Tb  Tb6  1  0.438816  0.059810  0.440679  1
  Tb  Tb7  1  0.059046  0.438706  0.061869  1
  Tb  Tb8  1  0.438816  0.440679  0.059810  1
  Tb  Tb9  1  0.059046  0.061869  0.438706  1
  Tb  Tb10  1  0.188907  0.812237  0.812237  1
  Y  Y11  1  0.810637  0.186634  0.186634  1
  Y  Y12  1  0.811332  0.187503  0.816316  1
  Y  Y13  1  0.188275  0.811543  0.188134  1
  Y  Y14  1  0.811332  0.816316  0.187503  1
  Y  Y15  1  0.188275  0.188134  0.811543  1
  Cd  Cd16  1  0.829275  0.830970  0.830970  1
  Cd  Cd17  1  0.830265  0.831144  0.506182  1
  Cd  Cd18  1  0.830265  0.506182  0.831144  1
  Cd  Cd19  1  0.506436  0.831009  0.831009  1
  Ni  Ni20  1  0.825169  0.391818  0.391818  1
  Ir  Ir21  1  0.393469  0.391769  0.391769  1
  Ir  Ir22  1  0.393105  0.392330  0.824233  1
  Ir  Ir23  1  0.393105  0.824233  0.392330  1
