# generated using pymatgen
data_Dy5AsSe4
_symmetry_space_group_name_H-M   'P 1'
_cell_length_a   7.07621803
_cell_length_b   7.07621844
_cell_length_c   7.07621837
_cell_angle_alpha   99.62751839
_cell_angle_beta   99.62751867
_cell_angle_gamma   131.72188115
_symmetry_Int_Tables_number   1
_chemical_formula_structural   Dy5AsSe4
_chemical_formula_sum   'Dy5 As1 Se4'
_cell_volume   241.33780408
_cell_formula_units_Z   1
loop_
 _symmetry_equiv_pos_site_id
 _symmetry_equiv_pos_as_xyz
  1  'x, y, z'
loop_
 _atom_site_type_symbol
 _atom_site_label
 _atom_site_symmetry_multiplicity
 _atom_site_fract_x
 _atom_site_fract_y
 _atom_site_fract_z
 _atom_site_occupancy
  Dy  Dy0  1  0.401889  0.792723  0.194612  1
  Dy  Dy1  1  0.000000  0.000000  0.000000  1
  Dy  Dy2  1  0.598111  0.207277  0.805388  1
  Dy  Dy3  1  0.207277  0.401889  0.609166  1
  Dy  Dy4  1  0.792723  0.598111  0.390834  1
  As  As5  1  0.500000  0.500000  0.000000  1
  Se  Se6  1  0.097904  0.698556  0.796459  1
  Se  Se7  1  0.698556  0.902096  0.600654  1
  Se  Se8  1  0.301444  0.097904  0.399346  1
  Se  Se9  1  0.902096  0.301444  0.203541  1
