# generated using pymatgen
data_Li4As3PRh4
_symmetry_space_group_name_H-M   'P 1'
_cell_length_a   3.96419000
_cell_length_b   6.67031283
_cell_length_c   6.98704059
_cell_angle_alpha   89.18956852
_cell_angle_beta   90.00000000
_cell_angle_gamma   90.00000000
_symmetry_Int_Tables_number   1
_chemical_formula_structural   Li4As3PRh4
_chemical_formula_sum   'Li4 As3 P1 Rh4'
_cell_volume   184.73555227
_cell_formula_units_Z   1
loop_
 _symmetry_equiv_pos_site_id
 _symmetry_equiv_pos_as_xyz
  1  'x, y, z'
loop_
 _atom_site_type_symbol
 _atom_site_label
 _atom_site_symmetry_multiplicity
 _atom_site_fract_x
 _atom_site_fract_y
 _atom_site_fract_z
 _atom_site_occupancy
  Li  Li0  1  0.250000  0.013011  0.833077  1
  Li  Li1  1  0.250000  0.522063  0.668803  1
  Li  Li2  1  0.750000  0.975490  0.163559  1
  Li  Li3  1  0.750000  0.482389  0.331915  1
  As  As4  1  0.250000  0.777776  0.371758  1
  As  As5  1  0.250000  0.282442  0.126209  1
  As  As6  1  0.750000  0.217965  0.631082  1
  P  P7  1  0.750000  0.715261  0.873230  1
  Rh  Rh8  1  0.250000  0.140363  0.447404  1
  Rh  Rh9  1  0.250000  0.653134  0.039371  1
  Rh  Rh10  1  0.750000  0.851230  0.567579  1
  Rh  Rh11  1  0.750000  0.368877  0.946012  1
