# generated using pymatgen
data_HoTm5Co16(TcP6)2
_symmetry_space_group_name_H-M   'P 1'
_cell_length_a   3.69734000
_cell_length_b   10.49961700
_cell_length_c   12.18003700
_cell_angle_alpha   90.00000000
_cell_angle_beta   90.00000000
_cell_angle_gamma   90.00000000
_symmetry_Int_Tables_number   1
_chemical_formula_structural   HoTm5Co16(TcP6)2
_chemical_formula_sum   'Ho1 Tm5 Co16 Tc2 P12'
_cell_volume   472.83700109
_cell_formula_units_Z   1
loop_
 _symmetry_equiv_pos_site_id
 _symmetry_equiv_pos_as_xyz
  1  'x, y, z'
loop_
 _atom_site_type_symbol
 _atom_site_label
 _atom_site_symmetry_multiplicity
 _atom_site_fract_x
 _atom_site_fract_y
 _atom_site_fract_z
 _atom_site_occupancy
  Ho  Ho0  1  0.500000  0.000000  0.475014  1
  Tm  Tm1  1  0.000000  0.500000  0.525112  1
  Tm  Tm2  1  0.500000  0.817927  0.205647  1
  Tm  Tm3  1  0.500000  0.182073  0.205647  1
  Tm  Tm4  1  0.000000  0.681829  0.794052  1
  Tm  Tm5  1  0.000000  0.318171  0.794052  1
  Co  Co6  1  0.000000  0.500000  0.986542  1
  Co  Co7  1  0.500000  0.000000  0.013316  1
  Co  Co8  1  0.500000  0.297631  0.431347  1
  Co  Co9  1  0.500000  0.702369  0.431347  1
  Co  Co10  1  0.000000  0.203941  0.568767  1
  Co  Co11  1  0.000000  0.796059  0.568767  1
  Co  Co12  1  0.500000  0.877924  0.707631  1
  Co  Co13  1  0.500000  0.122076  0.707631  1
  Co  Co14  1  0.000000  0.621710  0.292703  1
  Co  Co15  1  0.000000  0.378290  0.292703  1
  Co  Co16  1  0.500000  0.332338  0.989219  1
  Co  Co17  1  0.500000  0.667662  0.989219  1
  Co  Co18  1  0.000000  0.167844  0.010759  1
  Co  Co19  1  0.000000  0.832156  0.010759  1
  Co  Co20  1  0.500000  0.500000  0.701999  1
  Co  Co21  1  0.000000  0.000000  0.297190  1
  Tc  Tc22  1  0.500000  0.500000  0.157129  1
  Tc  Tc23  1  0.000000  0.000000  0.843531  1
  P  P24  1  0.500000  0.312987  0.616660  1
  P  P25  1  0.500000  0.687013  0.616660  1
  P  P26  1  0.000000  0.187767  0.382978  1
  P  P27  1  0.000000  0.812233  0.382978  1
  P  P28  1  0.500000  0.500000  0.879763  1
  P  P29  1  0.000000  0.000000  0.119853  1
  P  P30  1  0.500000  0.845617  0.892081  1
  P  P31  1  0.500000  0.154383  0.892081  1
  P  P32  1  0.000000  0.654129  0.107954  1
  P  P33  1  0.000000  0.345871  0.107954  1
  P  P34  1  0.500000  0.500000  0.350215  1
  P  P35  1  0.000000  0.000000  0.650742  1
