# generated using pymatgen
data_TiCr3(CoP)4
_symmetry_space_group_name_H-M   'P 1'
_cell_length_a   3.51456100
_cell_length_b   5.82878044
_cell_length_c   6.72273251
_cell_angle_alpha   90.04445828
_cell_angle_beta   90.00000000
_cell_angle_gamma   90.00000000
_symmetry_Int_Tables_number   1
_chemical_formula_structural   TiCr3(CoP)4
_chemical_formula_sum   'Ti1 Cr3 Co4 P4'
_cell_volume   137.71919719
_cell_formula_units_Z   1
loop_
 _symmetry_equiv_pos_site_id
 _symmetry_equiv_pos_as_xyz
  1  'x, y, z'
loop_
 _atom_site_type_symbol
 _atom_site_label
 _atom_site_symmetry_multiplicity
 _atom_site_fract_x
 _atom_site_fract_y
 _atom_site_fract_z
 _atom_site_occupancy
  Ti  Ti0  1  0.750000  0.526710  0.175027  1
  Cr  Cr1  1  0.750000  0.029054  0.328885  1
  Cr  Cr2  1  0.250000  0.468484  0.829970  1
  Cr  Cr3  1  0.250000  0.981555  0.670866  1
  Co  Co4  1  0.750000  0.639132  0.563877  1
  Co  Co5  1  0.750000  0.143207  0.934725  1
  Co  Co6  1  0.250000  0.358784  0.436142  1
  Co  Co7  1  0.250000  0.850617  0.062590  1
  P  P8  1  0.750000  0.263567  0.624518  1
  P  P9  1  0.750000  0.768730  0.867656  1
  P  P10  1  0.250000  0.746192  0.382629  1
  P  P11  1  0.250000  0.223968  0.123115  1
