# generated using pymatgen
data_Ba2AgO3
_symmetry_space_group_name_H-M   'P 1'
_cell_length_a   7.33926520
_cell_length_b   7.33926515
_cell_length_c   11.59858600
_cell_angle_alpha   90.00000000
_cell_angle_beta   90.00000000
_cell_angle_gamma   132.84461137
_symmetry_Int_Tables_number   1
_chemical_formula_structural   Ba2AgO3
_chemical_formula_sum   'Ba8 Ag4 O12'
_cell_volume   458.07124290
_cell_formula_units_Z   4
loop_
 _symmetry_equiv_pos_site_id
 _symmetry_equiv_pos_as_xyz
  1  'x, y, z'
loop_
 _atom_site_type_symbol
 _atom_site_label
 _atom_site_symmetry_multiplicity
 _atom_site_fract_x
 _atom_site_fract_y
 _atom_site_fract_z
 _atom_site_occupancy
  Ba  Ba0  1  0.213745  0.921666  0.750000  1
  Ba  Ba1  1  0.646401  0.353599  0.500000  1
  Ba  Ba2  1  0.786255  0.078334  0.250000  1
  Ba  Ba3  1  0.921666  0.213745  0.750000  1
  Ba  Ba4  1  0.078334  0.786255  0.250000  1
  Ba  Ba5  1  0.353599  0.646401  0.000000  1
  Ba  Ba6  1  0.353599  0.646401  0.500000  1
  Ba  Ba7  1  0.646401  0.353599  0.000000  1
  Ag  Ag8  1  0.408843  0.408843  0.250000  1
  Ag  Ag9  1  0.591157  0.591157  0.750000  1
  Ag  Ag10  1  0.000000  0.000000  0.000000  1
  Ag  Ag11  1  0.000000  0.000000  0.500000  1
  O  O12  1  0.241183  0.559230  0.250000  1
  O  O13  1  0.155820  0.844180  0.500000  1
  O  O14  1  0.559230  0.241183  0.250000  1
  O  O15  1  0.728579  0.728579  0.390135  1
  O  O16  1  0.155820  0.844180  0.000000  1
  O  O17  1  0.844180  0.155820  0.000000  1
  O  O18  1  0.440770  0.758817  0.750000  1
  O  O19  1  0.758817  0.440770  0.750000  1
  O  O20  1  0.728579  0.728579  0.109865  1
  O  O21  1  0.844180  0.155820  0.500000  1
  O  O22  1  0.271421  0.271421  0.609865  1
  O  O23  1  0.271421  0.271421  0.890135  1
