# generated using pymatgen
data_Yb4Al4TcOs3
_symmetry_space_group_name_H-M   'P 1'
_cell_length_a   5.43232982
_cell_length_b   5.47970265
_cell_length_c   8.62652200
_cell_angle_alpha   90.00000000
_cell_angle_beta   90.00000000
_cell_angle_gamma   119.43312711
_symmetry_Int_Tables_number   1
_chemical_formula_structural   Yb4Al4TcOs3
_chemical_formula_sum   'Yb4 Al4 Tc1 Os3'
_cell_volume   223.64645874
_cell_formula_units_Z   1
loop_
 _symmetry_equiv_pos_site_id
 _symmetry_equiv_pos_as_xyz
  1  'x, y, z'
loop_
 _atom_site_type_symbol
 _atom_site_label
 _atom_site_symmetry_multiplicity
 _atom_site_fract_x
 _atom_site_fract_y
 _atom_site_fract_z
 _atom_site_occupancy
  Yb  Yb0  1  0.332432  0.667058  0.441866  1
  Yb  Yb1  1  0.666629  0.333673  0.560102  1
  Yb  Yb2  1  0.666629  0.333673  0.939898  1
  Yb  Yb3  1  0.332432  0.667058  0.058134  1
  Al  Al4  1  0.846434  0.665787  0.250000  1
  Al  Al5  1  0.331686  0.152067  0.250000  1
  Al  Al6  1  0.179981  0.846167  0.750000  1
  Al  Al7  1  0.184344  0.336815  0.750000  1
  Tc  Tc8  1  0.843061  0.165734  0.250000  1
  Os  Os9  1  0.972908  0.001320  0.498489  1
  Os  Os10  1  0.972908  0.001320  0.001511  1
  Os  Os11  1  0.670555  0.829331  0.750000  1
