# generated using pymatgen
data_Ca14ScAs11
_symmetry_space_group_name_H-M   'P 1'
_cell_length_a   15.38141286
_cell_length_b   15.38141265
_cell_length_c   15.38141200
_cell_angle_alpha   118.56242082
_cell_angle_beta   118.56242039
_cell_angle_gamma   92.50853472
_symmetry_Int_Tables_number   1
_chemical_formula_structural   Ca14ScAs11
_chemical_formula_sum   'Ca56 Sc4 As44'
_cell_volume   2626.39057901
_cell_formula_units_Z   4
loop_
 _symmetry_equiv_pos_site_id
 _symmetry_equiv_pos_as_xyz
  1  'x, y, z'
loop_
 _atom_site_type_symbol
 _atom_site_label
 _atom_site_symmetry_multiplicity
 _atom_site_fract_x
 _atom_site_fract_y
 _atom_site_fract_z
 _atom_site_occupancy
  Ca  Ca0  1  0.745733  0.092204  0.604775  1
  Ca  Ca1  1  0.262567  0.109040  0.104777  1
  Ca  Ca2  1  0.311510  0.287614  0.663285  1
  Ca  Ca3  1  0.004267  0.157796  0.895225  1
  Ca  Ca4  1  0.125674  0.601775  0.163292  1
  Ca  Ca5  1  0.659785  0.880468  0.133295  1
  Ca  Ca6  1  0.124999  0.021995  0.396995  1
  Ca  Ca7  1  0.478006  0.375000  0.603006  1
  Ca  Ca8  1  0.212386  0.188486  0.336711  1
  Ca  Ca9  1  0.276494  0.909786  0.279321  1
  Ca  Ca10  1  0.473506  0.340214  0.220679  1
  Ca  Ca11  1  0.407795  0.754262  0.395223  1
  Ca  Ca12  1  0.351775  0.688486  0.976101  1
  Ca  Ca13  1  0.002828  0.723509  0.633293  1
  Ca  Ca14  1  0.037614  0.874326  0.476101  1
  Ca  Ca15  1  0.130465  0.409786  0.633292  1
  Ca  Ca16  1  0.125001  0.521995  0.896996  1
  Ca  Ca17  1  0.159784  0.026491  0.779320  1
  Ca  Ca18  1  0.504263  0.609040  0.846473  1
  Ca  Ca19  1  0.390955  0.237425  0.895220  1
  Ca  Ca20  1  0.987428  0.592204  0.346472  1
  Ca  Ca21  1  0.978010  0.375000  0.103010  1
  Ca  Ca22  1  0.271994  0.875000  0.896994  1
  Ca  Ca23  1  0.624326  0.648225  0.336708  1
  Ca  Ca24  1  0.842205  0.737425  0.846470  1
  Ca  Ca25  1  0.851775  0.875674  0.663288  1
  Ca  Ca26  1  0.487433  0.140960  0.395223  1
  Ca  Ca27  1  0.537614  0.061514  0.163289  1
  Ca  Ca28  1  0.625001  0.228005  0.103005  1
  Ca  Ca29  1  0.438490  0.962386  0.836715  1
  Ca  Ca30  1  0.776489  0.497173  0.366704  1
  Ca  Ca31  1  0.630469  0.997173  0.720684  1
  Ca  Ca32  1  0.938483  0.101775  0.476101  1
  Ca  Ca33  1  0.625670  0.462386  0.523895  1
  Ca  Ca34  1  0.090215  0.369532  0.366705  1
  Ca  Ca35  1  0.619535  0.840214  0.866708  1
  Ca  Ca36  1  0.811517  0.148225  0.023899  1
  Ca  Ca37  1  0.973511  0.752827  0.133296  1
  Ca  Ca38  1  0.502826  0.869532  0.279317  1
  Ca  Ca39  1  0.747172  0.526491  0.866707  1
  Ca  Ca40  1  0.342205  0.495738  0.104777  1
  Ca  Ca41  1  0.762572  0.657796  0.153528  1
  Ca  Ca42  1  0.898225  0.374326  0.836712  1
  Ca  Ca43  1  0.859040  0.254262  0.346469  1
  Ca  Ca44  1  0.890960  0.995738  0.153531  1
  Ca  Ca45  1  0.624999  0.728005  0.603004  1
  Ca  Ca46  1  0.124330  0.787614  0.976105  1
  Ca  Ca47  1  0.245737  0.640960  0.653527  1
  Ca  Ca48  1  0.590216  0.223509  0.720680  1
  Ca  Ca49  1  0.907795  0.512575  0.653530  1
  Ca  Ca50  1  0.359045  0.012575  0.604780  1
  Ca  Ca51  1  0.247174  0.380468  0.220683  1
  Ca  Ca52  1  0.398225  0.561514  0.523899  1
  Ca  Ca53  1  0.712386  0.375674  0.023899  1
  Ca  Ca54  1  0.119531  0.252827  0.779316  1
  Ca  Ca55  1  0.771990  0.875000  0.396990  1
  Sc  Sc56  1  0.249990  0.750008  0.499984  1
  Sc  Sc57  1  0.750023  0.250008  0.500018  1
  Sc  Sc58  1  0.999977  0.999992  0.999982  1
  Sc  Sc59  1  0.500010  0.499992  0.000016  1
  As  As60  1  0.198015  0.103047  0.645213  1
  As  As61  1  0.896953  0.542165  0.094968  1
  As  As62  1  0.853047  0.707835  0.405032  1
  As  As63  1  0.456278  0.813643  0.634419  1
  As  As64  1  0.571855  0.706272  0.142632  1
  As  As65  1  0.792166  0.646953  0.594968  1
  As  As66  1  0.500001  0.000000  0.500001  1
  As  As67  1  0.686360  0.043728  0.365583  1
  As  As68  1  0.292166  0.697199  0.145214  1
  As  As69  1  0.793715  0.928139  0.857360  1
  As  As70  1  0.633716  0.866284  0.500000  1
  As  As71  1  0.698016  0.052801  0.094967  1
  As  As72  1  0.802803  0.207835  0.854788  1
  As  As73  1  0.679223  0.313643  0.357365  1
  As  As74  1  0.063640  0.206272  0.134417  1
  As  As75  1  0.071856  0.929222  0.865583  1
  As  As76  1  0.447198  0.801985  0.905031  1
  As  As77  1  0.366284  0.133716  0.500000  1
  As  As78  1  0.678144  0.320778  0.634417  1
  As  As79  1  0.616284  0.616284  0.732569  1
  As  As80  1  0.563640  0.429222  0.857366  1
  As  As81  1  0.249999  0.250000  0.999999  1
  As  As82  1  0.070777  0.936357  0.142635  1
  As  As83  1  0.957834  0.603047  0.905032  1
  As  As84  1  0.956285  0.321861  0.642640  1
  As  As85  1  0.570779  0.428139  0.134423  1
  As  As86  1  0.353047  0.948015  0.145213  1
  As  As87  1  0.947197  0.042165  0.645212  1
  As  As88  1  0.383716  0.116284  0.000000  1
  As  As89  1  0.179221  0.821861  0.365577  1
  As  As90  1  0.051984  0.197199  0.405033  1
  As  As91  1  0.999999  0.500000  0.499999  1
  As  As92  1  0.866284  0.366284  0.232569  1
  As  As93  1  0.133716  0.633716  0.767431  1
  As  As94  1  0.457834  0.552801  0.354786  1
  As  As95  1  0.750001  0.750000  0.000001  1
  As  As96  1  0.883716  0.883716  0.267431  1
  As  As97  1  0.302802  0.448015  0.594969  1
  As  As98  1  0.396953  0.301985  0.354787  1
  As  As99  1  0.116284  0.383716  0.000000  1
  As  As100  1  0.551985  0.146953  0.854787  1
  As  As101  1  0.186360  0.820778  0.642634  1
  As  As102  1  0.293722  0.436357  0.865581  1
  As  As103  1  0.178145  0.543728  0.357368  1
