# generated using pymatgen
data_LiDy6Cd5Hg12
_symmetry_space_group_name_H-M   'P 1'
_cell_length_a   5.11637784
_cell_length_b   7.09546200
_cell_length_c   15.54603200
_cell_angle_alpha   90.00000000
_cell_angle_beta   90.51768030
_cell_angle_gamma   90.00000000
_symmetry_Int_Tables_number   1
_chemical_formula_structural   LiDy6Cd5Hg12
_chemical_formula_sum   'Li1 Dy6 Cd5 Hg12'
_cell_volume   564.34556669
_cell_formula_units_Z   1
loop_
 _symmetry_equiv_pos_site_id
 _symmetry_equiv_pos_as_xyz
  1  'x, y, z'
loop_
 _atom_site_type_symbol
 _atom_site_label
 _atom_site_symmetry_multiplicity
 _atom_site_fract_x
 _atom_site_fract_y
 _atom_site_fract_z
 _atom_site_occupancy
  Li  Li0  1  0.000000  0.500000  0.000000  1
  Dy  Dy1  1  0.000000  0.000000  0.000000  1
  Dy  Dy2  1  0.499933  0.500000  0.170559  1
  Dy  Dy3  1  0.999687  0.000000  0.332865  1
  Dy  Dy4  1  0.500000  0.500000  0.500000  1
  Dy  Dy5  1  0.000313  0.000000  0.667134  1
  Dy  Dy6  1  0.500067  0.500000  0.829441  1
  Cd  Cd7  1  0.499855  0.000000  0.166661  1
  Cd  Cd8  1  0.999860  0.500000  0.331733  1
  Cd  Cd9  1  0.500000  0.000000  0.500000  1
  Cd  Cd10  1  0.000140  0.500000  0.668267  1
  Cd  Cd11  1  0.500145  0.000000  0.833339  1
  Hg  Hg12  1  0.500000  0.266882  0.000000  1
  Hg  Hg13  1  0.500000  0.733117  0.000000  1
  Hg  Hg14  1  0.999658  0.255289  0.159114  1
  Hg  Hg15  1  0.999658  0.744712  0.159114  1
  Hg  Hg16  1  0.499629  0.248701  0.334276  1
  Hg  Hg17  1  0.499629  0.751300  0.334276  1
  Hg  Hg18  1  0.000000  0.247623  0.500000  1
  Hg  Hg19  1  0.000000  0.752378  0.500000  1
  Hg  Hg20  1  0.500371  0.248701  0.665724  1
  Hg  Hg21  1  0.500371  0.751300  0.665724  1
  Hg  Hg22  1  0.000342  0.255289  0.840886  1
  Hg  Hg23  1  0.000342  0.744712  0.840886  1
