# generated using pymatgen
data_Dy2Lu14In4Ir3Rh
_symmetry_space_group_name_H-M   'P 1'
_cell_length_a   9.48954684
_cell_length_b   9.48954635
_cell_length_c   9.45911762
_cell_angle_alpha   60.27578827
_cell_angle_beta   60.27579393
_cell_angle_gamma   60.13302660
_symmetry_Int_Tables_number   1
_chemical_formula_structural   Dy2Lu14In4Ir3Rh
_chemical_formula_sum   'Dy2 Lu14 In4 Ir3 Rh1'
_cell_volume   605.42834196
_cell_formula_units_Z   1
loop_
 _symmetry_equiv_pos_site_id
 _symmetry_equiv_pos_as_xyz
  1  'x, y, z'
loop_
 _atom_site_type_symbol
 _atom_site_label
 _atom_site_symmetry_multiplicity
 _atom_site_fract_x
 _atom_site_fract_y
 _atom_site_fract_z
 _atom_site_occupancy
  Dy  Dy0  1  0.819568  0.819568  0.181473  1
  Dy  Dy1  1  0.183546  0.183546  0.816998  1
  Lu  Lu2  1  0.599611  0.599611  0.590953  1
  Lu  Lu3  1  0.604034  0.604034  0.200976  1
  Lu  Lu4  1  0.594996  0.202105  0.603546  1
  Lu  Lu5  1  0.202105  0.594996  0.603546  1
  Lu  Lu6  1  0.057762  0.439037  0.439869  1
  Lu  Lu7  1  0.439398  0.060419  0.059737  1
  Lu  Lu8  1  0.439037  0.057762  0.439869  1
  Lu  Lu9  1  0.060419  0.439398  0.059737  1
  Lu  Lu10  1  0.442026  0.442026  0.057123  1
  Lu  Lu11  1  0.057001  0.057001  0.443432  1
  Lu  Lu12  1  0.194192  0.807030  0.806694  1
  Lu  Lu13  1  0.809630  0.194514  0.194177  1
  Lu  Lu14  1  0.807030  0.194192  0.806694  1
  Lu  Lu15  1  0.194514  0.809630  0.194177  1
  In  In16  1  0.833957  0.833957  0.833195  1
  In  In17  1  0.832881  0.832881  0.501486  1
  In  In18  1  0.832751  0.500179  0.834046  1
  In  In19  1  0.500179  0.832751  0.834046  1
  Ir  Ir20  1  0.392718  0.392718  0.826967  1
  Ir  Ir21  1  0.384185  0.826055  0.391635  1
  Ir  Ir22  1  0.826055  0.384185  0.391635  1
  Rh  Rh23  1  0.392404  0.392404  0.387987  1
