# generated using pymatgen
data_NaTbNd5PtI12
_symmetry_space_group_name_H-M   'P 1'
_cell_length_a   9.95560442
_cell_length_b   10.04769286
_cell_length_c   10.09212569
_cell_angle_alpha   106.69351145
_cell_angle_beta   106.97152836
_cell_angle_gamma   107.09946241
_symmetry_Int_Tables_number   1
_chemical_formula_structural   NaTbNd5PtI12
_chemical_formula_sum   'Na1 Tb1 Nd5 Pt1 I12'
_cell_volume   842.52651939
_cell_formula_units_Z   1
loop_
 _symmetry_equiv_pos_site_id
 _symmetry_equiv_pos_as_xyz
  1  'x, y, z'
loop_
 _atom_site_type_symbol
 _atom_site_label
 _atom_site_symmetry_multiplicity
 _atom_site_fract_x
 _atom_site_fract_y
 _atom_site_fract_z
 _atom_site_occupancy
  Na  Na0  1  0.500035  0.499804  0.499918  1
  Tb  Tb1  1  0.971201  0.691707  0.897020  1
  Nd  Nd2  1  0.104727  0.028953  0.314006  1
  Nd  Nd3  1  0.302706  0.099103  0.027350  1
  Nd  Nd4  1  0.028752  0.315500  0.104459  1
  Nd  Nd5  1  0.895207  0.971081  0.685811  1
  Nd  Nd6  1  0.696106  0.897675  0.971875  1
  Pt  Pt7  1  0.999092  0.998129  0.999208  1
  I  I8  1  0.073748  0.680198  0.216765  1
  I  I9  1  0.226988  0.076914  0.681852  1
  I  I10  1  0.679241  0.223084  0.075260  1
  I  I11  1  0.925100  0.324547  0.776519  1
  I  I12  1  0.772671  0.922512  0.318160  1
  I  I13  1  0.312493  0.771387  0.922861  1
  I  I14  1  0.455554  0.146528  0.373705  1
  I  I15  1  0.375579  0.453211  0.146022  1
  I  I16  1  0.145919  0.373884  0.453373  1
  I  I17  1  0.544343  0.853210  0.626406  1
  I  I18  1  0.632657  0.546622  0.854603  1
  I  I19  1  0.857881  0.625951  0.554827  1
