# generated using pymatgen
data_Sm3Tm(CuP2)4
_symmetry_space_group_name_H-M   'P 1'
_cell_length_a   3.73469900
_cell_length_b   3.81008756
_cell_length_c   19.68697862
_cell_angle_alpha   89.93456964
_cell_angle_beta   90.00000000
_cell_angle_gamma   90.00000000
_symmetry_Int_Tables_number   1
_chemical_formula_structural   Sm3Tm(CuP2)4
_chemical_formula_sum   'Sm3 Tm1 Cu4 P8'
_cell_volume   280.13627428
_cell_formula_units_Z   1
loop_
 _symmetry_equiv_pos_site_id
 _symmetry_equiv_pos_as_xyz
  1  'x, y, z'
loop_
 _atom_site_type_symbol
 _atom_site_label
 _atom_site_symmetry_multiplicity
 _atom_site_fract_x
 _atom_site_fract_y
 _atom_site_fract_z
 _atom_site_occupancy
  Sm  Sm0  1  0.250000  0.713306  0.379580  1
  Sm  Sm1  1  0.250000  0.785507  0.884855  1
  Sm  Sm2  1  0.750000  0.287721  0.618525  1
  Tm  Tm3  1  0.750000  0.212845  0.118672  1
  Cu  Cu4  1  0.250000  0.213298  0.246212  1
  Cu  Cu5  1  0.750000  0.786742  0.751844  1
  Cu  Cu6  1  0.250000  0.286871  0.751237  1
  Cu  Cu7  1  0.750000  0.713518  0.246750  1
  P  P8  1  0.750000  0.813267  0.501485  1
  P  P9  1  0.750000  0.687589  0.006800  1
  P  P10  1  0.250000  0.188308  0.496784  1
  P  P11  1  0.250000  0.310499  0.002113  1
  P  P12  1  0.250000  0.713500  0.169573  1
  P  P13  1  0.750000  0.213229  0.322436  1
  P  P14  1  0.750000  0.286264  0.827242  1
  P  P15  1  0.250000  0.787536  0.675891  1
