# generated using pymatgen
data_Y14Ho2In3AgPt4
_symmetry_space_group_name_H-M   'P 1'
_cell_length_a   9.66554539
_cell_length_b   9.67565924
_cell_length_c   9.66667064
_cell_angle_alpha   60.54983149
_cell_angle_beta   60.48962229
_cell_angle_gamma   60.54135343
_symmetry_Int_Tables_number   1
_chemical_formula_structural   Y14Ho2In3AgPt4
_chemical_formula_sum   'Y14 Ho2 In3 Ag1 Pt4'
_cell_volume   646.85807233
_cell_formula_units_Z   1
loop_
 _symmetry_equiv_pos_site_id
 _symmetry_equiv_pos_as_xyz
  1  'x, y, z'
loop_
 _atom_site_type_symbol
 _atom_site_label
 _atom_site_symmetry_multiplicity
 _atom_site_fract_x
 _atom_site_fract_y
 _atom_site_fract_z
 _atom_site_occupancy
  Y  Y0  1  0.187466  0.187114  0.811259  1
  Y  Y1  1  0.603941  0.603839  0.190444  1
  Y  Y2  1  0.442247  0.058226  0.442391  1
  Y  Y3  1  0.441939  0.442048  0.058684  1
  Y  Y4  1  0.812929  0.182946  0.812755  1
  Y  Y5  1  0.186655  0.812121  0.186783  1
  Y  Y6  1  0.440788  0.059632  0.059553  1
  Y  Y7  1  0.182578  0.813811  0.813311  1
  Y  Y8  1  0.060085  0.440287  0.060121  1
  Y  Y9  1  0.813284  0.813773  0.182612  1
  Y  Y10  1  0.190550  0.603851  0.603894  1
  Y  Y11  1  0.058634  0.441968  0.441950  1
  Y  Y12  1  0.059574  0.059612  0.440568  1
  Y  Y13  1  0.811051  0.187135  0.187543  1
  Ho  Ho14  1  0.602954  0.192705  0.602952  1
  Ho  Ho15  1  0.599697  0.599716  0.599711  1
  In  In16  1  0.833476  0.833712  0.502820  1
  In  In17  1  0.502818  0.833761  0.833482  1
  In  In18  1  0.833727  0.502523  0.833701  1
  Ag  Ag19  1  0.833208  0.834247  0.833204  1
  Pt  Pt20  1  0.393092  0.821174  0.393014  1
  Pt  Pt21  1  0.394820  0.392150  0.394785  1
  Pt  Pt22  1  0.820155  0.391812  0.394297  1
  Pt  Pt23  1  0.394332  0.391835  0.820163  1
