# generated using pymatgen
data_TmScPa2(Al3Ir)6
_symmetry_space_group_name_H-M   'P 1'
_cell_length_a   7.57011897
_cell_length_b   7.58334784
_cell_length_c   9.31797300
_cell_angle_alpha   90.00000000
_cell_angle_beta   90.00000000
_cell_angle_gamma   119.74469022
_symmetry_Int_Tables_number   1
_chemical_formula_structural   TmScPa2(Al3Ir)6
_chemical_formula_sum   'Tm1 Sc1 Pa2 Al18 Ir6'
_cell_volume   464.43754308
_cell_formula_units_Z   1
loop_
 _symmetry_equiv_pos_site_id
 _symmetry_equiv_pos_as_xyz
  1  'x, y, z'
loop_
 _atom_site_type_symbol
 _atom_site_label
 _atom_site_symmetry_multiplicity
 _atom_site_fract_x
 _atom_site_fract_y
 _atom_site_fract_z
 _atom_site_occupancy
  Tm  Tm0  1  0.330610  0.006838  0.750000  1
  Sc  Sc1  1  0.669888  0.993173  0.250000  1
  Pa  Pa2  1  0.998068  0.671300  0.250000  1
  Pa  Pa3  1  0.002013  0.328801  0.750000  1
  Al  Al4  1  0.128321  0.126021  0.250000  1
  Al  Al5  1  0.868584  0.872680  0.750000  1
  Al  Al6  1  0.996998  0.328029  0.080421  1
  Al  Al7  1  0.999778  0.669037  0.921578  1
  Al  Al8  1  0.999778  0.669037  0.578422  1
  Al  Al9  1  0.341435  0.003118  0.423494  1
  Al  Al10  1  0.996998  0.328029  0.419579  1
  Al  Al11  1  0.661524  0.996800  0.571627  1
  Al  Al12  1  0.661524  0.996800  0.928373  1
  Al  Al13  1  0.341435  0.003118  0.076506  1
  Al  Al14  1  0.335280  0.333039  0.553439  1
  Al  Al15  1  0.664918  0.669370  0.444031  1
  Al  Al16  1  0.664918  0.669370  0.055969  1
  Al  Al17  1  0.335280  0.333039  0.946561  1
  Al  Al18  1  0.343662  0.551785  0.250000  1
  Al  Al19  1  0.658048  0.451845  0.750000  1
  Al  Al20  1  0.549506  0.339124  0.250000  1
  Al  Al21  1  0.452005  0.660418  0.750000  1
  Ir  Ir22  1  0.676054  0.329736  0.999722  1
  Ir  Ir23  1  0.323396  0.670106  0.000515  1
  Ir  Ir24  1  0.323396  0.670106  0.499485  1
  Ir  Ir25  1  0.676054  0.329736  0.500278  1
  Ir  Ir26  1  0.000263  0.999772  0.000197  1
  Ir  Ir27  1  0.000263  0.999772  0.499803  1
