# generated using pymatgen
data_LaBe2CuIr2
_symmetry_space_group_name_H-M   'P 1'
_cell_length_a   5.65067500
_cell_length_b   5.35276769
_cell_length_c   3.45248900
_cell_angle_alpha   90.00000000
_cell_angle_beta   90.00000000
_cell_angle_gamma   121.85875991
_symmetry_Int_Tables_number   1
_chemical_formula_structural   LaBe2CuIr2
_chemical_formula_sum   'La1 Be2 Cu1 Ir2'
_cell_volume   88.69490076
_cell_formula_units_Z   1
loop_
 _symmetry_equiv_pos_site_id
 _symmetry_equiv_pos_as_xyz
  1  'x, y, z'
loop_
 _atom_site_type_symbol
 _atom_site_label
 _atom_site_symmetry_multiplicity
 _atom_site_fract_x
 _atom_site_fract_y
 _atom_site_fract_z
 _atom_site_occupancy
  La  La0  1  0.000000  0.000000  0.000000  1
  Be  Be1  1  0.669021  0.338042  0.000000  1
  Be  Be2  1  0.330979  0.661958  0.000000  1
  Cu  Cu3  1  0.500000  0.000000  0.500000  1
  Ir  Ir4  1  0.500000  0.500000  0.500000  1
  Ir  Ir5  1  0.000000  0.500000  0.500000  1
