# generated using pymatgen
data_Pd4IBr7
_symmetry_space_group_name_H-M   'P 1'
_cell_length_a   8.62570817
_cell_length_b   6.70673419
_cell_length_c   6.74297512
_cell_angle_alpha   76.15148082
_cell_angle_beta   89.41270392
_cell_angle_gamma   89.68761283
_symmetry_Int_Tables_number   1
_chemical_formula_structural   Pd4IBr7
_chemical_formula_sum   'Pd4 I1 Br7'
_cell_volume   378.72267805
_cell_formula_units_Z   1
loop_
 _symmetry_equiv_pos_site_id
 _symmetry_equiv_pos_as_xyz
  1  'x, y, z'
loop_
 _atom_site_type_symbol
 _atom_site_label
 _atom_site_symmetry_multiplicity
 _atom_site_fract_x
 _atom_site_fract_y
 _atom_site_fract_z
 _atom_site_occupancy
  Pd  Pd0  1  0.368032  0.216478  0.999300  1
  Pd  Pd1  1  0.872026  0.784232  0.505781  1
  Pd  Pd2  1  0.628457  0.783598  0.994048  1
  Pd  Pd3  1  0.129883  0.219386  0.502751  1
  I  I4  1  0.826821  0.560706  0.244659  1
  Br  Br5  1  0.928399  0.019719  0.731855  1
  Br  Br6  1  0.426601  0.990247  0.768562  1
  Br  Br7  1  0.070910  0.988262  0.277943  1
  Br  Br8  1  0.567314  0.011893  0.223651  1
  Br  Br9  1  0.680046  0.576243  0.742633  1
  Br  Br10  1  0.182984  0.426137  0.754994  1
  Br  Br11  1  0.318526  0.423099  0.253824  1
