# generated using pymatgen
data_Dy7Er13(Cd3Co)2
_symmetry_space_group_name_H-M   'P 1'
_cell_length_a   9.51634817
_cell_length_b   9.51634821
_cell_length_c   9.68588120
_cell_angle_alpha   90.01996122
_cell_angle_beta   89.98003804
_cell_angle_gamma   120.00911228
_symmetry_Int_Tables_number   1
_chemical_formula_structural   Dy7Er13(Cd3Co)2
_chemical_formula_sum   'Dy7 Er13 Cd6 Co2'
_cell_volume   759.57471209
_cell_formula_units_Z   1
loop_
 _symmetry_equiv_pos_site_id
 _symmetry_equiv_pos_as_xyz
  1  'x, y, z'
loop_
 _atom_site_type_symbol
 _atom_site_label
 _atom_site_symmetry_multiplicity
 _atom_site_fract_x
 _atom_site_fract_y
 _atom_site_fract_z
 _atom_site_occupancy
  Dy  Dy0  1  0.542183  0.457817  0.250021  1
  Dy  Dy1  1  0.542423  0.084633  0.249875  1
  Dy  Dy2  1  0.915367  0.457577  0.249875  1
  Dy  Dy3  1  0.457805  0.542195  0.749982  1
  Dy  Dy4  1  0.457978  0.915712  0.750218  1
  Dy  Dy5  1  0.084288  0.542022  0.750218  1
  Dy  Dy6  1  0.212089  0.787911  0.436644  1
  Er  Er7  1  0.999869  0.000131  0.500079  1
  Er  Er8  1  0.999984  0.000016  0.000002  1
  Er  Er9  1  0.212026  0.423710  0.436905  1
  Er  Er10  1  0.576290  0.787974  0.436905  1
  Er  Er11  1  0.787907  0.212093  0.563278  1
  Er  Er12  1  0.787795  0.575809  0.563331  1
  Er  Er13  1  0.424191  0.212205  0.563331  1
  Er  Er14  1  0.787943  0.212057  0.936725  1
  Er  Er15  1  0.787913  0.575820  0.936717  1
  Er  Er16  1  0.424180  0.212087  0.936717  1
  Er  Er17  1  0.211994  0.788006  0.062807  1
  Er  Er18  1  0.212064  0.424199  0.063232  1
  Er  Er19  1  0.575801  0.787936  0.063232  1
  Cd  Cd20  1  0.885304  0.114696  0.250008  1
  Cd  Cd21  1  0.885235  0.770636  0.249954  1
  Cd  Cd22  1  0.229364  0.114765  0.249954  1
  Cd  Cd23  1  0.114653  0.885347  0.750139  1
  Cd  Cd24  1  0.114688  0.229385  0.750027  1
  Cd  Cd25  1  0.770615  0.885312  0.750027  1
  Co  Co26  1  0.333396  0.666604  0.249786  1
  Co  Co27  1  0.666655  0.333345  0.750009  1
