# generated using pymatgen
data_Bi(Te2As)3
_symmetry_space_group_name_H-M   'P 1'
_cell_length_a   7.85080214
_cell_length_b   7.85080203
_cell_length_c   10.24624483
_cell_angle_alpha   85.24823077
_cell_angle_beta   85.24823039
_cell_angle_gamma   30.62580856
_symmetry_Int_Tables_number   1
_chemical_formula_structural   Bi(Te2As)3
_chemical_formula_sum   'Bi1 Te6 As3'
_cell_volume   320.53003777
_cell_formula_units_Z   1
loop_
 _symmetry_equiv_pos_site_id
 _symmetry_equiv_pos_as_xyz
  1  'x, y, z'
loop_
 _atom_site_type_symbol
 _atom_site_label
 _atom_site_symmetry_multiplicity
 _atom_site_fract_x
 _atom_site_fract_y
 _atom_site_fract_z
 _atom_site_occupancy
  Bi  Bi0  1  0.382954  0.382954  0.452725  1
  Te  Te1  1  0.963533  0.963533  0.264529  1
  Te  Te2  1  0.041737  0.041737  0.701533  1
  Te  Te3  1  0.213608  0.213608  0.330227  1
  Te  Te4  1  0.778424  0.778424  0.671340  1
  Te  Te5  1  0.630078  0.630078  0.029864  1
  Te  Te6  1  0.365395  0.365395  0.973885  1
  As  As7  1  0.625632  0.625632  0.559662  1
  As  As8  1  0.795548  0.795548  0.146600  1
  As  As9  1  0.203091  0.203091  0.869635  1
