# generated using pymatgen
data_Pr4Al18Ir3Pt2Rh
_symmetry_space_group_name_H-M   'P 1'
_cell_length_a   7.65686587
_cell_length_b   7.65687040
_cell_length_c   9.63141804
_cell_angle_alpha   90.00052643
_cell_angle_beta   90.00041485
_cell_angle_gamma   119.49261025
_symmetry_Int_Tables_number   1
_chemical_formula_structural   Pr4Al18Ir3Pt2Rh
_chemical_formula_sum   'Pr4 Al18 Ir3 Pt2 Rh1'
_cell_volume   491.49718036
_cell_formula_units_Z   1
loop_
 _symmetry_equiv_pos_site_id
 _symmetry_equiv_pos_as_xyz
  1  'x, y, z'
loop_
 _atom_site_type_symbol
 _atom_site_label
 _atom_site_symmetry_multiplicity
 _atom_site_fract_x
 _atom_site_fract_y
 _atom_site_fract_z
 _atom_site_occupancy
  Pr  Pr0  1  0.994686  0.669500  0.250252  1
  Pr  Pr1  1  0.004483  0.329886  0.749929  1
  Pr  Pr2  1  0.670115  0.995516  0.250071  1
  Pr  Pr3  1  0.330499  0.005315  0.749748  1
  Al  Al4  1  0.132255  0.131388  0.247375  1
  Al  Al5  1  0.868611  0.867746  0.752625  1
  Al  Al6  1  0.005346  0.334693  0.073709  1
  Al  Al7  1  0.001184  0.668926  0.926537  1
  Al  Al8  1  0.997761  0.661767  0.573822  1
  Al  Al9  1  0.338233  0.002239  0.426178  1
  Al  Al10  1  0.002627  0.338025  0.425877  1
  Al  Al11  1  0.661975  0.997373  0.574123  1
  Al  Al12  1  0.665308  0.994654  0.926291  1
  Al  Al13  1  0.331073  0.998816  0.073463  1
  Al  Al14  1  0.336637  0.336753  0.547712  1
  Al  Al15  1  0.663247  0.663363  0.452288  1
  Al  Al16  1  0.665225  0.668412  0.048789  1
  Al  Al17  1  0.331588  0.334775  0.951211  1
  Al  Al18  1  0.340546  0.546691  0.249937  1
  Al  Al19  1  0.659972  0.455433  0.747371  1
  Al  Al20  1  0.544567  0.340028  0.252629  1
  Al  Al21  1  0.453309  0.659454  0.750063  1
  Ir  Ir22  1  0.329034  0.670969  0.000000  1
  Ir  Ir23  1  0.329217  0.670781  0.499999  1
  Ir  Ir24  1  0.671184  0.328818  0.500001  1
  Pt  Pt25  1  0.671376  0.328621  0.000000  1
  Pt  Pt26  1  0.000154  0.999846  0.500000  1
  Rh  Rh27  1  0.999786  0.000214  0.000000  1
