# generated using pymatgen
data_KU2Cl11
_symmetry_space_group_name_H-M   'P 1'
_cell_length_a   7.50767914
_cell_length_b   7.55955888
_cell_length_c   18.15191094
_cell_angle_alpha   79.98835333
_cell_angle_beta   79.68167474
_cell_angle_gamma   87.16319655
_symmetry_Int_Tables_number   1
_chemical_formula_structural   KU2Cl11
_chemical_formula_sum   'K2 U4 Cl22'
_cell_volume   997.93339252
_cell_formula_units_Z   2
loop_
 _symmetry_equiv_pos_site_id
 _symmetry_equiv_pos_as_xyz
  1  'x, y, z'
loop_
 _atom_site_type_symbol
 _atom_site_label
 _atom_site_symmetry_multiplicity
 _atom_site_fract_x
 _atom_site_fract_y
 _atom_site_fract_z
 _atom_site_occupancy
  K  K0  1  0.745700  0.747309  0.505971  1
  K  K1  1  0.254300  0.252691  0.494029  1
  U  U2  1  0.317112  0.816017  0.351107  1
  U  U3  1  0.682888  0.183983  0.648893  1
  U  U4  1  0.832030  0.329131  0.087569  1
  U  U5  1  0.167970  0.670869  0.912431  1
  Cl  Cl6  1  0.251190  0.781536  0.497126  1
  Cl  Cl7  1  0.748810  0.218464  0.502874  1
  Cl  Cl8  1  0.575312  0.015478  0.357036  1
  Cl  Cl9  1  0.424688  0.984522  0.642964  1
  Cl  Cl10  1  0.529454  0.542922  0.365878  1
  Cl  Cl11  1  0.470546  0.457078  0.634122  1
  Cl  Cl12  1  0.380876  0.852779  0.210717  1
  Cl  Cl13  1  0.619124  0.147221  0.789283  1
  Cl  Cl14  1  0.052783  0.605038  0.364574  1
  Cl  Cl15  1  0.947217  0.394962  0.635426  1
  Cl  Cl16  1  0.102389  0.085292  0.349261  1
  Cl  Cl17  1  0.897611  0.914708  0.650739  1
  Cl  Cl18  1  0.890865  0.022589  0.153820  1
  Cl  Cl19  1  0.109135  0.977411  0.846180  1
  Cl  Cl20  1  0.520748  0.372828  0.155837  1
  Cl  Cl21  1  0.479252  0.627172  0.844163  1
  Cl  Cl22  1  0.713341  0.206232  0.988385  1
  Cl  Cl23  1  0.286659  0.793768  0.011615  1
  Cl  Cl24  1  0.963024  0.465934  0.179482  1
  Cl  Cl25  1  0.036976  0.534066  0.820518  1
  Cl  Cl26  1  0.168098  0.339343  0.999612  1
  Cl  Cl27  1  0.831902  0.660657  0.000388  1
