# generated using pymatgen
data_NbZnNi9Sb
_symmetry_space_group_name_H-M   'P 1'
_cell_length_a   3.67177200
_cell_length_b   3.67177200
_cell_length_c   10.84530300
_cell_angle_alpha   90.00000000
_cell_angle_beta   90.00000000
_cell_angle_gamma   90.00000000
_symmetry_Int_Tables_number   1
_chemical_formula_structural   NbZnNi9Sb
_chemical_formula_sum   'Nb1 Zn1 Ni9 Sb1'
_cell_volume   146.21539485
_cell_formula_units_Z   1
loop_
 _symmetry_equiv_pos_site_id
 _symmetry_equiv_pos_as_xyz
  1  'x, y, z'
loop_
 _atom_site_type_symbol
 _atom_site_label
 _atom_site_symmetry_multiplicity
 _atom_site_fract_x
 _atom_site_fract_y
 _atom_site_fract_z
 _atom_site_occupancy
  Nb  Nb0  1  0.000000  0.000000  0.990862  1
  Zn  Zn1  1  0.000000  0.000000  0.669076  1
  Ni  Ni2  1  0.500000  0.500000  0.998225  1
  Ni  Ni3  1  0.500000  0.500000  0.332639  1
  Ni  Ni4  1  0.500000  0.500000  0.665984  1
  Ni  Ni5  1  0.500000  0.000000  0.162067  1
  Ni  Ni6  1  0.500000  0.000000  0.508808  1
  Ni  Ni7  1  0.500000  0.000000  0.829705  1
  Ni  Ni8  1  0.000000  0.500000  0.162067  1
  Ni  Ni9  1  0.000000  0.500000  0.508808  1
  Ni  Ni10  1  0.000000  0.500000  0.829705  1
  Sb  Sb11  1  0.000000  0.000000  0.342056  1
