# generated using pymatgen
data_Ac7Nd(InSi2)4
_symmetry_space_group_name_H-M   'P 1'
_cell_length_a   4.51283000
_cell_length_b   7.97962842
_cell_length_c   15.25276400
_cell_angle_alpha   90.69403903
_cell_angle_beta   90.00000000
_cell_angle_gamma   90.00000000
_symmetry_Int_Tables_number   1
_chemical_formula_structural   Ac7Nd(InSi2)4
_chemical_formula_sum   'Ac7 Nd1 In4 Si8'
_cell_volume   549.22251177
_cell_formula_units_Z   1
loop_
 _symmetry_equiv_pos_site_id
 _symmetry_equiv_pos_as_xyz
  1  'x, y, z'
loop_
 _atom_site_type_symbol
 _atom_site_label
 _atom_site_symmetry_multiplicity
 _atom_site_fract_x
 _atom_site_fract_y
 _atom_site_fract_z
 _atom_site_occupancy
  Ac  Ac0  1  0.500000  0.742175  0.033083  1
  Ac  Ac1  1  0.500000  0.244352  0.960350  1
  Ac  Ac2  1  0.500000  0.254001  0.469614  1
  Ac  Ac3  1  0.500000  0.757451  0.536840  1
  Ac  Ac4  1  0.500000  0.618874  0.284320  1
  Ac  Ac5  1  0.500000  0.384905  0.720483  1
  Ac  Ac6  1  0.500000  0.120062  0.214416  1
  Nd  Nd7  1  0.500000  0.883461  0.782951  1
  In  In8  1  0.000000  0.941582  0.374958  1
  In  In9  1  0.000000  0.050497  0.632699  1
  In  In10  1  0.000000  0.438796  0.124138  1
  In  In11  1  0.000000  0.577884  0.871724  1
  Si  Si12  1  0.000000  0.553247  0.427184  1
  Si  Si13  1  0.000000  0.462311  0.578986  1
  Si  Si14  1  0.000000  0.041541  0.069449  1
  Si  Si15  1  0.000000  0.932937  0.918055  1
  Si  Si16  1  0.000000  0.829740  0.181521  1
  Si  Si17  1  0.000000  0.151118  0.812105  1
  Si  Si18  1  0.000000  0.328843  0.319927  1
  Si  Si19  1  0.000000  0.686225  0.687199  1
