# generated using pymatgen
data_CsUTi3O9
_symmetry_space_group_name_H-M   'P 1'
_cell_length_a   7.51864700
_cell_length_b   7.51864699
_cell_length_c   11.03282600
_cell_angle_alpha   90.00000000
_cell_angle_beta   90.00000000
_cell_angle_gamma   120.00000446
_symmetry_Int_Tables_number   1
_chemical_formula_structural   CsUTi3O9
_chemical_formula_sum   'Cs2 U2 Ti6 O18'
_cell_volume   540.12809856
_cell_formula_units_Z   2
loop_
 _symmetry_equiv_pos_site_id
 _symmetry_equiv_pos_as_xyz
  1  'x, y, z'
loop_
 _atom_site_type_symbol
 _atom_site_label
 _atom_site_symmetry_multiplicity
 _atom_site_fract_x
 _atom_site_fract_y
 _atom_site_fract_z
 _atom_site_occupancy
  Cs  Cs0  1  0.666667  0.333333  0.000000  1
  Cs  Cs1  1  0.666667  0.333333  0.500000  1
  U  U2  1  0.333333  0.666667  0.000000  1
  U  U3  1  0.333333  0.666667  0.500000  1
  Ti  Ti4  1  0.071268  0.286331  0.250000  1
  Ti  Ti5  1  0.215063  0.928732  0.250000  1
  Ti  Ti6  1  0.713669  0.784937  0.250000  1
  Ti  Ti7  1  0.713669  0.928732  0.750000  1
  Ti  Ti8  1  0.215063  0.286331  0.750000  1
  Ti  Ti9  1  0.071268  0.784937  0.750000  1
  O  O10  1  0.254787  0.190353  0.250000  1
  O  O11  1  0.935565  0.745213  0.250000  1
  O  O12  1  0.809647  0.064435  0.250000  1
  O  O13  1  0.809647  0.745213  0.750000  1
  O  O14  1  0.935565  0.190353  0.750000  1
  O  O15  1  0.254787  0.064435  0.750000  1
  O  O16  1  0.100084  0.435647  0.114291  1
  O  O17  1  0.335562  0.899916  0.385709  1
  O  O18  1  0.564353  0.664438  0.385709  1
  O  O19  1  0.564353  0.664438  0.114291  1
  O  O20  1  0.335562  0.899916  0.114291  1
  O  O21  1  0.564353  0.899916  0.885709  1
  O  O22  1  0.335562  0.435647  0.885709  1
  O  O23  1  0.100084  0.664438  0.885709  1
  O  O24  1  0.335562  0.435647  0.614291  1
  O  O25  1  0.100084  0.664438  0.614291  1
  O  O26  1  0.100084  0.435647  0.385709  1
  O  O27  1  0.564353  0.899916  0.614291  1
