# generated using pymatgen
data_Ho2(ThOs)3
_symmetry_space_group_name_H-M   'P 1'
_cell_length_a   6.37643800
_cell_length_b   8.36574486
_cell_length_c   8.36560200
_cell_angle_alpha   120.00056939
_cell_angle_beta   90.00000000
_cell_angle_gamma   90.00000000
_symmetry_Int_Tables_number   1
_chemical_formula_structural   Ho2(ThOs)3
_chemical_formula_sum   'Ho4 Th6 Os6'
_cell_volume   386.46315506
_cell_formula_units_Z   2
loop_
 _symmetry_equiv_pos_site_id
 _symmetry_equiv_pos_as_xyz
  1  'x, y, z'
loop_
 _atom_site_type_symbol
 _atom_site_label
 _atom_site_symmetry_multiplicity
 _atom_site_fract_x
 _atom_site_fract_y
 _atom_site_fract_z
 _atom_site_occupancy
  Ho  Ho0  1  0.500000  0.333340  0.666688  1
  Ho  Ho1  1  0.500000  0.666654  0.333312  1
  Ho  Ho2  1  0.000000  0.666660  0.333312  1
  Ho  Ho3  1  0.000000  0.333346  0.666688  1
  Th  Th4  1  0.749999  0.255390  0.000000  1
  Th  Th5  1  0.749993  0.744595  0.744586  1
  Th  Th6  1  0.749993  0.000010  0.255414  1
  Th  Th7  1  0.249999  0.744610  0.000000  1
  Th  Th8  1  0.249993  0.255405  0.255414  1
  Th  Th9  1  0.249993  0.999990  0.744586  1
  Os  Os10  1  0.750005  0.617716  0.000000  1
  Os  Os11  1  0.750006  0.382290  0.382293  1
  Os  Os12  1  0.750006  0.999997  0.617707  1
  Os  Os13  1  0.250005  0.382284  0.000000  1
  Os  Os14  1  0.250006  0.617710  0.617707  1
  Os  Os15  1  0.250006  0.000003  0.382293  1
