# generated using pymatgen
data_Li2ZrNi11As7
_symmetry_space_group_name_H-M   'P 1'
_cell_length_a   3.75993400
_cell_length_b   9.32901905
_cell_length_c   9.39976765
_cell_angle_alpha   120.27618520
_cell_angle_beta   90.00000000
_cell_angle_gamma   90.00000000
_symmetry_Int_Tables_number   1
_chemical_formula_structural   Li2ZrNi11As7
_chemical_formula_sum   'Li2 Zr1 Ni11 As7'
_cell_volume   284.74005138
_cell_formula_units_Z   1
loop_
 _symmetry_equiv_pos_site_id
 _symmetry_equiv_pos_as_xyz
  1  'x, y, z'
loop_
 _atom_site_type_symbol
 _atom_site_label
 _atom_site_symmetry_multiplicity
 _atom_site_fract_x
 _atom_site_fract_y
 _atom_site_fract_z
 _atom_site_occupancy
  Li  Li0  1  0.500000  0.330960  0.665783  1
  Li  Li1  1  0.500000  0.116201  0.898425  1
  Zr  Zr2  1  0.000000  0.670262  0.337794  1
  Ni  Ni3  1  0.000000  0.881095  0.719494  1
  Ni  Ni4  1  0.000000  0.284083  0.163192  1
  Ni  Ni5  1  0.000000  0.833900  0.121038  1
  Ni  Ni6  1  0.500000  0.954566  0.569615  1
  Ni  Ni7  1  0.500000  0.430436  0.384964  1
  Ni  Ni8  1  0.500000  0.615357  0.043022  1
  Ni  Ni9  1  0.000000  0.383034  0.951861  1
  Ni  Ni10  1  0.000000  0.051040  0.430193  1
  Ni  Ni11  1  0.000000  0.566201  0.617827  1
  Ni  Ni12  1  0.500000  0.093257  0.212383  1
  Ni  Ni13  1  0.500000  0.786916  0.881796  1
  As  As14  1  0.500000  0.710330  0.591137  1
  As  As15  1  0.500000  0.419702  0.126263  1
  As  As16  1  0.500000  0.879447  0.291831  1
  As  As17  1  0.000000  0.996222  0.003159  1
  As  As18  1  0.000000  0.126978  0.705060  1
  As  As19  1  0.000000  0.288321  0.414918  1
  As  As20  1  0.000000  0.581693  0.870246  1
