# generated using pymatgen
data_Zr5TaRh10
_symmetry_space_group_name_H-M   'P 1'
_cell_length_a   5.63255495
_cell_length_b   5.63255520
_cell_length_c   8.66115000
_cell_angle_alpha   90.00000000
_cell_angle_beta   90.00000000
_cell_angle_gamma   101.97943400
_symmetry_Int_Tables_number   1
_chemical_formula_structural   Zr5TaRh10
_chemical_formula_sum   'Zr5 Ta1 Rh10'
_cell_volume   268.79671297
_cell_formula_units_Z   1
loop_
 _symmetry_equiv_pos_site_id
 _symmetry_equiv_pos_as_xyz
  1  'x, y, z'
loop_
 _atom_site_type_symbol
 _atom_site_label
 _atom_site_symmetry_multiplicity
 _atom_site_fract_x
 _atom_site_fract_y
 _atom_site_fract_z
 _atom_site_occupancy
  Zr  Zr0  1  0.425287  0.425287  0.250000  1
  Zr  Zr1  1  0.793542  0.210955  0.499265  1
  Zr  Zr2  1  0.210955  0.793542  0.000735  1
  Zr  Zr3  1  0.210955  0.793542  0.499265  1
  Zr  Zr4  1  0.793542  0.210955  0.000735  1
  Ta  Ta5  1  0.568746  0.568746  0.750000  1
  Rh  Rh6  1  0.710720  0.710720  0.020673  1
  Rh  Rh7  1  0.710720  0.710720  0.479327  1
  Rh  Rh8  1  0.298856  0.298856  0.961253  1
  Rh  Rh9  1  0.298856  0.298856  0.538747  1
  Rh  Rh10  1  0.491918  0.003442  0.750000  1
  Rh  Rh11  1  0.509857  0.972076  0.250000  1
  Rh  Rh12  1  0.013376  0.013376  0.250000  1
  Rh  Rh13  1  0.987153  0.987153  0.750000  1
  Rh  Rh14  1  0.003442  0.491918  0.750000  1
  Rh  Rh15  1  0.972076  0.509857  0.250000  1
