# generated using pymatgen
data_Lu10Si5Sn
_symmetry_space_group_name_H-M   'P 1'
_cell_length_a   8.32057400
_cell_length_b   8.33933924
_cell_length_c   6.20746600
_cell_angle_alpha   90.00000000
_cell_angle_beta   90.00000000
_cell_angle_gamma   119.92559953
_symmetry_Int_Tables_number   1
_chemical_formula_structural   Lu10Si5Sn
_chemical_formula_sum   'Lu10 Si5 Sn1'
_cell_volume   373.29744389
_cell_formula_units_Z   1
loop_
 _symmetry_equiv_pos_site_id
 _symmetry_equiv_pos_as_xyz
  1  'x, y, z'
loop_
 _atom_site_type_symbol
 _atom_site_label
 _atom_site_symmetry_multiplicity
 _atom_site_fract_x
 _atom_site_fract_y
 _atom_site_fract_z
 _atom_site_occupancy
  Lu  Lu0  1  0.673124  0.341288  0.003180  1
  Lu  Lu1  1  0.331834  0.658712  0.496820  1
  Lu  Lu2  1  0.331834  0.658712  0.003180  1
  Lu  Lu3  1  0.673124  0.341288  0.496820  1
  Lu  Lu4  1  0.765925  0.000000  0.750000  1
  Lu  Lu5  1  0.757460  0.758214  0.250000  1
  Lu  Lu6  1  0.999245  0.241786  0.250000  1
  Lu  Lu7  1  0.989413  0.750475  0.750000  1
  Lu  Lu8  1  0.238937  0.249525  0.750000  1
  Lu  Lu9  1  0.239847  0.000000  0.250000  1
  Si  Si10  1  0.394098  0.393250  0.250000  1
  Si  Si11  1  0.000848  0.606750  0.250000  1
  Si  Si12  1  0.999149  0.394613  0.750000  1
  Si  Si13  1  0.604537  0.605387  0.750000  1
  Si  Si14  1  0.605649  0.000000  0.250000  1
  Sn  Sn15  1  0.394977  0.000000  0.750000  1
