# generated using pymatgen
data_K3Sc(IO3)6
_symmetry_space_group_name_H-M   'P 1'
_cell_length_a   7.03521593
_cell_length_b   7.18694786
_cell_length_c   10.71994817
_cell_angle_alpha   98.49243313
_cell_angle_beta   108.29598737
_cell_angle_gamma   102.99150512
_symmetry_Int_Tables_number   1
_chemical_formula_structural   K3Sc(IO3)6
_chemical_formula_sum   'K3 Sc1 I6 O18'
_cell_volume   487.29276896
_cell_formula_units_Z   1
loop_
 _symmetry_equiv_pos_site_id
 _symmetry_equiv_pos_as_xyz
  1  'x, y, z'
loop_
 _atom_site_type_symbol
 _atom_site_label
 _atom_site_symmetry_multiplicity
 _atom_site_fract_x
 _atom_site_fract_y
 _atom_site_fract_z
 _atom_site_occupancy
  K  K0  1  0.375685  0.538911  0.294309  1
  K  K1  1  0.624315  0.461089  0.705691  1
  K  K2  1  0.000000  0.500000  0.500000  1
  Sc  Sc3  1  0.000000  0.000000  0.000000  1
  I  I4  1  0.556615  0.035413  0.192851  1
  I  I5  1  0.443385  0.964587  0.807149  1
  I  I6  1  0.782540  0.538871  0.101874  1
  I  I7  1  0.217460  0.461129  0.898126  1
  I  I8  1  0.134772  0.056951  0.378034  1
  I  I9  1  0.865228  0.943049  0.621966  1
  O  O10  1  0.586590  0.656392  0.125559  1
  O  O11  1  0.413410  0.343608  0.874441  1
  O  O12  1  0.004760  0.355285  0.734758  1
  O  O13  1  0.995240  0.644715  0.265242  1
  O  O14  1  0.614125  0.304057  0.235098  1
  O  O15  1  0.385875  0.695943  0.764902  1
  O  O16  1  0.052843  0.099049  0.204043  1
  O  O17  1  0.947157  0.900951  0.795957  1
  O  O18  1  0.306691  0.968430  0.041460  1
  O  O19  1  0.693309  0.031570  0.958540  1
  O  O20  1  0.293662  0.306155  0.467108  1
  O  O21  1  0.706338  0.693845  0.532892  1
  O  O22  1  0.886162  0.076406  0.398701  1
  O  O23  1  0.113838  0.923594  0.601299  1
  O  O24  1  0.560009  0.034101  0.684374  1
  O  O25  1  0.439991  0.965899  0.315626  1
  O  O26  1  0.112256  0.309336  0.001670  1
  O  O27  1  0.887744  0.690664  0.998330  1
