# generated using pymatgen
data_LuSc2Ga5Co
_symmetry_space_group_name_H-M   'P 1'
_cell_length_a   6.71719603
_cell_length_b   6.71719602
_cell_length_c   4.07215500
_cell_angle_alpha   90.00000000
_cell_angle_beta   90.00000000
_cell_angle_gamma   120.62223962
_symmetry_Int_Tables_number   1
_chemical_formula_structural   LuSc2Ga5Co
_chemical_formula_sum   'Lu1 Sc2 Ga5 Co1'
_cell_volume   158.11519765
_cell_formula_units_Z   1
loop_
 _symmetry_equiv_pos_site_id
 _symmetry_equiv_pos_as_xyz
  1  'x, y, z'
loop_
 _atom_site_type_symbol
 _atom_site_label
 _atom_site_symmetry_multiplicity
 _atom_site_fract_x
 _atom_site_fract_y
 _atom_site_fract_z
 _atom_site_occupancy
  Lu  Lu0  1  0.407855  0.407855  0.000000  1
  Sc  Sc1  1  0.597462  0.001368  0.000000  1
  Sc  Sc2  1  0.001368  0.597462  0.000000  1
  Ga  Ga3  1  0.234055  0.998204  0.500000  1
  Ga  Ga4  1  0.998204  0.234055  0.500000  1
  Ga  Ga5  1  0.765346  0.765346  0.500000  1
  Ga  Ga6  1  0.331402  0.671543  0.500000  1
  Ga  Ga7  1  0.671543  0.331402  0.500000  1
  Co  Co8  1  0.992764  0.992764  0.000000  1
