# generated using pymatgen
data_Cs7B12IrPt11
_symmetry_space_group_name_H-M   'P 1'
_cell_length_a   9.57903218
_cell_length_b   9.57903196
_cell_length_c   9.55057561
_cell_angle_alpha   111.86595845
_cell_angle_beta   111.86596234
_cell_angle_gamma   112.40062162
_symmetry_Int_Tables_number   1
_chemical_formula_structural   Cs7B12IrPt11
_chemical_formula_sum   'Cs7 B12 Ir1 Pt11'
_cell_volume   601.83678885
_cell_formula_units_Z   1
loop_
 _symmetry_equiv_pos_site_id
 _symmetry_equiv_pos_as_xyz
  1  'x, y, z'
loop_
 _atom_site_type_symbol
 _atom_site_label
 _atom_site_symmetry_multiplicity
 _atom_site_fract_x
 _atom_site_fract_y
 _atom_site_fract_z
 _atom_site_occupancy
  Cs  Cs0  1  0.999227  0.734973  0.733121  1
  Cs  Cs1  1  0.737403  0.736490  0.000720  1
  Cs  Cs2  1  0.736091  0.999994  0.736515  1
  Cs  Cs3  1  0.265027  0.000773  0.266879  1
  Cs  Cs4  1  0.000006  0.263909  0.263485  1
  Cs  Cs5  1  0.263510  0.262597  0.999280  1
  Cs  Cs6  1  0.499956  0.500044  0.500000  1
  B  B7  1  0.272360  0.727640  0.500000  1
  B  B8  1  0.721239  0.496788  0.262421  1
  B  B9  1  0.503212  0.278761  0.737579  1
  B  B10  1  0.724456  0.275544  0.500000  1
  B  B11  1  0.273328  0.500100  0.725569  1
  B  B12  1  0.499900  0.726672  0.274431  1
  B  B13  1  0.055321  0.944679  0.500000  1
  B  B14  1  0.936995  0.485387  0.053902  1
  B  B15  1  0.514613  0.063005  0.946098  1
  B  B16  1  0.944832  0.055168  0.500000  1
  B  B17  1  0.054653  0.498686  0.946792  1
  B  B18  1  0.501314  0.945347  0.053208  1
  Ir  Ir19  1  0.672455  0.327545  0.000000  1
  Pt  Pt20  1  0.325344  0.999795  0.671626  1
  Pt  Pt21  1  0.000205  0.674656  0.328374  1
  Pt  Pt22  1  0.326526  0.673474  0.000000  1
  Pt  Pt23  1  0.672542  0.001511  0.327083  1
  Pt  Pt24  1  0.998489  0.327458  0.672917  1
  Pt  Pt25  1  0.640146  0.251436  0.251415  1
  Pt  Pt26  1  0.253458  0.255172  0.642253  1
  Pt  Pt27  1  0.252610  0.638607  0.251793  1
  Pt  Pt28  1  0.748564  0.359854  0.748585  1
  Pt  Pt29  1  0.361393  0.747390  0.748207  1
  Pt  Pt30  1  0.744828  0.746542  0.357747  1
