# generated using pymatgen
data_Eu2Si4(IrRh)3
_symmetry_space_group_name_H-M   'P 1'
_cell_length_a   6.71056008
_cell_length_b   6.70995924
_cell_length_c   6.71056048
_cell_angle_alpha   130.34298827
_cell_angle_beta   115.48791457
_cell_angle_gamma   85.54755252
_symmetry_Int_Tables_number   1
_chemical_formula_structural   Eu2Si4(IrRh)3
_chemical_formula_sum   'Eu2 Si4 Ir3 Rh3'
_cell_volume   198.82340290
_cell_formula_units_Z   1
loop_
 _symmetry_equiv_pos_site_id
 _symmetry_equiv_pos_as_xyz
  1  'x, y, z'
loop_
 _atom_site_type_symbol
 _atom_site_label
 _atom_site_symmetry_multiplicity
 _atom_site_fract_x
 _atom_site_fract_y
 _atom_site_fract_z
 _atom_site_occupancy
  Eu  Eu0  1  0.749028  0.026915  0.276367  1
  Eu  Eu1  1  0.249452  0.973085  0.722113  1
  Si  Si2  1  0.577288  0.379491  0.802182  1
  Si  Si3  1  0.422691  0.620509  0.197797  1
  Si  Si4  1  0.079466  0.276897  0.199342  1
  Si  Si5  1  0.922445  0.723103  0.802570  1
  Ir  Ir6  1  0.217771  0.500000  0.717771  1
  Ir  Ir7  1  0.717769  0.000000  0.717769  1
  Ir  Ir8  1  0.783309  0.500000  0.283309  1
  Rh  Rh9  1  0.282510  0.000000  0.282510  1
  Rh  Rh10  1  0.498728  0.500165  0.499709  1
  Rh  Rh11  1  0.999545  0.499835  0.998562  1
