# generated using pymatgen
data_Dy10IrRu2Rh3
_symmetry_space_group_name_H-M   'P 1'
_cell_length_a   10.86081819
_cell_length_b   10.86116600
_cell_length_c   6.42577411
_cell_angle_alpha   90.00000000
_cell_angle_beta   90.02142524
_cell_angle_gamma   90.00000000
_symmetry_Int_Tables_number   1
_chemical_formula_structural   Dy10IrRu2Rh3
_chemical_formula_sum   'Dy20 Ir2 Ru4 Rh6'
_cell_volume   757.99164615
_cell_formula_units_Z   2
loop_
 _symmetry_equiv_pos_site_id
 _symmetry_equiv_pos_as_xyz
  1  'x, y, z'
loop_
 _atom_site_type_symbol
 _atom_site_label
 _atom_site_symmetry_multiplicity
 _atom_site_fract_x
 _atom_site_fract_y
 _atom_site_fract_z
 _atom_site_occupancy
  Dy  Dy0  1  0.294227  0.087654  0.378101  1
  Dy  Dy1  1  0.294227  0.912346  0.878101  1
  Dy  Dy2  1  0.705739  0.086671  0.878142  1
  Dy  Dy3  1  0.705739  0.913329  0.378142  1
  Dy  Dy4  1  0.585725  0.793884  0.878010  1
  Dy  Dy5  1  0.585725  0.206116  0.378010  1
  Dy  Dy6  1  0.412784  0.793691  0.379117  1
  Dy  Dy7  1  0.412784  0.206309  0.879117  1
  Dy  Dy8  1  0.206900  0.413850  0.621202  1
  Dy  Dy9  1  0.206900  0.586150  0.121202  1
  Dy  Dy10  1  0.794503  0.413139  0.121725  1
  Dy  Dy11  1  0.794503  0.586861  0.621725  1
  Dy  Dy12  1  0.913293  0.705784  0.121687  1
  Dy  Dy13  1  0.913293  0.294216  0.621687  1
  Dy  Dy14  1  0.087678  0.705745  0.622103  1
  Dy  Dy15  1  0.087678  0.294255  0.122103  1
  Dy  Dy16  1  0.999981  0.000015  0.499970  1
  Dy  Dy17  1  0.999981  0.999985  0.999970  1
  Dy  Dy18  1  0.499548  0.500075  0.999962  1
  Dy  Dy19  1  0.499548  0.499925  0.499962  1
  Ir  Ir20  1  0.347711  0.347341  0.249935  1
  Ir  Ir21  1  0.347711  0.652659  0.749935  1
  Ru  Ru22  1  0.500496  0.999990  0.123477  1
  Ru  Ru23  1  0.500496  0.000010  0.623477  1
  Ru  Ru24  1  0.999146  0.500038  0.876497  1
  Ru  Ru25  1  0.999146  0.499962  0.376497  1
  Rh  Rh26  1  0.847862  0.152158  0.249937  1
  Rh  Rh27  1  0.847862  0.847842  0.749937  1
  Rh  Rh28  1  0.151849  0.151828  0.750055  1
  Rh  Rh29  1  0.151849  0.848172  0.250055  1
  Rh  Rh30  1  0.652559  0.347790  0.750081  1
  Rh  Rh31  1  0.652559  0.652210  0.250081  1
