# generated using pymatgen
data_Sm2OsO5
_symmetry_space_group_name_H-M   'P 1'
_cell_length_a   8.68851900
_cell_length_b   8.68851900
_cell_length_c   5.83847300
_cell_angle_alpha   90.00000000
_cell_angle_beta   90.00000000
_cell_angle_gamma   90.00000000
_symmetry_Int_Tables_number   1
_chemical_formula_structural   Sm2OsO5
_chemical_formula_sum   'Sm8 Os4 O20'
_cell_volume   440.74844271
_cell_formula_units_Z   4
loop_
 _symmetry_equiv_pos_site_id
 _symmetry_equiv_pos_as_xyz
  1  'x, y, z'
loop_
 _atom_site_type_symbol
 _atom_site_label
 _atom_site_symmetry_multiplicity
 _atom_site_fract_x
 _atom_site_fract_y
 _atom_site_fract_z
 _atom_site_occupancy
  Sm  Sm0  1  0.358560  0.650219  0.248930  1
  Sm  Sm1  1  0.150219  0.141440  0.248930  1
  Sm  Sm2  1  0.849781  0.858560  0.248930  1
  Sm  Sm3  1  0.641440  0.349781  0.248930  1
  Sm  Sm4  1  0.858560  0.150219  0.751070  1
  Sm  Sm5  1  0.650219  0.641440  0.751070  1
  Sm  Sm6  1  0.349781  0.358560  0.751070  1
  Sm  Sm7  1  0.141440  0.849781  0.751070  1
  Os  Os8  1  0.000000  0.500000  0.156719  1
  Os  Os9  1  0.500000  0.000000  0.843281  1
  Os  Os10  1  0.000000  0.500000  0.539412  1
  Os  Os11  1  0.500000  0.000000  0.460588  1
  O  O12  1  0.700682  0.089869  0.395097  1
  O  O13  1  0.589869  0.799318  0.395097  1
  O  O14  1  0.410131  0.200682  0.395097  1
  O  O15  1  0.299318  0.910131  0.395097  1
  O  O16  1  0.799318  0.410131  0.604903  1
  O  O17  1  0.910131  0.700682  0.604903  1
  O  O18  1  0.089869  0.299318  0.604903  1
  O  O19  1  0.200682  0.589869  0.604903  1
  O  O20  1  0.700153  0.908587  0.902336  1
  O  O21  1  0.408587  0.799847  0.902336  1
  O  O22  1  0.591413  0.200153  0.902336  1
  O  O23  1  0.299847  0.091413  0.902336  1
  O  O24  1  0.500000  0.500000  0.000000  1
  O  O25  1  0.000000  0.000000  0.000000  1
  O  O26  1  0.500000  0.500000  0.500000  1
  O  O27  1  0.000000  0.000000  0.500000  1
  O  O28  1  0.200153  0.408587  0.097664  1
  O  O29  1  0.908587  0.299847  0.097664  1
  O  O30  1  0.091413  0.700153  0.097664  1
  O  O31  1  0.799847  0.591413  0.097664  1
