# generated using pymatgen
data_Y3(TmSb4)5
_symmetry_space_group_name_H-M   'P 1'
_cell_length_a   4.20965100
_cell_length_b   13.17047240
_cell_length_c   14.58814095
_cell_angle_alpha   78.31051451
_cell_angle_beta   90.00000000
_cell_angle_gamma   90.00000000
_symmetry_Int_Tables_number   1
_chemical_formula_structural   Y3(TmSb4)5
_chemical_formula_sum   'Y3 Tm5 Sb20'
_cell_volume   792.03689824
_cell_formula_units_Z   1
loop_
 _symmetry_equiv_pos_site_id
 _symmetry_equiv_pos_as_xyz
  1  'x, y, z'
loop_
 _atom_site_type_symbol
 _atom_site_label
 _atom_site_symmetry_multiplicity
 _atom_site_fract_x
 _atom_site_fract_y
 _atom_site_fract_z
 _atom_site_occupancy
  Y  Y0  1  0.750000  0.331578  0.423722  1
  Y  Y1  1  0.250000  0.953289  0.358799  1
  Y  Y2  1  0.750000  0.046092  0.641273  1
  Tm  Tm3  1  0.250000  0.395611  0.771126  1
  Tm  Tm4  1  0.750000  0.604852  0.229187  1
  Tm  Tm5  1  0.250000  0.661426  0.856136  1
  Tm  Tm6  1  0.750000  0.338555  0.143409  1
  Tm  Tm7  1  0.250000  0.668724  0.576384  1
  Sb  Sb8  1  0.250000  0.144976  0.779234  1
  Sb  Sb9  1  0.750000  0.854930  0.220645  1
  Sb  Sb10  1  0.250000  0.143545  0.482218  1
  Sb  Sb11  1  0.750000  0.854178  0.517984  1
  Sb  Sb12  1  0.250000  0.153795  0.169920  1
  Sb  Sb13  1  0.750000  0.846221  0.829949  1
  Sb  Sb14  1  0.250000  0.420740  0.975462  1
  Sb  Sb15  1  0.750000  0.579453  0.024452  1
  Sb  Sb16  1  0.750000  0.028605  0.910103  1
  Sb  Sb17  1  0.250000  0.971294  0.090015  1
  Sb  Sb18  1  0.750000  0.140240  0.321430  1
  Sb  Sb19  1  0.250000  0.858793  0.678133  1
  Sb  Sb20  1  0.750000  0.279621  0.936795  1
  Sb  Sb21  1  0.250000  0.720360  0.063241  1
  Sb  Sb22  1  0.750000  0.286256  0.653964  1
  Sb  Sb23  1  0.250000  0.714009  0.346876  1
  Sb  Sb24  1  0.750000  0.576548  0.734618  1
  Sb  Sb25  1  0.250000  0.424743  0.263516  1
  Sb  Sb26  1  0.750000  0.572509  0.447428  1
  Sb  Sb27  1  0.250000  0.429057  0.553980  1
