# generated using pymatgen
data_Ac5Pr(GePd)6
_symmetry_space_group_name_H-M   'P 1'
_cell_length_a   4.58402200
_cell_length_b   7.91819511
_cell_length_c   23.20986700
_cell_angle_alpha   90.07116573
_cell_angle_beta   90.00000000
_cell_angle_gamma   90.00000000
_symmetry_Int_Tables_number   1
_chemical_formula_structural   Ac5Pr(GePd)6
_chemical_formula_sum   'Ac10 Pr2 Ge12 Pd12'
_cell_volume   842.45208377
_cell_formula_units_Z   2
loop_
 _symmetry_equiv_pos_site_id
 _symmetry_equiv_pos_as_xyz
  1  'x, y, z'
loop_
 _atom_site_type_symbol
 _atom_site_label
 _atom_site_symmetry_multiplicity
 _atom_site_fract_x
 _atom_site_fract_y
 _atom_site_fract_z
 _atom_site_occupancy
  Ac  Ac0  1  0.250000  0.719965  0.337794  1
  Ac  Ac1  1  0.750000  0.280035  0.662206  1
  Ac  Ac2  1  0.750000  0.221537  0.170820  1
  Ac  Ac3  1  0.250000  0.778463  0.829180  1
  Ac  Ac4  1  0.250000  0.788920  0.169903  1
  Ac  Ac5  1  0.750000  0.211080  0.830097  1
  Ac  Ac6  1  0.750000  0.291277  0.338816  1
  Ac  Ac7  1  0.250000  0.708723  0.661184  1
  Ac  Ac8  1  0.250000  0.732113  0.002912  1
  Ac  Ac9  1  0.750000  0.267887  0.997088  1
  Pr  Pr10  1  0.750000  0.214614  0.498183  1
  Pr  Pr11  1  0.250000  0.785386  0.501817  1
  Ge  Ge12  1  0.250000  0.092653  0.078353  1
  Ge  Ge13  1  0.750000  0.907347  0.921647  1
  Ge  Ge14  1  0.750000  0.588130  0.436475  1
  Ge  Ge15  1  0.250000  0.411870  0.563525  1
  Ge  Ge16  1  0.250000  0.085491  0.274521  1
  Ge  Ge17  1  0.750000  0.914509  0.725479  1
  Ge  Ge18  1  0.750000  0.585967  0.235374  1
  Ge  Ge19  1  0.250000  0.414033  0.764626  1
  Ge  Ge20  1  0.250000  0.086013  0.404538  1
  Ge  Ge21  1  0.750000  0.913987  0.595462  1
  Ge  Ge22  1  0.750000  0.581191  0.104244  1
  Ge  Ge23  1  0.250000  0.418809  0.895756  1
  Pd  Pd24  1  0.250000  0.421080  0.246530  1
  Pd  Pd25  1  0.750000  0.578920  0.753470  1
  Pd  Pd26  1  0.750000  0.920592  0.264288  1
  Pd  Pd27  1  0.250000  0.079408  0.735712  1
  Pd  Pd28  1  0.250000  0.418244  0.440375  1
  Pd  Pd29  1  0.750000  0.581756  0.559625  1
  Pd  Pd30  1  0.750000  0.915959  0.076837  1
  Pd  Pd31  1  0.250000  0.084041  0.923163  1
  Pd  Pd32  1  0.250000  0.422371  0.090636  1
  Pd  Pd33  1  0.750000  0.577629  0.909364  1
  Pd  Pd34  1  0.750000  0.919219  0.414961  1
  Pd  Pd35  1  0.250000  0.080781  0.585039  1
