# generated using pymatgen
data_Er2Tm2B16MoW3
_symmetry_space_group_name_H-M   'P 1'
_cell_length_a   3.60460100
_cell_length_b   6.01077432
_cell_length_c   11.61602037
_cell_angle_alpha   90.03304418
_cell_angle_beta   90.00000000
_cell_angle_gamma   90.00000000
_symmetry_Int_Tables_number   1
_chemical_formula_structural   Er2Tm2B16MoW3
_chemical_formula_sum   'Er2 Tm2 B16 Mo1 W3'
_cell_volume   251.67780267
_cell_formula_units_Z   1
loop_
 _symmetry_equiv_pos_site_id
 _symmetry_equiv_pos_as_xyz
  1  'x, y, z'
loop_
 _atom_site_type_symbol
 _atom_site_label
 _atom_site_symmetry_multiplicity
 _atom_site_fract_x
 _atom_site_fract_y
 _atom_site_fract_z
 _atom_site_occupancy
  Er  Er0  1  0.000000  0.127047  0.149420  1
  Er  Er1  1  0.000000  0.872889  0.850232  1
  Tm  Tm2  1  0.000000  0.627320  0.350656  1
  Tm  Tm3  1  0.000000  0.373096  0.649532  1
  B  B4  1  0.500000  0.787417  0.186895  1
  B  B5  1  0.500000  0.212439  0.812943  1
  B  B6  1  0.500000  0.287847  0.313171  1
  B  B7  1  0.500000  0.712793  0.686471  1
  B  B8  1  0.500000  0.867146  0.032033  1
  B  B9  1  0.500000  0.132802  0.967946  1
  B  B10  1  0.500000  0.367867  0.468238  1
  B  B11  1  0.500000  0.632706  0.532201  1
  B  B12  1  0.500000  0.884788  0.452434  1
  B  B13  1  0.500000  0.114663  0.547986  1
  B  B14  1  0.500000  0.385485  0.047611  1
  B  B15  1  0.500000  0.614532  0.952346  1
  B  B16  1  0.500000  0.975500  0.306181  1
  B  B17  1  0.500000  0.023745  0.693732  1
  B  B18  1  0.500000  0.476224  0.193876  1
  B  B19  1  0.500000  0.524053  0.806009  1
  Mo  Mo20  1  0.000000  0.868975  0.584384  1
  W  W21  1  0.000000  0.631278  0.085005  1
  W  W22  1  0.000000  0.368632  0.915045  1
  W  W23  1  0.000000  0.130757  0.415657  1
