# generated using pymatgen
data_Zr10SnBi5P
_symmetry_space_group_name_H-M   'P 1'
_cell_length_a   5.90917562
_cell_length_b   8.72052546
_cell_length_c   8.70351490
_cell_angle_alpha   119.93540528
_cell_angle_beta   89.94775791
_cell_angle_gamma   90.02598102
_symmetry_Int_Tables_number   1
_chemical_formula_structural   Zr10SnBi5P
_chemical_formula_sum   'Zr10 Sn1 Bi5 P1'
_cell_volume   388.66639654
_cell_formula_units_Z   1
loop_
 _symmetry_equiv_pos_site_id
 _symmetry_equiv_pos_as_xyz
  1  'x, y, z'
loop_
 _atom_site_type_symbol
 _atom_site_label
 _atom_site_symmetry_multiplicity
 _atom_site_fract_x
 _atom_site_fract_y
 _atom_site_fract_z
 _atom_site_occupancy
  Zr  Zr0  1  0.498327  0.330063  0.663989  1
  Zr  Zr1  1  0.498328  0.669938  0.333927  1
  Zr  Zr2  1  0.001796  0.669641  0.333895  1
  Zr  Zr3  1  0.001795  0.330360  0.664255  1
  Zr  Zr4  1  0.756128  0.245353  0.998856  1
  Zr  Zr5  1  0.756124  0.754644  0.753502  1
  Zr  Zr6  1  0.757032  0.999999  0.247241  1
  Zr  Zr7  1  0.243511  0.756781  0.005512  1
  Zr  Zr8  1  0.243516  0.243222  0.248734  1
  Zr  Zr9  1  0.244079  0.000002  0.750738  1
  Sn  Sn10  1  0.248970  0.000000  0.393504  1
  Bi  Bi11  1  0.750773  0.606367  0.999335  1
  Bi  Bi12  1  0.750775  0.393633  0.392967  1
  Bi  Bi13  1  0.751195  0.000000  0.604743  1
  Bi  Bi14  1  0.249014  0.392252  0.000687  1
  Bi  Bi15  1  0.249012  0.607749  0.608434  1
  P  P16  1  0.499625  0.000000  0.999681  1
