# generated using pymatgen
data_Sm7Gd(SO6)4
_symmetry_space_group_name_H-M   'P 1'
_cell_length_a   8.21957844
_cell_length_b   13.22326200
_cell_length_c   4.23216155
_cell_angle_alpha   89.95544450
_cell_angle_beta   89.96293846
_cell_angle_gamma   89.99487384
_symmetry_Int_Tables_number   1
_chemical_formula_structural   Sm7Gd(SO6)4
_chemical_formula_sum   'Sm7 Gd1 S4 O24'
_cell_volume   459.99187433
_cell_formula_units_Z   1
loop_
 _symmetry_equiv_pos_site_id
 _symmetry_equiv_pos_as_xyz
  1  'x, y, z'
loop_
 _atom_site_type_symbol
 _atom_site_label
 _atom_site_symmetry_multiplicity
 _atom_site_fract_x
 _atom_site_fract_y
 _atom_site_fract_z
 _atom_site_occupancy
  Sm  Sm0  1  0.624973  0.919307  0.242721  1
  Sm  Sm1  1  0.124931  0.580837  0.257353  1
  Sm  Sm2  1  0.124929  0.919499  0.257575  1
  Sm  Sm3  1  0.875027  0.080120  0.742386  1
  Sm  Sm4  1  0.874789  0.420111  0.742638  1
  Sm  Sm5  1  0.375075  0.080090  0.757349  1
  Sm  Sm6  1  0.375346  0.420097  0.757745  1
  Gd  Gd7  1  0.624858  0.578918  0.243421  1
  S  S8  1  0.123944  0.250210  0.194249  1
  S  S9  1  0.624017  0.250158  0.305309  1
  S  S10  1  0.376213  0.749648  0.694362  1
  S  S11  1  0.875853  0.749612  0.805837  1
  O  O12  1  0.727883  0.749072  0.013185  1
  O  O13  1  0.022671  0.749896  0.016210  1
  O  O14  1  0.623951  0.157611  0.108971  1
  O  O15  1  0.623937  0.342637  0.107938  1
  O  O16  1  0.874843  0.003644  0.234570  1
  O  O17  1  0.873106  0.496896  0.234383  1
  O  O18  1  0.374890  0.003610  0.265370  1
  O  O19  1  0.376502  0.496804  0.265839  1
  O  O20  1  0.123859  0.157743  0.391318  1
  O  O21  1  0.123837  0.342862  0.390547  1
  O  O22  1  0.522929  0.749276  0.483965  1
  O  O23  1  0.228158  0.749896  0.486947  1
  O  O24  1  0.771830  0.250267  0.512560  1
  O  O25  1  0.477308  0.250265  0.515621  1
  O  O26  1  0.877043  0.657330  0.608306  1
  O  O27  1  0.875669  0.842420  0.609641  1
  O  O28  1  0.625147  0.504947  0.734136  1
  O  O29  1  0.625128  0.996164  0.734519  1
  O  O30  1  0.125123  0.503763  0.766013  1
  O  O31  1  0.125129  0.996156  0.765478  1
  O  O32  1  0.375420  0.657294  0.892036  1
  O  O33  1  0.376434  0.842406  0.890358  1
  O  O34  1  0.977310  0.250219  0.984155  1
  O  O35  1  0.271944  0.250209  0.986999  1
