# generated using pymatgen
data_HoEr15In3HgIr4
_symmetry_space_group_name_H-M   'P 1'
_cell_length_a   9.56572351
_cell_length_b   9.57196747
_cell_length_c   9.57528000
_cell_angle_alpha   59.98855157
_cell_angle_beta   59.96694669
_cell_angle_gamma   59.95798897
_symmetry_Int_Tables_number   1
_chemical_formula_structural   HoEr15In3HgIr4
_chemical_formula_sum   'Ho1 Er15 In3 Hg1 Ir4'
_cell_volume   619.54286810
_cell_formula_units_Z   1
loop_
 _symmetry_equiv_pos_site_id
 _symmetry_equiv_pos_as_xyz
  1  'x, y, z'
loop_
 _atom_site_type_symbol
 _atom_site_label
 _atom_site_symmetry_multiplicity
 _atom_site_fract_x
 _atom_site_fract_y
 _atom_site_fract_z
 _atom_site_occupancy
  Ho  Ho0  1  0.057453  0.062684  0.439931  1
  Er  Er1  1  0.648924  0.049176  0.650950  1
  Er  Er2  1  0.191601  0.809762  0.190849  1
  Er  Er3  1  0.437806  0.061334  0.439383  1
  Er  Er4  1  0.191678  0.191936  0.808192  1
  Er  Er5  1  0.649644  0.650468  0.652960  1
  Er  Er6  1  0.048462  0.649384  0.651078  1
  Er  Er7  1  0.437806  0.061334  0.061476  1
  Er  Er8  1  0.649644  0.650468  0.046929  1
  Er  Er9  1  0.191601  0.809762  0.807787  1
  Er  Er10  1  0.809838  0.190855  0.809182  1
  Er  Er11  1  0.809838  0.190855  0.190125  1
  Er  Er12  1  0.808841  0.810160  0.190499  1
  Er  Er13  1  0.057618  0.439305  0.439331  1
  Er  Er14  1  0.436031  0.438806  0.062581  1
  Er  Er15  1  0.057618  0.439305  0.063745  1
  In  In16  1  0.419244  0.416861  0.747877  1
  In  In17  1  0.419682  0.747464  0.416427  1
  In  In18  1  0.419244  0.416861  0.416017  1
  Hg  Hg19  1  0.759126  0.414511  0.413181  1
  Ir  Ir20  1  0.858036  0.858148  0.858963  1
  Ir  Ir21  1  0.423265  0.859045  0.858846  1
  Ir  Ir22  1  0.858036  0.858148  0.424855  1
  Ir  Ir23  1  0.858964  0.423368  0.858835  1
