# generated using pymatgen
data_Ba3TbNdS6
_symmetry_space_group_name_H-M   'P 1'
_cell_length_a   8.58745259
_cell_length_b   8.58745149
_cell_length_c   8.58745200
_cell_angle_alpha   92.18253687
_cell_angle_beta   92.18253659
_cell_angle_gamma   92.18252937
_symmetry_Int_Tables_number   1
_chemical_formula_structural   Ba3TbNdS6
_chemical_formula_sum   'Ba6 Tb2 Nd2 S12'
_cell_volume   631.86167070
_cell_formula_units_Z   2
loop_
 _symmetry_equiv_pos_site_id
 _symmetry_equiv_pos_as_xyz
  1  'x, y, z'
loop_
 _atom_site_type_symbol
 _atom_site_label
 _atom_site_symmetry_multiplicity
 _atom_site_fract_x
 _atom_site_fract_y
 _atom_site_fract_z
 _atom_site_occupancy
  Ba  Ba0  1  0.373586  0.750000  0.126414  1
  Ba  Ba1  1  0.126414  0.373586  0.750000  1
  Ba  Ba2  1  0.750000  0.126414  0.373586  1
  Ba  Ba3  1  0.626414  0.250000  0.873586  1
  Ba  Ba4  1  0.873586  0.626414  0.250000  1
  Ba  Ba5  1  0.250000  0.873586  0.626414  1
  Tb  Tb6  1  0.500000  0.500000  0.500000  1
  Tb  Tb7  1  0.000000  0.000000  0.000000  1
  Nd  Nd8  1  0.250000  0.250000  0.250000  1
  Nd  Nd9  1  0.750000  0.750000  0.750000  1
  S  S10  1  0.543154  0.407423  0.197934  1
  S  S11  1  0.197934  0.543154  0.407423  1
  S  S12  1  0.407423  0.197934  0.543154  1
  S  S13  1  0.956846  0.302066  0.092577  1
  S  S14  1  0.092577  0.956846  0.302066  1
  S  S15  1  0.302066  0.092577  0.956846  1
  S  S16  1  0.456846  0.592577  0.802066  1
  S  S17  1  0.802066  0.456846  0.592577  1
  S  S18  1  0.592577  0.802066  0.456846  1
  S  S19  1  0.043154  0.697934  0.907423  1
  S  S20  1  0.697934  0.907423  0.043154  1
  S  S21  1  0.907423  0.043154  0.697934  1
