# generated using pymatgen
data_Zr8P12Ir13Ru3
_symmetry_space_group_name_H-M   'P 1'
_cell_length_a   12.84071994
_cell_length_b   12.69726531
_cell_length_c   3.92281300
_cell_angle_alpha   90.00000000
_cell_angle_beta   90.00000000
_cell_angle_gamma   120.02155364
_symmetry_Int_Tables_number   1
_chemical_formula_structural   Zr8P12Ir13Ru3
_chemical_formula_sum   'Zr8 P12 Ir13 Ru3'
_cell_volume   553.77512128
_cell_formula_units_Z   1
loop_
 _symmetry_equiv_pos_site_id
 _symmetry_equiv_pos_as_xyz
  1  'x, y, z'
loop_
 _atom_site_type_symbol
 _atom_site_label
 _atom_site_symmetry_multiplicity
 _atom_site_fract_x
 _atom_site_fract_y
 _atom_site_fract_z
 _atom_site_occupancy
  Zr  Zr0  1  0.445562  0.449288  0.000000  1
  Zr  Zr1  1  0.554064  0.002307  0.000000  1
  Zr  Zr2  1  0.997215  0.550653  0.000000  1
  Zr  Zr3  1  0.668460  0.336992  0.000000  1
  Zr  Zr4  1  0.329164  0.664672  0.000000  1
  Zr  Zr5  1  0.814792  0.813700  0.500000  1
  Zr  Zr6  1  0.186469  0.998667  0.500000  1
  Zr  Zr7  1  0.001111  0.185637  0.500000  1
  P  P8  1  0.654588  0.649091  0.000000  1
  P  P9  1  0.346298  0.994080  0.000000  1
  P  P10  1  0.005869  0.351143  0.000000  1
  P  P11  1  0.483683  0.315008  0.500000  1
  P  P12  1  0.688207  0.170670  0.500000  1
  P  P13  1  0.828757  0.520444  0.500000  1
  P  P14  1  0.515790  0.831062  0.500000  1
  P  P15  1  0.169444  0.688256  0.500000  1
  P  P16  1  0.827554  0.999340  0.000000  1
  P  P17  1  0.001011  0.824077  0.000000  1
  P  P18  1  0.308225  0.479838  0.500000  1
  P  P19  1  0.173168  0.175227  0.000000  1
  Ir  Ir20  1  0.813604  0.179756  0.000000  1
  Ir  Ir21  1  0.369379  0.187962  0.000000  1
  Ir  Ir22  1  0.131995  0.489686  0.500000  1
  Ir  Ir23  1  0.357475  0.867890  0.500000  1
  Ir  Ir24  1  0.500290  0.643145  0.500000  1
  Ir  Ir25  1  0.642072  0.512097  0.500000  1
  Ir  Ir26  1  0.859366  0.357300  0.500000  1
  Ir  Ir27  1  0.498391  0.141456  0.500000  1
  Ir  Ir28  1  0.000529  0.999221  0.000000  1
  Ir  Ir29  1  0.723821  0.999818  0.500000  1
  Ir  Ir30  1  0.000308  0.725549  0.500000  1
  Ir  Ir31  1  0.632757  0.820370  0.000000  1
  Ir  Ir32  1  0.277089  0.273672  0.500000  1
  Ru  Ru33  1  0.193800  0.370806  0.000000  1
  Ru  Ru34  1  0.178361  0.804051  0.000000  1
  Ru  Ru35  1  0.821329  0.627071  0.000000  1
