# generated using pymatgen
data_Tb4Yb(OsO6)2
_symmetry_space_group_name_H-M   'P 1'
_cell_length_a   6.91968874
_cell_length_b   6.91968839
_cell_length_c   7.57361700
_cell_angle_alpha   73.91324894
_cell_angle_beta   73.91324928
_cell_angle_gamma   48.27196500
_symmetry_Int_Tables_number   1
_chemical_formula_structural   Tb4Yb(OsO6)2
_chemical_formula_sum   'Tb4 Yb1 Os2 O12'
_cell_volume   257.86557246
_cell_formula_units_Z   1
loop_
 _symmetry_equiv_pos_site_id
 _symmetry_equiv_pos_as_xyz
  1  'x, y, z'
loop_
 _atom_site_type_symbol
 _atom_site_label
 _atom_site_symmetry_multiplicity
 _atom_site_fract_x
 _atom_site_fract_y
 _atom_site_fract_z
 _atom_site_occupancy
  Tb  Tb0  1  0.698729  0.698729  0.637261  1
  Tb  Tb1  1  0.301271  0.301271  0.362739  1
  Tb  Tb2  1  0.684818  0.684818  0.182221  1
  Tb  Tb3  1  0.315182  0.315182  0.817779  1
  Yb  Yb4  1  0.000000  0.000000  0.500000  1
  Os  Os5  1  0.784410  0.215590  0.000000  1
  Os  Os6  1  0.215590  0.784410  0.000000  1
  O  O7  1  0.000073  0.000073  0.201438  1
  O  O8  1  0.999927  0.999927  0.798562  1
  O  O9  1  0.589606  0.086752  0.080659  1
  O  O10  1  0.410394  0.913248  0.919341  1
  O  O11  1  0.913248  0.410394  0.919341  1
  O  O12  1  0.086752  0.589606  0.080659  1
  O  O13  1  0.498751  0.498751  0.171273  1
  O  O14  1  0.501249  0.501249  0.828727  1
  O  O15  1  0.411601  0.903790  0.422426  1
  O  O16  1  0.588399  0.096210  0.577574  1
  O  O17  1  0.096210  0.588399  0.577574  1
  O  O18  1  0.903790  0.411601  0.422426  1
