# generated using pymatgen
data_Ca2Y3Pb4
_symmetry_space_group_name_H-M   'P 1'
_cell_length_a   8.09207700
_cell_length_b   8.62303100
_cell_length_c   16.18020100
_cell_angle_alpha   90.00000000
_cell_angle_beta   90.00000000
_cell_angle_gamma   90.00000000
_symmetry_Int_Tables_number   1
_chemical_formula_structural   Ca2Y3Pb4
_chemical_formula_sum   'Ca8 Y12 Pb16'
_cell_volume   1129.02580018
_cell_formula_units_Z   4
loop_
 _symmetry_equiv_pos_site_id
 _symmetry_equiv_pos_as_xyz
  1  'x, y, z'
loop_
 _atom_site_type_symbol
 _atom_site_label
 _atom_site_symmetry_multiplicity
 _atom_site_fract_x
 _atom_site_fract_y
 _atom_site_fract_z
 _atom_site_occupancy
  Ca  Ca0  1  0.498906  0.685608  0.592163  1
  Ca  Ca1  1  0.998906  0.814392  0.907837  1
  Ca  Ca2  1  0.501094  0.314392  0.092163  1
  Ca  Ca3  1  0.001094  0.185608  0.407837  1
  Ca  Ca4  1  0.499321  0.314869  0.408456  1
  Ca  Ca5  1  0.999321  0.185131  0.091544  1
  Ca  Ca6  1  0.500679  0.685131  0.908456  1
  Ca  Ca7  1  0.000679  0.814869  0.591544  1
  Y  Y8  1  0.325761  0.843530  0.376774  1
  Y  Y9  1  0.825761  0.656470  0.123226  1
  Y  Y10  1  0.674239  0.156470  0.876774  1
  Y  Y11  1  0.174239  0.343530  0.623226  1
  Y  Y12  1  0.835711  0.506185  0.749027  1
  Y  Y13  1  0.335711  0.993815  0.750973  1
  Y  Y14  1  0.164289  0.493815  0.249027  1
  Y  Y15  1  0.664289  0.006185  0.250973  1
  Y  Y16  1  0.673394  0.157847  0.623761  1
  Y  Y17  1  0.173394  0.342153  0.876239  1
  Y  Y18  1  0.326606  0.842153  0.123761  1
  Y  Y19  1  0.826606  0.657847  0.376239  1
  Pb  Pb20  1  0.679163  0.962060  0.456558  1
  Pb  Pb21  1  0.179163  0.537940  0.043442  1
  Pb  Pb22  1  0.320837  0.037940  0.956558  1
  Pb  Pb23  1  0.820837  0.462060  0.543442  1
  Pb  Pb24  1  0.322814  0.038517  0.544656  1
  Pb  Pb25  1  0.822814  0.461483  0.955344  1
  Pb  Pb26  1  0.677186  0.961483  0.044656  1
  Pb  Pb27  1  0.177186  0.538517  0.455344  1
  Pb  Pb28  1  0.476586  0.367794  0.750844  1
  Pb  Pb29  1  0.976586  0.132206  0.749156  1
  Pb  Pb30  1  0.523414  0.632206  0.250844  1
  Pb  Pb31  1  0.023414  0.867794  0.249156  1
  Pb  Pb32  1  0.701933  0.853301  0.749899  1
  Pb  Pb33  1  0.201933  0.646699  0.750101  1
  Pb  Pb34  1  0.298067  0.146699  0.249899  1
  Pb  Pb35  1  0.798067  0.353301  0.250101  1
