# generated using pymatgen
data_LaNd7SiPd24
_symmetry_space_group_name_H-M   'P 1'
_cell_length_a   8.48456524
_cell_length_b   8.48456524
_cell_length_c   8.48456524
_cell_angle_alpha   89.98060391
_cell_angle_beta   89.98060391
_cell_angle_gamma   89.98060391
_symmetry_Int_Tables_number   1
_chemical_formula_structural   LaNd7SiPd24
_chemical_formula_sum   'La1 Nd7 Si1 Pd24'
_cell_volume   610.78548269
_cell_formula_units_Z   1
loop_
 _symmetry_equiv_pos_site_id
 _symmetry_equiv_pos_as_xyz
  1  'x, y, z'
loop_
 _atom_site_type_symbol
 _atom_site_label
 _atom_site_symmetry_multiplicity
 _atom_site_fract_x
 _atom_site_fract_y
 _atom_site_fract_z
 _atom_site_occupancy
  La  La0  1  0.253931  0.253931  0.253931  1
  Nd  Nd1  1  0.746505  0.746505  0.746505  1
  Nd  Nd2  1  0.746486  0.746486  0.253439  1
  Nd  Nd3  1  0.746486  0.253439  0.746486  1
  Nd  Nd4  1  0.253502  0.253502  0.746687  1
  Nd  Nd5  1  0.253502  0.746687  0.253502  1
  Nd  Nd6  1  0.253439  0.746486  0.746486  1
  Nd  Nd7  1  0.746687  0.253502  0.253502  1
  Si  Si8  1  0.999864  0.999864  0.999864  1
  Pd  Pd9  1  0.256670  0.500257  0.999787  1
  Pd  Pd10  1  0.743290  0.500031  0.999910  1
  Pd  Pd11  1  0.999787  0.256670  0.500257  1
  Pd  Pd12  1  0.500257  0.256670  0.999787  1
  Pd  Pd13  1  0.999910  0.743290  0.500031  1
  Pd  Pd14  1  0.500031  0.743290  0.999910  1
  Pd  Pd15  1  0.500257  0.999787  0.256670  1
  Pd  Pd16  1  0.256670  0.999787  0.500257  1
  Pd  Pd17  1  0.500031  0.999910  0.743290  1
  Pd  Pd18  1  0.743290  0.999910  0.500031  1
  Pd  Pd19  1  0.999787  0.500257  0.256670  1
  Pd  Pd20  1  0.999910  0.500031  0.743290  1
  Pd  Pd21  1  0.251595  0.500244  0.500244  1
  Pd  Pd22  1  0.748399  0.500067  0.500067  1
  Pd  Pd23  1  0.500244  0.251595  0.500244  1
  Pd  Pd24  1  0.500067  0.748399  0.500067  1
  Pd  Pd25  1  0.500244  0.500244  0.251595  1
  Pd  Pd26  1  0.500067  0.500067  0.748399  1
  Pd  Pd27  1  0.280131  0.999542  0.999542  1
  Pd  Pd28  1  0.719939  0.999969  0.999969  1
  Pd  Pd29  1  0.999542  0.280131  0.999542  1
  Pd  Pd30  1  0.999969  0.719939  0.999969  1
  Pd  Pd31  1  0.999542  0.999542  0.280131  1
  Pd  Pd32  1  0.999969  0.999969  0.719939  1
