# generated using pymatgen
data_La3Pr13Cd4TcPt3
_symmetry_space_group_name_H-M   'P 1'
_cell_length_a   10.15419815
_cell_length_b   10.20525512
_cell_length_c   10.20525448
_cell_angle_alpha   58.92153172
_cell_angle_beta   59.14410644
_cell_angle_gamma   59.14410724
_symmetry_Int_Tables_number   1
_chemical_formula_structural   La3Pr13Cd4TcPt3
_chemical_formula_sum   'La3 Pr13 Cd4 Tc1 Pt3'
_cell_volume   731.92184902
_cell_formula_units_Z   1
loop_
 _symmetry_equiv_pos_site_id
 _symmetry_equiv_pos_as_xyz
  1  'x, y, z'
loop_
 _atom_site_type_symbol
 _atom_site_label
 _atom_site_symmetry_multiplicity
 _atom_site_fract_x
 _atom_site_fract_y
 _atom_site_fract_z
 _atom_site_occupancy
  La  La0  1  0.350775  0.351325  0.351325  1
  La  La1  1  0.344334  0.344437  0.957938  1
  La  La2  1  0.344334  0.957938  0.344437  1
  Pr  Pr3  1  0.952044  0.348623  0.348623  1
  Pr  Pr4  1  0.817895  0.188550  0.188550  1
  Pr  Pr5  1  0.189265  0.807379  0.807379  1
  Pr  Pr6  1  0.188885  0.815751  0.188281  1
  Pr  Pr7  1  0.807326  0.189203  0.807568  1
  Pr  Pr8  1  0.188885  0.188281  0.815751  1
  Pr  Pr9  1  0.807326  0.807568  0.189203  1
  Pr  Pr10  1  0.935635  0.564281  0.564281  1
  Pr  Pr11  1  0.556926  0.936877  0.936877  1
  Pr  Pr12  1  0.564432  0.935174  0.563619  1
  Pr  Pr13  1  0.937253  0.556884  0.937752  1
  Pr  Pr14  1  0.564432  0.563619  0.935174  1
  Pr  Pr15  1  0.937253  0.937752  0.556884  1
  Cd  Cd16  1  0.579402  0.579187  0.579187  1
  Cd  Cd17  1  0.581398  0.580219  0.257725  1
  Cd  Cd18  1  0.581398  0.257725  0.580219  1
  Cd  Cd19  1  0.257590  0.580482  0.580482  1
  Tc  Tc20  1  0.147497  0.142090  0.142090  1
  Pt  Pt21  1  0.145591  0.146357  0.573735  1
  Pt  Pt22  1  0.145591  0.573735  0.146357  1
  Pt  Pt23  1  0.574530  0.146561  0.146561  1
