# generated using pymatgen
data_NaAl(SeO4)2
_symmetry_space_group_name_H-M   'P 1'
_cell_length_a   4.91783461
_cell_length_b   4.91783456
_cell_length_c   7.31748016
_cell_angle_alpha   91.56554687
_cell_angle_beta   91.56554415
_cell_angle_gamma   66.14193968
_symmetry_Int_Tables_number   1
_chemical_formula_structural   NaAl(SeO4)2
_chemical_formula_sum   'Na1 Al1 Se2 O8'
_cell_volume   161.76554978
_cell_formula_units_Z   1
loop_
 _symmetry_equiv_pos_site_id
 _symmetry_equiv_pos_as_xyz
  1  'x, y, z'
loop_
 _atom_site_type_symbol
 _atom_site_label
 _atom_site_symmetry_multiplicity
 _atom_site_fract_x
 _atom_site_fract_y
 _atom_site_fract_z
 _atom_site_occupancy
  Na  Na0  1  0.000000  0.000000  0.500000  1
  Al  Al1  1  0.000000  0.000000  0.000000  1
  Se  Se2  1  0.360136  0.360136  0.213565  1
  Se  Se3  1  0.639864  0.639864  0.786436  1
  O  O4  1  0.226566  0.226566  0.036518  1
  O  O5  1  0.734212  0.226625  0.192533  1
  O  O6  1  0.226625  0.734212  0.192533  1
  O  O7  1  0.287132  0.287132  0.418297  1
  O  O8  1  0.712869  0.712869  0.581702  1
  O  O9  1  0.773375  0.265787  0.807466  1
  O  O10  1  0.265787  0.773375  0.807466  1
  O  O11  1  0.773434  0.773434  0.963481  1
