# generated using pymatgen
data_Nd2FeCoC4
_symmetry_space_group_name_H-M   'P 1'
_cell_length_a   3.82446203
_cell_length_b   3.78320123
_cell_length_c   7.41382739
_cell_angle_alpha   81.83482467
_cell_angle_beta   81.66838481
_cell_angle_gamma   90.06855127
_symmetry_Int_Tables_number   1
_chemical_formula_structural   Nd2FeCoC4
_chemical_formula_sum   'Nd2 Fe1 Co1 C4'
_cell_volume   105.03449620
_cell_formula_units_Z   1
loop_
 _symmetry_equiv_pos_site_id
 _symmetry_equiv_pos_as_xyz
  1  'x, y, z'
loop_
 _atom_site_type_symbol
 _atom_site_label
 _atom_site_symmetry_multiplicity
 _atom_site_fract_x
 _atom_site_fract_y
 _atom_site_fract_z
 _atom_site_occupancy
  Nd  Nd0  1  0.070356  0.927433  0.000099  1
  Nd  Nd1  1  0.925121  0.073260  0.496128  1
  Fe  Fe2  1  0.378713  0.512332  0.697162  1
  Co  Co3  1  0.512878  0.373169  0.194604  1
  C  C4  1  0.443457  0.596141  0.429596  1
  C  C5  1  0.590553  0.443698  0.927798  1
  C  C6  1  0.488734  0.852056  0.273401  1
  C  C7  1  0.857189  0.488908  0.775012  1
