# generated using pymatgen
data_Gd8DyTm(SiB4)4
_symmetry_space_group_name_H-M   'P 1'
_cell_length_a   7.26389000
_cell_length_b   7.26389000
_cell_length_c   8.17359400
_cell_angle_alpha   90.00000000
_cell_angle_beta   90.00000000
_cell_angle_gamma   90.00000000
_symmetry_Int_Tables_number   1
_chemical_formula_structural   Gd8DyTm(SiB4)4
_chemical_formula_sum   'Gd8 Dy1 Tm1 Si4 B16'
_cell_volume   431.27231427
_cell_formula_units_Z   1
loop_
 _symmetry_equiv_pos_site_id
 _symmetry_equiv_pos_as_xyz
  1  'x, y, z'
loop_
 _atom_site_type_symbol
 _atom_site_label
 _atom_site_symmetry_multiplicity
 _atom_site_fract_x
 _atom_site_fract_y
 _atom_site_fract_z
 _atom_site_occupancy
  Gd  Gd0  1  0.680652  0.180370  0.225716  1
  Gd  Gd1  1  0.319348  0.819630  0.774284  1
  Gd  Gd2  1  0.319348  0.819630  0.225716  1
  Gd  Gd3  1  0.819630  0.680652  0.225716  1
  Gd  Gd4  1  0.819630  0.680652  0.774284  1
  Gd  Gd5  1  0.680652  0.180370  0.774284  1
  Gd  Gd6  1  0.180370  0.319348  0.774284  1
  Gd  Gd7  1  0.180370  0.319348  0.225716  1
  Dy  Dy8  1  0.500000  0.500000  0.500000  1
  Tm  Tm9  1  0.000000  0.000000  0.500000  1
  Si  Si10  1  0.113894  0.616057  0.500000  1
  Si  Si11  1  0.886106  0.383943  0.500000  1
  Si  Si12  1  0.383943  0.113894  0.500000  1
  Si  Si13  1  0.616057  0.886106  0.500000  1
  B  B14  1  0.172213  0.039264  0.000000  1
  B  B15  1  0.827787  0.960736  0.000000  1
  B  B16  1  0.960736  0.172213  0.000000  1
  B  B17  1  0.327762  0.539343  0.000000  1
  B  B18  1  0.039264  0.827787  0.000000  1
  B  B19  1  0.672238  0.460657  0.000000  1
  B  B20  1  0.539343  0.672238  0.000000  1
  B  B21  1  0.460657  0.327762  0.000000  1
  B  B22  1  0.090333  0.590241  0.000000  1
  B  B23  1  0.909667  0.409759  0.000000  1
  B  B24  1  0.409759  0.090333  0.000000  1
  B  B25  1  0.590241  0.909667  0.000000  1
  B  B26  1  0.000000  0.000000  0.160084  1
  B  B27  1  0.000000  0.000000  0.839916  1
  B  B28  1  0.500000  0.500000  0.840415  1
  B  B29  1  0.500000  0.500000  0.159585  1
