# generated using pymatgen
data_Y4LuSc(Si3Ru)8
_symmetry_space_group_name_H-M   'P 1'
_cell_length_a   10.09521624
_cell_length_b   10.09521650
_cell_length_c   8.12919903
_cell_angle_alpha   89.99678748
_cell_angle_beta   89.99678274
_cell_angle_gamma   132.56262673
_symmetry_Int_Tables_number   1
_chemical_formula_structural   Y4LuSc(Si3Ru)8
_chemical_formula_sum   'Y4 Lu1 Sc1 Si24 Ru8'
_cell_volume   610.20313924
_cell_formula_units_Z   1
loop_
 _symmetry_equiv_pos_site_id
 _symmetry_equiv_pos_as_xyz
  1  'x, y, z'
loop_
 _atom_site_type_symbol
 _atom_site_label
 _atom_site_symmetry_multiplicity
 _atom_site_fract_x
 _atom_site_fract_y
 _atom_site_fract_z
 _atom_site_occupancy
  Y  Y0  1  0.002643  0.502385  0.249655  1
  Y  Y1  1  0.497615  0.997357  0.750345  1
  Y  Y2  1  0.997357  0.497615  0.750345  1
  Y  Y3  1  0.502385  0.002643  0.249655  1
  Lu  Lu4  1  0.500000  0.500000  0.500000  1
  Sc  Sc5  1  0.000000  0.000000  0.000000  1
  Si  Si6  1  0.294226  0.705774  0.000000  1
  Si  Si7  1  0.794887  0.205113  0.500000  1
  Si  Si8  1  0.705774  0.294226  0.000000  1
  Si  Si9  1  0.205113  0.794887  0.500000  1
  Si  Si10  1  0.833038  0.833038  0.330903  1
  Si  Si11  1  0.166962  0.166962  0.669097  1
  Si  Si12  1  0.669868  0.669868  0.834028  1
  Si  Si13  1  0.330132  0.330132  0.165972  1
  Si  Si14  1  0.620852  0.386752  0.228083  1
  Si  Si15  1  0.613248  0.379148  0.771917  1
  Si  Si16  1  0.110877  0.879121  0.730298  1
  Si  Si17  1  0.120879  0.889123  0.269702  1
  Si  Si18  1  0.379148  0.613248  0.771917  1
  Si  Si19  1  0.386752  0.620852  0.228083  1
  Si  Si20  1  0.889123  0.120879  0.269702  1
  Si  Si21  1  0.879121  0.110877  0.730298  1
  Si  Si22  1  0.845530  0.614233  0.004216  1
  Si  Si23  1  0.385767  0.154470  0.995784  1
  Si  Si24  1  0.887826  0.655044  0.504886  1
  Si  Si25  1  0.344956  0.112174  0.495114  1
  Si  Si26  1  0.154470  0.385767  0.995784  1
  Si  Si27  1  0.614233  0.845530  0.004216  1
  Si  Si28  1  0.112174  0.344956  0.495114  1
  Si  Si29  1  0.655044  0.887826  0.504886  1
  Ru  Ru30  1  0.167703  0.832297  0.000000  1
  Ru  Ru31  1  0.668449  0.331551  0.500000  1
  Ru  Ru32  1  0.832297  0.167703  0.000000  1
  Ru  Ru33  1  0.331551  0.668449  0.500000  1
  Ru  Ru34  1  0.625193  0.625193  0.127962  1
  Ru  Ru35  1  0.374807  0.374807  0.872038  1
  Ru  Ru36  1  0.872880  0.872880  0.626558  1
  Ru  Ru37  1  0.127120  0.127120  0.373442  1
