# generated using pymatgen
data_YHo4Er(Sb4Au3)2
_symmetry_space_group_name_H-M   'P 1'
_cell_length_a   8.59011579
_cell_length_b   8.59048398
_cell_length_c   8.59019063
_cell_angle_alpha   109.46379592
_cell_angle_beta   109.52343042
_cell_angle_gamma   109.42563698
_symmetry_Int_Tables_number   1
_chemical_formula_structural   YHo4Er(Sb4Au3)2
_chemical_formula_sum   'Y1 Ho4 Er1 Sb8 Au6'
_cell_volume   487.97952547
_cell_formula_units_Z   1
loop_
 _symmetry_equiv_pos_site_id
 _symmetry_equiv_pos_as_xyz
  1  'x, y, z'
loop_
 _atom_site_type_symbol
 _atom_site_label
 _atom_site_symmetry_multiplicity
 _atom_site_fract_x
 _atom_site_fract_y
 _atom_site_fract_z
 _atom_site_occupancy
  Y  Y0  1  0.875002  0.249978  0.125032  1
  Ho  Ho1  1  0.624960  0.749974  0.374975  1
  Ho  Ho2  1  0.249918  0.124855  0.874869  1
  Ho  Ho3  1  0.750036  0.375176  0.625051  1
  Ho  Ho4  1  0.125117  0.875015  0.249980  1
  Er  Er5  1  0.374950  0.625014  0.750098  1
  Sb  Sb6  1  0.678247  0.499127  0.999722  1
  Sb  Sb7  1  0.500594  0.000865  0.679241  1
  Sb  Sb8  1  0.000402  0.678918  0.499867  1
  Sb  Sb9  1  0.820806  0.820951  0.821355  1
  Sb  Sb10  1  0.500104  0.000446  0.179017  1
  Sb  Sb11  1  0.178703  0.499562  0.999652  1
  Sb  Sb12  1  0.000316  0.178644  0.499357  1
  Sb  Sb13  1  0.320831  0.321488  0.321789  1
  Au  Au14  1  0.375033  0.250550  0.625231  1
  Au  Au15  1  0.125322  0.749803  0.874764  1
  Au  Au16  1  0.252754  0.627170  0.376641  1
  Au  Au17  1  0.748403  0.872479  0.124866  1
  Au  Au18  1  0.623856  0.376418  0.251066  1
  Au  Au19  1  0.874644  0.123569  0.747429  1
