# generated using pymatgen
data_Th2NpTiN6
_symmetry_space_group_name_H-M   'P 1'
_cell_length_a   5.74322811
_cell_length_b   5.82270300
_cell_length_c   8.14825113
_cell_angle_alpha   90.00000000
_cell_angle_beta   90.02129995
_cell_angle_gamma   90.00000000
_symmetry_Int_Tables_number   1
_chemical_formula_structural   Th2NpTiN6
_chemical_formula_sum   'Th4 Np2 Ti2 N12'
_cell_volume   272.48655597
_cell_formula_units_Z   2
loop_
 _symmetry_equiv_pos_site_id
 _symmetry_equiv_pos_as_xyz
  1  'x, y, z'
loop_
 _atom_site_type_symbol
 _atom_site_label
 _atom_site_symmetry_multiplicity
 _atom_site_fract_x
 _atom_site_fract_y
 _atom_site_fract_z
 _atom_site_occupancy
  Th  Th0  1  0.507972  0.544640  0.248608  1
  Th  Th1  1  0.992028  0.044640  0.251392  1
  Th  Th2  1  0.492028  0.455360  0.751392  1
  Th  Th3  1  0.007972  0.955360  0.748608  1
  Np  Np4  1  0.000000  0.500000  0.500000  1
  Np  Np5  1  0.500000  0.000000  0.000000  1
  Ti  Ti6  1  0.000000  0.500000  0.000000  1
  Ti  Ti7  1  0.500000  0.000000  0.500000  1
  N  N8  1  0.399391  0.970420  0.255119  1
  N  N9  1  0.100609  0.470420  0.244881  1
  N  N10  1  0.600609  0.029580  0.744881  1
  N  N11  1  0.899391  0.529580  0.755119  1
  N  N12  1  0.796879  0.799491  0.051138  1
  N  N13  1  0.703121  0.299491  0.448862  1
  N  N14  1  0.210474  0.197070  0.553346  1
  N  N15  1  0.289526  0.697070  0.946654  1
  N  N16  1  0.203121  0.200509  0.948862  1
  N  N17  1  0.296879  0.700509  0.551138  1
  N  N18  1  0.789526  0.802930  0.446654  1
  N  N19  1  0.710474  0.302930  0.053346  1
