# generated using pymatgen
data_Tb4(Ga8Ni3)3
_symmetry_space_group_name_H-M   'P 1'
_cell_length_a   7.32346487
_cell_length_b   7.32532047
_cell_length_c   12.78202300
_cell_angle_alpha   84.58771670
_cell_angle_beta   100.98614066
_cell_angle_gamma   119.71955541
_symmetry_Int_Tables_number   1
_chemical_formula_structural   Tb4(Ga8Ni3)3
_chemical_formula_sum   'Tb4 Ga24 Ni9'
_cell_volume   584.60268173
_cell_formula_units_Z   1
loop_
 _symmetry_equiv_pos_site_id
 _symmetry_equiv_pos_as_xyz
  1  'x, y, z'
loop_
 _atom_site_type_symbol
 _atom_site_label
 _atom_site_symmetry_multiplicity
 _atom_site_fract_x
 _atom_site_fract_y
 _atom_site_fract_z
 _atom_site_occupancy
  Tb  Tb0  1  0.437192  0.831797  0.805868  1
  Tb  Tb1  1  0.562984  0.167824  0.194169  1
  Tb  Tb2  1  0.767576  0.501139  0.805898  1
  Tb  Tb3  1  0.231982  0.498764  0.194133  1
  Ga  Ga4  1  0.484638  0.166085  0.945582  1
  Ga  Ga5  1  0.515196  0.833519  0.054519  1
  Ga  Ga6  1  0.019645  0.166256  0.558389  1
  Ga  Ga7  1  0.980391  0.833653  0.440961  1
  Ga  Ga8  1  0.353184  0.833869  0.556857  1
  Ga  Ga9  1  0.646812  0.166662  0.443100  1
  Ga  Ga10  1  0.618348  0.834254  0.335204  1
  Ga  Ga11  1  0.381516  0.166057  0.664760  1
  Ga  Ga12  1  0.054746  0.493449  0.664917  1
  Ga  Ga13  1  0.945123  0.506035  0.335106  1
  Ga  Ga14  1  0.729654  0.839956  0.664377  1
  Ga  Ga15  1  0.270951  0.160648  0.335541  1
  Ga  Ga16  1  0.147842  0.502990  0.945546  1
  Ga  Ga17  1  0.851755  0.496873  0.054524  1
  Ga  Ga18  1  0.814990  0.830360  0.953759  1
  Ga  Ga19  1  0.185413  0.169841  0.046476  1
  Ga  Ga20  1  0.314811  0.500398  0.443428  1
  Ga  Ga21  1  0.686312  0.500134  0.556974  1
  Ga  Ga22  1  0.105395  0.834951  0.184968  1
  Ga  Ga23  1  0.894328  0.164770  0.815123  1
  Ga  Ga24  1  0.311609  0.373137  0.814775  1
  Ga  Ga25  1  0.687719  0.626038  0.185476  1
  Ga  Ga26  1  0.103299  0.954939  0.815445  1
  Ga  Ga27  1  0.896669  0.044525  0.184476  1
  Ni  Ni28  1  0.386626  0.506760  0.637473  1
  Ni  Ni29  1  0.613706  0.493746  0.362722  1
  Ni  Ni30  1  0.169539  0.830539  0.000244  1
  Ni  Ni31  1  0.830388  0.169429  0.000046  1
  Ni  Ni32  1  0.294057  0.832853  0.362748  1
  Ni  Ni33  1  0.705696  0.167624  0.636899  1
  Ni  Ni34  1  0.047811  0.826838  0.636942  1
  Ni  Ni35  1  0.952216  0.173288  0.362529  1
  Ni  Ni36  1  0.499881  0.500006  0.000048  1
