# generated using pymatgen
data_RbTc2Mo4Se7
_symmetry_space_group_name_H-M   'P 1'
_cell_length_a   9.93934795
_cell_length_b   9.93542359
_cell_length_c   9.94244214
_cell_angle_alpha   60.41888474
_cell_angle_beta   60.40707360
_cell_angle_gamma   60.54147097
_symmetry_Int_Tables_number   1
_chemical_formula_structural   RbTc2Mo4Se7
_chemical_formula_sum   'Rb2 Tc4 Mo8 Se14'
_cell_volume   701.41181492
_cell_formula_units_Z   2
loop_
 _symmetry_equiv_pos_site_id
 _symmetry_equiv_pos_as_xyz
  1  'x, y, z'
loop_
 _atom_site_type_symbol
 _atom_site_label
 _atom_site_symmetry_multiplicity
 _atom_site_fract_x
 _atom_site_fract_y
 _atom_site_fract_z
 _atom_site_occupancy
  Rb  Rb0  1  0.126056  0.128280  0.129539  1
  Rb  Rb1  1  0.873219  0.875197  0.873721  1
  Tc  Tc2  1  0.613115  0.305978  0.439775  1
  Tc  Tc3  1  0.306789  0.439575  0.612148  1
  Tc  Tc4  1  0.440033  0.612099  0.307051  1
  Tc  Tc5  1  0.386472  0.695503  0.560417  1
  Mo  Mo6  1  0.695797  0.560635  0.386308  1
  Mo  Mo7  1  0.560057  0.386173  0.695633  1
  Mo  Mo8  1  0.377465  0.202442  0.503907  1
  Mo  Mo9  1  0.203558  0.504134  0.376869  1
  Mo  Mo10  1  0.505071  0.376665  0.202873  1
  Mo  Mo11  1  0.623476  0.797214  0.495785  1
  Mo  Mo12  1  0.798029  0.495942  0.622674  1
  Mo  Mo13  1  0.496119  0.622358  0.797413  1
  Se  Se14  1  0.669979  0.312784  0.917801  1
  Se  Se15  1  0.085920  0.328087  0.687617  1
  Se  Se16  1  0.277253  0.277980  0.276836  1
  Se  Se17  1  0.722605  0.723734  0.722906  1
  Se  Se18  1  0.856431  0.256216  0.518575  1
  Se  Se19  1  0.256123  0.523766  0.851994  1
  Se  Se20  1  0.513227  0.856497  0.262053  1
  Se  Se21  1  0.148375  0.735251  0.481484  1
  Se  Se22  1  0.734812  0.479897  0.145483  1
  Se  Se23  1  0.478420  0.145438  0.734754  1
  Se  Se24  1  0.331616  0.687022  0.084804  1
  Se  Se25  1  0.688277  0.084418  0.329425  1
  Se  Se26  1  0.918269  0.671710  0.312184  1
  Se  Se27  1  0.313439  0.915003  0.669971  1
