# generated using pymatgen
data_Rb4Na2ErInP4
_symmetry_space_group_name_H-M   'P 1'
_cell_length_a   9.28637425
_cell_length_b   9.28637364
_cell_length_c   9.28637383
_cell_angle_alpha   136.13225557
_cell_angle_beta   62.62578528
_cell_angle_gamma   137.63429393
_symmetry_Int_Tables_number   1
_chemical_formula_structural   Rb4Na2ErInP4
_chemical_formula_sum   'Rb4 Na2 Er1 In1 P4'
_cell_volume   369.39042460
_cell_formula_units_Z   1
loop_
 _symmetry_equiv_pos_site_id
 _symmetry_equiv_pos_as_xyz
  1  'x, y, z'
loop_
 _atom_site_type_symbol
 _atom_site_label
 _atom_site_symmetry_multiplicity
 _atom_site_fract_x
 _atom_site_fract_y
 _atom_site_fract_z
 _atom_site_occupancy
  Rb  Rb0  1  0.326448  0.770872  0.089478  1
  Rb  Rb1  1  0.173552  0.263030  0.444425  1
  Rb  Rb2  1  0.818605  0.729127  0.555576  1
  Rb  Rb3  1  0.681395  0.236971  0.910523  1
  Na  Na4  1  0.750001  0.250001  0.500000  1
  Na  Na5  1  0.250001  0.750001  0.500000  1
  Er  Er6  1  0.250001  0.250001  0.000000  1
  In  In7  1  0.750000  0.750000  0.000000  1
  P  P8  1  0.901418  0.213035  0.122824  1
  P  P9  1  0.598581  0.721405  0.311615  1
  P  P10  1  0.409789  0.286965  0.688384  1
  P  P11  1  0.090211  0.778595  0.877176  1
