# generated using pymatgen
data_Hf8Zr2SiSn6
_symmetry_space_group_name_H-M   'P 1'
_cell_length_a   5.85087879
_cell_length_b   8.55168180
_cell_length_c   8.55059100
_cell_angle_alpha   120.00422494
_cell_angle_beta   89.93481991
_cell_angle_gamma   90.13033971
_symmetry_Int_Tables_number   1
_chemical_formula_structural   Hf8Zr2SiSn6
_chemical_formula_sum   'Hf8 Zr2 Si1 Sn6'
_cell_volume   370.49280998
_cell_formula_units_Z   1
loop_
 _symmetry_equiv_pos_site_id
 _symmetry_equiv_pos_as_xyz
  1  'x, y, z'
loop_
 _atom_site_type_symbol
 _atom_site_label
 _atom_site_symmetry_multiplicity
 _atom_site_fract_x
 _atom_site_fract_y
 _atom_site_fract_z
 _atom_site_occupancy
  Hf  Hf0  1  0.499923  0.333481  0.666897  1
  Hf  Hf1  1  0.499923  0.666584  0.333103  1
  Hf  Hf2  1  0.999209  0.666875  0.333193  1
  Hf  Hf3  1  0.999209  0.333683  0.666807  1
  Hf  Hf4  1  0.757986  0.255134  0.000000  1
  Hf  Hf5  1  0.760033  0.745087  0.745984  1
  Hf  Hf6  1  0.760033  0.999101  0.254016  1
  Hf  Hf7  1  0.241358  0.745770  0.000000  1
  Zr  Zr8  1  0.240381  0.253808  0.253337  1
  Zr  Zr9  1  0.240381  0.000473  0.746663  1
  Si  Si10  1  0.502094  0.999279  0.000000  1
  Sn  Sn11  1  0.746804  0.608063  0.000000  1
  Sn  Sn12  1  0.746179  0.391467  0.391463  1
  Sn  Sn13  1  0.746179  0.000005  0.608537  1
  Sn  Sn14  1  0.252682  0.393121  0.000000  1
  Sn  Sn15  1  0.253814  0.608402  0.608737  1
  Sn  Sn16  1  0.253814  0.999665  0.391263  1
