# generated using pymatgen
data_La13Dy3Cd4Ru3Pt
_symmetry_space_group_name_H-M   'P 1'
_cell_length_a   10.02676368
_cell_length_b   10.02643681
_cell_length_c   10.01456022
_cell_angle_alpha   59.60677187
_cell_angle_beta   59.60983396
_cell_angle_gamma   60.28882937
_symmetry_Int_Tables_number   1
_chemical_formula_structural   La13Dy3Cd4Ru3Pt
_chemical_formula_sum   'La13 Dy3 Cd4 Ru3 Pt1'
_cell_volume   709.17769751
_cell_formula_units_Z   1
loop_
 _symmetry_equiv_pos_site_id
 _symmetry_equiv_pos_as_xyz
  1  'x, y, z'
loop_
 _atom_site_type_symbol
 _atom_site_label
 _atom_site_symmetry_multiplicity
 _atom_site_fract_x
 _atom_site_fract_y
 _atom_site_fract_z
 _atom_site_occupancy
  La  La0  1  0.437923  0.063470  0.062164  1
  La  La1  1  0.310690  0.690908  0.312158  1
  La  La2  1  0.692453  0.692423  0.308937  1
  La  La3  1  0.690934  0.310821  0.312043  1
  La  La4  1  0.292817  0.895323  0.906995  1
  La  La5  1  0.895287  0.292879  0.906931  1
  La  La6  1  0.307697  0.688975  0.694539  1
  La  La7  1  0.907106  0.907024  0.285833  1
  La  La8  1  0.063553  0.437919  0.062129  1
  La  La9  1  0.306096  0.306047  0.697725  1
  La  La10  1  0.062577  0.446442  0.430059  1
  La  La11  1  0.446431  0.062594  0.430144  1
  La  La12  1  0.688977  0.307806  0.694544  1
  Dy  Dy13  1  0.901570  0.901577  0.902637  1
  Dy  Dy14  1  0.442554  0.442543  0.057569  1
  Dy  Dy15  1  0.055300  0.055275  0.441943  1
  Cd  Cd16  1  0.671716  0.671701  0.986672  1
  Cd  Cd17  1  0.987333  0.676691  0.670981  1
  Cd  Cd18  1  0.676699  0.987339  0.670978  1
  Cd  Cd19  1  0.669841  0.669843  0.674226  1
  Ru  Ru20  1  0.114750  0.114725  0.104769  1
  Ru  Ru21  1  0.108111  0.664679  0.106980  1
  Ru  Ru22  1  0.664688  0.108096  0.107001  1
  Pt  Pt23  1  0.104895  0.104899  0.672043  1
