# generated using pymatgen
data_Pr4HoCoRuO12
_symmetry_space_group_name_H-M   'P 1'
_cell_length_a   7.04015363
_cell_length_b   7.04479628
_cell_length_c   7.54168977
_cell_angle_alpha   74.06518537
_cell_angle_beta   74.18134411
_cell_angle_gamma   50.12416802
_symmetry_Int_Tables_number   1
_chemical_formula_structural   Pr4HoCoRuO12
_chemical_formula_sum   'Pr4 Ho1 Co1 Ru1 O12'
_cell_volume   273.64834287
_cell_formula_units_Z   1
loop_
 _symmetry_equiv_pos_site_id
 _symmetry_equiv_pos_as_xyz
  1  'x, y, z'
loop_
 _atom_site_type_symbol
 _atom_site_label
 _atom_site_symmetry_multiplicity
 _atom_site_fract_x
 _atom_site_fract_y
 _atom_site_fract_z
 _atom_site_occupancy
  Pr  Pr0  1  0.703723  0.686143  0.639945  1
  Pr  Pr1  1  0.695939  0.691066  0.164963  1
  Pr  Pr2  1  0.308975  0.304358  0.832483  1
  Pr  Pr3  1  0.999593  0.002922  0.497336  1
  Ho  Ho4  1  0.315147  0.297407  0.354684  1
  Co  Co5  1  0.744909  0.252400  0.003801  1
  Ru  Ru6  1  0.235143  0.762057  0.003099  1
  O  O7  1  0.107936  0.589227  0.565211  1
  O  O8  1  0.985681  0.012397  0.169904  1
  O  O9  1  0.403067  0.911127  0.420465  1
  O  O10  1  0.497608  0.496064  0.177997  1
  O  O11  1  0.104582  0.575155  0.086924  1
  O  O12  1  0.921599  0.397573  0.419532  1
  O  O13  1  0.986697  0.007159  0.832630  1
  O  O14  1  0.593094  0.097788  0.566926  1
  O  O15  1  0.502386  0.495879  0.832641  1
  O  O16  1  0.579886  0.108976  0.085823  1
  O  O17  1  0.417274  0.900003  0.921852  1
  O  O18  1  0.896760  0.412298  0.923785  1
