# generated using pymatgen
data_Sm6Ni18P13Pt2
_symmetry_space_group_name_H-M   'P 1'
_cell_length_a   12.86423500
_cell_length_b   12.86423548
_cell_length_c   3.81151000
_cell_angle_alpha   90.00000000
_cell_angle_beta   90.00000000
_cell_angle_gamma   120.00000202
_symmetry_Int_Tables_number   1
_chemical_formula_structural   Sm6Ni18P13Pt2
_chemical_formula_sum   'Sm6 Ni18 P13 Pt2'
_cell_volume   546.25526101
_cell_formula_units_Z   1
loop_
 _symmetry_equiv_pos_site_id
 _symmetry_equiv_pos_as_xyz
  1  'x, y, z'
loop_
 _atom_site_type_symbol
 _atom_site_label
 _atom_site_symmetry_multiplicity
 _atom_site_fract_x
 _atom_site_fract_y
 _atom_site_fract_z
 _atom_site_occupancy
  Sm  Sm0  1  0.463770  0.182331  0.000000  1
  Sm  Sm1  1  0.718562  0.536230  0.000000  1
  Sm  Sm2  1  0.817669  0.281438  0.000000  1
  Sm  Sm3  1  0.536468  0.816826  0.500000  1
  Sm  Sm4  1  0.280359  0.463532  0.500000  1
  Sm  Sm5  1  0.183174  0.719641  0.500000  1
  Ni  Ni6  1  0.192282  0.089279  0.000000  1
  Ni  Ni7  1  0.896995  0.807718  0.000000  1
  Ni  Ni8  1  0.910721  0.103005  0.000000  1
  Ni  Ni9  1  0.853388  0.929528  0.500000  1
  Ni  Ni10  1  0.076140  0.146612  0.500000  1
  Ni  Ni11  1  0.070472  0.923860  0.500000  1
  Ni  Ni12  1  0.435563  0.412309  0.000000  1
  Ni  Ni13  1  0.976747  0.564437  0.000000  1
  Ni  Ni14  1  0.587691  0.023253  0.000000  1
  Ni  Ni15  1  0.568191  0.591856  0.500000  1
  Ni  Ni16  1  0.023665  0.431809  0.500000  1
  Ni  Ni17  1  0.408144  0.976335  0.500000  1
  Ni  Ni18  1  0.076960  0.315657  0.000000  1
  Ni  Ni19  1  0.238696  0.923040  0.000000  1
  Ni  Ni20  1  0.684343  0.761304  0.000000  1
  Ni  Ni21  1  0.930918  0.688918  0.500000  1
  Ni  Ni22  1  0.758000  0.069082  0.500000  1
  Ni  Ni23  1  0.311082  0.242000  0.500000  1
  P  P24  1  0.233313  0.278586  0.000000  1
  P  P25  1  0.045274  0.766687  0.000000  1
  P  P26  1  0.721414  0.954726  0.000000  1
  P  P27  1  0.770046  0.726696  0.500000  1
  P  P28  1  0.956650  0.229954  0.500000  1
  P  P29  1  0.273304  0.043350  0.500000  1
  P  P30  1  0.485531  0.612120  0.000000  1
  P  P31  1  0.126589  0.514469  0.000000  1
  P  P32  1  0.387880  0.873411  0.000000  1
  P  P33  1  0.514839  0.388537  0.500000  1
  P  P34  1  0.873698  0.485161  0.500000  1
  P  P35  1  0.611463  0.126302  0.500000  1
  P  P36  1  0.000000  0.000000  0.000000  1
  Pt  Pt37  1  0.333333  0.666667  0.000000  1
  Pt  Pt38  1  0.666667  0.333333  0.500000  1
