# generated using pymatgen
data_Sr3Ac(CoO4)2
_symmetry_space_group_name_H-M   'P 1'
_cell_length_a   6.94645500
_cell_length_b   6.94645461
_cell_length_c   5.50745500
_cell_angle_alpha   90.00000000
_cell_angle_beta   90.00000000
_cell_angle_gamma   132.93861457
_symmetry_Int_Tables_number   1
_chemical_formula_structural   Sr3Ac(CoO4)2
_chemical_formula_sum   'Sr3 Ac1 Co2 O8'
_cell_volume   194.55315495
_cell_formula_units_Z   1
loop_
 _symmetry_equiv_pos_site_id
 _symmetry_equiv_pos_as_xyz
  1  'x, y, z'
loop_
 _atom_site_type_symbol
 _atom_site_label
 _atom_site_symmetry_multiplicity
 _atom_site_fract_x
 _atom_site_fract_y
 _atom_site_fract_z
 _atom_site_occupancy
  Sr  Sr0  1  0.642036  0.357964  0.000000  1
  Sr  Sr1  1  0.361506  0.638494  0.000000  1
  Sr  Sr2  1  0.858640  0.141360  0.500000  1
  Ac  Ac3  1  0.140359  0.859641  0.500000  1
  Co  Co4  1  0.495986  0.504014  0.500000  1
  Co  Co5  1  0.997768  0.002232  0.000000  1
  O  O6  1  0.841347  0.158653  0.000000  1
  O  O7  1  0.340152  0.659848  0.500000  1
  O  O8  1  0.657060  0.342940  0.500000  1
  O  O9  1  0.160581  0.839419  0.000000  1
  O  O10  1  0.760160  0.757878  0.753647  1
  O  O11  1  0.242122  0.239840  0.246353  1
  O  O12  1  0.242122  0.239840  0.753647  1
  O  O13  1  0.760160  0.757878  0.246353  1
