# generated using pymatgen
data_CeThB2Ir5
_symmetry_space_group_name_H-M   'P 1'
_cell_length_a   11.11417315
_cell_length_b   11.11417323
_cell_length_c   11.11417374
_cell_angle_alpha   28.75858020
_cell_angle_beta   28.75857866
_cell_angle_gamma   28.75858448
_symmetry_Int_Tables_number   1
_chemical_formula_structural   CeThB2Ir5
_chemical_formula_sum   'Ce2 Th2 B4 Ir10'
_cell_volume   280.98399688
_cell_formula_units_Z   2
loop_
 _symmetry_equiv_pos_site_id
 _symmetry_equiv_pos_as_xyz
  1  'x, y, z'
loop_
 _atom_site_type_symbol
 _atom_site_label
 _atom_site_symmetry_multiplicity
 _atom_site_fract_x
 _atom_site_fract_y
 _atom_site_fract_z
 _atom_site_occupancy
  Ce  Ce0  1  0.846482  0.846482  0.846482  1
  Ce  Ce1  1  0.051766  0.051766  0.051766  1
  Th  Th2  1  0.152232  0.152232  0.152232  1
  Th  Th3  1  0.948701  0.948701  0.948701  1
  B  B4  1  0.617677  0.617677  0.617677  1
  B  B5  1  0.716827  0.716827  0.716827  1
  B  B6  1  0.382798  0.382798  0.382798  1
  B  B7  1  0.283321  0.283321  0.283321  1
  Ir  Ir8  1  0.406833  0.899272  0.406833  1
  Ir  Ir9  1  0.899272  0.406833  0.406833  1
  Ir  Ir10  1  0.500119  0.500119  0.000444  1
  Ir  Ir11  1  0.500119  0.000444  0.500119  1
  Ir  Ir12  1  0.000444  0.500119  0.500119  1
  Ir  Ir13  1  0.499983  0.499983  0.499983  1
  Ir  Ir14  1  0.593539  0.099513  0.593539  1
  Ir  Ir15  1  0.593539  0.593539  0.099513  1
  Ir  Ir16  1  0.099513  0.593539  0.593539  1
  Ir  Ir17  1  0.406833  0.406833  0.899272  1
