# generated using pymatgen
data_Ho5Er3Ti9Si16Mo3
_symmetry_space_group_name_H-M   'P 1'
_cell_length_a   6.99349000
_cell_length_b   6.99302120
_cell_length_c   12.85415107
_cell_angle_alpha   90.01174940
_cell_angle_beta   90.00506014
_cell_angle_gamma   89.98790684
_symmetry_Int_Tables_number   1
_chemical_formula_structural   Ho5Er3Ti9Si16Mo3
_chemical_formula_sum   'Ho5 Er3 Ti9 Si16 Mo3'
_cell_volume   628.64024781
_cell_formula_units_Z   1
loop_
 _symmetry_equiv_pos_site_id
 _symmetry_equiv_pos_as_xyz
  1  'x, y, z'
loop_
 _atom_site_type_symbol
 _atom_site_label
 _atom_site_symmetry_multiplicity
 _atom_site_fract_x
 _atom_site_fract_y
 _atom_site_fract_z
 _atom_site_occupancy
  Ho  Ho0  1  0.842124  0.498670  0.281972  1
  Ho  Ho1  1  0.158438  0.500311  0.783305  1
  Ho  Ho2  1  0.659036  0.999502  0.966913  1
  Ho  Ho3  1  0.002218  0.340459  0.533507  1
  Ho  Ho4  1  0.999539  0.659098  0.033072  1
  Er  Er5  1  0.340769  0.002057  0.466511  1
  Er  Er6  1  0.498888  0.842402  0.718005  1
  Er  Er7  1  0.499914  0.158208  0.216620  1
  Ti  Ti8  1  0.672712  0.672970  0.500028  1
  Ti  Ti9  1  0.152183  0.008285  0.875922  1
  Ti  Ti10  1  0.491644  0.652293  0.125078  1
  Ti  Ti11  1  0.507276  0.347060  0.626849  1
  Ti  Ti12  1  0.652298  0.491630  0.874878  1
  Ti  Ti13  1  0.347116  0.507430  0.373093  1
  Ti  Ti14  1  0.848681  0.992169  0.374757  1
  Ti  Ti15  1  0.008471  0.152121  0.124045  1
  Ti  Ti16  1  0.992112  0.848736  0.625207  1
  Si  Si17  1  0.202737  0.130072  0.683909  1
  Si  Si18  1  0.369154  0.701674  0.933883  1
  Si  Si19  1  0.630731  0.297065  0.433969  1
  Si  Si20  1  0.701355  0.368862  0.066189  1
  Si  Si21  1  0.297589  0.631556  0.566021  1
  Si  Si22  1  0.797935  0.869693  0.184366  1
  Si  Si23  1  0.130908  0.202136  0.316085  1
  Si  Si24  1  0.869128  0.798196  0.815563  1
  Si  Si25  1  0.291891  0.952897  0.065076  1
  Si  Si26  1  0.546403  0.791496  0.315100  1
  Si  Si27  1  0.452406  0.208231  0.815177  1
  Si  Si28  1  0.790798  0.546912  0.684955  1
  Si  Si29  1  0.208810  0.452113  0.184761  1
  Si  Si30  1  0.707365  0.047951  0.565834  1
  Si  Si31  1  0.952690  0.291679  0.935038  1
  Si  Si32  1  0.048491  0.708071  0.434209  1
  Mo  Mo33  1  0.327198  0.327014  0.000064  1
  Mo  Mo34  1  0.173913  0.827376  0.249425  1
  Mo  Mo35  1  0.827077  0.173602  0.750614  1
