# generated using pymatgen
data_Tb6Al24ZnRu6Pt
_symmetry_space_group_name_H-M   'P 1'
_cell_length_a   8.82993526
_cell_length_b   8.84485245
_cell_length_c   9.57192526
_cell_angle_alpha   90.03666326
_cell_angle_beta   90.07008665
_cell_angle_gamma   119.55248573
_symmetry_Int_Tables_number   1
_chemical_formula_structural   Tb6Al24ZnRu6Pt
_chemical_formula_sum   'Tb6 Al24 Zn1 Ru6 Pt1'
_cell_volume   650.30649720
_cell_formula_units_Z   1
loop_
 _symmetry_equiv_pos_site_id
 _symmetry_equiv_pos_as_xyz
  1  'x, y, z'
loop_
 _atom_site_type_symbol
 _atom_site_label
 _atom_site_symmetry_multiplicity
 _atom_site_fract_x
 _atom_site_fract_y
 _atom_site_fract_z
 _atom_site_occupancy
  Tb  Tb0  1  0.385139  0.192291  0.255086  1
  Tb  Tb1  1  0.805995  0.191771  0.245844  1
  Tb  Tb2  1  0.807521  0.616016  0.254089  1
  Tb  Tb3  1  0.614861  0.807709  0.744914  1
  Tb  Tb4  1  0.194005  0.808229  0.754156  1
  Tb  Tb5  1  0.192479  0.383984  0.745911  1
  Al  Al6  1  0.438698  0.878660  0.250430  1
  Al  Al7  1  0.124404  0.563400  0.254069  1
  Al  Al8  1  0.436472  0.565247  0.242829  1
  Al  Al9  1  0.561302  0.121340  0.749570  1
  Al  Al10  1  0.875596  0.436600  0.745931  1
  Al  Al11  1  0.563528  0.434753  0.757171  1
  Al  Al12  1  0.163483  0.836601  0.421967  1
  Al  Al13  1  0.149505  0.323199  0.420960  1
  Al  Al14  1  0.675755  0.849019  0.420293  1
  Al  Al15  1  0.836517  0.163399  0.578033  1
  Al  Al16  1  0.850495  0.676801  0.579040  1
  Al  Al17  1  0.324245  0.150981  0.579707  1
  Al  Al18  1  0.832148  0.158258  0.920629  1
  Al  Al19  1  0.831195  0.674951  0.926738  1
  Al  Al20  1  0.326602  0.164341  0.926807  1
  Al  Al21  1  0.167852  0.841742  0.079371  1
  Al  Al22  1  0.168805  0.325049  0.073262  1
  Al  Al23  1  0.673398  0.835659  0.073193  1
  Al  Al24  1  0.327561  0.672085  0.525280  1
  Al  Al25  1  0.672439  0.327915  0.474720  1
  Al  Al26  1  0.660971  0.330322  0.025831  1
  Al  Al27  1  0.339029  0.669678  0.974169  1
  Al  Al28  1  0.000720  0.997102  0.249622  1
  Al  Al29  1  0.999280  0.002898  0.750378  1
  Zn  Zn30  1  0.500000  0.500000  0.500000  1
  Ru  Ru31  1  0.000000  0.000000  0.500000  1
  Ru  Ru32  1  0.000000  0.000000  0.000000  1
  Ru  Ru33  1  0.500000  0.000000  0.500000  1
  Ru  Ru34  1  0.000000  0.500000  0.500000  1
  Ru  Ru35  1  0.500000  0.000000  0.000000  1
  Ru  Ru36  1  0.500000  0.500000  0.000000  1
  Pt  Pt37  1  0.000000  0.500000  0.000000  1
