# generated using pymatgen
data_Dy8Cu3Si12Ru
_symmetry_space_group_name_H-M   'P 1'
_cell_length_a   8.05200900
_cell_length_b   8.05201018
_cell_length_c   8.06960700
_cell_angle_alpha   90.00000000
_cell_angle_beta   90.00000000
_cell_angle_gamma   119.99999103
_symmetry_Int_Tables_number   1
_chemical_formula_structural   Dy8Cu3Si12Ru
_chemical_formula_sum   'Dy8 Cu3 Si12 Ru1'
_cell_volume   453.09745476
_cell_formula_units_Z   1
loop_
 _symmetry_equiv_pos_site_id
 _symmetry_equiv_pos_as_xyz
  1  'x, y, z'
loop_
 _atom_site_type_symbol
 _atom_site_label
 _atom_site_symmetry_multiplicity
 _atom_site_fract_x
 _atom_site_fract_y
 _atom_site_fract_z
 _atom_site_occupancy
  Dy  Dy0  1  0.000000  0.000000  0.249384  1
  Dy  Dy1  1  0.000000  0.000000  0.750477  1
  Dy  Dy2  1  0.998474  0.499236  0.253694  1
  Dy  Dy3  1  0.500764  0.499236  0.253694  1
  Dy  Dy4  1  0.502245  0.004491  0.746287  1
  Dy  Dy5  1  0.500764  0.001526  0.253694  1
  Dy  Dy6  1  0.502245  0.497755  0.746287  1
  Dy  Dy7  1  0.995509  0.497755  0.746287  1
  Cu  Cu8  1  0.333333  0.666667  0.997226  1
  Cu  Cu9  1  0.333333  0.666667  0.502430  1
  Cu  Cu10  1  0.666667  0.333333  0.002921  1
  Si  Si11  1  0.168471  0.336942  0.000065  1
  Si  Si12  1  0.663058  0.831529  0.000065  1
  Si  Si13  1  0.167626  0.335252  0.500692  1
  Si  Si14  1  0.337239  0.168620  0.999897  1
  Si  Si15  1  0.168471  0.831529  0.000065  1
  Si  Si16  1  0.664748  0.832374  0.500692  1
  Si  Si17  1  0.831380  0.662761  0.999897  1
  Si  Si18  1  0.335601  0.167801  0.499175  1
  Si  Si19  1  0.167626  0.832374  0.500692  1
  Si  Si20  1  0.832199  0.664399  0.499175  1
  Si  Si21  1  0.831380  0.168620  0.999897  1
  Si  Si22  1  0.832199  0.167801  0.499175  1
  Ru  Ru23  1  0.666667  0.333333  0.498127  1
