# generated using pymatgen
data_YbYZn2(PIr2)2
_symmetry_space_group_name_H-M   'P 1'
_cell_length_a   3.99958800
_cell_length_b   3.99958800
_cell_length_c   10.58417800
_cell_angle_alpha   90.00000000
_cell_angle_beta   90.00000000
_cell_angle_gamma   90.00000000
_symmetry_Int_Tables_number   1
_chemical_formula_structural   YbYZn2(PIr2)2
_chemical_formula_sum   'Yb1 Y1 Zn2 P2 Ir4'
_cell_volume   169.31196435
_cell_formula_units_Z   1
loop_
 _symmetry_equiv_pos_site_id
 _symmetry_equiv_pos_as_xyz
  1  'x, y, z'
loop_
 _atom_site_type_symbol
 _atom_site_label
 _atom_site_symmetry_multiplicity
 _atom_site_fract_x
 _atom_site_fract_y
 _atom_site_fract_z
 _atom_site_occupancy
  Yb  Yb0  1  0.500000  0.000000  0.252859  1
  Y  Y1  1  0.000000  0.500000  0.752451  1
  Zn  Zn2  1  0.500000  0.500000  0.498485  1
  Zn  Zn3  1  0.000000  0.000000  0.498485  1
  P  P4  1  0.000000  0.500000  0.126675  1
  P  P5  1  0.500000  0.000000  0.873552  1
  Ir  Ir6  1  0.000000  0.500000  0.339277  1
  Ir  Ir7  1  0.500000  0.000000  0.660326  1
  Ir  Ir8  1  0.500000  0.500000  0.998945  1
  Ir  Ir9  1  0.000000  0.000000  0.998945  1
