# generated using pymatgen
data_Li4Ac2NdSn4
_symmetry_space_group_name_H-M   'P 1'
_cell_length_a   9.10847401
_cell_length_b   9.10847302
_cell_length_c   9.10847281
_cell_angle_alpha   148.73758291
_cell_angle_beta   133.19694022
_cell_angle_gamma   57.36348362
_symmetry_Int_Tables_number   1
_chemical_formula_structural   Li4Ac2NdSn4
_chemical_formula_sum   'Li4 Ac2 Nd1 Sn4'
_cell_volume   283.78713041
_cell_formula_units_Z   1
loop_
 _symmetry_equiv_pos_site_id
 _symmetry_equiv_pos_as_xyz
  1  'x, y, z'
loop_
 _atom_site_type_symbol
 _atom_site_label
 _atom_site_symmetry_multiplicity
 _atom_site_fract_x
 _atom_site_fract_y
 _atom_site_fract_z
 _atom_site_occupancy
  Li  Li0  1  0.482768  0.670915  0.811854  1
  Li  Li1  1  0.859062  0.670915  0.188146  1
  Li  Li2  1  0.140938  0.329085  0.811854  1
  Li  Li3  1  0.517232  0.329085  0.188146  1
  Ac  Ac4  1  0.867665  0.867665  0.000000  1
  Ac  Ac5  1  0.132335  0.132335  0.000000  1
  Nd  Nd6  1  0.500000  0.000000  0.500000  1
  Sn  Sn7  1  0.290738  0.790738  0.500000  1
  Sn  Sn8  1  0.709262  0.209262  0.500000  1
  Sn  Sn9  1  0.796536  0.500000  0.296536  1
  Sn  Sn10  1  0.203464  0.500000  0.703464  1
