# generated using pymatgen
data_Ho17Tm3(Bi2Ru)4
_symmetry_space_group_name_H-M   'P 1'
_cell_length_a   7.93790512
_cell_length_b   8.99450885
_cell_length_c   12.42739413
_cell_angle_alpha   89.95285485
_cell_angle_beta   90.01279382
_cell_angle_gamma   89.98430873
_symmetry_Int_Tables_number   1
_chemical_formula_structural   Ho17Tm3(Bi2Ru)4
_chemical_formula_sum   'Ho17 Tm3 Bi8 Ru4'
_cell_volume   887.28523550
_cell_formula_units_Z   1
loop_
 _symmetry_equiv_pos_site_id
 _symmetry_equiv_pos_as_xyz
  1  'x, y, z'
loop_
 _atom_site_type_symbol
 _atom_site_label
 _atom_site_symmetry_multiplicity
 _atom_site_fract_x
 _atom_site_fract_y
 _atom_site_fract_z
 _atom_site_occupancy
  Ho  Ho0  1  0.840304  0.750221  0.792412  1
  Ho  Ho1  1  0.159906  0.249866  0.207564  1
  Ho  Ho2  1  0.340276  0.249781  0.707531  1
  Ho  Ho3  1  0.659654  0.750188  0.292586  1
  Ho  Ho4  1  0.375641  0.750394  0.690173  1
  Ho  Ho5  1  0.624387  0.249611  0.309821  1
  Ho  Ho6  1  0.875693  0.249781  0.809638  1
  Ho  Ho7  1  0.124660  0.750307  0.190293  1
  Ho  Ho8  1  0.945606  0.750399  0.504328  1
  Ho  Ho9  1  0.054440  0.249622  0.495717  1
  Ho  Ho10  1  0.445359  0.249737  0.995705  1
  Ho  Ho11  1  0.554148  0.750173  0.004231  1
  Ho  Ho12  1  0.325453  0.542017  0.435185  1
  Ho  Ho13  1  0.825910  0.041800  0.064677  1
  Ho  Ho14  1  0.674514  0.458067  0.564828  1
  Ho  Ho15  1  0.825379  0.458085  0.064832  1
  Ho  Ho16  1  0.174441  0.541951  0.935209  1
  Tm  Tm17  1  0.673011  0.041938  0.564544  1
  Tm  Tm18  1  0.326972  0.958086  0.435467  1
  Tm  Tm19  1  0.173398  0.957965  0.935305  1
  Bi  Bi20  1  0.567268  0.493205  0.827360  1
  Bi  Bi21  1  0.432742  0.506829  0.172626  1
  Bi  Bi22  1  0.067309  0.506849  0.672583  1
  Bi  Bi23  1  0.432729  0.993186  0.172710  1
  Bi  Bi24  1  0.932703  0.493170  0.327400  1
  Bi  Bi25  1  0.567039  0.006757  0.827418  1
  Bi  Bi26  1  0.933134  0.006767  0.327531  1
  Bi  Bi27  1  0.066962  0.993214  0.672542  1
  Ru  Ru28  1  0.573645  0.750902  0.510011  1
  Ru  Ru29  1  0.426319  0.249109  0.489986  1
  Ru  Ru30  1  0.074392  0.249595  0.989809  1
  Ru  Ru31  1  0.926607  0.750426  0.009979  1
