# generated using pymatgen
data_Ba10Al4Si13Bi
_symmetry_space_group_name_H-M   'P 1'
_cell_length_a   6.77508422
_cell_length_b   6.77508326
_cell_length_c   18.44124578
_cell_angle_alpha   81.49074453
_cell_angle_beta   81.49074566
_cell_angle_gamma   100.00238420
_symmetry_Int_Tables_number   1
_chemical_formula_structural   Ba10Al4Si13Bi
_chemical_formula_sum   'Ba10 Al4 Si13 Bi1'
_cell_volume   811.23030213
_cell_formula_units_Z   1
loop_
 _symmetry_equiv_pos_site_id
 _symmetry_equiv_pos_as_xyz
  1  'x, y, z'
loop_
 _atom_site_type_symbol
 _atom_site_label
 _atom_site_symmetry_multiplicity
 _atom_site_fract_x
 _atom_site_fract_y
 _atom_site_fract_z
 _atom_site_occupancy
  Ba  Ba0  1  0.746518  0.253079  0.002018  1
  Ba  Ba1  1  0.116844  0.568190  0.785418  1
  Ba  Ba2  1  0.290866  0.709063  0.499651  1
  Ba  Ba3  1  0.764697  0.764697  0.637262  1
  Ba  Ba4  1  0.240996  0.240996  0.355457  1
  Ba  Ba5  1  0.568190  0.116844  0.785418  1
  Ba  Ba6  1  0.253079  0.746518  0.002018  1
  Ba  Ba7  1  0.709063  0.290866  0.499651  1
  Ba  Ba8  1  0.427507  0.880811  0.212532  1
  Ba  Ba9  1  0.880811  0.427507  0.212532  1
  Al  Al10  1  0.217649  0.217649  0.074236  1
  Al  Al11  1  0.928654  0.928654  0.263462  1
  Al  Al12  1  0.065775  0.065775  0.735719  1
  Al  Al13  1  0.795169  0.795169  0.937320  1
  Si  Si14  1  0.348550  0.348550  0.642447  1
  Si  Si15  1  0.273893  0.273893  0.935487  1
  Si  Si16  1  0.930253  0.930253  0.130518  1
  Si  Si17  1  0.651462  0.651462  0.357773  1
  Si  Si18  1  0.424871  0.424871  0.148228  1
  Si  Si19  1  0.067786  0.067786  0.869242  1
  Si  Si20  1  0.819226  0.819226  0.447786  1
  Si  Si21  1  0.332730  0.976603  0.641196  1
  Si  Si22  1  0.668481  0.024038  0.358552  1
  Si  Si23  1  0.182178  0.182178  0.551450  1
  Si  Si24  1  0.976603  0.332730  0.641196  1
  Si  Si25  1  0.024038  0.668481  0.358552  1
  Si  Si26  1  0.700959  0.700959  0.072690  1
  Bi  Bi27  1  0.593154  0.593154  0.842191  1
