# generated using pymatgen
data_Er6Hg9Au
_symmetry_space_group_name_H-M   'P 1'
_cell_length_a   6.31126615
_cell_length_b   6.31126541
_cell_length_c   10.13311659
_cell_angle_alpha   89.95208597
_cell_angle_beta   89.95208610
_cell_angle_gamma   105.01533567
_symmetry_Int_Tables_number   1
_chemical_formula_structural   Er6Hg9Au
_chemical_formula_sum   'Er6 Hg9 Au1'
_cell_volume   389.84160229
_cell_formula_units_Z   1
loop_
 _symmetry_equiv_pos_site_id
 _symmetry_equiv_pos_as_xyz
  1  'x, y, z'
loop_
 _atom_site_type_symbol
 _atom_site_label
 _atom_site_symmetry_multiplicity
 _atom_site_fract_x
 _atom_site_fract_y
 _atom_site_fract_z
 _atom_site_occupancy
  Er  Er0  1  0.556407  0.556407  0.246518  1
  Er  Er1  1  0.430183  0.430183  0.761364  1
  Er  Er2  1  0.213774  0.784195  0.497996  1
  Er  Er3  1  0.221043  0.794295  0.999563  1
  Er  Er4  1  0.784195  0.213774  0.497996  1
  Er  Er5  1  0.794295  0.221043  0.999563  1
  Hg  Hg6  1  0.966557  0.966557  0.246259  1
  Hg  Hg7  1  0.030477  0.030477  0.750715  1
  Hg  Hg8  1  0.713216  0.713216  0.973517  1
  Hg  Hg9  1  0.290764  0.290764  0.475807  1
  Hg  Hg10  1  0.704532  0.704532  0.527846  1
  Hg  Hg11  1  0.475553  0.038238  0.247934  1
  Hg  Hg12  1  0.958385  0.522770  0.747765  1
  Hg  Hg13  1  0.522770  0.958385  0.747765  1
  Hg  Hg14  1  0.038238  0.475553  0.247934  1
  Au  Au15  1  0.299610  0.299610  0.031457  1
