# generated using pymatgen
data_NaP4(PdO7)2
_symmetry_space_group_name_H-M   'P 1'
_cell_length_a   4.81435468
_cell_length_b   6.99130555
_cell_length_c   8.19534869
_cell_angle_alpha   88.78122342
_cell_angle_beta   92.89682060
_cell_angle_gamma   106.85356335
_symmetry_Int_Tables_number   1
_chemical_formula_structural   NaP4(PdO7)2
_chemical_formula_sum   'Na1 P4 Pd2 O14'
_cell_volume   263.65268435
_cell_formula_units_Z   1
loop_
 _symmetry_equiv_pos_site_id
 _symmetry_equiv_pos_as_xyz
  1  'x, y, z'
loop_
 _atom_site_type_symbol
 _atom_site_label
 _atom_site_symmetry_multiplicity
 _atom_site_fract_x
 _atom_site_fract_y
 _atom_site_fract_z
 _atom_site_occupancy
  Na  Na0  1  0.449100  0.995327  0.004197  1
  P  P1  1  0.471585  0.373788  0.243856  1
  P  P2  1  0.526936  0.627023  0.758331  1
  P  P3  1  0.890823  0.770796  0.308016  1
  P  P4  1  0.108187  0.230658  0.694089  1
  Pd  Pd5  1  0.998440  0.498643  0.000771  1
  Pd  Pd6  1  0.499282  0.000301  0.501252  1
  O  O7  1  0.616020  0.325838  0.091966  1
  O  O8  1  0.380414  0.673409  0.909988  1
  O  O9  1  0.299516  0.458061  0.652005  1
  O  O10  1  0.699866  0.542930  0.349096  1
  O  O11  1  0.687741  0.908318  0.307604  1
  O  O12  1  0.309824  0.091839  0.694353  1
  O  O13  1  0.641374  0.814050  0.652278  1
  O  O14  1  0.357328  0.186554  0.349969  1
  O  O15  1  0.205484  0.448235  0.207010  1
  O  O16  1  0.792280  0.551696  0.795136  1
  O  O17  1  0.010668  0.219188  0.869938  1
  O  O18  1  0.993414  0.781904  0.133283  1
  O  O19  1  0.878981  0.208807  0.552459  1
  O  O20  1  0.118737  0.792633  0.450405  1
