# generated using pymatgen
data_Dy2Ho2LuSn3
_symmetry_space_group_name_H-M   'P 1'
_cell_length_a   8.92374719
_cell_length_b   8.92378869
_cell_length_c   6.48188100
_cell_angle_alpha   90.00034535
_cell_angle_beta   90.00023062
_cell_angle_gamma   120.02102319
_symmetry_Int_Tables_number   1
_chemical_formula_structural   Dy2Ho2LuSn3
_chemical_formula_sum   'Dy4 Ho4 Lu2 Sn6'
_cell_volume   446.92657595
_cell_formula_units_Z   2
loop_
 _symmetry_equiv_pos_site_id
 _symmetry_equiv_pos_as_xyz
  1  'x, y, z'
loop_
 _atom_site_type_symbol
 _atom_site_label
 _atom_site_symmetry_multiplicity
 _atom_site_fract_x
 _atom_site_fract_y
 _atom_site_fract_z
 _atom_site_occupancy
  Dy  Dy0  1  0.761252  0.761249  0.749610  1
  Dy  Dy1  1  0.239279  0.999766  0.749614  1
  Dy  Dy2  1  0.999766  0.239287  0.749614  1
  Dy  Dy3  1  0.238917  0.238913  0.250399  1
  Ho  Ho4  1  0.666618  0.333336  0.000133  1
  Ho  Ho5  1  0.333334  0.666620  0.000131  1
  Ho  Ho6  1  0.760831  0.999976  0.250413  1
  Ho  Ho7  1  0.999980  0.760829  0.250412  1
  Lu  Lu8  1  0.333374  0.666638  0.499871  1
  Lu  Lu9  1  0.666625  0.333359  0.499867  1
  Sn  Sn10  1  0.395880  0.395881  0.748224  1
  Sn  Sn11  1  0.604003  0.999940  0.748163  1
  Sn  Sn12  1  0.999941  0.604003  0.748162  1
  Sn  Sn13  1  0.605025  0.605026  0.251703  1
  Sn  Sn14  1  0.395585  0.999590  0.251844  1
  Sn  Sn15  1  0.999588  0.395587  0.251841  1
