# generated using pymatgen
data_Zr12Zn9Pd2PtN4
_symmetry_space_group_name_H-M   'P 1'
_cell_length_a   8.60153197
_cell_length_b   8.60153326
_cell_length_c   8.62723639
_cell_angle_alpha   60.12568270
_cell_angle_beta   60.12567752
_cell_angle_gamma   59.94559125
_symmetry_Int_Tables_number   1
_chemical_formula_structural   Zr12Zn9Pd2PtN4
_chemical_formula_sum   'Zr12 Zn9 Pd2 Pt1 N4'
_cell_volume   452.01329772
_cell_formula_units_Z   1
loop_
 _symmetry_equiv_pos_site_id
 _symmetry_equiv_pos_as_xyz
  1  'x, y, z'
loop_
 _atom_site_type_symbol
 _atom_site_label
 _atom_site_symmetry_multiplicity
 _atom_site_fract_x
 _atom_site_fract_y
 _atom_site_fract_z
 _atom_site_occupancy
  Zr  Zr0  1  0.811698  0.190460  0.186703  1
  Zr  Zr1  1  0.190460  0.811698  0.186703  1
  Zr  Zr2  1  0.811841  0.811841  0.184772  1
  Zr  Zr3  1  0.185817  0.813107  0.812586  1
  Zr  Zr4  1  0.813107  0.185817  0.812586  1
  Zr  Zr5  1  0.187795  0.187795  0.812389  1
  Zr  Zr6  1  0.438302  0.059540  0.063297  1
  Zr  Zr7  1  0.059540  0.438302  0.063297  1
  Zr  Zr8  1  0.438159  0.438159  0.065228  1
  Zr  Zr9  1  0.064183  0.436893  0.437414  1
  Zr  Zr10  1  0.436893  0.064183  0.437414  1
  Zr  Zr11  1  0.062205  0.062205  0.437611  1
  Zn  Zn12  1  0.419107  0.419107  0.745641  1
  Zn  Zn13  1  0.418989  0.418989  0.419482  1
  Zn  Zn14  1  0.745159  0.418787  0.419756  1
  Zn  Zn15  1  0.418787  0.745159  0.419756  1
  Zn  Zn16  1  0.830893  0.830893  0.504359  1
  Zn  Zn17  1  0.831011  0.831011  0.830518  1
  Zn  Zn18  1  0.504841  0.831213  0.830244  1
  Zn  Zn19  1  0.831213  0.504841  0.830244  1
  Zn  Zn20  1  0.625000  0.625000  0.625000  1
  Pd  Pd21  1  0.125000  0.625000  0.625000  1
  Pd  Pd22  1  0.625000  0.125000  0.625000  1
  Pt  Pt23  1  0.625000  0.625000  0.125000  1
  N  N24  1  0.125000  0.125000  0.625000  1
  N  N25  1  0.125000  0.125000  0.125000  1
  N  N26  1  0.625000  0.125000  0.125000  1
  N  N27  1  0.125000  0.625000  0.125000  1
