# generated using pymatgen
data_Zr8Si16(MoW3)3
_symmetry_space_group_name_H-M   'P 1'
_cell_length_a   6.62590229
_cell_length_b   6.77943382
_cell_length_c   12.68012609
_cell_angle_alpha   89.97864388
_cell_angle_beta   89.98404821
_cell_angle_gamma   89.96254953
_symmetry_Int_Tables_number   1
_chemical_formula_structural   Zr8Si16(MoW3)3
_chemical_formula_sum   'Zr8 Si16 Mo3 W9'
_cell_volume   569.58938253
_cell_formula_units_Z   1
loop_
 _symmetry_equiv_pos_site_id
 _symmetry_equiv_pos_as_xyz
  1  'x, y, z'
loop_
 _atom_site_type_symbol
 _atom_site_label
 _atom_site_symmetry_multiplicity
 _atom_site_fract_x
 _atom_site_fract_y
 _atom_site_fract_z
 _atom_site_occupancy
  Zr  Zr0  1  0.492806  0.671695  0.592439  1
  Zr  Zr1  1  0.992504  0.828601  0.907531  1
  Zr  Zr2  1  0.507019  0.328582  0.092358  1
  Zr  Zr3  1  0.007892  0.171432  0.407772  1
  Zr  Zr4  1  0.506971  0.328165  0.407328  1
  Zr  Zr5  1  0.005746  0.172947  0.092576  1
  Zr  Zr6  1  0.494281  0.672683  0.907130  1
  Zr  Zr7  1  0.993745  0.827113  0.592086  1
  Si  Si8  1  0.667471  0.959352  0.457092  1
  Si  Si9  1  0.167185  0.541398  0.043448  1
  Si  Si10  1  0.332464  0.041140  0.956744  1
  Si  Si11  1  0.832469  0.458121  0.543443  1
  Si  Si12  1  0.333546  0.041024  0.543273  1
  Si  Si13  1  0.833717  0.458872  0.956663  1
  Si  Si14  1  0.666274  0.959149  0.043291  1
  Si  Si15  1  0.166934  0.540768  0.457252  1
  Si  Si16  1  0.466201  0.378583  0.749598  1
  Si  Si17  1  0.966367  0.121531  0.750510  1
  Si  Si18  1  0.532798  0.621156  0.249231  1
  Si  Si19  1  0.034390  0.879187  0.249677  1
  Si  Si20  1  0.698527  0.859854  0.749272  1
  Si  Si21  1  0.198090  0.640202  0.750599  1
  Si  Si22  1  0.301957  0.140302  0.249503  1
  Si  Si23  1  0.801490  0.359068  0.250324  1
  Mo  Mo24  1  0.669383  0.163065  0.623733  1
  Mo  Mo25  1  0.169457  0.336570  0.876442  1
  Mo  Mo26  1  0.330692  0.836674  0.123790  1
  W  W27  1  0.831063  0.663449  0.375930  1
  W  W28  1  0.332027  0.836096  0.375209  1
  W  W29  1  0.831676  0.663843  0.124378  1
  W  W30  1  0.667684  0.164119  0.875125  1
  W  W31  1  0.167624  0.335555  0.624978  1
  W  W32  1  0.833057  0.508640  0.749720  1
  W  W33  1  0.333460  0.991634  0.750293  1
  W  W34  1  0.165839  0.491781  0.250502  1
  W  W35  1  0.667197  0.007653  0.250759  1
