# generated using pymatgen
data_Lu8Ni8SnHg3
_symmetry_space_group_name_H-M   'P 1'
_cell_length_a   7.24032000
_cell_length_b   7.24032000
_cell_length_c   7.18024300
_cell_angle_alpha   90.00000000
_cell_angle_beta   90.00000000
_cell_angle_gamma   90.00000000
_symmetry_Int_Tables_number   1
_chemical_formula_structural   Lu8Ni8SnHg3
_chemical_formula_sum   'Lu8 Ni8 Sn1 Hg3'
_cell_volume   376.40437659
_cell_formula_units_Z   1
loop_
 _symmetry_equiv_pos_site_id
 _symmetry_equiv_pos_as_xyz
  1  'x, y, z'
loop_
 _atom_site_type_symbol
 _atom_site_label
 _atom_site_symmetry_multiplicity
 _atom_site_fract_x
 _atom_site_fract_y
 _atom_site_fract_z
 _atom_site_occupancy
  Lu  Lu0  1  0.176881  0.174065  0.999607  1
  Lu  Lu1  1  0.674065  0.323119  0.500393  1
  Lu  Lu2  1  0.325935  0.676881  0.500393  1
  Lu  Lu3  1  0.823119  0.825935  0.999607  1
  Lu  Lu4  1  0.672810  0.324463  0.999260  1
  Lu  Lu5  1  0.824463  0.827190  0.500740  1
  Lu  Lu6  1  0.175537  0.172810  0.500740  1
  Lu  Lu7  1  0.327190  0.675537  0.999260  1
  Ni  Ni8  1  0.383699  0.381153  0.250565  1
  Ni  Ni9  1  0.884369  0.123696  0.752656  1
  Ni  Ni10  1  0.115631  0.876304  0.752656  1
  Ni  Ni11  1  0.616301  0.618847  0.250565  1
  Ni  Ni12  1  0.118847  0.883699  0.249435  1
  Ni  Ni13  1  0.881153  0.116301  0.249435  1
  Ni  Ni14  1  0.376304  0.384369  0.747344  1
  Ni  Ni15  1  0.623696  0.615631  0.747344  1
  Sn  Sn16  1  0.000000  0.500000  0.750000  1
  Hg  Hg17  1  0.500000  0.000000  0.250000  1
  Hg  Hg18  1  0.500000  0.000000  0.750000  1
  Hg  Hg19  1  0.000000  0.500000  0.250000  1
