# generated using pymatgen
data_PaCrS4
_symmetry_space_group_name_H-M   'P 1'
_cell_length_a   7.32315560
_cell_length_b   7.32303959
_cell_length_c   7.07855086
_cell_angle_alpha   61.08253876
_cell_angle_beta   61.07825550
_cell_angle_gamma   68.03705242
_symmetry_Int_Tables_number   1
_chemical_formula_structural   PaCrS4
_chemical_formula_sum   'Pa2 Cr2 S8'
_cell_volume   285.92736743
_cell_formula_units_Z   2
loop_
 _symmetry_equiv_pos_site_id
 _symmetry_equiv_pos_as_xyz
  1  'x, y, z'
loop_
 _atom_site_type_symbol
 _atom_site_label
 _atom_site_symmetry_multiplicity
 _atom_site_fract_x
 _atom_site_fract_y
 _atom_site_fract_z
 _atom_site_occupancy
  Pa  Pa0  1  0.000180  0.500284  0.499639  1
  Pa  Pa1  1  0.499932  0.000007  0.499815  1
  Cr  Cr2  1  0.500043  0.500054  0.499812  1
  Cr  Cr3  1  0.499847  0.500122  0.000148  1
  S  S4  1  0.747102  0.747145  0.746361  1
  S  S5  1  0.252765  0.252815  0.740698  1
  S  S6  1  0.311687  0.713543  0.237418  1
  S  S7  1  0.713668  0.311511  0.237559  1
  S  S8  1  0.688612  0.286168  0.762594  1
  S  S9  1  0.286287  0.688431  0.762793  1
  S  S10  1  0.252944  0.252960  0.253559  1
  S  S11  1  0.746929  0.746962  0.259592  1
