# generated using pymatgen
data_Dy2Ho6Al3Si8Ge
_symmetry_space_group_name_H-M   'P 1'
_cell_length_a   5.57758438
_cell_length_b   5.57758380
_cell_length_c   19.44073510
_cell_angle_alpha   82.20893759
_cell_angle_beta   82.20893928
_cell_angle_gamma   42.51391361
_symmetry_Int_Tables_number   1
_chemical_formula_structural   Dy2Ho6Al3Si8Ge
_chemical_formula_sum   'Dy2 Ho6 Al3 Si8 Ge1'
_cell_volume   404.35207741
_cell_formula_units_Z   1
loop_
 _symmetry_equiv_pos_site_id
 _symmetry_equiv_pos_as_xyz
  1  'x, y, z'
loop_
 _atom_site_type_symbol
 _atom_site_label
 _atom_site_symmetry_multiplicity
 _atom_site_fract_x
 _atom_site_fract_y
 _atom_site_fract_z
 _atom_site_occupancy
  Dy  Dy0  1  0.462609  0.462609  0.676526  1
  Dy  Dy1  1  0.703227  0.703227  0.928723  1
  Ho  Ho2  1  0.973850  0.973850  0.179215  1
  Ho  Ho3  1  0.216858  0.216858  0.428028  1
  Ho  Ho4  1  0.783152  0.783152  0.571926  1
  Ho  Ho5  1  0.026149  0.026149  0.820777  1
  Ho  Ho6  1  0.296708  0.296708  0.071365  1
  Ho  Ho7  1  0.537336  0.537336  0.323482  1
  Al  Al8  1  0.254723  0.254723  0.252345  1
  Al  Al9  1  0.500026  0.500026  0.499984  1
  Al  Al10  1  0.745246  0.745246  0.747666  1
  Si  Si11  1  0.172646  0.172646  0.676265  1
  Si  Si12  1  0.415775  0.415775  0.923081  1
  Si  Si13  1  0.687109  0.687109  0.180065  1
  Si  Si14  1  0.928107  0.928107  0.427892  1
  Si  Si15  1  0.071993  0.071993  0.572037  1
  Si  Si16  1  0.312933  0.312933  0.819928  1
  Si  Si17  1  0.584223  0.584223  0.076973  1
  Si  Si18  1  0.827422  0.827422  0.323697  1
  Ge  Ge19  1  0.999909  0.999909  0.000025  1
