# generated using pymatgen
data_TbNb8CuS16
_symmetry_space_group_name_H-M   'P 1'
_cell_length_a   6.77864100
_cell_length_b   6.77864048
_cell_length_c   13.04882700
_cell_angle_alpha   90.00000000
_cell_angle_beta   90.00000000
_cell_angle_gamma   119.99999765
_symmetry_Int_Tables_number   1
_chemical_formula_structural   TbNb8CuS16
_chemical_formula_sum   'Tb1 Nb8 Cu1 S16'
_cell_volume   519.26296677
_cell_formula_units_Z   1
loop_
 _symmetry_equiv_pos_site_id
 _symmetry_equiv_pos_as_xyz
  1  'x, y, z'
loop_
 _atom_site_type_symbol
 _atom_site_label
 _atom_site_symmetry_multiplicity
 _atom_site_fract_x
 _atom_site_fract_y
 _atom_site_fract_z
 _atom_site_occupancy
  Tb  Tb0  1  0.000000  0.000000  0.500000  1
  Nb  Nb1  1  0.990400  0.495200  0.235722  1
  Nb  Nb2  1  0.009600  0.504800  0.764278  1
  Nb  Nb3  1  0.495200  0.504800  0.764278  1
  Nb  Nb4  1  0.504800  0.009600  0.235722  1
  Nb  Nb5  1  0.000000  0.000000  0.765416  1
  Nb  Nb6  1  0.000000  0.000000  0.234584  1
  Nb  Nb7  1  0.504800  0.495200  0.235722  1
  Nb  Nb8  1  0.495200  0.990400  0.764278  1
  Cu  Cu9  1  0.000000  0.000000  0.000000  1
  S  S10  1  0.333333  0.666667  0.641773  1
  S  S11  1  0.666667  0.333333  0.116318  1
  S  S12  1  0.666667  0.333333  0.358227  1
  S  S13  1  0.333333  0.666667  0.883682  1
  S  S14  1  0.167708  0.335416  0.354933  1
  S  S15  1  0.830989  0.169011  0.881805  1
  S  S16  1  0.338021  0.169011  0.881805  1
  S  S17  1  0.664584  0.832292  0.354933  1
  S  S18  1  0.167708  0.832292  0.354933  1
  S  S19  1  0.830989  0.661979  0.881805  1
  S  S20  1  0.169011  0.338021  0.118195  1
  S  S21  1  0.832292  0.167708  0.645067  1
  S  S22  1  0.335416  0.167708  0.645067  1
  S  S23  1  0.661979  0.830989  0.118195  1
  S  S24  1  0.169011  0.830989  0.118195  1
  S  S25  1  0.832292  0.664584  0.645067  1
