# generated using pymatgen
data_Pr9Er11Si15Pt
_symmetry_space_group_name_H-M   'P 1'
_cell_length_a   7.53665861
_cell_length_b   7.89291373
_cell_length_c   14.90055400
_cell_angle_alpha   90.04870885
_cell_angle_beta   89.96251316
_cell_angle_gamma   90.13492860
_symmetry_Int_Tables_number   1
_chemical_formula_structural   Pr9Er11Si15Pt
_chemical_formula_sum   'Pr9 Er11 Si15 Pt1'
_cell_volume   886.37431251
_cell_formula_units_Z   1
loop_
 _symmetry_equiv_pos_site_id
 _symmetry_equiv_pos_as_xyz
  1  'x, y, z'
loop_
 _atom_site_type_symbol
 _atom_site_label
 _atom_site_symmetry_multiplicity
 _atom_site_fract_x
 _atom_site_fract_y
 _atom_site_fract_z
 _atom_site_occupancy
  Pr  Pr0  1  0.186886  0.324970  0.623078  1
  Pr  Pr1  1  0.522422  0.680394  0.597277  1
  Pr  Pr2  1  0.021136  0.821826  0.905527  1
  Pr  Pr3  1  0.476863  0.318733  0.098974  1
  Pr  Pr4  1  0.976985  0.179268  0.400021  1
  Pr  Pr5  1  0.477756  0.318699  0.400276  1
  Pr  Pr6  1  0.978089  0.178740  0.097688  1
  Pr  Pr7  1  0.520386  0.679211  0.905738  1
  Pr  Pr8  1  0.021727  0.819499  0.596278  1
  Er  Er9  1  0.679229  0.179106  0.625043  1
  Er  Er10  1  0.186415  0.326918  0.876285  1
  Er  Er11  1  0.318160  0.822273  0.124139  1
  Er  Er12  1  0.817664  0.675541  0.372527  1
  Er  Er13  1  0.317214  0.823221  0.375112  1
  Er  Er14  1  0.817323  0.674204  0.124729  1
  Er  Er15  1  0.676301  0.179591  0.876164  1
  Er  Er16  1  0.841828  0.508110  0.751178  1
  Er  Er17  1  0.351737  0.986781  0.751166  1
  Er  Er18  1  0.151412  0.490436  0.248873  1
  Er  Er19  1  0.652065  0.008833  0.249722  1
  Si  Si20  1  0.648056  0.966384  0.459828  1
  Si  Si21  1  0.145041  0.531410  0.039924  1
  Si  Si22  1  0.353062  0.029509  0.961767  1
  Si  Si23  1  0.846850  0.470744  0.535509  1
  Si  Si24  1  0.360475  0.024303  0.538582  1
  Si  Si25  1  0.855164  0.469132  0.960848  1
  Si  Si26  1  0.644795  0.967895  0.039983  1
  Si  Si27  1  0.138893  0.534923  0.456119  1
  Si  Si28  1  0.975390  0.106397  0.752742  1
  Si  Si29  1  0.520459  0.616835  0.249574  1
  Si  Si30  1  0.022640  0.885950  0.248578  1
  Si  Si31  1  0.734789  0.880260  0.751045  1
  Si  Si32  1  0.228699  0.629048  0.753355  1
  Si  Si33  1  0.274094  0.123389  0.249296  1
  Si  Si34  1  0.774773  0.375244  0.249189  1
  Pt  Pt35  1  0.485222  0.392225  0.753863  1
