# generated using pymatgen
data_Tb10Tl5In3(PdRh)2
_symmetry_space_group_name_H-M   'P 1'
_cell_length_a   8.19577674
_cell_length_b   18.45339657
_cell_length_c   3.65107600
_cell_angle_alpha   90.00000000
_cell_angle_beta   90.00000000
_cell_angle_gamma   89.93239594
_symmetry_Int_Tables_number   1
_chemical_formula_structural   Tb10Tl5In3(PdRh)2
_chemical_formula_sum   'Tb10 Tl5 In3 Pd2 Rh2'
_cell_volume   552.18805205
_cell_formula_units_Z   1
loop_
 _symmetry_equiv_pos_site_id
 _symmetry_equiv_pos_as_xyz
  1  'x, y, z'
loop_
 _atom_site_type_symbol
 _atom_site_label
 _atom_site_symmetry_multiplicity
 _atom_site_fract_x
 _atom_site_fract_y
 _atom_site_fract_z
 _atom_site_occupancy
  Tb  Tb0  1  0.499100  0.499051  0.000000  1
  Tb  Tb1  1  0.999844  0.000166  0.000000  1
  Tb  Tb2  1  0.733931  0.278874  0.000000  1
  Tb  Tb3  1  0.266504  0.721093  0.000000  1
  Tb  Tb4  1  0.744594  0.780907  0.000000  1
  Tb  Tb5  1  0.254819  0.219419  0.000000  1
  Tb  Tb6  1  0.615113  0.088881  0.000000  1
  Tb  Tb7  1  0.384600  0.911957  0.000000  1
  Tb  Tb8  1  0.883682  0.586982  0.000000  1
  Tb  Tb9  1  0.116929  0.413076  0.000000  1
  Tl  Tl10  1  0.708709  0.932927  0.500000  1
  Tl  Tl11  1  0.291361  0.067173  0.500000  1
  Tl  Tl12  1  0.791738  0.433023  0.500000  1
  Tl  Tl13  1  0.205833  0.565971  0.500000  1
  Tl  Tl14  1  0.578414  0.648990  0.500000  1
  In  In15  1  0.421708  0.349296  0.500000  1
  In  In16  1  0.921014  0.151094  0.500000  1
  In  In17  1  0.079509  0.849065  0.500000  1
  Pd  Pd18  1  0.976777  0.698527  0.500000  1
  Pd  Pd19  1  0.026157  0.301749  0.500000  1
  Rh  Rh20  1  0.526846  0.196825  0.500000  1
  Rh  Rh21  1  0.472817  0.804954  0.500000  1
