# generated using pymatgen
data_NdYGa(Co2P)6
_symmetry_space_group_name_H-M   'P 1'
_cell_length_a   9.11792100
_cell_length_b   9.11791970
_cell_length_c   3.59591500
_cell_angle_alpha   90.00000000
_cell_angle_beta   90.00000000
_cell_angle_gamma   120.00000110
_symmetry_Int_Tables_number   1
_chemical_formula_structural   NdYGa(Co2P)6
_chemical_formula_sum   'Nd1 Y1 Ga1 Co12 P6'
_cell_volume   258.89975072
_cell_formula_units_Z   1
loop_
 _symmetry_equiv_pos_site_id
 _symmetry_equiv_pos_as_xyz
  1  'x, y, z'
loop_
 _atom_site_type_symbol
 _atom_site_label
 _atom_site_symmetry_multiplicity
 _atom_site_fract_x
 _atom_site_fract_y
 _atom_site_fract_z
 _atom_site_occupancy
  Nd  Nd0  1  0.333333  0.666667  0.500000  1
  Y  Y1  1  0.000000  0.000000  0.000000  1
  Ga  Ga2  1  0.666667  0.333333  0.000000  1
  Co  Co3  1  0.102682  0.390509  0.000000  1
  Co  Co4  1  0.609491  0.712172  0.000000  1
  Co  Co5  1  0.287828  0.897318  0.000000  1
  Co  Co6  1  0.050651  0.771878  0.500000  1
  Co  Co7  1  0.228122  0.278772  0.500000  1
  Co  Co8  1  0.721228  0.949349  0.500000  1
  Co  Co9  1  0.827007  0.623840  0.000000  1
  Co  Co10  1  0.376160  0.203168  0.000000  1
  Co  Co11  1  0.796832  0.172993  0.000000  1
  Co  Co12  1  0.919371  0.446522  0.500000  1
  Co  Co13  1  0.553478  0.472849  0.500000  1
  Co  Co14  1  0.527151  0.080629  0.500000  1
  P  P15  1  0.775646  0.734879  0.500000  1
  P  P16  1  0.265121  0.040767  0.500000  1
  P  P17  1  0.959233  0.224354  0.500000  1
  P  P18  1  0.065628  0.624061  0.000000  1
  P  P19  1  0.375939  0.441566  0.000000  1
  P  P20  1  0.558434  0.934372  0.000000  1
