# generated using pymatgen
data_Hf14CoCu19
_symmetry_space_group_name_H-M   'P 1'
_cell_length_a   7.82912310
_cell_length_b   7.77752451
_cell_length_c   9.26018170
_cell_angle_alpha   90.06391141
_cell_angle_beta   89.86517145
_cell_angle_gamma   107.49391544
_symmetry_Int_Tables_number   1
_chemical_formula_structural   Hf14CoCu19
_chemical_formula_sum   'Hf14 Co1 Cu19'
_cell_volume   537.78268631
_cell_formula_units_Z   1
loop_
 _symmetry_equiv_pos_site_id
 _symmetry_equiv_pos_as_xyz
  1  'x, y, z'
loop_
 _atom_site_type_symbol
 _atom_site_label
 _atom_site_symmetry_multiplicity
 _atom_site_fract_x
 _atom_site_fract_y
 _atom_site_fract_z
 _atom_site_occupancy
  Hf  Hf0  1  0.693347  0.305572  0.004412  1
  Hf  Hf1  1  0.310810  0.688663  0.000351  1
  Hf  Hf2  1  0.813957  0.188811  0.490186  1
  Hf  Hf3  1  0.189223  0.811257  0.499345  1
  Hf  Hf4  1  0.997173  0.005786  0.005854  1
  Hf  Hf5  1  0.500825  0.500694  0.501802  1
  Hf  Hf6  1  0.008500  0.500608  0.249096  1
  Hf  Hf7  1  0.986364  0.488279  0.748930  1
  Hf  Hf8  1  0.486071  0.988037  0.749523  1
  Hf  Hf9  1  0.516413  0.014864  0.249132  1
  Hf  Hf10  1  0.311064  0.310426  0.192443  1
  Hf  Hf11  1  0.689859  0.689694  0.807964  1
  Hf  Hf12  1  0.189886  0.190904  0.693063  1
  Hf  Hf13  1  0.813863  0.821466  0.301957  1
  Co  Co14  1  0.858815  0.153738  0.210582  1
  Cu  Cu15  1  0.126679  0.840242  0.797128  1
  Cu  Cu16  1  0.631391  0.339199  0.705193  1
  Cu  Cu17  1  0.658472  0.374383  0.294330  1
  Cu  Cu18  1  0.370460  0.659870  0.294224  1
  Cu  Cu19  1  0.337668  0.629061  0.706304  1
  Cu  Cu20  1  0.838415  0.127779  0.792345  1
  Cu  Cu21  1  0.162793  0.867889  0.205869  1
  Cu  Cu22  1  0.941740  0.650461  0.007631  1
  Cu  Cu23  1  0.059805  0.352733  0.991410  1
  Cu  Cu24  1  0.557087  0.849441  0.508654  1
  Cu  Cu25  1  0.151756  0.443824  0.494882  1
  Cu  Cu26  1  0.442926  0.148574  0.494003  1
  Cu  Cu27  1  0.850875  0.560189  0.505535  1
  Cu  Cu28  1  0.347974  0.057975  0.992549  1
  Cu  Cu29  1  0.647075  0.939421  0.004765  1
  Cu  Cu30  1  0.109839  0.106397  0.398665  1
  Cu  Cu31  1  0.895025  0.894628  0.601710  1
  Cu  Cu32  1  0.398050  0.394131  0.898759  1
  Cu  Cu33  1  0.605797  0.605004  0.101405  1
