# generated using pymatgen
data_Nd3ThAl4IrRh3
_symmetry_space_group_name_H-M   'P 1'
_cell_length_a   4.32150800
_cell_length_b   7.05439546
_cell_length_c   8.15040029
_cell_angle_alpha   90.53815584
_cell_angle_beta   90.00000000
_cell_angle_gamma   90.00000000
_symmetry_Int_Tables_number   1
_chemical_formula_structural   Nd3ThAl4IrRh3
_chemical_formula_sum   'Nd3 Th1 Al4 Ir1 Rh3'
_cell_volume   248.45909836
_cell_formula_units_Z   1
loop_
 _symmetry_equiv_pos_site_id
 _symmetry_equiv_pos_as_xyz
  1  'x, y, z'
loop_
 _atom_site_type_symbol
 _atom_site_label
 _atom_site_symmetry_multiplicity
 _atom_site_fract_x
 _atom_site_fract_y
 _atom_site_fract_z
 _atom_site_occupancy
  Nd  Nd0  1  0.750000  0.461275  0.814871  1
  Nd  Nd1  1  0.750000  0.959756  0.680446  1
  Nd  Nd2  1  0.250000  0.039040  0.320297  1
  Th  Th3  1  0.250000  0.537440  0.177606  1
  Al  Al4  1  0.250000  0.631052  0.561325  1
  Al  Al5  1  0.750000  0.363091  0.439426  1
  Al  Al6  1  0.750000  0.874884  0.060736  1
  Al  Al7  1  0.250000  0.134194  0.938534  1
  Ir  Ir8  1  0.750000  0.242557  0.122212  1
  Rh  Rh9  1  0.250000  0.766020  0.892095  1
  Rh  Rh10  1  0.750000  0.724285  0.375079  1
  Rh  Rh11  1  0.250000  0.266406  0.617373  1
