# generated using pymatgen
data_Cs4Zr6SiBr18
_symmetry_space_group_name_H-M   'P 1'
_cell_length_a   10.92836801
_cell_length_b   11.25718404
_cell_length_c   11.36464381
_cell_angle_alpha   118.37293318
_cell_angle_beta   100.37695448
_cell_angle_gamma   104.24727845
_symmetry_Int_Tables_number   1
_chemical_formula_structural   Cs4Zr6SiBr18
_chemical_formula_sum   'Cs4 Zr6 Si1 Br18'
_cell_volume   1117.64053140
_cell_formula_units_Z   1
loop_
 _symmetry_equiv_pos_site_id
 _symmetry_equiv_pos_as_xyz
  1  'x, y, z'
loop_
 _atom_site_type_symbol
 _atom_site_label
 _atom_site_symmetry_multiplicity
 _atom_site_fract_x
 _atom_site_fract_y
 _atom_site_fract_z
 _atom_site_occupancy
  Cs  Cs0  1  0.660711  0.538185  0.230310  1
  Cs  Cs1  1  0.339289  0.461815  0.769690  1
  Cs  Cs2  1  0.695041  0.227403  0.564623  1
  Cs  Cs3  1  0.304959  0.772597  0.435377  1
  Zr  Zr4  1  0.152034  0.056827  0.229718  1
  Zr  Zr5  1  0.847966  0.943173  0.770282  1
  Zr  Zr6  1  0.859821  0.123254  0.129757  1
  Zr  Zr7  1  0.140179  0.876746  0.870243  1
  Zr  Zr8  1  0.146923  0.238548  0.045649  1
  Zr  Zr9  1  0.853077  0.761452  0.954351  1
  Si  Si10  1  0.000000  0.000000  0.000000  1
  Br  Br11  1  0.006926  0.392753  0.188293  1
  Br  Br12  1  0.993074  0.607247  0.811707  1
  Br  Br13  1  0.321980  0.323509  0.301502  1
  Br  Br14  1  0.678020  0.676491  0.698498  1
  Br  Br15  1  0.312388  0.504849  0.098077  1
  Br  Br16  1  0.687612  0.495151  0.901923  1
  Br  Br17  1  0.003711  0.803706  0.201382  1
  Br  Br18  1  0.996289  0.196294  0.798618  1
  Br  Br19  1  0.708316  0.259491  0.272663  1
  Br  Br20  1  0.291684  0.740509  0.727337  1
  Br  Br21  1  0.310046  0.125881  0.908879  1
  Br  Br22  1  0.689954  0.874119  0.091121  1
  Br  Br23  1  0.014050  0.195955  0.391495  1
  Br  Br24  1  0.985950  0.804045  0.608505  1
  Br  Br25  1  0.313917  0.927732  0.108628  1
  Br  Br26  1  0.686083  0.072268  0.891372  1
  Br  Br27  1  0.324727  0.119156  0.484880  1
  Br  Br28  1  0.675273  0.880844  0.515120  1
