# generated using pymatgen
data_Gd2GaIr2
_symmetry_space_group_name_H-M   'P 1'
_cell_length_a   5.70714342
_cell_length_b   5.70714289
_cell_length_c   7.56265200
_cell_angle_alpha   101.28120772
_cell_angle_beta   101.28120665
_cell_angle_gamma   58.59088587
_symmetry_Int_Tables_number   1
_chemical_formula_structural   Gd2GaIr2
_chemical_formula_sum   'Gd4 Ga2 Ir4'
_cell_volume   204.87473977
_cell_formula_units_Z   2
loop_
 _symmetry_equiv_pos_site_id
 _symmetry_equiv_pos_as_xyz
  1  'x, y, z'
loop_
 _atom_site_type_symbol
 _atom_site_label
 _atom_site_symmetry_multiplicity
 _atom_site_fract_x
 _atom_site_fract_y
 _atom_site_fract_z
 _atom_site_occupancy
  Gd  Gd0  1  0.795669  0.495718  0.147636  1
  Gd  Gd1  1  0.504282  0.204331  0.352363  1
  Gd  Gd2  1  0.495718  0.795669  0.647636  1
  Gd  Gd3  1  0.204331  0.504282  0.852364  1
  Ga  Ga4  1  0.142761  0.857239  0.249999  1
  Ga  Ga5  1  0.857239  0.142761  0.750000  1
  Ir  Ir6  1  0.273074  0.997835  0.003343  1
  Ir  Ir7  1  0.002164  0.726926  0.496657  1
  Ir  Ir8  1  0.997835  0.273073  0.503344  1
  Ir  Ir9  1  0.726926  0.002164  0.996657  1
