# generated using pymatgen
data_SmDy6Sn23Ru6
_symmetry_space_group_name_H-M   'P 1'
_cell_length_a   9.86602100
_cell_length_b   9.86602177
_cell_length_c   10.09632900
_cell_angle_alpha   90.00000000
_cell_angle_beta   90.00000000
_cell_angle_gamma   119.99999406
_symmetry_Int_Tables_number   1
_chemical_formula_structural   SmDy6Sn23Ru6
_chemical_formula_sum   'Sm1 Dy6 Sn23 Ru6'
_cell_volume   851.09542659
_cell_formula_units_Z   1
loop_
 _symmetry_equiv_pos_site_id
 _symmetry_equiv_pos_as_xyz
  1  'x, y, z'
loop_
 _atom_site_type_symbol
 _atom_site_label
 _atom_site_symmetry_multiplicity
 _atom_site_fract_x
 _atom_site_fract_y
 _atom_site_fract_z
 _atom_site_occupancy
  Sm  Sm0  1  0.000000  0.000000  0.000000  1
  Dy  Dy1  1  0.484151  0.515849  0.303025  1
  Dy  Dy2  1  0.515849  0.484151  0.696975  1
  Dy  Dy3  1  0.484151  0.968303  0.303025  1
  Dy  Dy4  1  0.515849  0.031697  0.696975  1
  Dy  Dy5  1  0.031697  0.515849  0.303025  1
  Dy  Dy6  1  0.968303  0.484151  0.696975  1
  Sn  Sn7  1  0.349321  0.000000  0.000000  1
  Sn  Sn8  1  0.650679  0.000000  0.000000  1
  Sn  Sn9  1  0.000000  0.349321  0.000000  1
  Sn  Sn10  1  0.000000  0.650679  0.000000  1
  Sn  Sn11  1  0.650679  0.650679  0.000000  1
  Sn  Sn12  1  0.349321  0.349321  0.000000  1
  Sn  Sn13  1  0.333333  0.666667  0.821271  1
  Sn  Sn14  1  0.666667  0.333333  0.178729  1
  Sn  Sn15  1  0.000000  0.000000  0.500000  1
  Sn  Sn16  1  0.780342  0.219658  0.462285  1
  Sn  Sn17  1  0.219658  0.780342  0.537715  1
  Sn  Sn18  1  0.780342  0.560686  0.462285  1
  Sn  Sn19  1  0.219658  0.439314  0.537715  1
  Sn  Sn20  1  0.439314  0.219658  0.462285  1
  Sn  Sn21  1  0.560686  0.780342  0.537715  1
  Sn  Sn22  1  0.333333  0.666667  0.126684  1
  Sn  Sn23  1  0.666667  0.333333  0.873316  1
  Sn  Sn24  1  0.118317  0.881683  0.273655  1
  Sn  Sn25  1  0.881683  0.118317  0.726345  1
  Sn  Sn26  1  0.118317  0.236633  0.273655  1
  Sn  Sn27  1  0.881683  0.763367  0.726345  1
  Sn  Sn28  1  0.763367  0.881683  0.273655  1
  Sn  Sn29  1  0.236633  0.118317  0.726345  1
  Ru  Ru30  1  0.829865  0.170135  0.202417  1
  Ru  Ru31  1  0.170135  0.829865  0.797583  1
  Ru  Ru32  1  0.829865  0.659730  0.202417  1
  Ru  Ru33  1  0.170135  0.340270  0.797583  1
  Ru  Ru34  1  0.340270  0.170135  0.202417  1
  Ru  Ru35  1  0.659730  0.829865  0.797583  1
