# generated using pymatgen
data_Yb2Tc(Ni3P2)3
_symmetry_space_group_name_H-M   'P 1'
_cell_length_a   3.70685400
_cell_length_b   10.44897700
_cell_length_c   11.87414000
_cell_angle_alpha   90.00000000
_cell_angle_beta   90.00000000
_cell_angle_gamma   90.00000000
_symmetry_Int_Tables_number   1
_chemical_formula_structural   Yb2Tc(Ni3P2)3
_chemical_formula_sum   'Yb4 Tc2 Ni18 P12'
_cell_volume   459.91907200
_cell_formula_units_Z   2
loop_
 _symmetry_equiv_pos_site_id
 _symmetry_equiv_pos_as_xyz
  1  'x, y, z'
loop_
 _atom_site_type_symbol
 _atom_site_label
 _atom_site_symmetry_multiplicity
 _atom_site_fract_x
 _atom_site_fract_y
 _atom_site_fract_z
 _atom_site_occupancy
  Yb  Yb0  1  0.250000  0.582664  0.704688  1
  Yb  Yb1  1  0.250000  0.917336  0.204688  1
  Yb  Yb2  1  0.750000  0.414189  0.295647  1
  Yb  Yb3  1  0.750000  0.085811  0.795647  1
  Tc  Tc4  1  0.250000  0.707715  0.988690  1
  Tc  Tc5  1  0.250000  0.792285  0.488690  1
  Ni  Ni6  1  0.750000  0.286133  0.010102  1
  Ni  Ni7  1  0.750000  0.213867  0.510102  1
  Ni  Ni8  1  0.250000  0.406521  0.486679  1
  Ni  Ni9  1  0.250000  0.093479  0.986679  1
  Ni  Ni10  1  0.750000  0.590273  0.512207  1
  Ni  Ni11  1  0.750000  0.909727  0.012207  1
  Ni  Ni12  1  0.250000  0.218997  0.177072  1
  Ni  Ni13  1  0.250000  0.281003  0.677072  1
  Ni  Ni14  1  0.750000  0.779620  0.821278  1
  Ni  Ni15  1  0.750000  0.720380  0.321278  1
  Ni  Ni16  1  0.250000  0.888555  0.703379  1
  Ni  Ni17  1  0.250000  0.611445  0.203379  1
  Ni  Ni18  1  0.750000  0.117283  0.299909  1
  Ni  Ni19  1  0.750000  0.382717  0.799909  1
  Ni  Ni20  1  0.250000  0.463083  0.931475  1
  Ni  Ni21  1  0.250000  0.036917  0.431475  1
  Ni  Ni22  1  0.750000  0.529874  0.069719  1
  Ni  Ni23  1  0.750000  0.970126  0.569719  1
  P  P24  1  0.250000  0.416619  0.113765  1
  P  P25  1  0.250000  0.083381  0.613765  1
  P  P26  1  0.750000  0.583042  0.886932  1
  P  P27  1  0.750000  0.916958  0.386932  1
  P  P28  1  0.250000  0.268608  0.868772  1
  P  P29  1  0.250000  0.231392  0.368772  1
  P  P30  1  0.750000  0.731527  0.130443  1
  P  P31  1  0.750000  0.768473  0.630443  1
  P  P32  1  0.250000  0.597027  0.391250  1
  P  P33  1  0.250000  0.902973  0.891250  1
  P  P34  1  0.750000  0.398307  0.607990  1
  P  P35  1  0.750000  0.101693  0.107990  1
