# generated using pymatgen
data_Cs2V5(CrTe2)7
_symmetry_space_group_name_H-M   'P 1'
_cell_length_a   9.98828685
_cell_length_b   9.96616158
_cell_length_c   9.99658100
_cell_angle_alpha   62.16105408
_cell_angle_beta   62.09522407
_cell_angle_gamma   62.27274959
_symmetry_Int_Tables_number   1
_chemical_formula_structural   Cs2V5(CrTe2)7
_chemical_formula_sum   'Cs2 V5 Cr7 Te14'
_cell_volume   737.85374421
_cell_formula_units_Z   1
loop_
 _symmetry_equiv_pos_site_id
 _symmetry_equiv_pos_as_xyz
  1  'x, y, z'
loop_
 _atom_site_type_symbol
 _atom_site_label
 _atom_site_symmetry_multiplicity
 _atom_site_fract_x
 _atom_site_fract_y
 _atom_site_fract_z
 _atom_site_occupancy
  Cs  Cs0  1  0.611250  0.615045  0.613064  1
  Cs  Cs1  1  0.387419  0.384282  0.387986  1
  V  V2  1  0.707652  0.880875  0.002219  1
  V  V3  1  0.996950  0.706892  0.885478  1
  V  V4  1  0.881989  0.001971  0.704249  1
  V  V5  1  0.293879  0.110830  0.005985  1
  V  V6  1  0.994485  0.291815  0.123515  1
  Cr  Cr7  1  0.121567  0.006089  0.279475  1
  Cr  Cr8  1  0.948446  0.826699  0.094410  1
  Cr  Cr9  1  0.094335  0.949799  0.824670  1
  Cr  Cr10  1  0.827155  0.094456  0.946811  1
  Cr  Cr11  1  0.052574  0.175542  0.903170  1
  Cr  Cr12  1  0.905199  0.052758  0.173842  1
  Cr  Cr13  1  0.174848  0.905330  0.051870  1
  Te  Te14  1  0.419615  0.805164  0.162642  1
  Te  Te15  1  0.160082  0.418793  0.813974  1
  Te  Te16  1  0.812834  0.152274  0.421152  1
  Te  Te17  1  0.580355  0.189879  0.841690  1
  Te  Te18  1  0.840290  0.578541  0.194659  1
  Te  Te19  1  0.188799  0.843873  0.575693  1
  Te  Te20  1  0.645001  0.980380  0.243208  1
  Te  Te21  1  0.243845  0.646591  0.976948  1
  Te  Te22  1  0.979527  0.246072  0.643297  1
  Te  Te23  1  0.354615  0.022010  0.755759  1
  Te  Te24  1  0.757091  0.355877  0.018436  1
  Te  Te25  1  0.022955  0.759521  0.353947  1
  Te  Te26  1  0.769858  0.768911  0.774460  1
  Te  Te27  1  0.227386  0.229733  0.227394  1
