# generated using pymatgen
data_Yb2(Al3Ni)3
_symmetry_space_group_name_H-M   'P 1'
_cell_length_a   7.39237805
_cell_length_b   7.39237788
_cell_length_c   9.21707400
_cell_angle_alpha   90.00000000
_cell_angle_beta   90.00000000
_cell_angle_gamma   119.29024677
_symmetry_Int_Tables_number   1
_chemical_formula_structural   Yb2(Al3Ni)3
_chemical_formula_sum   'Yb4 Al18 Ni6'
_cell_volume   439.29257663
_cell_formula_units_Z   2
loop_
 _symmetry_equiv_pos_site_id
 _symmetry_equiv_pos_as_xyz
  1  'x, y, z'
loop_
 _atom_site_type_symbol
 _atom_site_label
 _atom_site_symmetry_multiplicity
 _atom_site_fract_x
 _atom_site_fract_y
 _atom_site_fract_z
 _atom_site_occupancy
  Yb  Yb0  1  0.994069  0.672014  0.250000  1
  Yb  Yb1  1  0.005931  0.327986  0.750000  1
  Yb  Yb2  1  0.672014  0.994069  0.250000  1
  Yb  Yb3  1  0.327986  0.005931  0.750000  1
  Al  Al4  1  0.126309  0.126309  0.250000  1
  Al  Al5  1  0.873691  0.873691  0.750000  1
  Al  Al6  1  0.331461  0.331461  0.544195  1
  Al  Al7  1  0.668539  0.668539  0.044195  1
  Al  Al8  1  0.331461  0.331461  0.955805  1
  Al  Al9  1  0.668539  0.668539  0.455805  1
  Al  Al10  1  0.340237  0.552191  0.250000  1
  Al  Al11  1  0.659763  0.447809  0.750000  1
  Al  Al12  1  0.552191  0.340237  0.250000  1
  Al  Al13  1  0.447809  0.659763  0.750000  1
  Al  Al14  1  0.996971  0.334760  0.073040  1
  Al  Al15  1  0.003029  0.665240  0.573040  1
  Al  Al16  1  0.334760  0.996971  0.426960  1
  Al  Al17  1  0.665240  0.003029  0.926960  1
  Al  Al18  1  0.003029  0.665240  0.926960  1
  Al  Al19  1  0.996971  0.334760  0.426960  1
  Al  Al20  1  0.665240  0.003029  0.573040  1
  Al  Al21  1  0.334760  0.996971  0.073040  1
  Ni  Ni22  1  0.000000  0.000000  0.000000  1
  Ni  Ni23  1  0.000000  0.000000  0.500000  1
  Ni  Ni24  1  0.670872  0.329128  0.000000  1
  Ni  Ni25  1  0.329128  0.670872  0.500000  1
  Ni  Ni26  1  0.329128  0.670872  0.000000  1
  Ni  Ni27  1  0.670872  0.329128  0.500000  1
