# generated using pymatgen
data_Ho3Er9Os3Rh
_symmetry_space_group_name_H-M   'P 1'
_cell_length_a   6.32458312
_cell_length_b   7.32090408
_cell_length_c   9.00609400
_cell_angle_alpha   90.00000000
_cell_angle_beta   90.00000000
_cell_angle_gamma   90.24919145
_symmetry_Int_Tables_number   1
_chemical_formula_structural   Ho3Er9Os3Rh
_chemical_formula_sum   'Ho3 Er9 Os3 Rh1'
_cell_volume   416.99321631
_cell_formula_units_Z   1
loop_
 _symmetry_equiv_pos_site_id
 _symmetry_equiv_pos_as_xyz
  1  'x, y, z'
loop_
 _atom_site_type_symbol
 _atom_site_label
 _atom_site_symmetry_multiplicity
 _atom_site_fract_x
 _atom_site_fract_y
 _atom_site_fract_z
 _atom_site_occupancy
  Ho  Ho0  1  0.869990  0.538273  0.250000  1
  Ho  Ho1  1  0.630020  0.039938  0.250000  1
  Ho  Ho2  1  0.369375  0.961708  0.750000  1
  Er  Er3  1  0.333973  0.673215  0.061335  1
  Er  Er4  1  0.169212  0.177737  0.438390  1
  Er  Er5  1  0.669635  0.324348  0.563578  1
  Er  Er6  1  0.827497  0.823786  0.933856  1
  Er  Er7  1  0.669635  0.324348  0.936422  1
  Er  Er8  1  0.827497  0.823786  0.566144  1
  Er  Er9  1  0.333973  0.673215  0.438665  1
  Er  Er10  1  0.169212  0.177737  0.061610  1
  Er  Er11  1  0.129601  0.461511  0.750000  1
  Os  Os12  1  0.459739  0.383756  0.250000  1
  Os  Os13  1  0.961623  0.115777  0.750000  1
  Os  Os14  1  0.537901  0.616225  0.750000  1
  Rh  Rh15  1  0.041118  0.884644  0.250000  1
