# generated using pymatgen
data_Ta8SnPbO22
_symmetry_space_group_name_H-M   'P 1'
_cell_length_a   6.32166400
_cell_length_b   6.32166346
_cell_length_c   12.50040900
_cell_angle_alpha   90.00000000
_cell_angle_beta   90.00000000
_cell_angle_gamma   120.00000280
_symmetry_Int_Tables_number   1
_chemical_formula_structural   Ta8SnPbO22
_chemical_formula_sum   'Ta8 Sn1 Pb1 O22'
_cell_volume   432.63098842
_cell_formula_units_Z   1
loop_
 _symmetry_equiv_pos_site_id
 _symmetry_equiv_pos_as_xyz
  1  'x, y, z'
loop_
 _atom_site_type_symbol
 _atom_site_label
 _atom_site_symmetry_multiplicity
 _atom_site_fract_x
 _atom_site_fract_y
 _atom_site_fract_z
 _atom_site_occupancy
  Ta  Ta0  1  0.666667  0.333333  0.750000  1
  Ta  Ta1  1  0.333333  0.666667  0.250000  1
  Ta  Ta2  1  0.644219  0.000414  0.499148  1
  Ta  Ta3  1  0.644219  0.643807  0.000852  1
  Ta  Ta4  1  0.999586  0.355781  0.000852  1
  Ta  Ta5  1  0.999586  0.643807  0.499148  1
  Ta  Ta6  1  0.356193  0.355781  0.499148  1
  Ta  Ta7  1  0.356193  0.000414  0.000852  1
  Sn  Sn8  1  0.666667  0.333333  0.250000  1
  Pb  Pb9  1  0.333333  0.666667  0.750000  1
  O  O10  1  0.333333  0.666667  0.531056  1
  O  O11  1  0.666667  0.333333  0.033821  1
  O  O12  1  0.666667  0.333333  0.466179  1
  O  O13  1  0.333333  0.666667  0.968944  1
  O  O14  1  0.243620  0.999793  0.498733  1
  O  O15  1  0.243620  0.243827  0.001267  1
  O  O16  1  0.000207  0.756380  0.001267  1
  O  O17  1  0.000207  0.243827  0.498733  1
  O  O18  1  0.756173  0.756380  0.498733  1
  O  O19  1  0.756173  0.999793  0.001267  1
  O  O20  1  0.375466  0.940185  0.154972  1
  O  O21  1  0.435295  0.371376  0.653221  1
  O  O22  1  0.936080  0.564705  0.653221  1
  O  O23  1  0.059815  0.435281  0.154972  1
  O  O24  1  0.564719  0.624534  0.154972  1
  O  O25  1  0.435295  0.063920  0.846779  1
  O  O26  1  0.628624  0.564705  0.846779  1
  O  O27  1  0.628624  0.063920  0.653221  1
  O  O28  1  0.936080  0.371376  0.846779  1
  O  O29  1  0.059815  0.624534  0.345028  1
  O  O30  1  0.564719  0.940185  0.345028  1
  O  O31  1  0.375466  0.435281  0.345028  1
