# generated using pymatgen
data_GeCl30
_symmetry_space_group_name_H-M   'P 1'
_cell_length_a   13.47444302
_cell_length_b   13.47444337
_cell_length_c   15.97850190
_cell_angle_alpha   83.66308444
_cell_angle_beta   83.66308530
_cell_angle_gamma   124.27215367
_symmetry_Int_Tables_number   1
_chemical_formula_structural   GeCl30
_chemical_formula_sum   'Ge1 Cl30'
_cell_volume   2329.54943561
_cell_formula_units_Z   1
loop_
 _symmetry_equiv_pos_site_id
 _symmetry_equiv_pos_as_xyz
  1  'x, y, z'
loop_
 _atom_site_type_symbol
 _atom_site_label
 _atom_site_symmetry_multiplicity
 _atom_site_fract_x
 _atom_site_fract_y
 _atom_site_fract_z
 _atom_site_occupancy
  Ge  Ge0  1  0.000000  0.000000  0.000000  1
  Cl  Cl1  1  0.943944  0.943944  0.154906  1
  Cl  Cl2  1  0.056056  0.056056  0.845094  1
  Cl  Cl3  1  0.059908  0.192982  0.005578  1
  Cl  Cl4  1  0.940092  0.807018  0.994422  1
  Cl  Cl5  1  0.192982  0.059908  0.005578  1
  Cl  Cl6  1  0.807018  0.940092  0.994422  1
  Cl  Cl7  1  0.203233  0.742466  0.064055  1
  Cl  Cl8  1  0.796767  0.257534  0.935945  1
  Cl  Cl9  1  0.701015  0.077197  0.262523  1
  Cl  Cl10  1  0.257534  0.796767  0.935945  1
  Cl  Cl11  1  0.298985  0.922803  0.737477  1
  Cl  Cl12  1  0.742466  0.203233  0.064055  1
  Cl  Cl13  1  0.979806  0.195808  0.780989  1
  Cl  Cl14  1  0.922803  0.298985  0.737477  1
  Cl  Cl15  1  0.020194  0.804192  0.219011  1
  Cl  Cl16  1  0.077197  0.701015  0.262523  1
  Cl  Cl17  1  0.804192  0.020194  0.219011  1
  Cl  Cl18  1  0.195808  0.979806  0.780989  1
  Cl  Cl19  1  0.464308  0.547803  0.259588  1
  Cl  Cl20  1  0.535692  0.452197  0.740412  1
  Cl  Cl21  1  0.508023  0.205724  0.450718  1
  Cl  Cl22  1  0.452197  0.535692  0.740412  1
  Cl  Cl23  1  0.491977  0.794276  0.549282  1
  Cl  Cl24  1  0.547803  0.464308  0.259588  1
  Cl  Cl25  1  0.239913  0.428600  0.544617  1
  Cl  Cl26  1  0.794276  0.491977  0.549282  1
  Cl  Cl27  1  0.760087  0.571400  0.455383  1
  Cl  Cl28  1  0.205724  0.508023  0.450718  1
  Cl  Cl29  1  0.571400  0.760087  0.455383  1
  Cl  Cl30  1  0.428600  0.239913  0.544617  1
