# generated using pymatgen
data_Li4Nb3ZnRh8
_symmetry_space_group_name_H-M   'P 1'
_cell_length_a   6.13640300
_cell_length_b   6.13271500
_cell_length_c   6.13620300
_cell_angle_alpha   90.00006540
_cell_angle_beta   89.99947713
_cell_angle_gamma   90.00000934
_symmetry_Int_Tables_number   1
_chemical_formula_structural   Li4Nb3ZnRh8
_chemical_formula_sum   'Li4 Nb3 Zn1 Rh8'
_cell_volume   230.92256606
_cell_formula_units_Z   1
loop_
 _symmetry_equiv_pos_site_id
 _symmetry_equiv_pos_as_xyz
  1  'x, y, z'
loop_
 _atom_site_type_symbol
 _atom_site_label
 _atom_site_symmetry_multiplicity
 _atom_site_fract_x
 _atom_site_fract_y
 _atom_site_fract_z
 _atom_site_occupancy
  Li  Li0  1  0.500010  0.749965  0.249999  1
  Li  Li1  1  0.000015  0.250062  0.249992  1
  Li  Li2  1  0.000010  0.749988  0.749998  1
  Li  Li3  1  0.499974  0.250047  0.749996  1
  Nb  Nb4  1  0.999986  0.750012  0.249981  1
  Nb  Nb5  1  0.999983  0.249985  0.750039  1
  Nb  Nb6  1  0.500006  0.750019  0.750050  1
  Zn  Zn7  1  0.499998  0.249997  0.250001  1
  Rh  Rh8  1  0.251972  0.001909  0.001938  1
  Rh  Rh9  1  0.748040  0.001882  0.001967  1
  Rh  Rh10  1  0.748039  0.498083  0.001945  1
  Rh  Rh11  1  0.251950  0.498068  0.001989  1
  Rh  Rh12  1  0.251995  0.498076  0.497997  1
  Rh  Rh13  1  0.251956  0.001921  0.498036  1
  Rh  Rh14  1  0.748000  0.498057  0.498044  1
  Rh  Rh15  1  0.748062  0.001929  0.498028  1
