# generated using pymatgen
data_Dy3Tl2Hg3Ir
_symmetry_space_group_name_H-M   'P 1'
_cell_length_a   8.29661700
_cell_length_b   8.29661754
_cell_length_c   3.70314700
_cell_angle_alpha   90.00000000
_cell_angle_beta   90.00000000
_cell_angle_gamma   119.99999386
_symmetry_Int_Tables_number   1
_chemical_formula_structural   Dy3Tl2Hg3Ir
_chemical_formula_sum   'Dy3 Tl2 Hg3 Ir1'
_cell_volume   220.75153040
_cell_formula_units_Z   1
loop_
 _symmetry_equiv_pos_site_id
 _symmetry_equiv_pos_as_xyz
  1  'x, y, z'
loop_
 _atom_site_type_symbol
 _atom_site_label
 _atom_site_symmetry_multiplicity
 _atom_site_fract_x
 _atom_site_fract_y
 _atom_site_fract_z
 _atom_site_occupancy
  Dy  Dy0  1  0.579308  0.627505  0.000000  1
  Dy  Dy1  1  0.372495  0.951803  0.000000  1
  Dy  Dy2  1  0.048197  0.420692  0.000000  1
  Tl  Tl3  1  0.000000  0.000000  0.000000  1
  Tl  Tl4  1  0.666667  0.333333  0.500000  1
  Hg  Hg5  1  0.999851  0.708019  0.500000  1
  Hg  Hg6  1  0.291981  0.291833  0.500000  1
  Hg  Hg7  1  0.708167  0.000149  0.500000  1
  Ir  Ir8  1  0.333333  0.666667  0.500000  1
