# generated using pymatgen
data_K8Zr6MnCl20
_symmetry_space_group_name_H-M   'P 1'
_cell_length_a   11.28948938
_cell_length_b   11.28948868
_cell_length_c   11.28948900
_cell_angle_alpha   60.00000200
_cell_angle_beta   60.00000405
_cell_angle_gamma   60.00000065
_symmetry_Int_Tables_number   1
_chemical_formula_structural   K8Zr6MnCl20
_chemical_formula_sum   'K8 Zr6 Mn1 Cl20'
_cell_volume   1017.43782889
_cell_formula_units_Z   1
loop_
 _symmetry_equiv_pos_site_id
 _symmetry_equiv_pos_as_xyz
  1  'x, y, z'
loop_
 _atom_site_type_symbol
 _atom_site_label
 _atom_site_symmetry_multiplicity
 _atom_site_fract_x
 _atom_site_fract_y
 _atom_site_fract_z
 _atom_site_occupancy
  K  K0  1  0.359472  0.359472  0.359472  1
  K  K1  1  0.640528  0.640528  0.640528  1
  K  K2  1  0.359472  0.359472  0.921584  1
  K  K3  1  0.359472  0.921584  0.359472  1
  K  K4  1  0.640528  0.640528  0.078416  1
  K  K5  1  0.640528  0.078416  0.640528  1
  K  K6  1  0.921584  0.359472  0.359472  1
  K  K7  1  0.078416  0.640528  0.640528  1
  Zr  Zr8  1  0.849234  0.150766  0.150766  1
  Zr  Zr9  1  0.150766  0.849234  0.849234  1
  Zr  Zr10  1  0.150766  0.849234  0.150766  1
  Zr  Zr11  1  0.849234  0.150766  0.849234  1
  Zr  Zr12  1  0.150766  0.150766  0.849234  1
  Zr  Zr13  1  0.849234  0.849234  0.150766  1
  Mn  Mn14  1  0.000000  0.000000  0.000000  1
  Cl  Cl15  1  0.329763  0.000000  0.000000  1
  Cl  Cl16  1  0.670237  0.000000  0.000000  1
  Cl  Cl17  1  0.000000  0.329763  0.670237  1
  Cl  Cl18  1  0.000000  0.670237  0.329763  1
  Cl  Cl19  1  0.000000  0.329763  0.000000  1
  Cl  Cl20  1  0.670237  0.000000  0.329763  1
  Cl  Cl21  1  0.000000  0.670237  0.000000  1
  Cl  Cl22  1  0.329763  0.000000  0.670237  1
  Cl  Cl23  1  0.000000  0.000000  0.329763  1
  Cl  Cl24  1  0.000000  0.000000  0.670237  1
  Cl  Cl25  1  0.670237  0.329763  0.000000  1
  Cl  Cl26  1  0.329763  0.670237  0.000000  1
  Cl  Cl27  1  0.679920  0.320080  0.320080  1
  Cl  Cl28  1  0.320080  0.679920  0.679920  1
  Cl  Cl29  1  0.320080  0.679920  0.320080  1
  Cl  Cl30  1  0.679920  0.320080  0.679920  1
  Cl  Cl31  1  0.320080  0.320080  0.679920  1
  Cl  Cl32  1  0.679920  0.679920  0.320080  1
  Cl  Cl33  1  0.250000  0.250000  0.250000  1
  Cl  Cl34  1  0.750000  0.750000  0.750000  1
