# generated using pymatgen
data_Ho5Er3(HfGa5)4
_symmetry_space_group_name_H-M   'P 1'
_cell_length_a   5.92695802
_cell_length_b   9.39149600
_cell_length_c   11.32376403
_cell_angle_alpha   89.99918130
_cell_angle_beta   89.99160029
_cell_angle_gamma   89.99719507
_symmetry_Int_Tables_number   1
_chemical_formula_structural   Ho5Er3(HfGa5)4
_chemical_formula_sum   'Ho5 Er3 Hf4 Ga20'
_cell_volume   630.31469834
_cell_formula_units_Z   1
loop_
 _symmetry_equiv_pos_site_id
 _symmetry_equiv_pos_as_xyz
  1  'x, y, z'
loop_
 _atom_site_type_symbol
 _atom_site_label
 _atom_site_symmetry_multiplicity
 _atom_site_fract_x
 _atom_site_fract_y
 _atom_site_fract_z
 _atom_site_occupancy
  Ho  Ho0  1  0.885401  0.505193  0.352504  1
  Ho  Ho1  1  0.614553  0.994812  0.852586  1
  Ho  Ho2  1  0.114574  0.005176  0.647417  1
  Ho  Ho3  1  0.385450  0.494811  0.147415  1
  Ho  Ho4  1  0.114553  0.494827  0.647545  1
  Er  Er5  1  0.385484  0.005191  0.147538  1
  Er  Er6  1  0.885470  0.994835  0.352447  1
  Er  Er7  1  0.614536  0.505181  0.852543  1
  Hf  Hf8  1  0.857152  0.749994  0.073467  1
  Hf  Hf9  1  0.642738  0.750034  0.573420  1
  Hf  Hf10  1  0.142849  0.249975  0.926572  1
  Hf  Hf11  1  0.357197  0.249964  0.426510  1
  Ga  Ga12  1  0.874537  0.052324  0.089240  1
  Ga  Ga13  1  0.625380  0.447623  0.589178  1
  Ga  Ga14  1  0.125468  0.552350  0.910877  1
  Ga  Ga15  1  0.374531  0.947680  0.410772  1
  Ga  Ga16  1  0.125461  0.947622  0.911002  1
  Ga  Ga17  1  0.374604  0.552426  0.410946  1
  Ga  Ga18  1  0.874564  0.447607  0.088988  1
  Ga  Ga19  1  0.625454  0.052373  0.588995  1
  Ga  Ga20  1  0.156994  0.750232  0.254802  1
  Ga  Ga21  1  0.343111  0.749882  0.754877  1
  Ga  Ga22  1  0.842916  0.250118  0.745235  1
  Ga  Ga23  1  0.656990  0.249764  0.245197  1
  Ga  Ga24  1  0.394035  0.750097  0.000224  1
  Ga  Ga25  1  0.105958  0.750081  0.500089  1
  Ga  Ga26  1  0.605978  0.250095  0.999784  1
  Ga  Ga27  1  0.893947  0.249856  0.499751  1
  Ga  Ga28  1  0.606383  0.750199  0.292614  1
  Ga  Ga29  1  0.893576  0.749844  0.792632  1
  Ga  Ga30  1  0.393782  0.250048  0.707432  1
  Ga  Ga31  1  0.106378  0.249788  0.207400  1
