# generated using pymatgen
data_Th2Si6Pd17Pt4
_symmetry_space_group_name_H-M   'P 1'
_cell_length_a   8.71764919
_cell_length_b   8.71764840
_cell_length_c   8.71764900
_cell_angle_alpha   60.00000153
_cell_angle_beta   60.00000450
_cell_angle_gamma   59.99999784
_symmetry_Int_Tables_number   1
_chemical_formula_structural   Th2Si6Pd17Pt4
_chemical_formula_sum   'Th2 Si6 Pd17 Pt4'
_cell_volume   468.47145269
_cell_formula_units_Z   1
loop_
 _symmetry_equiv_pos_site_id
 _symmetry_equiv_pos_as_xyz
  1  'x, y, z'
loop_
 _atom_site_type_symbol
 _atom_site_label
 _atom_site_symmetry_multiplicity
 _atom_site_fract_x
 _atom_site_fract_y
 _atom_site_fract_z
 _atom_site_occupancy
  Th  Th0  1  0.750000  0.750000  0.750000  1
  Th  Th1  1  0.250000  0.250000  0.250000  1
  Si  Si2  1  0.736396  0.736396  0.263604  1
  Si  Si3  1  0.263604  0.736396  0.263604  1
  Si  Si4  1  0.736396  0.263604  0.263604  1
  Si  Si5  1  0.263604  0.263604  0.736396  1
  Si  Si6  1  0.736396  0.263604  0.736396  1
  Si  Si7  1  0.263604  0.736396  0.736396  1
  Pd  Pd8  1  0.000000  0.000000  0.000000  1
  Pd  Pd9  1  0.383680  0.383680  0.848962  1
  Pd  Pd10  1  0.383680  0.848962  0.383680  1
  Pd  Pd11  1  0.848962  0.383680  0.383680  1
  Pd  Pd12  1  0.383680  0.383680  0.383680  1
  Pd  Pd13  1  0.000505  0.000505  0.344341  1
  Pd  Pd14  1  0.654648  0.000505  0.344341  1
  Pd  Pd15  1  0.000505  0.654648  0.344341  1
  Pd  Pd16  1  0.654648  0.344341  0.000505  1
  Pd  Pd17  1  0.000505  0.344341  0.000505  1
  Pd  Pd18  1  0.000505  0.344341  0.654648  1
  Pd  Pd19  1  0.344341  0.654648  0.000505  1
  Pd  Pd20  1  0.344341  0.000505  0.654648  1
  Pd  Pd21  1  0.344341  0.000505  0.000505  1
  Pd  Pd22  1  0.000505  0.000505  0.654648  1
  Pd  Pd23  1  0.000505  0.654648  0.000505  1
  Pd  Pd24  1  0.654648  0.000505  0.000505  1
  Pt  Pt25  1  0.614615  0.614615  0.156155  1
  Pt  Pt26  1  0.614615  0.156155  0.614615  1
  Pt  Pt27  1  0.156155  0.614615  0.614615  1
  Pt  Pt28  1  0.614615  0.614615  0.614615  1
