# generated using pymatgen
data_TbY2Sn3PtRh2
_symmetry_space_group_name_H-M   'P 1'
_cell_length_a   7.60907013
_cell_length_b   7.60887601
_cell_length_c   3.88282500
_cell_angle_alpha   90.00000000
_cell_angle_beta   90.00000000
_cell_angle_gamma   120.02191678
_symmetry_Int_Tables_number   1
_chemical_formula_structural   TbY2Sn3PtRh2
_chemical_formula_sum   'Tb1 Y2 Sn3 Pt1 Rh2'
_cell_volume   194.64111668
_cell_formula_units_Z   1
loop_
 _symmetry_equiv_pos_site_id
 _symmetry_equiv_pos_as_xyz
  1  'x, y, z'
loop_
 _atom_site_type_symbol
 _atom_site_label
 _atom_site_symmetry_multiplicity
 _atom_site_fract_x
 _atom_site_fract_y
 _atom_site_fract_z
 _atom_site_occupancy
  Tb  Tb0  1  0.409057  0.004747  0.500000  1
  Y  Y1  1  0.995387  0.403918  0.500000  1
  Y  Y2  1  0.596213  0.591492  0.500000  1
  Sn  Sn3  1  0.743264  0.003876  0.000000  1
  Sn  Sn4  1  0.995847  0.738909  0.000000  1
  Sn  Sn5  1  0.260764  0.257256  0.000000  1
  Pt  Pt6  1  0.333270  0.666944  0.000000  1
  Rh  Rh7  1  0.666155  0.332866  0.000000  1
  Rh  Rh8  1  0.000043  0.999992  0.500000  1
