# generated using pymatgen
data_Ba4Si7SnPd8
_symmetry_space_group_name_H-M   'P 1'
_cell_length_a   7.05996975
_cell_length_b   7.92857584
_cell_length_c   8.18466900
_cell_angle_alpha   92.55327764
_cell_angle_beta   88.99977647
_cell_angle_gamma   89.39985246
_symmetry_Int_Tables_number   1
_chemical_formula_structural   Ba4Si7SnPd8
_chemical_formula_sum   'Ba4 Si7 Sn1 Pd8'
_cell_volume   457.58738079
_cell_formula_units_Z   1
loop_
 _symmetry_equiv_pos_site_id
 _symmetry_equiv_pos_as_xyz
  1  'x, y, z'
loop_
 _atom_site_type_symbol
 _atom_site_label
 _atom_site_symmetry_multiplicity
 _atom_site_fract_x
 _atom_site_fract_y
 _atom_site_fract_z
 _atom_site_occupancy
  Ba  Ba0  1  0.881380  0.502158  0.749948  1
  Ba  Ba1  1  0.368658  0.005834  0.245594  1
  Ba  Ba2  1  0.635700  0.991282  0.744623  1
  Ba  Ba3  1  0.132128  0.505928  0.259303  1
  Si  Si4  1  0.915996  0.861100  0.427459  1
  Si  Si5  1  0.079122  0.865835  0.928948  1
  Si  Si6  1  0.591906  0.367789  0.427793  1
  Si  Si7  1  0.072428  0.122338  0.565660  1
  Si  Si8  1  0.592834  0.648310  0.082003  1
  Si  Si9  1  0.908892  0.137995  0.072458  1
  Si  Si10  1  0.415617  0.620266  0.591043  1
  Sn  Sn11  1  0.415205  0.363232  0.914665  1
  Pd  Pd12  1  0.839148  0.156690  0.366444  1
  Pd  Pd13  1  0.154272  0.829852  0.629981  1
  Pd  Pd14  1  0.133356  0.150460  0.854415  1
  Pd  Pd15  1  0.332357  0.312840  0.599285  1
  Pd  Pd16  1  0.356119  0.694829  0.884116  1
  Pd  Pd17  1  0.844078  0.843893  0.137351  1
  Pd  Pd18  1  0.675472  0.356151  0.139754  1
  Pd  Pd19  1  0.655333  0.663219  0.379155  1
