# generated using pymatgen
data_Eu4Ga18PdRh5
_symmetry_space_group_name_H-M   'P 1'
_cell_length_a   7.63011820
_cell_length_b   7.63011777
_cell_length_c   9.84051000
_cell_angle_alpha   90.00166346
_cell_angle_beta   90.00165793
_cell_angle_gamma   119.13756620
_symmetry_Int_Tables_number   1
_chemical_formula_structural   Eu4Ga18PdRh5
_chemical_formula_sum   'Eu4 Ga18 Pd1 Rh5'
_cell_volume   500.40280751
_cell_formula_units_Z   1
loop_
 _symmetry_equiv_pos_site_id
 _symmetry_equiv_pos_as_xyz
  1  'x, y, z'
loop_
 _atom_site_type_symbol
 _atom_site_label
 _atom_site_symmetry_multiplicity
 _atom_site_fract_x
 _atom_site_fract_y
 _atom_site_fract_z
 _atom_site_occupancy
  Eu  Eu0  1  0.672596  0.998233  0.250299  1
  Eu  Eu1  1  0.001767  0.327404  0.749701  1
  Eu  Eu2  1  0.998233  0.672596  0.250299  1
  Eu  Eu3  1  0.327404  0.001767  0.749701  1
  Ga  Ga4  1  0.660087  0.995346  0.924242  1
  Ga  Ga5  1  0.132369  0.132369  0.252777  1
  Ga  Ga6  1  0.003594  0.335917  0.426246  1
  Ga  Ga7  1  0.335096  0.335096  0.558016  1
  Ga  Ga8  1  0.337212  0.546293  0.250132  1
  Ga  Ga9  1  0.453707  0.662788  0.749868  1
  Ga  Ga10  1  0.867631  0.867631  0.747223  1
  Ga  Ga11  1  0.660806  0.660806  0.059897  1
  Ga  Ga12  1  0.664904  0.664904  0.441984  1
  Ga  Ga13  1  0.996406  0.664083  0.573754  1
  Ga  Ga14  1  0.995346  0.660087  0.924242  1
  Ga  Ga15  1  0.335917  0.003594  0.426246  1
  Ga  Ga16  1  0.662788  0.453707  0.749868  1
  Ga  Ga17  1  0.546293  0.337212  0.250132  1
  Ga  Ga18  1  0.339194  0.339194  0.940103  1
  Ga  Ga19  1  0.339913  0.004654  0.075758  1
  Ga  Ga20  1  0.664083  0.996406  0.573754  1
  Ga  Ga21  1  0.004654  0.339913  0.075758  1
  Pd  Pd22  1  0.000000  0.000000  0.000000  1
  Rh  Rh23  1  0.329747  0.670253  0.500000  1
  Rh  Rh24  1  0.329207  0.670793  0.000000  1
  Rh  Rh25  1  0.670253  0.329747  0.500000  1
  Rh  Rh26  1  0.000000  0.000000  0.500000  1
  Rh  Rh27  1  0.670793  0.329207  0.000000  1
