# generated using pymatgen
data_TmLu2ZnAg3Ge2
_symmetry_space_group_name_H-M   'P 1'
_cell_length_a   7.12686800
_cell_length_b   7.12727507
_cell_length_c   4.08980000
_cell_angle_alpha   90.00000000
_cell_angle_beta   90.00000000
_cell_angle_gamma   120.00189358
_symmetry_Int_Tables_number   1
_chemical_formula_structural   TmLu2ZnAg3Ge2
_chemical_formula_sum   'Tm1 Lu2 Zn1 Ag3 Ge2'
_cell_volume   179.90641552
_cell_formula_units_Z   1
loop_
 _symmetry_equiv_pos_site_id
 _symmetry_equiv_pos_as_xyz
  1  'x, y, z'
loop_
 _atom_site_type_symbol
 _atom_site_label
 _atom_site_symmetry_multiplicity
 _atom_site_fract_x
 _atom_site_fract_y
 _atom_site_fract_z
 _atom_site_occupancy
  Tm  Tm0  1  0.000000  0.581441  0.500000  1
  Lu  Lu1  1  0.418571  0.418541  0.500000  1
  Lu  Lu2  1  0.581429  0.999970  0.500000  1
  Zn  Zn3  1  0.000000  0.000162  0.500000  1
  Ag  Ag4  1  0.750836  0.750961  0.000000  1
  Ag  Ag5  1  0.249164  0.000125  0.000000  1
  Ag  Ag6  1  0.000000  0.248885  0.000000  1
  Ge  Ge7  1  0.666404  0.333159  0.000000  1
  Ge  Ge8  1  0.333596  0.666757  0.000000  1
