# generated using pymatgen
data_NiBrN8
_symmetry_space_group_name_H-M   'P 1'
_cell_length_a   5.73812039
_cell_length_b   6.42592609
_cell_length_c   8.34191773
_cell_angle_alpha   89.32756044
_cell_angle_beta   110.12191299
_cell_angle_gamma   87.49322187
_symmetry_Int_Tables_number   1
_chemical_formula_structural   NiBrN8
_chemical_formula_sum   'Ni1 Br1 N8'
_cell_volume   288.42092941
_cell_formula_units_Z   1
loop_
 _symmetry_equiv_pos_site_id
 _symmetry_equiv_pos_as_xyz
  1  'x, y, z'
loop_
 _atom_site_type_symbol
 _atom_site_label
 _atom_site_symmetry_multiplicity
 _atom_site_fract_x
 _atom_site_fract_y
 _atom_site_fract_z
 _atom_site_occupancy
  Ni  Ni0  1  0.185789  0.320205  0.063844  1
  Br  Br1  1  0.088207  0.018133  0.150556  1
  N  N2  1  0.839234  0.626530  0.823390  1
  N  N3  1  0.676820  0.498467  0.214193  1
  N  N4  1  0.983600  0.514298  0.911522  1
  N  N5  1  0.485406  0.441288  0.150318  1
  N  N6  1  0.764783  0.887214  0.482626  1
  N  N7  1  0.361092  0.990776  0.735693  1
  N  N8  1  0.375497  0.149514  0.789355  1
  N  N9  1  0.761047  0.052904  0.519508  1
