# generated using pymatgen
data_Gd4Lu(ReO6)2
_symmetry_space_group_name_H-M   'P 1'
_cell_length_a   6.89178737
_cell_length_b   6.89178769
_cell_length_c   7.57214708
_cell_angle_alpha   73.67811902
_cell_angle_beta   73.67811559
_cell_angle_gamma   48.95891810
_symmetry_Int_Tables_number   1
_chemical_formula_structural   Gd4Lu(ReO6)2
_chemical_formula_sum   'Gd4 Lu1 Re2 O12'
_cell_volume   258.00712318
_cell_formula_units_Z   1
loop_
 _symmetry_equiv_pos_site_id
 _symmetry_equiv_pos_as_xyz
  1  'x, y, z'
loop_
 _atom_site_type_symbol
 _atom_site_label
 _atom_site_symmetry_multiplicity
 _atom_site_fract_x
 _atom_site_fract_y
 _atom_site_fract_z
 _atom_site_occupancy
  Gd  Gd0  1  0.196477  0.196477  0.641906  1
  Gd  Gd1  1  0.183679  0.183679  0.176997  1
  Gd  Gd2  1  0.803523  0.803523  0.358094  1
  Gd  Gd3  1  0.816321  0.816321  0.823003  1
  Lu  Lu4  1  0.500000  0.500000  0.500000  1
  Re  Re5  1  0.713109  0.286891  0.000000  1
  Re  Re6  1  0.286891  0.713109  0.000000  1
  O  O7  1  0.413277  0.915143  0.914990  1
  O  O8  1  0.915143  0.413277  0.914990  1
  O  O9  1  0.896703  0.401150  0.429937  1
  O  O10  1  0.401150  0.896703  0.429937  1
  O  O11  1  0.501906  0.501906  0.207391  1
  O  O12  1  0.998662  0.998662  0.173864  1
  O  O13  1  0.001338  0.001338  0.826136  1
  O  O14  1  0.498094  0.498094  0.792609  1
  O  O15  1  0.084857  0.586723  0.085010  1
  O  O16  1  0.586723  0.084857  0.085010  1
  O  O17  1  0.103297  0.598850  0.570063  1
  O  O18  1  0.598850  0.103297  0.570063  1
