# generated using pymatgen
data_CaNdRuC2
_symmetry_space_group_name_H-M   'P 1'
_cell_length_a   5.23742000
_cell_length_b   6.47225700
_cell_length_c   10.50253800
_cell_angle_alpha   90.00000000
_cell_angle_beta   90.00000000
_cell_angle_gamma   90.00000000
_symmetry_Int_Tables_number   1
_chemical_formula_structural   CaNdRuC2
_chemical_formula_sum   'Ca4 Nd4 Ru4 C8'
_cell_volume   356.01427964
_cell_formula_units_Z   4
loop_
 _symmetry_equiv_pos_site_id
 _symmetry_equiv_pos_as_xyz
  1  'x, y, z'
loop_
 _atom_site_type_symbol
 _atom_site_label
 _atom_site_symmetry_multiplicity
 _atom_site_fract_x
 _atom_site_fract_y
 _atom_site_fract_z
 _atom_site_occupancy
  Ca  Ca0  1  0.250000  0.466046  0.776826  1
  Ca  Ca1  1  0.750000  0.033954  0.276826  1
  Ca  Ca2  1  0.250000  0.966046  0.723174  1
  Ca  Ca3  1  0.750000  0.533954  0.223174  1
  Nd  Nd4  1  0.250000  0.805597  0.054458  1
  Nd  Nd5  1  0.750000  0.694403  0.554458  1
  Nd  Nd6  1  0.250000  0.305597  0.445542  1
  Nd  Nd7  1  0.750000  0.194403  0.945542  1
  Ru  Ru8  1  0.250000  0.274123  0.146291  1
  Ru  Ru9  1  0.750000  0.225877  0.646291  1
  Ru  Ru10  1  0.250000  0.774123  0.353709  1
  Ru  Ru11  1  0.750000  0.725877  0.853709  1
  C  C12  1  0.250000  0.696338  0.527489  1
  C  C13  1  0.750000  0.803662  0.027489  1
  C  C14  1  0.250000  0.196338  0.972511  1
  C  C15  1  0.750000  0.303662  0.472511  1
  C  C16  1  0.250000  0.032637  0.254465  1
  C  C17  1  0.750000  0.467363  0.754465  1
  C  C18  1  0.250000  0.532637  0.245535  1
  C  C19  1  0.750000  0.967363  0.745535  1
