# generated using pymatgen
data_Dy3Er(CuPt)2
_symmetry_space_group_name_H-M   'P 1'
_cell_length_a   4.45090700
_cell_length_b   5.49032619
_cell_length_c   7.12908484
_cell_angle_alpha   89.75381107
_cell_angle_beta   90.00000000
_cell_angle_gamma   90.00000000
_symmetry_Int_Tables_number   1
_chemical_formula_structural   Dy3Er(CuPt)2
_chemical_formula_sum   'Dy3 Er1 Cu2 Pt2'
_cell_volume   174.21134823
_cell_formula_units_Z   1
loop_
 _symmetry_equiv_pos_site_id
 _symmetry_equiv_pos_as_xyz
  1  'x, y, z'
loop_
 _atom_site_type_symbol
 _atom_site_label
 _atom_site_symmetry_multiplicity
 _atom_site_fract_x
 _atom_site_fract_y
 _atom_site_fract_z
 _atom_site_occupancy
  Dy  Dy0  1  0.000000  0.115576  0.684212  1
  Dy  Dy1  1  0.500000  0.394356  0.315750  1
  Dy  Dy2  1  0.500000  0.606243  0.816577  1
  Er  Er3  1  0.000000  0.884284  0.184430  1
  Cu  Cu4  1  0.500000  0.892353  0.462565  1
  Cu  Cu5  1  0.500000  0.106108  0.964600  1
  Pt  Pt6  1  0.000000  0.616173  0.534501  1
  Pt  Pt7  1  0.000000  0.384908  0.037366  1
