# generated using pymatgen
data_Sb(SeO3)2
_symmetry_space_group_name_H-M   'P 1'
_cell_length_a   8.52007400
_cell_length_b   8.68658027
_cell_length_c   8.49675553
_cell_angle_alpha   90.00465494
_cell_angle_beta   90.00000000
_cell_angle_gamma   90.00000000
_symmetry_Int_Tables_number   1
_chemical_formula_structural   Sb(SeO3)2
_chemical_formula_sum   'Sb4 Se8 O24'
_cell_volume   628.84748059
_cell_formula_units_Z   4
loop_
 _symmetry_equiv_pos_site_id
 _symmetry_equiv_pos_as_xyz
  1  'x, y, z'
loop_
 _atom_site_type_symbol
 _atom_site_label
 _atom_site_symmetry_multiplicity
 _atom_site_fract_x
 _atom_site_fract_y
 _atom_site_fract_z
 _atom_site_occupancy
  Sb  Sb0  1  0.000000  0.500000  0.000000  1
  Sb  Sb1  1  0.500000  0.500000  0.500000  1
  Sb  Sb2  1  0.000000  0.000000  0.500000  1
  Sb  Sb3  1  0.500000  0.000000  0.000000  1
  Se  Se4  1  0.346159  0.679034  0.155509  1
  Se  Se5  1  0.846159  0.320966  0.344491  1
  Se  Se6  1  0.682616  0.846918  0.680350  1
  Se  Se7  1  0.182616  0.153082  0.819650  1
  Se  Se8  1  0.653841  0.320966  0.844491  1
  Se  Se9  1  0.153841  0.679034  0.655509  1
  Se  Se10  1  0.317384  0.153082  0.319650  1
  Se  Se11  1  0.817384  0.846918  0.180350  1
  O  O12  1  0.255607  0.560530  0.023966  1
  O  O13  1  0.755607  0.439470  0.476034  1
  O  O14  1  0.766647  0.984450  0.549547  1
  O  O15  1  0.266647  0.015550  0.950453  1
  O  O16  1  0.550209  0.981344  0.766904  1
  O  O17  1  0.478517  0.559349  0.242964  1
  O  O18  1  0.978517  0.440651  0.257036  1
  O  O19  1  0.050209  0.018656  0.733096  1
  O  O20  1  0.983458  0.228148  0.480276  1
  O  O21  1  0.560056  0.755740  0.555786  1
  O  O22  1  0.483458  0.771852  0.019724  1
  O  O23  1  0.060056  0.244260  0.944214  1
  O  O24  1  0.744393  0.439470  0.976034  1
  O  O25  1  0.244393  0.560530  0.523966  1
  O  O26  1  0.233353  0.015550  0.450453  1
  O  O27  1  0.733353  0.984450  0.049547  1
  O  O28  1  0.449791  0.018656  0.233096  1
  O  O29  1  0.521483  0.440651  0.757036  1
  O  O30  1  0.021483  0.559349  0.742964  1
  O  O31  1  0.949791  0.981344  0.266904  1
  O  O32  1  0.016542  0.771852  0.519724  1
  O  O33  1  0.439944  0.244260  0.444214  1
  O  O34  1  0.516542  0.228148  0.980276  1
  O  O35  1  0.939944  0.755740  0.055786  1
