# generated using pymatgen
data_Tm4Lu6(InBi)3
_symmetry_space_group_name_H-M   'P 1'
_cell_length_a   6.44768100
_cell_length_b   8.90279395
_cell_length_c   8.90594817
_cell_angle_alpha   119.98829392
_cell_angle_beta   89.99847668
_cell_angle_gamma   90.00305730
_symmetry_Int_Tables_number   1
_chemical_formula_structural   Tm4Lu6(InBi)3
_chemical_formula_sum   'Tm4 Lu6 In3 Bi3'
_cell_volume   442.78395594
_cell_formula_units_Z   1
loop_
 _symmetry_equiv_pos_site_id
 _symmetry_equiv_pos_as_xyz
  1  'x, y, z'
loop_
 _atom_site_type_symbol
 _atom_site_label
 _atom_site_symmetry_multiplicity
 _atom_site_fract_x
 _atom_site_fract_y
 _atom_site_fract_z
 _atom_site_occupancy
  Tm  Tm0  1  0.749806  0.234653  0.000000  1
  Tm  Tm1  1  0.749921  0.765367  0.765259  1
  Tm  Tm2  1  0.749921  0.000109  0.234741  1
  Tm  Tm3  1  0.249900  0.763157  0.000000  1
  Lu  Lu4  1  0.491836  0.333320  0.666715  1
  Lu  Lu5  1  0.491836  0.666605  0.333285  1
  Lu  Lu6  1  0.008214  0.666695  0.333416  1
  Lu  Lu7  1  0.008214  0.333280  0.666584  1
  Lu  Lu8  1  0.249887  0.236929  0.236900  1
  Lu  Lu9  1  0.249887  0.000030  0.763100  1
  In  In10  1  0.249983  0.392861  0.000000  1
  In  In11  1  0.250315  0.606842  0.606744  1
  In  In12  1  0.250315  0.000097  0.393256  1
  Bi  Bi13  1  0.750030  0.602347  0.000000  1
  Bi  Bi14  1  0.749969  0.397690  0.397668  1
  Bi  Bi15  1  0.749969  0.000022  0.602332  1
