# generated using pymatgen
data_Pr3Zn2B4Ir9
_symmetry_space_group_name_H-M   'P 1'
_cell_length_a   5.60943900
_cell_length_b   5.60943817
_cell_length_c   10.19323800
_cell_angle_alpha   90.00000000
_cell_angle_beta   90.00000000
_cell_angle_gamma   119.99999902
_symmetry_Int_Tables_number   1
_chemical_formula_structural   Pr3Zn2B4Ir9
_chemical_formula_sum   'Pr3 Zn2 B4 Ir9'
_cell_volume   277.76760564
_cell_formula_units_Z   1
loop_
 _symmetry_equiv_pos_site_id
 _symmetry_equiv_pos_as_xyz
  1  'x, y, z'
loop_
 _atom_site_type_symbol
 _atom_site_label
 _atom_site_symmetry_multiplicity
 _atom_site_fract_x
 _atom_site_fract_y
 _atom_site_fract_z
 _atom_site_occupancy
  Pr  Pr0  1  0.000000  0.000000  0.658705  1
  Pr  Pr1  1  0.000000  0.000000  0.341295  1
  Pr  Pr2  1  0.000000  0.000000  0.000000  1
  Zn  Zn3  1  0.333333  0.666667  0.000000  1
  Zn  Zn4  1  0.666667  0.333333  0.000000  1
  B  B5  1  0.333333  0.666667  0.653228  1
  B  B6  1  0.666667  0.333333  0.653228  1
  B  B7  1  0.666667  0.333333  0.346772  1
  B  B8  1  0.333333  0.666667  0.346772  1
  Ir  Ir9  1  0.500000  0.500000  0.500000  1
  Ir  Ir10  1  0.000000  0.500000  0.500000  1
  Ir  Ir11  1  0.500000  0.000000  0.208996  1
  Ir  Ir12  1  0.500000  0.500000  0.208996  1
  Ir  Ir13  1  0.000000  0.500000  0.208996  1
  Ir  Ir14  1  0.500000  0.000000  0.791004  1
  Ir  Ir15  1  0.500000  0.500000  0.791004  1
  Ir  Ir16  1  0.000000  0.500000  0.791004  1
  Ir  Ir17  1  0.500000  0.000000  0.500000  1
