# generated using pymatgen
data_NaCe(B2Rh3)2
_symmetry_space_group_name_H-M   'P 1'
_cell_length_a   2.90772400
_cell_length_b   5.65131600
_cell_length_c   9.75492900
_cell_angle_alpha   90.00000000
_cell_angle_beta   90.00000000
_cell_angle_gamma   90.00000000
_symmetry_Int_Tables_number   1
_chemical_formula_structural   NaCe(B2Rh3)2
_chemical_formula_sum   'Na1 Ce1 B4 Rh6'
_cell_volume   160.29755049
_cell_formula_units_Z   1
loop_
 _symmetry_equiv_pos_site_id
 _symmetry_equiv_pos_as_xyz
  1  'x, y, z'
loop_
 _atom_site_type_symbol
 _atom_site_label
 _atom_site_symmetry_multiplicity
 _atom_site_fract_x
 _atom_site_fract_y
 _atom_site_fract_z
 _atom_site_occupancy
  Na  Na0  1  0.000000  0.500645  0.500000  1
  Ce  Ce1  1  0.000000  0.999600  0.000000  1
  B  B2  1  0.000000  0.999809  0.336223  1
  B  B3  1  0.000000  0.499860  0.830965  1
  B  B4  1  0.000000  0.499860  0.169035  1
  B  B5  1  0.000000  0.999809  0.663777  1
  Rh  Rh6  1  0.500000  0.500620  0.000000  1
  Rh  Rh7  1  0.500000  0.001487  0.500000  1
  Rh  Rh8  1  0.500000  0.246018  0.245385  1
  Rh  Rh9  1  0.500000  0.753036  0.753731  1
  Rh  Rh10  1  0.500000  0.753036  0.246269  1
  Rh  Rh11  1  0.500000  0.246018  0.754615  1
