# generated using pymatgen
data_TbY(Tm4Bi3)2
_symmetry_space_group_name_H-M   'P 1'
_cell_length_a   8.19563100
_cell_length_b   9.43848300
_cell_length_c   11.93470900
_cell_angle_alpha   90.00000000
_cell_angle_beta   90.00000000
_cell_angle_gamma   90.00000000
_symmetry_Int_Tables_number   1
_chemical_formula_structural   TbY(Tm4Bi3)2
_chemical_formula_sum   'Tb2 Y2 Tm16 Bi12'
_cell_volume   923.20134525
_cell_formula_units_Z   2
loop_
 _symmetry_equiv_pos_site_id
 _symmetry_equiv_pos_as_xyz
  1  'x, y, z'
loop_
 _atom_site_type_symbol
 _atom_site_label
 _atom_site_symmetry_multiplicity
 _atom_site_fract_x
 _atom_site_fract_y
 _atom_site_fract_z
 _atom_site_occupancy
  Tb  Tb0  1  0.686558  0.750000  0.781985  1
  Tb  Tb1  1  0.186558  0.750000  0.718015  1
  Y  Y2  1  0.313346  0.250000  0.218151  1
  Y  Y3  1  0.813346  0.250000  0.281849  1
  Tm  Tm4  1  0.352709  0.750000  0.217433  1
  Tm  Tm5  1  0.852709  0.750000  0.282567  1
  Tm  Tm6  1  0.647259  0.250000  0.782433  1
  Tm  Tm7  1  0.147259  0.250000  0.717567  1
  Tm  Tm8  1  0.692081  0.566039  0.059745  1
  Tm  Tm9  1  0.192081  0.933961  0.440255  1
  Tm  Tm10  1  0.307983  0.065877  0.940055  1
  Tm  Tm11  1  0.807983  0.434123  0.559945  1
  Tm  Tm12  1  0.307983  0.434123  0.940055  1
  Tm  Tm13  1  0.807983  0.065877  0.559945  1
  Tm  Tm14  1  0.692081  0.933961  0.059745  1
  Tm  Tm15  1  0.192081  0.566039  0.440255  1
  Tm  Tm16  1  0.476513  0.250000  0.489411  1
  Tm  Tm17  1  0.976513  0.250000  0.010589  1
  Tm  Tm18  1  0.523511  0.750000  0.511181  1
  Tm  Tm19  1  0.023511  0.750000  0.988819  1
  Bi  Bi20  1  0.404175  0.750000  0.959077  1
  Bi  Bi21  1  0.904175  0.750000  0.540923  1
  Bi  Bi22  1  0.595633  0.250000  0.040988  1
  Bi  Bi23  1  0.095633  0.250000  0.459012  1
  Bi  Bi24  1  0.565678  0.994724  0.326514  1
  Bi  Bi25  1  0.065678  0.505276  0.173486  1
  Bi  Bi26  1  0.434406  0.494522  0.673769  1
  Bi  Bi27  1  0.934406  0.005478  0.826231  1
  Bi  Bi28  1  0.434406  0.005478  0.673769  1
  Bi  Bi29  1  0.934406  0.494522  0.826231  1
  Bi  Bi30  1  0.565678  0.505276  0.326514  1
  Bi  Bi31  1  0.065678  0.994724  0.173486  1
