# generated using pymatgen
data_Tm12Fe3BiPb
_symmetry_space_group_name_H-M   'P 1'
_cell_length_a   8.31064382
_cell_length_b   8.31064436
_cell_length_c   8.31064392
_cell_angle_alpha   108.15355380
_cell_angle_beta   108.39480339
_cell_angle_gamma   111.89286578
_symmetry_Int_Tables_number   1
_chemical_formula_structural   Tm12Fe3BiPb
_chemical_formula_sum   'Tm12 Fe3 Bi1 Pb1'
_cell_volume   441.26080478
_cell_formula_units_Z   1
loop_
 _symmetry_equiv_pos_site_id
 _symmetry_equiv_pos_as_xyz
  1  'x, y, z'
loop_
 _atom_site_type_symbol
 _atom_site_label
 _atom_site_symmetry_multiplicity
 _atom_site_fract_x
 _atom_site_fract_y
 _atom_site_fract_z
 _atom_site_occupancy
  Tm  Tm0  1  0.193127  0.426808  0.233681  1
  Tm  Tm1  1  0.806873  0.573192  0.766319  1
  Tm  Tm2  1  0.193126  0.959448  0.766321  1
  Tm  Tm3  1  0.962453  0.193339  0.769114  1
  Tm  Tm4  1  0.806874  0.040552  0.233679  1
  Tm  Tm5  1  0.037547  0.806661  0.230886  1
  Tm  Tm6  1  0.424225  0.193339  0.230887  1
  Tm  Tm7  1  0.575775  0.806661  0.769113  1
  Tm  Tm8  1  0.304835  0.310762  0.615596  1
  Tm  Tm9  1  0.695165  0.689238  0.384404  1
  Tm  Tm10  1  0.695166  0.310762  0.005928  1
  Tm  Tm11  1  0.304834  0.689238  0.994072  1
  Fe  Fe12  1  0.384654  0.384654  0.000001  1
  Fe  Fe13  1  0.615346  0.615346  0.999999  1
  Fe  Fe14  1  0.000000  0.000000  0.000000  1
  Bi  Bi15  1  0.500000  0.000000  0.500000  1
  Pb  Pb16  1  0.000000  0.500000  0.500000  1
