# generated using pymatgen
data_DyTm3CoHg
_symmetry_space_group_name_H-M   'P 1'
_cell_length_a   9.36923120
_cell_length_b   9.36923118
_cell_length_c   9.36923000
_cell_angle_alpha   59.99999711
_cell_angle_beta   59.99999717
_cell_angle_gamma   59.99999805
_symmetry_Int_Tables_number   1
_chemical_formula_structural   DyTm3CoHg
_chemical_formula_sum   'Dy4 Tm12 Co4 Hg4'
_cell_volume   581.56302688
_cell_formula_units_Z   4
loop_
 _symmetry_equiv_pos_site_id
 _symmetry_equiv_pos_as_xyz
  1  'x, y, z'
loop_
 _atom_site_type_symbol
 _atom_site_label
 _atom_site_symmetry_multiplicity
 _atom_site_fract_x
 _atom_site_fract_y
 _atom_site_fract_z
 _atom_site_occupancy
  Dy  Dy0  1  0.348342  0.348342  0.348342  1
  Dy  Dy1  1  0.348342  0.348342  0.954973  1
  Dy  Dy2  1  0.348342  0.954973  0.348342  1
  Dy  Dy3  1  0.954973  0.348342  0.348342  1
  Tm  Tm4  1  0.812364  0.187636  0.187636  1
  Tm  Tm5  1  0.187636  0.812364  0.812364  1
  Tm  Tm6  1  0.187636  0.812364  0.187636  1
  Tm  Tm7  1  0.812364  0.187636  0.812364  1
  Tm  Tm8  1  0.187636  0.187636  0.812364  1
  Tm  Tm9  1  0.812364  0.812364  0.187636  1
  Tm  Tm10  1  0.938147  0.561853  0.561853  1
  Tm  Tm11  1  0.561853  0.938147  0.938147  1
  Tm  Tm12  1  0.561853  0.938147  0.561853  1
  Tm  Tm13  1  0.938147  0.561853  0.938147  1
  Tm  Tm14  1  0.561853  0.561853  0.938147  1
  Tm  Tm15  1  0.938147  0.938147  0.561853  1
  Co  Co16  1  0.141231  0.141231  0.141231  1
  Co  Co17  1  0.141231  0.141231  0.576308  1
  Co  Co18  1  0.141231  0.576308  0.141231  1
  Co  Co19  1  0.576308  0.141231  0.141231  1
  Hg  Hg20  1  0.584161  0.584161  0.584161  1
  Hg  Hg21  1  0.584161  0.584161  0.247516  1
  Hg  Hg22  1  0.584161  0.247516  0.584161  1
  Hg  Hg23  1  0.247516  0.584161  0.584161  1
