# generated using pymatgen
data_Pr5Nd11MgAg3Ir4
_symmetry_space_group_name_H-M   'P 1'
_cell_length_a   9.89371252
_cell_length_b   9.94716790
_cell_length_c   9.94716771
_cell_angle_alpha   60.38447991
_cell_angle_beta   60.10885296
_cell_angle_gamma   60.10884881
_symmetry_Int_Tables_number   1
_chemical_formula_structural   Pr5Nd11MgAg3Ir4
_chemical_formula_sum   'Pr5 Nd11 Mg1 Ag3 Ir4'
_cell_volume   695.35404564
_cell_formula_units_Z   1
loop_
 _symmetry_equiv_pos_site_id
 _symmetry_equiv_pos_as_xyz
  1  'x, y, z'
loop_
 _atom_site_type_symbol
 _atom_site_label
 _atom_site_symmetry_multiplicity
 _atom_site_fract_x
 _atom_site_fract_y
 _atom_site_fract_z
 _atom_site_occupancy
  Pr  Pr0  1  0.560565  0.939565  0.939565  1
  Pr  Pr1  1  0.560602  0.938599  0.562057  1
  Pr  Pr2  1  0.938971  0.561364  0.938488  1
  Pr  Pr3  1  0.560602  0.562057  0.938599  1
  Pr  Pr4  1  0.938971  0.938488  0.561364  1
  Nd  Nd5  1  0.348032  0.347427  0.347427  1
  Nd  Nd6  1  0.347456  0.348118  0.956467  1
  Nd  Nd7  1  0.347456  0.956467  0.348118  1
  Nd  Nd8  1  0.945199  0.351623  0.351623  1
  Nd  Nd9  1  0.807522  0.191494  0.191494  1
  Nd  Nd10  1  0.187047  0.811785  0.811785  1
  Nd  Nd11  1  0.187950  0.810498  0.188570  1
  Nd  Nd12  1  0.806936  0.192175  0.808124  1
  Nd  Nd13  1  0.187950  0.188570  0.810498  1
  Nd  Nd14  1  0.806936  0.808124  0.192175  1
  Nd  Nd15  1  0.937433  0.561585  0.561585  1
  Mg  Mg16  1  0.293339  0.568663  0.568663  1
  Ag  Ag17  1  0.581428  0.583442  0.583442  1
  Ag  Ag18  1  0.579516  0.583949  0.253763  1
  Ag  Ag19  1  0.579516  0.253763  0.583949  1
  Ir  Ir20  1  0.139802  0.141642  0.141642  1
  Ir  Ir21  1  0.140752  0.143994  0.574437  1
  Ir  Ir22  1  0.140752  0.574437  0.143994  1
  Ir  Ir23  1  0.575266  0.142174  0.142174  1
