# generated using pymatgen
data_Ac3Si7Pt3
_symmetry_space_group_name_H-M   'P 1'
_cell_length_a   13.67277000
_cell_length_b   13.67276901
_cell_length_c   4.45196800
_cell_angle_alpha   90.00000000
_cell_angle_beta   90.00000000
_cell_angle_gamma   161.45278808
_symmetry_Int_Tables_number   1
_chemical_formula_structural   Ac3Si7Pt3
_chemical_formula_sum   'Ac3 Si7 Pt3'
_cell_volume   264.73388540
_cell_formula_units_Z   1
loop_
 _symmetry_equiv_pos_site_id
 _symmetry_equiv_pos_as_xyz
  1  'x, y, z'
loop_
 _atom_site_type_symbol
 _atom_site_label
 _atom_site_symmetry_multiplicity
 _atom_site_fract_x
 _atom_site_fract_y
 _atom_site_fract_z
 _atom_site_occupancy
  Ac  Ac0  1  0.000645  0.999355  0.000000  1
  Ac  Ac1  1  0.683950  0.316050  0.500000  1
  Ac  Ac2  1  0.317421  0.682579  0.500000  1
  Si  Si3  1  0.590116  0.409884  0.000000  1
  Si  Si4  1  0.411224  0.588776  0.000000  1
  Si  Si5  1  0.770176  0.229824  0.000000  1
  Si  Si6  1  0.230337  0.769663  0.000000  1
  Si  Si7  1  0.907279  0.092721  0.500000  1
  Si  Si8  1  0.091331  0.908669  0.500000  1
  Si  Si9  1  0.546491  0.453509  0.500000  1
  Pt  Pt10  1  0.865234  0.134766  0.000000  1
  Pt  Pt11  1  0.133583  0.866417  0.000000  1
  Pt  Pt12  1  0.452214  0.547786  0.500000  1
