# generated using pymatgen
data_Ta4Ir2PtS12
_symmetry_space_group_name_H-M   'P 1'
_cell_length_a   7.02780141
_cell_length_b   7.02780132
_cell_length_c   18.92891800
_cell_angle_alpha   70.04442863
_cell_angle_beta   70.04442890
_cell_angle_gamma   28.15999669
_symmetry_Int_Tables_number   1
_chemical_formula_structural   Ta4Ir2PtS12
_chemical_formula_sum   'Ta4 Ir2 Pt1 S12'
_cell_volume   412.99718904
_cell_formula_units_Z   1
loop_
 _symmetry_equiv_pos_site_id
 _symmetry_equiv_pos_as_xyz
  1  'x, y, z'
loop_
 _atom_site_type_symbol
 _atom_site_label
 _atom_site_symmetry_multiplicity
 _atom_site_fract_x
 _atom_site_fract_y
 _atom_site_fract_z
 _atom_site_occupancy
  Ta  Ta0  1  0.623508  0.623508  0.849968  1
  Ta  Ta1  1  0.376492  0.376492  0.150032  1
  Ta  Ta2  1  0.744705  0.744705  0.592985  1
  Ta  Ta3  1  0.255295  0.255295  0.407015  1
  Ir  Ir4  1  0.229774  0.229774  0.717776  1
  Ir  Ir5  1  0.770226  0.770226  0.282224  1
  Pt  Pt6  1  0.000000  0.000000  0.000000  1
  S  S7  1  0.980133  0.980133  0.881677  1
  S  S8  1  0.019867  0.019867  0.118323  1
  S  S9  1  0.628592  0.628592  0.402584  1
  S  S10  1  0.371408  0.371408  0.597416  1
  S  S11  1  0.144817  0.144817  0.550178  1
  S  S12  1  0.855183  0.855183  0.449822  1
  S  S13  1  0.806755  0.806755  0.767099  1
  S  S14  1  0.193245  0.193245  0.232901  1
  S  S15  1  0.179681  0.179681  0.925194  1
  S  S16  1  0.820319  0.820319  0.074806  1
  S  S17  1  0.605794  0.605794  0.718484  1
  S  S18  1  0.394206  0.394206  0.281516  1
