# generated using pymatgen
data_Nd3Sm7C4I15
_symmetry_space_group_name_H-M   'P 1'
_cell_length_a   9.71859600
_cell_length_b   10.54192883
_cell_length_c   11.68725812
_cell_angle_alpha   93.71498143
_cell_angle_beta   114.25683142
_cell_angle_gamma   109.37954792
_symmetry_Int_Tables_number   1
_chemical_formula_structural   Nd3Sm7C4I15
_chemical_formula_sum   'Nd3 Sm7 C4 I15'
_cell_volume   1001.27261654
_cell_formula_units_Z   1
loop_
 _symmetry_equiv_pos_site_id
 _symmetry_equiv_pos_as_xyz
  1  'x, y, z'
loop_
 _atom_site_type_symbol
 _atom_site_label
 _atom_site_symmetry_multiplicity
 _atom_site_fract_x
 _atom_site_fract_y
 _atom_site_fract_z
 _atom_site_occupancy
  Nd  Nd0  1  0.703553  0.567381  0.043931  1
  Nd  Nd1  1  0.296199  0.432904  0.955661  1
  Nd  Nd2  1  0.656548  0.255236  0.836749  1
  Sm  Sm3  1  0.595073  0.541690  0.340163  1
  Sm  Sm4  1  0.346398  0.743991  0.163111  1
  Sm  Sm5  1  0.773392  0.880250  0.255154  1
  Sm  Sm6  1  0.527864  0.184877  0.101229  1
  Sm  Sm7  1  0.227703  0.119109  0.745346  1
  Sm  Sm8  1  0.404250  0.458225  0.659635  1
  Sm  Sm9  1  0.472158  0.815549  0.898749  1
  C  C10  1  0.481659  0.299661  0.939041  1
  C  C11  1  0.517527  0.701523  0.061444  1
  C  C12  1  0.452617  0.363175  0.834197  1
  C  C13  1  0.546429  0.637381  0.166108  1
  I  I14  1  0.208142  0.906074  0.938097  1
  I  I15  1  0.106160  0.188936  0.471298  1
  I  I16  1  0.155233  0.558258  0.701912  1
  I  I17  1  0.403983  0.968420  0.649070  1
  I  I18  1  0.710084  0.735825  0.818717  1
  I  I19  1  0.289311  0.264286  0.180761  1
  I  I20  1  0.844462  0.441540  0.298078  1
  I  I21  1  0.893249  0.810433  0.529235  1
  I  I22  1  0.358429  0.630151  0.411274  1
  I  I23  1  0.052043  0.835717  0.221499  1
  I  I24  1  0.793061  0.093214  0.064524  1
  I  I25  1  0.640385  0.371371  0.586165  1
  I  I26  1  0.949088  0.164149  0.778678  1
  I  I27  1  0.592772  0.028584  0.349104  1
  I  I28  1  0.002228  0.502088  0.001068  1
