# generated using pymatgen
data_SrEu5Ga3HgP8
_symmetry_space_group_name_H-M   'P 1'
_cell_length_a   8.22342689
_cell_length_b   8.26649369
_cell_length_c   6.66632854
_cell_angle_alpha   88.89227365
_cell_angle_beta   89.41964477
_cell_angle_gamma   76.51715756
_symmetry_Int_Tables_number   1
_chemical_formula_structural   SrEu5Ga3HgP8
_chemical_formula_sum   'Sr1 Eu5 Ga3 Hg1 P8'
_cell_volume   440.59054673
_cell_formula_units_Z   1
loop_
 _symmetry_equiv_pos_site_id
 _symmetry_equiv_pos_as_xyz
  1  'x, y, z'
loop_
 _atom_site_type_symbol
 _atom_site_label
 _atom_site_symmetry_multiplicity
 _atom_site_fract_x
 _atom_site_fract_y
 _atom_site_fract_z
 _atom_site_occupancy
  Sr  Sr0  1  0.750437  0.491158  0.040578  1
  Eu  Eu1  1  0.496961  0.252015  0.470444  1
  Eu  Eu2  1  0.249537  0.504777  0.965693  1
  Eu  Eu3  1  0.498039  0.749283  0.539931  1
  Eu  Eu4  1  0.102712  0.906747  0.248688  1
  Eu  Eu5  1  0.898976  0.100231  0.739956  1
  Ga  Ga6  1  0.676268  0.917240  0.090178  1
  Ga  Ga7  1  0.919539  0.674604  0.590767  1
  Ga  Ga8  1  0.328811  0.073867  0.905928  1
  Hg  Hg9  1  0.079246  0.325324  0.403115  1
  P  P10  1  0.215506  0.576839  0.487394  1
  P  P11  1  0.440857  0.788548  0.031353  1
  P  P12  1  0.768365  0.449875  0.540021  1
  P  P13  1  0.558866  0.205468  0.975076  1
  P  P14  1  0.072769  0.235684  0.036913  1
  P  P15  1  0.760074  0.932645  0.431711  1
  P  P16  1  0.933178  0.763410  0.934162  1
  P  P17  1  0.249858  0.052283  0.568091  1
