# generated using pymatgen
data_K2Fe(SiO3)2
_symmetry_space_group_name_H-M   'P 1'
_cell_length_a   6.05981959
_cell_length_b   6.05977308
_cell_length_c   10.28820700
_cell_angle_alpha   86.12951001
_cell_angle_beta   93.87029591
_cell_angle_gamma   69.36887610
_symmetry_Int_Tables_number   1
_chemical_formula_structural   K2Fe(SiO3)2
_chemical_formula_sum   'K4 Fe2 Si4 O12'
_cell_volume   351.06983595
_cell_formula_units_Z   2
loop_
 _symmetry_equiv_pos_site_id
 _symmetry_equiv_pos_as_xyz
  1  'x, y, z'
loop_
 _atom_site_type_symbol
 _atom_site_label
 _atom_site_symmetry_multiplicity
 _atom_site_fract_x
 _atom_site_fract_y
 _atom_site_fract_z
 _atom_site_occupancy
  K  K0  1  0.644593  0.715584  0.912717  1
  K  K1  1  0.284381  0.355792  0.412630  1
  K  K2  1  0.715566  0.644592  0.587290  1
  K  K3  1  0.355800  0.284376  0.087372  1
  Fe  Fe4  1  0.709710  0.709741  0.249989  1
  Fe  Fe5  1  0.290150  0.290139  0.750008  1
  Si  Si6  1  0.137186  0.867431  0.643931  1
  Si  Si7  1  0.132490  0.862907  0.143853  1
  Si  Si8  1  0.867416  0.137190  0.856066  1
  Si  Si9  1  0.862917  0.132470  0.356149  1
  O  O10  1  0.930070  0.930077  0.749998  1
  O  O11  1  0.069767  0.069767  0.249998  1
  O  O12  1  0.000300  0.000150  0.500020  1
  O  O13  1  0.000149  0.000292  0.999979  1
  O  O14  1  0.346170  0.964671  0.687320  1
  O  O15  1  0.034846  0.654057  0.186840  1
  O  O16  1  0.964669  0.346168  0.812685  1
  O  O17  1  0.654060  0.034838  0.313159  1
  O  O18  1  0.233163  0.584279  0.630036  1
  O  O19  1  0.415646  0.766687  0.130027  1
  O  O20  1  0.584263  0.233171  0.869964  1
  O  O21  1  0.766689  0.415625  0.369969  1
