# generated using pymatgen
data_Dy12InGaCo4
_symmetry_space_group_name_H-M   'P 1'
_cell_length_a   8.32613574
_cell_length_b   8.32613628
_cell_length_c   8.32613622
_cell_angle_alpha   106.88216855
_cell_angle_beta   109.44818119
_cell_angle_gamma   112.12579551
_symmetry_Int_Tables_number   1
_chemical_formula_structural   Dy12InGaCo4
_chemical_formula_sum   'Dy12 In1 Ga1 Co4'
_cell_volume   443.40214395
_cell_formula_units_Z   1
loop_
 _symmetry_equiv_pos_site_id
 _symmetry_equiv_pos_as_xyz
  1  'x, y, z'
loop_
 _atom_site_type_symbol
 _atom_site_label
 _atom_site_symmetry_multiplicity
 _atom_site_fract_x
 _atom_site_fract_y
 _atom_site_fract_z
 _atom_site_occupancy
  Dy  Dy0  1  0.299619  0.268468  0.568086  1
  Dy  Dy1  1  0.700381  0.731532  0.431914  1
  Dy  Dy2  1  0.299619  0.731532  0.031151  1
  Dy  Dy3  1  0.700381  0.268468  0.968849  1
  Dy  Dy4  1  0.187410  0.511595  0.324185  1
  Dy  Dy5  1  0.187410  0.863225  0.675815  1
  Dy  Dy6  1  0.812590  0.488405  0.675815  1
  Dy  Dy7  1  0.812590  0.136775  0.324185  1
  Dy  Dy8  1  0.398075  0.216544  0.181531  1
  Dy  Dy9  1  0.035011  0.216544  0.818469  1
  Dy  Dy10  1  0.964989  0.783456  0.181531  1
  Dy  Dy11  1  0.601925  0.783456  0.818469  1
  In  In12  1  0.500000  0.000000  0.500000  1
  Ga  Ga13  1  0.500000  0.500000  0.000000  1
  Co  Co14  1  0.156901  0.500000  0.656901  1
  Co  Co15  1  0.843099  0.500000  0.343099  1
  Co  Co16  1  0.000000  0.113740  0.113740  1
  Co  Co17  1  0.000000  0.886260  0.886260  1
