# generated using pymatgen
data_Hf3Zr7CuSiSn5Sb
_symmetry_space_group_name_H-M   'P 1'
_cell_length_a   8.66623803
_cell_length_b   8.66301253
_cell_length_c   5.87922500
_cell_angle_alpha   90.00377650
_cell_angle_beta   90.00485275
_cell_angle_gamma   120.00715362
_symmetry_Int_Tables_number   1
_chemical_formula_structural   Hf3Zr7CuSiSn5Sb
_chemical_formula_sum   'Hf3 Zr7 Cu1 Si1 Sn5 Sb1'
_cell_volume   382.22488030
_cell_formula_units_Z   1
loop_
 _symmetry_equiv_pos_site_id
 _symmetry_equiv_pos_as_xyz
  1  'x, y, z'
loop_
 _atom_site_type_symbol
 _atom_site_label
 _atom_site_symmetry_multiplicity
 _atom_site_fract_x
 _atom_site_fract_y
 _atom_site_fract_z
 _atom_site_occupancy
  Hf  Hf0  1  0.333427  0.667378  0.000491  1
  Hf  Hf1  1  0.666124  0.332586  0.499461  1
  Hf  Hf2  1  0.665794  0.332422  0.000183  1
  Zr  Zr3  1  0.262948  0.000149  0.253038  1
  Zr  Zr4  1  0.261387  0.260189  0.746048  1
  Zr  Zr5  1  0.000777  0.739548  0.746050  1
  Zr  Zr6  1  0.000180  0.262305  0.254305  1
  Zr  Zr7  1  0.737978  0.737527  0.254308  1
  Zr  Zr8  1  0.737623  0.000158  0.745822  1
  Zr  Zr9  1  0.333448  0.667657  0.499754  1
  Cu  Cu10  1  0.998608  0.000015  0.003187  1
  Si  Si11  1  0.999598  0.999981  0.498169  1
  Sn  Sn12  1  0.612188  0.000613  0.247832  1
  Sn  Sn13  1  0.610292  0.609461  0.751980  1
  Sn  Sn14  1  0.999790  0.390044  0.751934  1
  Sn  Sn15  1  0.998779  0.609353  0.247392  1
  Sn  Sn16  1  0.390004  0.390102  0.247719  1
  Sb  Sb17  1  0.391054  0.000510  0.752330  1
