# generated using pymatgen
data_Cs2Th(WO4)3
_symmetry_space_group_name_H-M   'P 1'
_cell_length_a   7.51256926
_cell_length_b   7.51256978
_cell_length_c   7.81778599
_cell_angle_alpha   61.36046382
_cell_angle_beta   61.36046048
_cell_angle_gamma   60.01764483
_symmetry_Int_Tables_number   1
_chemical_formula_structural   Cs2Th(WO4)3
_chemical_formula_sum   'Cs2 Th1 W3 O12'
_cell_volume   318.30019259
_cell_formula_units_Z   1
loop_
 _symmetry_equiv_pos_site_id
 _symmetry_equiv_pos_as_xyz
  1  'x, y, z'
loop_
 _atom_site_type_symbol
 _atom_site_label
 _atom_site_symmetry_multiplicity
 _atom_site_fract_x
 _atom_site_fract_y
 _atom_site_fract_z
 _atom_site_occupancy
  Cs  Cs0  1  0.890906  0.854289  0.872747  1
  Cs  Cs1  1  0.145711  0.109094  0.127253  1
  Th  Th2  1  0.502182  0.497818  0.000000  1
  W  W3  1  0.505993  0.993409  0.498889  1
  W  W4  1  0.006591  0.494007  0.501111  1
  W  W5  1  0.504436  0.495564  0.500000  1
  O  O6  1  0.200946  0.197648  0.535028  1
  O  O7  1  0.572036  0.576267  0.208637  1
  O  O8  1  0.571328  0.142563  0.208737  1
  O  O9  1  0.201121  0.566400  0.533051  1
  O  O10  1  0.144903  0.572324  0.208791  1
  O  O11  1  0.567949  0.198901  0.532697  1
  O  O12  1  0.802352  0.799054  0.464972  1
  O  O13  1  0.423733  0.427964  0.791363  1
  O  O14  1  0.427676  0.855097  0.791209  1
  O  O15  1  0.801099  0.432051  0.467303  1
  O  O16  1  0.857437  0.428672  0.791263  1
  O  O17  1  0.433600  0.798879  0.466949  1
