# generated using pymatgen
data_Mn6InSn5Rh12
_symmetry_space_group_name_H-M   'P 1'
_cell_length_a   4.45469700
_cell_length_b   6.35080000
_cell_length_c   13.26661300
_cell_angle_alpha   90.00000000
_cell_angle_beta   89.99881236
_cell_angle_gamma   90.00000000
_symmetry_Int_Tables_number   1
_chemical_formula_structural   Mn6InSn5Rh12
_chemical_formula_sum   'Mn6 In1 Sn5 Rh12'
_cell_volume   375.32428514
_cell_formula_units_Z   1
loop_
 _symmetry_equiv_pos_site_id
 _symmetry_equiv_pos_as_xyz
  1  'x, y, z'
loop_
 _atom_site_type_symbol
 _atom_site_label
 _atom_site_symmetry_multiplicity
 _atom_site_fract_x
 _atom_site_fract_y
 _atom_site_fract_z
 _atom_site_occupancy
  Mn  Mn0  1  0.000001  0.500001  0.998260  1
  Mn  Mn1  1  0.499876  0.000000  0.166873  1
  Mn  Mn2  1  0.999942  0.500001  0.333314  1
  Mn  Mn3  1  0.499994  0.000000  0.499822  1
  Mn  Mn4  1  0.000148  0.500001  0.668464  1
  Mn  Mn5  1  0.500037  0.000000  0.833310  1
  In  In6  1  0.500417  0.500001  0.833322  1
  Sn  Sn7  1  0.999992  0.000000  0.999934  1
  Sn  Sn8  1  0.499727  0.500001  0.166680  1
  Sn  Sn9  1  0.999707  0.000000  0.333316  1
  Sn  Sn10  1  0.499997  0.500001  0.499977  1
  Sn  Sn11  1  0.000181  0.000000  0.666633  1
  Rh  Rh12  1  0.499987  0.246529  0.002080  1
  Rh  Rh13  1  0.499987  0.753470  0.002080  1
  Rh  Rh14  1  0.999802  0.251082  0.167012  1
  Rh  Rh15  1  0.999802  0.748918  0.167012  1
  Rh  Rh16  1  0.499812  0.248651  0.333339  1
  Rh  Rh17  1  0.499812  0.751349  0.333339  1
  Rh  Rh18  1  0.999992  0.251157  0.499661  1
  Rh  Rh19  1  0.999992  0.748843  0.499661  1
  Rh  Rh20  1  0.500189  0.246613  0.664629  1
  Rh  Rh21  1  0.500189  0.753387  0.664629  1
  Rh  Rh22  1  0.000211  0.247324  0.833325  1
  Rh  Rh23  1  0.000211  0.752676  0.833325  1
