# generated using pymatgen
data_Ce3Lu5(Si3Pd)4
_symmetry_space_group_name_H-M   'P 1'
_cell_length_a   8.03634600
_cell_length_b   8.03634471
_cell_length_c   8.08009100
_cell_angle_alpha   90.00000000
_cell_angle_beta   90.00000000
_cell_angle_gamma   119.97584576
_symmetry_Int_Tables_number   1
_chemical_formula_structural   Ce3Lu5(Si3Pd)4
_chemical_formula_sum   'Ce3 Lu5 Si12 Pd4'
_cell_volume   452.03256264
_cell_formula_units_Z   1
loop_
 _symmetry_equiv_pos_site_id
 _symmetry_equiv_pos_as_xyz
  1  'x, y, z'
loop_
 _atom_site_type_symbol
 _atom_site_label
 _atom_site_symmetry_multiplicity
 _atom_site_fract_x
 _atom_site_fract_y
 _atom_site_fract_z
 _atom_site_occupancy
  Ce  Ce0  1  0.500036  0.499964  0.750000  1
  Ce  Ce1  1  0.000069  0.999931  0.250000  1
  Ce  Ce2  1  0.000018  0.999982  0.750000  1
  Lu  Lu3  1  0.499835  0.999764  0.250000  1
  Lu  Lu4  1  0.500165  0.000240  0.750000  1
  Lu  Lu5  1  0.000236  0.500165  0.250000  1
  Lu  Lu6  1  0.999760  0.499835  0.750000  1
  Lu  Lu7  1  0.499914  0.500086  0.250000  1
  Si  Si8  1  0.165422  0.331690  0.001001  1
  Si  Si9  1  0.834563  0.668305  0.001026  1
  Si  Si10  1  0.668310  0.834578  0.001001  1
  Si  Si11  1  0.834563  0.668305  0.498974  1
  Si  Si12  1  0.331695  0.165437  0.001026  1
  Si  Si13  1  0.165422  0.331690  0.498999  1
  Si  Si14  1  0.165655  0.834345  0.999502  1
  Si  Si15  1  0.331695  0.165437  0.498974  1
  Si  Si16  1  0.834344  0.165656  0.999718  1
  Si  Si17  1  0.668310  0.834578  0.498999  1
  Si  Si18  1  0.834344  0.165656  0.500282  1
  Si  Si19  1  0.165655  0.834345  0.500498  1
  Pd  Pd20  1  0.332230  0.667770  0.006042  1
  Pd  Pd21  1  0.667765  0.332235  0.006476  1
  Pd  Pd22  1  0.667765  0.332235  0.493524  1
  Pd  Pd23  1  0.332230  0.667770  0.493958  1
