# generated using pymatgen
data_Ho4Al24Pd3(Pt2Au)2
_symmetry_space_group_name_H-M   'P 1'
_cell_length_a   7.56969706
_cell_length_b   7.58649263
_cell_length_c   13.15809613
_cell_angle_alpha   84.53487714
_cell_angle_beta   78.99101641
_cell_angle_gamma   59.92261382
_symmetry_Int_Tables_number   1
_chemical_formula_structural   Ho4Al24Pd3(Pt2Au)2
_chemical_formula_sum   'Ho4 Al24 Pd3 Pt4 Au2'
_cell_volume   641.85555926
_cell_formula_units_Z   1
loop_
 _symmetry_equiv_pos_site_id
 _symmetry_equiv_pos_as_xyz
  1  'x, y, z'
loop_
 _atom_site_type_symbol
 _atom_site_label
 _atom_site_symmetry_multiplicity
 _atom_site_fract_x
 _atom_site_fract_y
 _atom_site_fract_z
 _atom_site_occupancy
  Ho  Ho0  1  0.392939  0.169233  0.808871  1
  Ho  Ho1  1  0.607061  0.830767  0.191129  1
  Ho  Ho2  1  0.733463  0.499081  0.809571  1
  Ho  Ho3  1  0.266537  0.500919  0.190429  1
  Al  Al4  1  0.683022  0.834332  0.944813  1
  Al  Al5  1  0.316978  0.165668  0.055187  1
  Al  Al6  1  0.145772  0.839312  0.562361  1
  Al  Al7  1  0.854228  0.160688  0.437639  1
  Al  Al8  1  0.488167  0.159481  0.559513  1
  Al  Al9  1  0.511833  0.840519  0.440487  1
  Al  Al10  1  0.223238  0.160573  0.325450  1
  Al  Al11  1  0.776762  0.839427  0.674550  1
  Al  Al12  1  0.439986  0.506725  0.674594  1
  Al  Al13  1  0.560014  0.493275  0.325406  1
  Al  Al14  1  0.108906  0.155117  0.673226  1
  Al  Al15  1  0.891094  0.844883  0.326774  1
  Al  Al16  1  0.353263  0.498806  0.944626  1
  Al  Al17  1  0.646737  0.501194  0.055374  1
  Al  Al18  1  0.015576  0.167617  0.953316  1
  Al  Al19  1  0.984424  0.832383  0.046684  1
  Al  Al20  1  0.195533  0.499186  0.437577  1
  Al  Al21  1  0.804467  0.500814  0.562423  1
  Al  Al22  1  0.732631  0.164488  0.182964  1
  Al  Al23  1  0.267369  0.835512  0.817036  1
  Al  Al24  1  0.060252  0.633655  0.818036  1
  Al  Al25  1  0.939748  0.366345  0.181964  1
  Al  Al26  1  0.853892  0.042792  0.816525  1
  Al  Al27  1  0.146108  0.957208  0.183475  1
  Pd  Pd28  1  0.657001  0.171624  0.999821  1
  Pd  Pd29  1  0.342999  0.828376  0.000179  1
  Pd  Pd30  1  0.000000  0.500000  0.000000  1
  Pt  Pt31  1  0.537287  0.166596  0.362138  1
  Pt  Pt32  1  0.462713  0.833404  0.637862  1
  Pt  Pt33  1  0.779562  0.175514  0.636555  1
  Pt  Pt34  1  0.220438  0.824486  0.363445  1
  Au  Au35  1  0.120007  0.490976  0.637994  1
  Au  Au36  1  0.879993  0.509024  0.362006  1
