# generated using pymatgen
data_SmTm18LuSn16
_symmetry_space_group_name_H-M   'P 1'
_cell_length_a   7.97659307
_cell_length_b   8.07657242
_cell_length_c   15.30016808
_cell_angle_alpha   90.00768676
_cell_angle_beta   89.58115168
_cell_angle_gamma   89.91727462
_symmetry_Int_Tables_number   1
_chemical_formula_structural   SmTm18LuSn16
_chemical_formula_sum   'Sm1 Tm18 Lu1 Sn16'
_cell_volume   985.66348655
_cell_formula_units_Z   1
loop_
 _symmetry_equiv_pos_site_id
 _symmetry_equiv_pos_as_xyz
  1  'x, y, z'
loop_
 _atom_site_type_symbol
 _atom_site_label
 _atom_site_symmetry_multiplicity
 _atom_site_fract_x
 _atom_site_fract_y
 _atom_site_fract_z
 _atom_site_occupancy
  Sm  Sm0  1  0.019020  0.178813  0.905388  1
  Tm  Tm1  1  0.366940  0.838104  0.876201  1
  Tm  Tm2  1  0.870315  0.661677  0.621998  1
  Tm  Tm3  1  0.629049  0.160781  0.376836  1
  Tm  Tm4  1  0.132565  0.339130  0.124158  1
  Tm  Tm5  1  0.632925  0.162177  0.124016  1
  Tm  Tm6  1  0.129544  0.338568  0.377059  1
  Tm  Tm7  1  0.371480  0.838425  0.622619  1
  Tm  Tm8  1  0.868954  0.661647  0.876402  1
  Tm  Tm9  1  0.523570  0.322597  0.904261  1
  Tm  Tm10  1  0.027044  0.178459  0.597453  1
  Tm  Tm11  1  0.474669  0.678066  0.402808  1
  Tm  Tm12  1  0.977857  0.820262  0.096149  1
  Tm  Tm13  1  0.476145  0.678644  0.096484  1
  Tm  Tm14  1  0.973737  0.822051  0.402881  1
  Tm  Tm15  1  0.525161  0.321736  0.595711  1
  Tm  Tm16  1  0.199884  0.504718  0.749036  1
  Tm  Tm17  1  0.699337  0.994724  0.748990  1
  Tm  Tm18  1  0.800253  0.495560  0.250504  1
  Lu  Lu19  1  0.300642  0.004619  0.250652  1
  Sn  Sn20  1  0.297033  0.036315  0.043267  1
  Sn  Sn21  1  0.790401  0.462878  0.458345  1
  Sn  Sn22  1  0.710590  0.964401  0.541326  1
  Sn  Sn23  1  0.208388  0.539991  0.959245  1
  Sn  Sn24  1  0.700897  0.957226  0.960020  1
  Sn  Sn25  1  0.210168  0.537205  0.541029  1
  Sn  Sn26  1  0.289942  0.036058  0.458304  1
  Sn  Sn27  1  0.793031  0.463070  0.041559  1
  Sn  Sn28  1  0.565839  0.618520  0.749817  1
  Sn  Sn29  1  0.066228  0.880337  0.749132  1
  Sn  Sn30  1  0.434402  0.382207  0.250285  1
  Sn  Sn31  1  0.935034  0.117884  0.250254  1
  Sn  Sn32  1  0.336538  0.151729  0.749793  1
  Sn  Sn33  1  0.832437  0.350433  0.748415  1
  Sn  Sn34  1  0.665243  0.848720  0.249580  1
  Sn  Sn35  1  0.164736  0.652268  0.250024  1
