# generated using pymatgen
data_PrPa3(NiAs)4
_symmetry_space_group_name_H-M   'P 1'
_cell_length_a   4.03153500
_cell_length_b   4.03153462
_cell_length_c   15.89187800
_cell_angle_alpha   90.00000000
_cell_angle_beta   90.00000000
_cell_angle_gamma   120.00001131
_symmetry_Int_Tables_number   1
_chemical_formula_structural   PrPa3(NiAs)4
_chemical_formula_sum   'Pr1 Pa3 Ni4 As4'
_cell_volume   223.69003256
_cell_formula_units_Z   1
loop_
 _symmetry_equiv_pos_site_id
 _symmetry_equiv_pos_as_xyz
  1  'x, y, z'
loop_
 _atom_site_type_symbol
 _atom_site_label
 _atom_site_symmetry_multiplicity
 _atom_site_fract_x
 _atom_site_fract_y
 _atom_site_fract_z
 _atom_site_occupancy
  Pr  Pr0  1  0.000000  0.000000  0.750000  1
  Pa  Pa1  1  0.000000  0.000000  0.250000  1
  Pa  Pa2  1  0.000000  0.000000  0.002547  1
  Pa  Pa3  1  0.000000  0.000000  0.497453  1
  Ni  Ni4  1  0.333333  0.666667  0.126820  1
  Ni  Ni5  1  0.666667  0.333333  0.902057  1
  Ni  Ni6  1  0.666667  0.333333  0.597943  1
  Ni  Ni7  1  0.333333  0.666667  0.373180  1
  As  As8  1  0.333333  0.666667  0.622081  1
  As  As9  1  0.666667  0.333333  0.371993  1
  As  As10  1  0.666667  0.333333  0.128007  1
  As  As11  1  0.333333  0.666667  0.877919  1
