# generated using pymatgen
data_Ta18V8GaGe
_symmetry_space_group_name_H-M   'P 1'
_cell_length_a   5.11824228
_cell_length_b   9.93721445
_cell_length_c   9.93721417
_cell_angle_alpha   86.16990404
_cell_angle_beta   75.04776332
_cell_angle_gamma   75.04777184
_symmetry_Int_Tables_number   1
_chemical_formula_structural   Ta18V8GaGe
_chemical_formula_sum   'Ta18 V8 Ga1 Ge1'
_cell_volume   471.77117870
_cell_formula_units_Z   1
loop_
 _symmetry_equiv_pos_site_id
 _symmetry_equiv_pos_as_xyz
  1  'x, y, z'
loop_
 _atom_site_type_symbol
 _atom_site_label
 _atom_site_symmetry_multiplicity
 _atom_site_fract_x
 _atom_site_fract_y
 _atom_site_fract_z
 _atom_site_occupancy
  Ta  Ta0  1  0.750000  0.500061  0.499939  1
  Ta  Ta1  1  0.250000  0.499927  0.500073  1
  Ta  Ta2  1  0.793655  0.771728  0.640899  1
  Ta  Ta3  1  0.206255  0.228313  0.359068  1
  Ta  Ta4  1  0.706345  0.359101  0.228272  1
  Ta  Ta5  1  0.293745  0.640932  0.771687  1
  Ta  Ta6  1  0.565243  0.640935  0.228340  1
  Ta  Ta7  1  0.434666  0.359051  0.771657  1
  Ta  Ta8  1  0.065334  0.228343  0.640949  1
  Ta  Ta9  1  0.934757  0.771660  0.359065  1
  Ta  Ta10  1  0.585725  0.074304  0.753657  1
  Ta  Ta11  1  0.413936  0.925685  0.246351  1
  Ta  Ta12  1  0.914275  0.246343  0.925696  1
  Ta  Ta13  1  0.086064  0.753649  0.074315  1
  Ta  Ta14  1  0.660092  0.753567  0.925727  1
  Ta  Ta15  1  0.339558  0.246405  0.074331  1
  Ta  Ta16  1  0.160442  0.925669  0.753595  1
  Ta  Ta17  1  0.839908  0.074273  0.246433  1
  V  V18  1  0.500026  0.999979  0.499990  1
  V  V19  1  0.000015  0.999994  0.499993  1
  V  V20  1  0.499985  0.500007  0.000006  1
  V  V21  1  0.999974  0.500010  0.000021  1
  V  V22  1  0.133471  0.500092  0.232976  1
  V  V23  1  0.866526  0.499941  0.766996  1
  V  V24  1  0.366529  0.767024  0.499908  1
  V  V25  1  0.633474  0.233004  0.500059  1
  Ga  Ga26  1  0.250000  0.000042  0.999958  1
  Ge  Ge27  1  0.750000  0.999960  0.000040  1
