# generated using pymatgen
data_Tb3Dy2Bi2Ir
_symmetry_space_group_name_H-M   'P 1'
_cell_length_a   8.03799100
_cell_length_b   9.03712800
_cell_length_c   12.54680300
_cell_angle_alpha   90.00000000
_cell_angle_beta   90.00000000
_cell_angle_gamma   90.00000000
_symmetry_Int_Tables_number   1
_chemical_formula_structural   Tb3Dy2Bi2Ir
_chemical_formula_sum   'Tb12 Dy8 Bi8 Ir4'
_cell_volume   911.40420559
_cell_formula_units_Z   4
loop_
 _symmetry_equiv_pos_site_id
 _symmetry_equiv_pos_as_xyz
  1  'x, y, z'
loop_
 _atom_site_type_symbol
 _atom_site_label
 _atom_site_symmetry_multiplicity
 _atom_site_fract_x
 _atom_site_fract_y
 _atom_site_fract_z
 _atom_site_occupancy
  Tb  Tb0  1  0.841691  0.750000  0.793817  1
  Tb  Tb1  1  0.158309  0.250000  0.206183  1
  Tb  Tb2  1  0.341691  0.250000  0.706183  1
  Tb  Tb3  1  0.658309  0.750000  0.293817  1
  Tb  Tb4  1  0.375314  0.750000  0.694226  1
  Tb  Tb5  1  0.624686  0.250000  0.305774  1
  Tb  Tb6  1  0.875314  0.250000  0.805774  1
  Tb  Tb7  1  0.124686  0.750000  0.194226  1
  Tb  Tb8  1  0.947794  0.750000  0.501562  1
  Tb  Tb9  1  0.052206  0.250000  0.498438  1
  Tb  Tb10  1  0.447794  0.250000  0.998438  1
  Tb  Tb11  1  0.552206  0.750000  0.001562  1
  Dy  Dy12  1  0.676450  0.040474  0.565436  1
  Dy  Dy13  1  0.323550  0.959526  0.434564  1
  Dy  Dy14  1  0.176450  0.959526  0.934564  1
  Dy  Dy15  1  0.323550  0.540474  0.434564  1
  Dy  Dy16  1  0.823550  0.040474  0.065436  1
  Dy  Dy17  1  0.676450  0.459526  0.565436  1
  Dy  Dy18  1  0.823550  0.459526  0.065436  1
  Dy  Dy19  1  0.176450  0.540474  0.934564  1
  Bi  Bi20  1  0.568927  0.491467  0.827024  1
  Bi  Bi21  1  0.431073  0.508533  0.172976  1
  Bi  Bi22  1  0.068927  0.508533  0.672976  1
  Bi  Bi23  1  0.431073  0.991467  0.172976  1
  Bi  Bi24  1  0.931073  0.491467  0.327024  1
  Bi  Bi25  1  0.568927  0.008533  0.827024  1
  Bi  Bi26  1  0.931073  0.008533  0.327024  1
  Bi  Bi27  1  0.068927  0.991467  0.672976  1
  Ir  Ir28  1  0.567959  0.750000  0.509276  1
  Ir  Ir29  1  0.432041  0.250000  0.490724  1
  Ir  Ir30  1  0.067959  0.250000  0.990724  1
  Ir  Ir31  1  0.932041  0.750000  0.009276  1
