# generated using pymatgen
data_Cr21CoTcC6
_symmetry_space_group_name_H-M   'P 1'
_cell_length_a   7.47879658
_cell_length_b   7.47879586
_cell_length_c   7.47879700
_cell_angle_alpha   59.99999940
_cell_angle_beta   60.00000258
_cell_angle_gamma   59.99999599
_symmetry_Int_Tables_number   1
_chemical_formula_structural   Cr21CoTcC6
_chemical_formula_sum   'Cr21 Co1 Tc1 C6'
_cell_volume   295.78772075
_cell_formula_units_Z   1
loop_
 _symmetry_equiv_pos_site_id
 _symmetry_equiv_pos_as_xyz
  1  'x, y, z'
loop_
 _atom_site_type_symbol
 _atom_site_label
 _atom_site_symmetry_multiplicity
 _atom_site_fract_x
 _atom_site_fract_y
 _atom_site_fract_z
 _atom_site_occupancy
  Cr  Cr0  1  0.250000  0.250000  0.250000  1
  Cr  Cr1  1  0.617045  0.617045  0.148867  1
  Cr  Cr2  1  0.617045  0.148867  0.617045  1
  Cr  Cr3  1  0.148867  0.617045  0.617045  1
  Cr  Cr4  1  0.617045  0.617045  0.617045  1
  Cr  Cr5  1  0.379974  0.379974  0.860078  1
  Cr  Cr6  1  0.379974  0.860078  0.379974  1
  Cr  Cr7  1  0.860078  0.379974  0.379974  1
  Cr  Cr8  1  0.379974  0.379974  0.379974  1
  Cr  Cr9  1  0.000633  0.000633  0.331815  1
  Cr  Cr10  1  0.666919  0.000633  0.331815  1
  Cr  Cr11  1  0.000633  0.666919  0.331815  1
  Cr  Cr12  1  0.666919  0.331815  0.000633  1
  Cr  Cr13  1  0.000633  0.331815  0.000633  1
  Cr  Cr14  1  0.000633  0.331815  0.666919  1
  Cr  Cr15  1  0.331815  0.666919  0.000633  1
  Cr  Cr16  1  0.331815  0.000633  0.666919  1
  Cr  Cr17  1  0.331815  0.000633  0.000633  1
  Cr  Cr18  1  0.000633  0.000633  0.666919  1
  Cr  Cr19  1  0.000633  0.666919  0.000633  1
  Cr  Cr20  1  0.666919  0.000633  0.000633  1
  Co  Co21  1  0.000000  0.000000  0.000000  1
  Tc  Tc22  1  0.750000  0.750000  0.750000  1
  C  C23  1  0.721997  0.721997  0.278003  1
  C  C24  1  0.278003  0.721997  0.278003  1
  C  C25  1  0.721997  0.278003  0.278003  1
  C  C26  1  0.278003  0.278003  0.721997  1
  C  C27  1  0.721997  0.278003  0.721997  1
  C  C28  1  0.278003  0.721997  0.721997  1
