# generated using pymatgen
data_Mn2InRh4Pb
_symmetry_space_group_name_H-M   'P 1'
_cell_length_a   7.80191835
_cell_length_b   7.80191822
_cell_length_c   7.80191945
_cell_angle_alpha   33.42744547
_cell_angle_beta   33.42744575
_cell_angle_gamma   33.42744069
_symmetry_Int_Tables_number   1
_chemical_formula_structural   Mn2InRh4Pb
_chemical_formula_sum   'Mn2 In1 Rh4 Pb1'
_cell_volume   128.34220453
_cell_formula_units_Z   1
loop_
 _symmetry_equiv_pos_site_id
 _symmetry_equiv_pos_as_xyz
  1  'x, y, z'
loop_
 _atom_site_type_symbol
 _atom_site_label
 _atom_site_symmetry_multiplicity
 _atom_site_fract_x
 _atom_site_fract_y
 _atom_site_fract_z
 _atom_site_occupancy
  Mn  Mn0  1  0.252507  0.252507  0.252507  1
  Mn  Mn1  1  0.747493  0.747493  0.747493  1
  In  In2  1  0.000000  0.000000  0.000000  1
  Rh  Rh3  1  0.625637  0.625637  0.625637  1
  Rh  Rh4  1  0.124333  0.124333  0.124333  1
  Rh  Rh5  1  0.875667  0.875667  0.875667  1
  Rh  Rh6  1  0.374363  0.374363  0.374363  1
  Pb  Pb7  1  0.500000  0.500000  0.500000  1
