# generated using pymatgen
data_Ce3Sm3Dy4(Al2Ru3)2
_symmetry_space_group_name_H-M   'P 1'
_cell_length_a   8.49613687
_cell_length_b   8.49613640
_cell_length_c   8.49613608
_cell_angle_alpha   110.21362792
_cell_angle_beta   110.21362689
_cell_angle_gamma   110.21362509
_symmetry_Int_Tables_number   1
_chemical_formula_structural   Ce3Sm3Dy4(Al2Ru3)2
_chemical_formula_sum   'Ce3 Sm3 Dy4 Al4 Ru6'
_cell_volume   458.67409802
_cell_formula_units_Z   1
loop_
 _symmetry_equiv_pos_site_id
 _symmetry_equiv_pos_as_xyz
  1  'x, y, z'
loop_
 _atom_site_type_symbol
 _atom_site_label
 _atom_site_symmetry_multiplicity
 _atom_site_fract_x
 _atom_site_fract_y
 _atom_site_fract_z
 _atom_site_occupancy
  Ce  Ce0  1  0.252377  0.200781  0.944034  1
  Ce  Ce1  1  0.944034  0.252377  0.200781  1
  Ce  Ce2  1  0.200781  0.944034  0.252377  1
  Sm  Sm3  1  0.721660  0.506568  0.992407  1
  Sm  Sm4  1  0.992407  0.721660  0.506568  1
  Sm  Sm5  1  0.506568  0.992407  0.721660  1
  Dy  Dy6  1  0.781789  0.781789  0.781789  1
  Dy  Dy7  1  0.312592  0.565322  0.752888  1
  Dy  Dy8  1  0.752888  0.312592  0.565322  1
  Dy  Dy9  1  0.565322  0.752888  0.312592  1
  Al  Al10  1  0.411591  0.411591  0.411591  1
  Al  Al11  1  0.095324  0.496980  0.004279  1
  Al  Al12  1  0.004279  0.095324  0.496980  1
  Al  Al13  1  0.496980  0.004279  0.095324  1
  Ru  Ru14  1  0.908505  0.120508  0.753503  1
  Ru  Ru15  1  0.753503  0.908505  0.120508  1
  Ru  Ru16  1  0.120508  0.753503  0.908505  1
  Ru  Ru17  1  0.222629  0.590799  0.365463  1
  Ru  Ru18  1  0.365463  0.222629  0.590799  1
  Ru  Ru19  1  0.590799  0.365463  0.222629  1
