# generated using pymatgen
data_Tb2Sm3(Tl2Pd)2
_symmetry_space_group_name_H-M   'P 1'
_cell_length_a   8.29588500
_cell_length_b   18.72247400
_cell_length_c   3.81674300
_cell_angle_alpha   90.00000000
_cell_angle_beta   90.00000000
_cell_angle_gamma   90.00000000
_symmetry_Int_Tables_number   1
_chemical_formula_structural   Tb2Sm3(Tl2Pd)2
_chemical_formula_sum   'Tb4 Sm6 Tl8 Pd4'
_cell_volume   592.81458088
_cell_formula_units_Z   2
loop_
 _symmetry_equiv_pos_site_id
 _symmetry_equiv_pos_as_xyz
  1  'x, y, z'
loop_
 _atom_site_type_symbol
 _atom_site_label
 _atom_site_symmetry_multiplicity
 _atom_site_fract_x
 _atom_site_fract_y
 _atom_site_fract_z
 _atom_site_occupancy
  Tb  Tb0  1  0.613066  0.087635  0.000000  1
  Tb  Tb1  1  0.386934  0.912365  0.000000  1
  Tb  Tb2  1  0.886934  0.587635  0.000000  1
  Tb  Tb3  1  0.113066  0.412365  0.000000  1
  Sm  Sm4  1  0.500000  0.500000  0.000000  1
  Sm  Sm5  1  0.000000  0.000000  0.000000  1
  Sm  Sm6  1  0.735146  0.284314  0.000000  1
  Sm  Sm7  1  0.264854  0.715686  0.000000  1
  Sm  Sm8  1  0.764854  0.784314  0.000000  1
  Sm  Sm9  1  0.235146  0.215686  0.000000  1
  Tl  Tl10  1  0.702338  0.937062  0.500000  1
  Tl  Tl11  1  0.297662  0.062938  0.500000  1
  Tl  Tl12  1  0.797662  0.437062  0.500000  1
  Tl  Tl13  1  0.202338  0.562938  0.500000  1
  Tl  Tl14  1  0.590873  0.650720  0.500000  1
  Tl  Tl15  1  0.409127  0.349280  0.500000  1
  Tl  Tl16  1  0.909127  0.150720  0.500000  1
  Tl  Tl17  1  0.090873  0.849280  0.500000  1
  Pd  Pd18  1  0.522441  0.195494  0.500000  1
  Pd  Pd19  1  0.477559  0.804506  0.500000  1
  Pd  Pd20  1  0.977559  0.695494  0.500000  1
  Pd  Pd21  1  0.022441  0.304506  0.500000  1
