# generated using pymatgen
data_KTm2CuS4
_symmetry_space_group_name_H-M   'P 1'
_cell_length_a   3.94232500
_cell_length_b   6.99141833
_cell_length_c   13.65904500
_cell_angle_alpha   90.00000000
_cell_angle_beta   90.00000000
_cell_angle_gamma   73.62395436
_symmetry_Int_Tables_number   1
_chemical_formula_structural   KTm2CuS4
_chemical_formula_sum   'K2 Tm4 Cu2 S8'
_cell_volume   361.20372268
_cell_formula_units_Z   2
loop_
 _symmetry_equiv_pos_site_id
 _symmetry_equiv_pos_as_xyz
  1  'x, y, z'
loop_
 _atom_site_type_symbol
 _atom_site_label
 _atom_site_symmetry_multiplicity
 _atom_site_fract_x
 _atom_site_fract_y
 _atom_site_fract_z
 _atom_site_occupancy
  K  K0  1  0.890101  0.219801  0.250000  1
  K  K1  1  0.109899  0.780199  0.750000  1
  Tm  Tm2  1  0.634077  0.731847  0.063695  1
  Tm  Tm3  1  0.634077  0.731847  0.436306  1
  Tm  Tm4  1  0.365923  0.268153  0.563694  1
  Tm  Tm5  1  0.365923  0.268153  0.936305  1
  Cu  Cu6  1  0.163282  0.673434  0.250000  1
  Cu  Cu7  1  0.836718  0.326565  0.750000  1
  S  S8  1  0.000000  0.000000  0.000000  1
  S  S9  1  0.261716  0.476567  0.108733  1
  S  S10  1  0.569064  0.861874  0.250000  1
  S  S11  1  0.261716  0.476567  0.391268  1
  S  S12  1  0.000000  0.000000  0.500000  1
  S  S13  1  0.738284  0.523434  0.608732  1
  S  S14  1  0.430936  0.138125  0.750000  1
  S  S15  1  0.738284  0.523434  0.891267  1
