# generated using pymatgen
data_Dy6Zn10Ag13S
_symmetry_space_group_name_H-M   'P 1'
_cell_length_a   9.25423346
_cell_length_b   9.28764576
_cell_length_c   9.28764600
_cell_angle_alpha   60.00117449
_cell_angle_beta   59.88195328
_cell_angle_gamma   59.88194811
_symmetry_Int_Tables_number   1
_chemical_formula_structural   Dy6Zn10Ag13S
_chemical_formula_sum   'Dy6 Zn10 Ag13 S1'
_cell_volume   563.46035434
_cell_formula_units_Z   1
loop_
 _symmetry_equiv_pos_site_id
 _symmetry_equiv_pos_as_xyz
  1  'x, y, z'
loop_
 _atom_site_type_symbol
 _atom_site_label
 _atom_site_symmetry_multiplicity
 _atom_site_fract_x
 _atom_site_fract_y
 _atom_site_fract_z
 _atom_site_occupancy
  Dy  Dy0  1  0.709064  0.290635  0.290635  1
  Dy  Dy1  1  0.709068  0.290635  0.709667  1
  Dy  Dy2  1  0.709068  0.709667  0.290635  1
  Dy  Dy3  1  0.290888  0.709689  0.709689  1
  Dy  Dy4  1  0.290888  0.709690  0.289731  1
  Dy  Dy5  1  0.290888  0.289731  0.709690  1
  Zn  Zn6  1  0.502717  0.997100  0.997100  1
  Zn  Zn7  1  0.502718  0.997101  0.503080  1
  Zn  Zn8  1  0.502718  0.503080  0.997101  1
  Zn  Zn9  1  0.995958  0.501281  0.501281  1
  Zn  Zn10  1  0.995959  0.501282  0.001479  1
  Zn  Zn11  1  0.995959  0.001479  0.501282  1
  Zn  Zn12  1  0.002736  0.999089  0.999089  1
  Zn  Zn13  1  0.669713  0.990633  0.669828  1
  Zn  Zn14  1  0.669713  0.669828  0.990633  1
  Zn  Zn15  1  0.669716  0.669830  0.669830  1
  Ag  Ag16  1  0.646377  0.117870  0.117870  1
  Ag  Ag17  1  0.118718  0.646275  0.117496  1
  Ag  Ag18  1  0.118718  0.117496  0.646275  1
  Ag  Ag19  1  0.118714  0.117508  0.117508  1
  Ag  Ag20  1  0.365715  0.878091  0.878091  1
  Ag  Ag21  1  0.877240  0.360457  0.881160  1
  Ag  Ag22  1  0.877240  0.881160  0.360457  1
  Ag  Ag23  1  0.877235  0.881152  0.881152  1
  Ag  Ag24  1  0.000673  0.333108  0.333108  1
  Ag  Ag25  1  0.333184  0.001081  0.332866  1
  Ag  Ag26  1  0.333184  0.332866  0.001081  1
  Ag  Ag27  1  0.333179  0.332867  0.332867  1
  Ag  Ag28  1  0.992336  0.669221  0.669221  1
  S  S29  1  0.499711  0.500096  0.500096  1
