# generated using pymatgen
data_Dy11HoFe2Br17
_symmetry_space_group_name_H-M   'P 1'
_cell_length_a   9.19913959
_cell_length_b   11.08311930
_cell_length_c   11.12104446
_cell_angle_alpha   93.55427620
_cell_angle_beta   104.71207415
_cell_angle_gamma   113.95768519
_symmetry_Int_Tables_number   1
_chemical_formula_structural   Dy11HoFe2Br17
_chemical_formula_sum   'Dy11 Ho1 Fe2 Br17'
_cell_volume   984.54810804
_cell_formula_units_Z   1
loop_
 _symmetry_equiv_pos_site_id
 _symmetry_equiv_pos_as_xyz
  1  'x, y, z'
loop_
 _atom_site_type_symbol
 _atom_site_label
 _atom_site_symmetry_multiplicity
 _atom_site_fract_x
 _atom_site_fract_y
 _atom_site_fract_z
 _atom_site_occupancy
  Dy  Dy0  1  0.058528  0.512850  0.320881  1
  Dy  Dy1  1  0.983662  0.808450  0.579952  1
  Dy  Dy2  1  0.647020  0.239165  0.285178  1
  Dy  Dy3  1  0.017269  0.190808  0.421463  1
  Dy  Dy4  1  0.226128  0.672677  0.990774  1
  Dy  Dy5  1  0.254725  0.986812  0.889469  1
  Dy  Dy6  1  0.355783  0.761169  0.714338  1
  Dy  Dy7  1  0.942786  0.488759  0.679529  1
  Dy  Dy8  1  0.743222  0.011630  0.110028  1
  Dy  Dy9  1  0.151848  0.288048  0.150600  1
  Dy  Dy10  1  0.772921  0.327908  0.007873  1
  Ho  Ho11  1  0.846276  0.711179  0.848946  1
  Fe  Fe12  1  0.103225  0.738409  0.785825  1
  Fe  Fe13  1  0.896907  0.261616  0.214268  1
  Br  Br14  1  0.790138  0.525210  0.420439  1
  Br  Br15  1  0.647395  0.422606  0.762771  1
  Br  Br16  1  0.848961  0.901424  0.328965  1
  Br  Br17  1  0.326905  0.215331  0.364905  1
  Br  Br18  1  0.152400  0.098615  0.670468  1
  Br  Br19  1  0.583377  0.051523  0.848802  1
  Br  Br20  1  0.762883  0.190132  0.536922  1
  Br  Br21  1  0.550195  0.712037  0.951774  1
  Br  Br22  1  0.352330  0.577986  0.237937  1
  Br  Br23  1  0.210165  0.474050  0.579624  1
  Br  Br24  1  0.056207  0.373035  0.901490  1
  Br  Br25  1  0.450630  0.287821  0.048352  1
  Br  Br26  1  0.998527  0.999418  0.999631  1
  Br  Br27  1  0.237082  0.809515  0.462736  1
  Br  Br28  1  0.416583  0.949442  0.151657  1
  Br  Br29  1  0.673357  0.785118  0.636075  1
  Br  Br30  1  0.942558  0.627256  0.098324  1
