# generated using pymatgen
data_Ta6Co6Os
_symmetry_space_group_name_H-M   'P 1'
_cell_length_a   4.88802251
_cell_length_b   4.88802160
_cell_length_c   9.30522277
_cell_angle_alpha   74.77266522
_cell_angle_beta   74.77267010
_cell_angle_gamma   59.99999274
_symmetry_Int_Tables_number   1
_chemical_formula_structural   Ta6Co6Os
_chemical_formula_sum   'Ta6 Co6 Os1'
_cell_volume   183.47270917
_cell_formula_units_Z   1
loop_
 _symmetry_equiv_pos_site_id
 _symmetry_equiv_pos_as_xyz
  1  'x, y, z'
loop_
 _atom_site_type_symbol
 _atom_site_label
 _atom_site_symmetry_multiplicity
 _atom_site_fract_x
 _atom_site_fract_y
 _atom_site_fract_z
 _atom_site_occupancy
  Ta  Ta0  1  0.164096  0.164096  0.507711  1
  Ta  Ta1  1  0.835904  0.835904  0.492289  1
  Ta  Ta2  1  0.344714  0.344714  0.965858  1
  Ta  Ta3  1  0.655286  0.655286  0.034142  1
  Ta  Ta4  1  0.449801  0.449801  0.650596  1
  Ta  Ta5  1  0.550199  0.550199  0.349404  1
  Co  Co6  1  0.586091  0.090608  0.232693  1
  Co  Co7  1  0.090608  0.090608  0.232693  1
  Co  Co8  1  0.090608  0.586091  0.232693  1
  Co  Co9  1  0.413909  0.909392  0.767307  1
  Co  Co10  1  0.909392  0.909392  0.767307  1
  Co  Co11  1  0.909392  0.413909  0.767307  1
  Os  Os12  1  0.000000  0.000000  0.000000  1
