# generated using pymatgen
data_Zr4Ni8(AsP)3
_symmetry_space_group_name_H-M   'P 1'
_cell_length_a   12.51908800
_cell_length_b   12.51908952
_cell_length_c   3.75163100
_cell_angle_alpha   90.00000000
_cell_angle_beta   90.00000000
_cell_angle_gamma   119.99999597
_symmetry_Int_Tables_number   1
_chemical_formula_structural   Zr4Ni8(AsP)3
_chemical_formula_sum   'Zr8 Ni16 As6 P6'
_cell_volume   509.20915412
_cell_formula_units_Z   2
loop_
 _symmetry_equiv_pos_site_id
 _symmetry_equiv_pos_as_xyz
  1  'x, y, z'
loop_
 _atom_site_type_symbol
 _atom_site_label
 _atom_site_symmetry_multiplicity
 _atom_site_fract_x
 _atom_site_fract_y
 _atom_site_fract_z
 _atom_site_occupancy
  Zr  Zr0  1  0.445820  0.445820  0.000000  1
  Zr  Zr1  1  0.554180  0.000000  0.000000  1
  Zr  Zr2  1  0.000000  0.554180  0.000000  1
  Zr  Zr3  1  0.666667  0.333333  0.000000  1
  Zr  Zr4  1  0.333333  0.666667  0.000000  1
  Zr  Zr5  1  0.825031  0.825031  0.500000  1
  Zr  Zr6  1  0.174969  0.000000  0.500000  1
  Zr  Zr7  1  0.000000  0.174969  0.500000  1
  Ni  Ni8  1  0.181016  0.358735  0.000000  1
  Ni  Ni9  1  0.177719  0.818984  0.000000  1
  Ni  Ni10  1  0.822281  0.641265  0.000000  1
  Ni  Ni11  1  0.818984  0.177719  0.000000  1
  Ni  Ni12  1  0.358735  0.181016  0.000000  1
  Ni  Ni13  1  0.115678  0.467670  0.500000  1
  Ni  Ni14  1  0.351992  0.884322  0.500000  1
  Ni  Ni15  1  0.532330  0.648008  0.500000  1
  Ni  Ni16  1  0.648008  0.532330  0.500000  1
  Ni  Ni17  1  0.884322  0.351992  0.500000  1
  Ni  Ni18  1  0.467670  0.115678  0.500000  1
  Ni  Ni19  1  0.000000  0.000000  0.000000  1
  Ni  Ni20  1  0.732171  0.000000  0.500000  1
  Ni  Ni21  1  0.000000  0.732171  0.500000  1
  Ni  Ni22  1  0.641265  0.822281  0.000000  1
  Ni  Ni23  1  0.267829  0.267829  0.500000  1
  As  As24  1  0.486327  0.311960  0.500000  1
  As  As25  1  0.688040  0.174366  0.500000  1
  As  As26  1  0.825634  0.513673  0.500000  1
  As  As27  1  0.513673  0.825634  0.500000  1
  As  As28  1  0.174366  0.688040  0.500000  1
  As  As29  1  0.311960  0.486327  0.500000  1
  P  P30  1  0.651229  0.651229  0.000000  1
  P  P31  1  0.348771  0.000000  0.000000  1
  P  P32  1  0.000000  0.348771  0.000000  1
  P  P33  1  0.826578  0.000000  0.000000  1
  P  P34  1  0.000000  0.826578  0.000000  1
  P  P35  1  0.173422  0.173422  0.000000  1
