# generated using pymatgen
data_BeNb5Co2(BRu2)4
_symmetry_space_group_name_H-M   'P 1'
_cell_length_a   9.17544000
_cell_length_b   9.17544000
_cell_length_c   3.00301900
_cell_angle_alpha   90.00000000
_cell_angle_beta   90.00000000
_cell_angle_gamma   90.00000000
_symmetry_Int_Tables_number   1
_chemical_formula_structural   BeNb5Co2(BRu2)4
_chemical_formula_sum   'Be1 Nb5 Co2 B4 Ru8'
_cell_volume   252.82026326
_cell_formula_units_Z   1
loop_
 _symmetry_equiv_pos_site_id
 _symmetry_equiv_pos_as_xyz
  1  'x, y, z'
loop_
 _atom_site_type_symbol
 _atom_site_label
 _atom_site_symmetry_multiplicity
 _atom_site_fract_x
 _atom_site_fract_y
 _atom_site_fract_z
 _atom_site_occupancy
  Be  Be0  1  0.500000  0.500000  0.000000  1
  Nb  Nb1  1  0.819155  0.673302  0.000000  1
  Nb  Nb2  1  0.180845  0.326698  0.000000  1
  Nb  Nb3  1  0.326698  0.819155  0.000000  1
  Nb  Nb4  1  0.673302  0.180845  0.000000  1
  Nb  Nb5  1  0.000000  0.000000  0.000000  1
  Co  Co6  1  0.500000  0.000000  0.500000  1
  Co  Co7  1  0.000000  0.500000  0.500000  1
  B  B8  1  0.605766  0.876043  0.000000  1
  B  B9  1  0.394234  0.123957  0.000000  1
  B  B10  1  0.123957  0.605766  0.000000  1
  B  B11  1  0.876043  0.394234  0.000000  1
  Ru  Ru12  1  0.561211  0.712819  0.500000  1
  Ru  Ru13  1  0.438789  0.287181  0.500000  1
  Ru  Ru14  1  0.066178  0.773352  0.500000  1
  Ru  Ru15  1  0.933822  0.226648  0.500000  1
  Ru  Ru16  1  0.287181  0.561211  0.500000  1
  Ru  Ru17  1  0.712819  0.438789  0.500000  1
  Ru  Ru18  1  0.226648  0.066178  0.500000  1
  Ru  Ru19  1  0.773352  0.933822  0.500000  1
