# generated using pymatgen
data_Pr6GaPBr6
_symmetry_space_group_name_H-M   'P 1'
_cell_length_a   10.47604242
_cell_length_b   10.47604348
_cell_length_c   10.50423301
_cell_angle_alpha   109.43534789
_cell_angle_beta   109.43535532
_cell_angle_gamma   109.43413927
_symmetry_Int_Tables_number   1
_chemical_formula_structural   Pr6GaPBr6
_chemical_formula_sum   'Pr12 Ga2 P2 Br12'
_cell_volume   888.62571537
_cell_formula_units_Z   2
loop_
 _symmetry_equiv_pos_site_id
 _symmetry_equiv_pos_as_xyz
  1  'x, y, z'
loop_
 _atom_site_type_symbol
 _atom_site_label
 _atom_site_symmetry_multiplicity
 _atom_site_fract_x
 _atom_site_fract_y
 _atom_site_fract_z
 _atom_site_occupancy
  Pr  Pr0  1  0.476510  0.492868  0.235369  1
  Pr  Pr1  1  0.757500  0.241141  0.264631  1
  Pr  Pr2  1  0.757506  0.015130  0.492279  1
  Pr  Pr3  1  0.234773  0.477148  0.492279  1
  Pr  Pr4  1  0.258859  0.742500  0.235369  1
  Pr  Pr5  1  0.022852  0.265227  0.007721  1
  Pr  Pr6  1  0.007132  0.023490  0.264631  1
  Pr  Pr7  1  0.484870  0.742494  0.007721  1
  Pr  Pr8  1  0.492105  0.242105  0.484209  1
  Pr  Pr9  1  0.015674  0.484326  0.750000  1
  Pr  Pr10  1  0.257895  0.007895  0.015791  1
  Pr  Pr11  1  0.234326  0.265674  0.750000  1
  Ga  Ga12  1  0.249884  0.250116  0.250000  1
  Ga  Ga13  1  0.500116  0.999884  0.250000  1
  P  P14  1  0.000122  0.250122  0.500244  1
  P  P15  1  0.249878  0.499878  0.999756  1
  Br  Br16  1  0.249568  0.753348  0.744987  1
  Br  Br17  1  0.508359  0.504580  0.755013  1
  Br  Br18  1  0.989636  0.743103  0.994351  1
  Br  Br19  1  0.746652  0.250432  0.755013  1
  Br  Br20  1  0.995420  0.991641  0.744987  1
  Br  Br21  1  0.248752  0.995284  0.505649  1
  Br  Br22  1  0.756897  0.510364  0.505649  1
  Br  Br23  1  0.504716  0.251248  0.994351  1
  Br  Br24  1  0.755148  0.744852  0.250000  1
  Br  Br25  1  0.745187  0.995187  0.990376  1
  Br  Br26  1  0.994852  0.505148  0.250000  1
  Br  Br27  1  0.504813  0.754813  0.509624  1
