# generated using pymatgen
data_ZrCl30
_symmetry_space_group_name_H-M   'P 1'
_cell_length_a   13.44930675
_cell_length_b   13.44930796
_cell_length_c   16.01010347
_cell_angle_alpha   83.60254428
_cell_angle_beta   83.60254279
_cell_angle_gamma   124.35454414
_symmetry_Int_Tables_number   1
_chemical_formula_structural   ZrCl30
_chemical_formula_sum   'Zr1 Cl30'
_cell_volume   2321.67238419
_cell_formula_units_Z   1
loop_
 _symmetry_equiv_pos_site_id
 _symmetry_equiv_pos_as_xyz
  1  'x, y, z'
loop_
 _atom_site_type_symbol
 _atom_site_label
 _atom_site_symmetry_multiplicity
 _atom_site_fract_x
 _atom_site_fract_y
 _atom_site_fract_z
 _atom_site_occupancy
  Zr  Zr0  1  0.000000  0.000000  0.000000  1
  Cl  Cl1  1  0.940157  0.940157  0.164420  1
  Cl  Cl2  1  0.059843  0.059843  0.835580  1
  Cl  Cl3  1  0.063107  0.208769  0.005650  1
  Cl  Cl4  1  0.936893  0.791231  0.994350  1
  Cl  Cl5  1  0.208769  0.063107  0.005650  1
  Cl  Cl6  1  0.791231  0.936893  0.994350  1
  Cl  Cl7  1  0.202049  0.742347  0.063943  1
  Cl  Cl8  1  0.797951  0.257653  0.936057  1
  Cl  Cl9  1  0.701166  0.078579  0.259751  1
  Cl  Cl10  1  0.257653  0.797951  0.936057  1
  Cl  Cl11  1  0.298834  0.921421  0.740249  1
  Cl  Cl12  1  0.742347  0.202049  0.063943  1
  Cl  Cl13  1  0.982439  0.196315  0.777349  1
  Cl  Cl14  1  0.921421  0.298834  0.740249  1
  Cl  Cl15  1  0.017561  0.803685  0.222651  1
  Cl  Cl16  1  0.078579  0.701166  0.259751  1
  Cl  Cl17  1  0.803685  0.017561  0.222651  1
  Cl  Cl18  1  0.196315  0.982439  0.777349  1
  Cl  Cl19  1  0.464782  0.548472  0.260312  1
  Cl  Cl20  1  0.535218  0.451528  0.739688  1
  Cl  Cl21  1  0.507742  0.205862  0.450903  1
  Cl  Cl22  1  0.451528  0.535218  0.739688  1
  Cl  Cl23  1  0.492258  0.794138  0.549097  1
  Cl  Cl24  1  0.548472  0.464782  0.260312  1
  Cl  Cl25  1  0.239348  0.428254  0.545356  1
  Cl  Cl26  1  0.794138  0.492258  0.549097  1
  Cl  Cl27  1  0.760652  0.571746  0.454644  1
  Cl  Cl28  1  0.205862  0.507742  0.450903  1
  Cl  Cl29  1  0.571746  0.760652  0.454644  1
  Cl  Cl30  1  0.428254  0.239348  0.545356  1
