# generated using pymatgen
data_Nd4YIr2Rh
_symmetry_space_group_name_H-M   'P 1'
_cell_length_a   11.18196700
_cell_length_b   11.18196700
_cell_length_c   6.57762300
_cell_angle_alpha   90.00000000
_cell_angle_beta   90.00000000
_cell_angle_gamma   90.00000000
_symmetry_Int_Tables_number   1
_chemical_formula_structural   Nd4YIr2Rh
_chemical_formula_sum   'Nd16 Y4 Ir8 Rh4'
_cell_volume   822.44220832
_cell_formula_units_Z   4
loop_
 _symmetry_equiv_pos_site_id
 _symmetry_equiv_pos_as_xyz
  1  'x, y, z'
loop_
 _atom_site_type_symbol
 _atom_site_label
 _atom_site_symmetry_multiplicity
 _atom_site_fract_x
 _atom_site_fract_y
 _atom_site_fract_z
 _atom_site_occupancy
  Nd  Nd0  1  0.288873  0.088266  0.382716  1
  Nd  Nd1  1  0.288873  0.911734  0.882716  1
  Nd  Nd2  1  0.711127  0.088266  0.882716  1
  Nd  Nd3  1  0.711127  0.911734  0.382716  1
  Nd  Nd4  1  0.588266  0.788873  0.882716  1
  Nd  Nd5  1  0.588266  0.211127  0.382716  1
  Nd  Nd6  1  0.411734  0.788873  0.382716  1
  Nd  Nd7  1  0.411734  0.211127  0.882716  1
  Nd  Nd8  1  0.211127  0.411734  0.617284  1
  Nd  Nd9  1  0.211127  0.588266  0.117284  1
  Nd  Nd10  1  0.788873  0.411734  0.117284  1
  Nd  Nd11  1  0.788873  0.588266  0.617284  1
  Nd  Nd12  1  0.911734  0.711127  0.117284  1
  Nd  Nd13  1  0.911734  0.288873  0.617284  1
  Nd  Nd14  1  0.088266  0.711127  0.617284  1
  Nd  Nd15  1  0.088266  0.288873  0.117284  1
  Y  Y16  1  0.000000  0.000000  0.500000  1
  Y  Y17  1  0.000000  0.000000  0.000000  1
  Y  Y18  1  0.500000  0.500000  0.000000  1
  Y  Y19  1  0.500000  0.500000  0.500000  1
  Ir  Ir20  1  0.849200  0.150800  0.250000  1
  Ir  Ir21  1  0.849200  0.849200  0.750000  1
  Ir  Ir22  1  0.150800  0.150800  0.750000  1
  Ir  Ir23  1  0.150800  0.849200  0.250000  1
  Ir  Ir24  1  0.650800  0.349200  0.750000  1
  Ir  Ir25  1  0.650800  0.650800  0.250000  1
  Ir  Ir26  1  0.349200  0.349200  0.250000  1
  Ir  Ir27  1  0.349200  0.650800  0.750000  1
  Rh  Rh28  1  0.500000  0.000000  0.120558  1
  Rh  Rh29  1  0.500000  0.000000  0.620558  1
  Rh  Rh30  1  0.000000  0.500000  0.879442  1
  Rh  Rh31  1  0.000000  0.500000  0.379442  1
