# generated using pymatgen
data_KUBiSe4
_symmetry_space_group_name_H-M   'P 1'
_cell_length_a   4.26775900
_cell_length_b   8.41830892
_cell_length_c   7.20638920
_cell_angle_alpha   72.27876793
_cell_angle_beta   90.00000000
_cell_angle_gamma   90.00000681
_symmetry_Int_Tables_number   1
_chemical_formula_structural   KUBiSe4
_chemical_formula_sum   'K1 U1 Bi1 Se4'
_cell_volume   246.62078211
_cell_formula_units_Z   1
loop_
 _symmetry_equiv_pos_site_id
 _symmetry_equiv_pos_as_xyz
  1  'x, y, z'
loop_
 _atom_site_type_symbol
 _atom_site_label
 _atom_site_symmetry_multiplicity
 _atom_site_fract_x
 _atom_site_fract_y
 _atom_site_fract_z
 _atom_site_occupancy
  K  K0  1  0.500000  0.490902  0.667618  1
  U  U1  1  0.500000  0.009577  0.498053  1
  Bi  Bi2  1  0.000000  0.991422  0.002023  1
  Se  Se3  1  0.000000  0.807554  0.423375  1
  Se  Se4  1  0.500000  0.799205  0.884503  1
  Se  Se5  1  0.000000  0.203887  0.587791  1
  Se  Se6  1  0.500000  0.196574  0.103597  1
