# generated using pymatgen
data_Lu2Al9ZnOs2
_symmetry_space_group_name_H-M   'P 1'
_cell_length_a   7.59233472
_cell_length_b   7.59233487
_cell_length_c   9.44051900
_cell_angle_alpha   90.00000000
_cell_angle_beta   90.00000000
_cell_angle_gamma   119.70139454
_symmetry_Int_Tables_number   1
_chemical_formula_structural   Lu2Al9ZnOs2
_chemical_formula_sum   'Lu4 Al18 Zn2 Os4'
_cell_volume   472.68968360
_cell_formula_units_Z   2
loop_
 _symmetry_equiv_pos_site_id
 _symmetry_equiv_pos_as_xyz
  1  'x, y, z'
loop_
 _atom_site_type_symbol
 _atom_site_label
 _atom_site_symmetry_multiplicity
 _atom_site_fract_x
 _atom_site_fract_y
 _atom_site_fract_z
 _atom_site_occupancy
  Lu  Lu0  1  0.996362  0.673145  0.250000  1
  Lu  Lu1  1  0.003638  0.326855  0.750000  1
  Lu  Lu2  1  0.673145  0.996362  0.250000  1
  Lu  Lu3  1  0.326855  0.003638  0.750000  1
  Al  Al4  1  0.134965  0.134965  0.250000  1
  Al  Al5  1  0.865035  0.865035  0.750000  1
  Al  Al6  1  0.000189  0.345023  0.076822  1
  Al  Al7  1  0.999811  0.654977  0.923178  1
  Al  Al8  1  0.999811  0.654977  0.576822  1
  Al  Al9  1  0.345023  0.000189  0.423178  1
  Al  Al10  1  0.000189  0.345023  0.423178  1
  Al  Al11  1  0.654977  0.999811  0.576822  1
  Al  Al12  1  0.654977  0.999811  0.923178  1
  Al  Al13  1  0.345023  0.000189  0.076822  1
  Al  Al14  1  0.343211  0.343211  0.558197  1
  Al  Al15  1  0.656789  0.656789  0.441803  1
  Al  Al16  1  0.656789  0.656789  0.058197  1
  Al  Al17  1  0.343211  0.343211  0.941803  1
  Al  Al18  1  0.335646  0.550778  0.250000  1
  Al  Al19  1  0.664354  0.449222  0.750000  1
  Al  Al20  1  0.550778  0.335646  0.250000  1
  Al  Al21  1  0.449222  0.664354  0.750000  1
  Zn  Zn22  1  0.000000  0.000000  0.000000  1
  Zn  Zn23  1  0.000000  0.000000  0.500000  1
  Os  Os24  1  0.671780  0.328220  0.000000  1
  Os  Os25  1  0.328220  0.671780  0.000000  1
  Os  Os26  1  0.328220  0.671780  0.500000  1
  Os  Os27  1  0.671780  0.328220  0.500000  1
