# generated using pymatgen
data_Rb(ZrSe3)2
_symmetry_space_group_name_H-M   'P 1'
_cell_length_a   11.86646154
_cell_length_b   11.86646223
_cell_length_c   11.86646091
_cell_angle_alpha   161.26246471
_cell_angle_beta   153.78649623
_cell_angle_gamma   32.41855756
_symmetry_Int_Tables_number   1
_chemical_formula_structural   Rb(ZrSe3)2
_chemical_formula_sum   'Rb1 Zr2 Se6'
_cell_volume   236.92354342
_cell_formula_units_Z   1
loop_
 _symmetry_equiv_pos_site_id
 _symmetry_equiv_pos_as_xyz
  1  'x, y, z'
loop_
 _atom_site_type_symbol
 _atom_site_label
 _atom_site_symmetry_multiplicity
 _atom_site_fract_x
 _atom_site_fract_y
 _atom_site_fract_z
 _atom_site_occupancy
  Rb  Rb0  1  0.000000  0.000000  0.000000  1
  Zr  Zr1  1  0.317702  0.817702  0.500000  1
  Zr  Zr2  1  0.682298  0.182298  0.500000  1
  Se  Se3  1  0.769387  0.769387  0.000000  1
  Se  Se4  1  0.861154  0.614648  0.246506  1
  Se  Se5  1  0.138846  0.385352  0.753494  1
  Se  Se6  1  0.230613  0.230613  0.000000  1
  Se  Se7  1  0.368141  0.614648  0.753494  1
  Se  Se8  1  0.631859  0.385352  0.246506  1
