# generated using pymatgen
data_Dy4HoIrRu
_symmetry_space_group_name_H-M   'P 1'
_cell_length_a   6.39850371
_cell_length_b   7.28352151
_cell_length_c   8.49723915
_cell_angle_alpha   96.79082310
_cell_angle_beta   112.11735747
_cell_angle_gamma   89.99999815
_symmetry_Int_Tables_number   1
_chemical_formula_structural   Dy4HoIrRu
_chemical_formula_sum   'Dy8 Ho2 Ir2 Ru2'
_cell_volume   363.86169718
_cell_formula_units_Z   2
loop_
 _symmetry_equiv_pos_site_id
 _symmetry_equiv_pos_as_xyz
  1  'x, y, z'
loop_
 _atom_site_type_symbol
 _atom_site_label
 _atom_site_symmetry_multiplicity
 _atom_site_fract_x
 _atom_site_fract_y
 _atom_site_fract_z
 _atom_site_occupancy
  Dy  Dy0  1  0.978673  0.917576  0.186050  1
  Dy  Dy1  1  0.792622  0.582424  0.813950  1
  Dy  Dy2  1  0.024156  0.085009  0.814963  1
  Dy  Dy3  1  0.209192  0.414991  0.185037  1
  Dy  Dy4  1  0.642572  0.816131  0.435156  1
  Dy  Dy5  1  0.207416  0.683869  0.564844  1
  Dy  Dy6  1  0.355546  0.186007  0.563211  1
  Dy  Dy7  1  0.792335  0.313993  0.436789  1
  Ho  Ho8  1  0.422830  0.750000  0.000000  1
  Ho  Ho9  1  0.576173  0.250000  0.000000  1
  Ir  Ir10  1  0.823340  0.576698  0.221043  1
  Ir  Ir11  1  0.602299  0.923302  0.778957  1
  Ru  Ru12  1  0.176151  0.424998  0.779457  1
  Ru  Ru13  1  0.396694  0.075002  0.220543  1
