# generated using pymatgen
data_Ho2RhPbAu
_symmetry_space_group_name_H-M   'P 1'
_cell_length_a   8.04731200
_cell_length_b   7.92462100
_cell_length_c   3.59507000
_cell_angle_alpha   90.00000000
_cell_angle_beta   90.00000000
_cell_angle_gamma   90.00000000
_symmetry_Int_Tables_number   1
_chemical_formula_structural   Ho2RhPbAu
_chemical_formula_sum   'Ho4 Rh2 Pb2 Au2'
_cell_volume   229.26443615
_cell_formula_units_Z   2
loop_
 _symmetry_equiv_pos_site_id
 _symmetry_equiv_pos_as_xyz
  1  'x, y, z'
loop_
 _atom_site_type_symbol
 _atom_site_label
 _atom_site_symmetry_multiplicity
 _atom_site_fract_x
 _atom_site_fract_y
 _atom_site_fract_z
 _atom_site_occupancy
  Ho  Ho0  1  0.685031  0.165659  0.500000  1
  Ho  Ho1  1  0.141854  0.327641  0.500000  1
  Ho  Ho2  1  0.814969  0.665659  0.500000  1
  Ho  Ho3  1  0.358146  0.827641  0.500000  1
  Rh  Rh4  1  0.628698  0.874263  0.000000  1
  Rh  Rh5  1  0.871302  0.374263  0.000000  1
  Pb  Pb6  1  0.993073  0.000725  0.000000  1
  Pb  Pb7  1  0.506927  0.500725  0.000000  1
  Au  Au8  1  0.377224  0.131710  0.000000  1
  Au  Au9  1  0.122776  0.631710  0.000000  1
