# generated using pymatgen
data_La3PS3
_symmetry_space_group_name_H-M   'P 1'
_cell_length_a   8.78509000
_cell_length_b   8.78509000
_cell_length_c   8.78509000
_cell_angle_alpha   90.00000000
_cell_angle_beta   90.00000000
_cell_angle_gamma   90.00000000
_symmetry_Int_Tables_number   1
_chemical_formula_structural   La3PS3
_chemical_formula_sum   'La12 P4 S12'
_cell_volume   678.01397442
_cell_formula_units_Z   4
loop_
 _symmetry_equiv_pos_site_id
 _symmetry_equiv_pos_as_xyz
  1  'x, y, z'
loop_
 _atom_site_type_symbol
 _atom_site_label
 _atom_site_symmetry_multiplicity
 _atom_site_fract_x
 _atom_site_fract_y
 _atom_site_fract_z
 _atom_site_occupancy
  La  La0  1  0.622027  0.501236  0.250589  1
  La  La1  1  0.249411  0.377973  0.001236  1
  La  La2  1  0.001236  0.249411  0.377973  1
  La  La3  1  0.377973  0.001236  0.249411  1
  La  La4  1  0.749411  0.122027  0.998764  1
  La  La5  1  0.122027  0.998764  0.749411  1
  La  La6  1  0.501236  0.250589  0.622027  1
  La  La7  1  0.750589  0.877973  0.498764  1
  La  La8  1  0.498764  0.750589  0.877973  1
  La  La9  1  0.877973  0.498764  0.750589  1
  La  La10  1  0.250589  0.622027  0.501236  1
  La  La11  1  0.998764  0.749411  0.122027  1
  P  P12  1  0.326164  0.326164  0.326164  1
  P  P13  1  0.826164  0.173836  0.673836  1
  P  P14  1  0.673836  0.826164  0.173836  1
  P  P15  1  0.173836  0.673836  0.826164  1
  S  S16  1  0.573617  0.426383  0.926383  1
  S  S17  1  0.175088  0.324912  0.675088  1
  S  S18  1  0.923855  0.423855  0.076145  1
  S  S19  1  0.073617  0.073617  0.073617  1
  S  S20  1  0.423855  0.076145  0.923855  1
  S  S21  1  0.076145  0.923855  0.423855  1
  S  S22  1  0.675088  0.175088  0.324912  1
  S  S23  1  0.426383  0.926383  0.573617  1
  S  S24  1  0.576145  0.576145  0.576145  1
  S  S25  1  0.926383  0.573617  0.426383  1
  S  S26  1  0.324912  0.675088  0.175088  1
  S  S27  1  0.824912  0.824912  0.824912  1
