# generated using pymatgen
data_K6TmInSb4
_symmetry_space_group_name_H-M   'P 1'
_cell_length_a   9.87452756
_cell_length_b   9.87452612
_cell_length_c   9.87452596
_cell_angle_alpha   129.21921254
_cell_angle_beta   68.62519200
_cell_angle_gamma   137.06931605
_symmetry_Int_Tables_number   1
_chemical_formula_structural   K6TmInSb4
_chemical_formula_sum   'K6 Tm1 In1 Sb4'
_cell_volume   499.13909442
_cell_formula_units_Z   1
loop_
 _symmetry_equiv_pos_site_id
 _symmetry_equiv_pos_as_xyz
  1  'x, y, z'
loop_
 _atom_site_type_symbol
 _atom_site_label
 _atom_site_symmetry_multiplicity
 _atom_site_fract_x
 _atom_site_fract_y
 _atom_site_fract_z
 _atom_site_occupancy
  K  K0  1  0.324388  0.699858  0.005328  1
  K  K1  1  0.175611  0.180939  0.375471  1
  K  K2  1  0.750000  0.250000  0.500000  1
  K  K3  1  0.250000  0.750000  0.500001  1
  K  K4  1  0.805469  0.800142  0.624530  1
  K  K5  1  0.694530  0.319061  0.994672  1
  Tm  Tm6  1  0.250000  0.250000  0.000000  1
  In  In7  1  0.750001  0.750001  0.000000  1
  Sb  Sb8  1  0.892731  0.195225  0.095387  1
  Sb  Sb9  1  0.607268  0.702656  0.302494  1
  Sb  Sb10  1  0.400160  0.304774  0.697507  1
  Sb  Sb11  1  0.099840  0.797344  0.904612  1
