# generated using pymatgen
data_Ce2DyY3(Al3Ru)8
_symmetry_space_group_name_H-M   'P 1'
_cell_length_a   8.82581785
_cell_length_b   8.81739964
_cell_length_c   9.56402700
_cell_angle_alpha   90.00000000
_cell_angle_beta   90.00000000
_cell_angle_gamma   119.96845865
_symmetry_Int_Tables_number   1
_chemical_formula_structural   Ce2DyY3(Al3Ru)8
_chemical_formula_sum   'Ce2 Dy1 Y3 Al24 Ru8'
_cell_volume   644.77004859
_cell_formula_units_Z   1
loop_
 _symmetry_equiv_pos_site_id
 _symmetry_equiv_pos_as_xyz
  1  'x, y, z'
loop_
 _atom_site_type_symbol
 _atom_site_label
 _atom_site_symmetry_multiplicity
 _atom_site_fract_x
 _atom_site_fract_y
 _atom_site_fract_z
 _atom_site_occupancy
  Ce  Ce0  1  0.191908  0.802716  0.250000  1
  Ce  Ce1  1  0.191908  0.389193  0.250000  1
  Dy  Dy2  1  0.613241  0.806621  0.250000  1
  Y  Y3  1  0.807722  0.192143  0.750000  1
  Y  Y4  1  0.807722  0.615578  0.750000  1
  Y  Y5  1  0.386831  0.193415  0.750000  1
  Al  Al6  1  0.562066  0.438787  0.250000  1
  Al  Al7  1  0.562066  0.123279  0.250000  1
  Al  Al8  1  0.870635  0.435317  0.250000  1
  Al  Al9  1  0.440554  0.560894  0.750000  1
  Al  Al10  1  0.440554  0.879659  0.750000  1
  Al  Al11  1  0.120201  0.560101  0.750000  1
  Al  Al12  1  0.325020  0.162510  0.423407  1
  Al  Al13  1  0.835652  0.161341  0.424055  1
  Al  Al14  1  0.835652  0.674310  0.424055  1
  Al  Al15  1  0.675497  0.837748  0.578029  1
  Al  Al16  1  0.162648  0.837817  0.578488  1
  Al  Al17  1  0.162648  0.324830  0.578488  1
  Al  Al18  1  0.675497  0.837748  0.921971  1
  Al  Al19  1  0.162648  0.837817  0.921512  1
  Al  Al20  1  0.162648  0.324830  0.921512  1
  Al  Al21  1  0.325020  0.162510  0.076593  1
  Al  Al22  1  0.835652  0.161341  0.075945  1
  Al  Al23  1  0.835652  0.674310  0.075945  1
  Al  Al24  1  0.667273  0.333636  0.517395  1
  Al  Al25  1  0.336555  0.668278  0.491070  1
  Al  Al26  1  0.336555  0.668278  0.008930  1
  Al  Al27  1  0.667273  0.333636  0.982605  1
  Al  Al28  1  0.999039  0.999520  0.250000  1
  Al  Al29  1  0.001765  0.000883  0.750000  1
  Ru  Ru30  1  0.999306  0.999653  0.500622  1
  Ru  Ru31  1  0.999306  0.999653  0.999378  1
  Ru  Ru32  1  0.499423  0.499821  0.498691  1
  Ru  Ru33  1  0.499423  0.999604  0.498691  1
  Ru  Ru34  1  0.002797  0.501399  0.496320  1
  Ru  Ru35  1  0.499423  0.499821  0.001309  1
  Ru  Ru36  1  0.499423  0.999604  0.001309  1
  Ru  Ru37  1  0.002797  0.501399  0.003680  1
