# generated using pymatgen
data_Ho4Al18(PdRh)3
_symmetry_space_group_name_H-M   'P 1'
_cell_length_a   7.59765027
_cell_length_b   7.59764962
_cell_length_c   9.43373221
_cell_angle_alpha   90.01215370
_cell_angle_beta   90.01215342
_cell_angle_gamma   119.60216501
_symmetry_Int_Tables_number   1
_chemical_formula_structural   Ho4Al18(PdRh)3
_chemical_formula_sum   'Ho4 Al18 Pd3 Rh3'
_cell_volume   473.47799092
_cell_formula_units_Z   1
loop_
 _symmetry_equiv_pos_site_id
 _symmetry_equiv_pos_as_xyz
  1  'x, y, z'
loop_
 _atom_site_type_symbol
 _atom_site_label
 _atom_site_symmetry_multiplicity
 _atom_site_fract_x
 _atom_site_fract_y
 _atom_site_fract_z
 _atom_site_occupancy
  Ho  Ho0  1  0.996372  0.669724  0.249824  1
  Ho  Ho1  1  0.005649  0.331509  0.750042  1
  Ho  Ho2  1  0.668491  0.994351  0.249958  1
  Ho  Ho3  1  0.330276  0.003628  0.750176  1
  Al  Al4  1  0.124846  0.125799  0.249299  1
  Al  Al5  1  0.874201  0.875154  0.750701  1
  Al  Al6  1  0.995676  0.330600  0.075010  1
  Al  Al7  1  0.996544  0.665070  0.924984  1
  Al  Al8  1  0.999179  0.669212  0.576934  1
  Al  Al9  1  0.330788  0.000821  0.423066  1
  Al  Al10  1  0.000103  0.330896  0.423607  1
  Al  Al11  1  0.669104  0.999897  0.576393  1
  Al  Al12  1  0.669400  0.004324  0.924990  1
  Al  Al13  1  0.334930  0.003456  0.075016  1
  Al  Al14  1  0.330321  0.330223  0.556300  1
  Al  Al15  1  0.669777  0.669680  0.443700  1
  Al  Al16  1  0.670929  0.667693  0.052905  1
  Al  Al17  1  0.332308  0.329071  0.947095  1
  Al  Al18  1  0.339932  0.545655  0.249273  1
  Al  Al19  1  0.659283  0.451265  0.753286  1
  Al  Al20  1  0.548735  0.340717  0.246714  1
  Al  Al21  1  0.454345  0.660068  0.750727  1
  Pd  Pd22  1  0.327198  0.672802  0.000000  1
  Pd  Pd23  1  0.327410  0.672590  0.500000  1
  Pd  Pd24  1  0.672040  0.327960  0.500000  1
  Rh  Rh25  1  0.672078  0.327922  0.000000  1
  Rh  Rh26  1  0.000204  0.999796  0.000000  1
  Rh  Rh27  1  0.999882  0.000118  0.500000  1
