# generated using pymatgen
data_DyLu(Si2Rh3)2
_symmetry_space_group_name_H-M   'P 1'
_cell_length_a   6.61040229
_cell_length_b   6.61040241
_cell_length_c   6.61040136
_cell_angle_alpha   130.47823023
_cell_angle_beta   113.97783010
_cell_angle_gamma   86.81602298
_symmetry_Int_Tables_number   1
_chemical_formula_structural   DyLu(Si2Rh3)2
_chemical_formula_sum   'Dy1 Lu1 Si4 Rh6'
_cell_volume   191.53346742
_cell_formula_units_Z   1
loop_
 _symmetry_equiv_pos_site_id
 _symmetry_equiv_pos_as_xyz
  1  'x, y, z'
loop_
 _atom_site_type_symbol
 _atom_site_label
 _atom_site_symmetry_multiplicity
 _atom_site_fract_x
 _atom_site_fract_y
 _atom_site_fract_z
 _atom_site_occupancy
  Dy  Dy0  1  0.250000  0.956730  0.706730  1
  Lu  Lu1  1  0.750000  0.052254  0.302254  1
  Si  Si2  1  0.578356  0.385422  0.807067  1
  Si  Si3  1  0.921644  0.728711  0.807067  1
  Si  Si4  1  0.420916  0.614568  0.193651  1
  Si  Si5  1  0.079084  0.272734  0.193651  1
  Rh  Rh6  1  0.211567  0.494984  0.710485  1
  Rh  Rh7  1  0.784499  0.494984  0.283416  1
  Rh  Rh8  1  0.501667  0.500889  0.502556  1
  Rh  Rh9  1  0.998333  0.500889  0.999223  1
  Rh  Rh10  1  0.715501  0.998918  0.710485  1
  Rh  Rh11  1  0.288433  0.998918  0.283416  1
