# generated using pymatgen
data_Zr4Ti4P3S
_symmetry_space_group_name_H-M   'P 1'
_cell_length_a   6.71802323
_cell_length_b   3.52529300
_cell_length_c   8.20010700
_cell_angle_alpha   90.00000000
_cell_angle_beta   89.58499146
_cell_angle_gamma   90.00000000
_symmetry_Int_Tables_number   1
_chemical_formula_structural   Zr4Ti4P3S
_chemical_formula_sum   'Zr4 Ti4 P3 S1'
_cell_volume   194.19804185
_cell_formula_units_Z   1
loop_
 _symmetry_equiv_pos_site_id
 _symmetry_equiv_pos_as_xyz
  1  'x, y, z'
loop_
 _atom_site_type_symbol
 _atom_site_label
 _atom_site_symmetry_multiplicity
 _atom_site_fract_x
 _atom_site_fract_y
 _atom_site_fract_z
 _atom_site_occupancy
  Zr  Zr0  1  0.962765  0.750001  0.170534  1
  Zr  Zr1  1  0.464863  0.750001  0.330171  1
  Zr  Zr2  1  0.536952  0.250000  0.670376  1
  Zr  Zr3  1  0.034764  0.250000  0.827607  1
  Ti  Ti4  1  0.635613  0.250000  0.061128  1
  Ti  Ti5  1  0.136990  0.250000  0.438038  1
  Ti  Ti6  1  0.865929  0.750001  0.560289  1
  Ti  Ti7  1  0.361792  0.750001  0.941196  1
  P  P8  1  0.762457  0.250000  0.362856  1
  P  P9  1  0.238438  0.750001  0.636933  1
  P  P10  1  0.735073  0.750001  0.862262  1
  S  S11  1  0.264364  0.250000  0.138606  1
