# generated using pymatgen
data_Nd18Pa2Ir15Rh
_symmetry_space_group_name_H-M   'P 1'
_cell_length_a   7.63760551
_cell_length_b   7.67596730
_cell_length_c   14.91938766
_cell_angle_alpha   90.32110873
_cell_angle_beta   89.99257887
_cell_angle_gamma   90.07134442
_symmetry_Int_Tables_number   1
_chemical_formula_structural   Nd18Pa2Ir15Rh
_chemical_formula_sum   'Nd18 Pa2 Ir15 Rh1'
_cell_volume   874.64975146
_cell_formula_units_Z   1
loop_
 _symmetry_equiv_pos_site_id
 _symmetry_equiv_pos_as_xyz
  1  'x, y, z'
loop_
 _atom_site_type_symbol
 _atom_site_label
 _atom_site_symmetry_multiplicity
 _atom_site_fract_x
 _atom_site_fract_y
 _atom_site_fract_z
 _atom_site_occupancy
  Nd  Nd0  1  0.340560  0.832157  0.120312  1
  Nd  Nd1  1  0.839551  0.668219  0.379313  1
  Nd  Nd2  1  0.339129  0.832179  0.378750  1
  Nd  Nd3  1  0.838251  0.668200  0.121604  1
  Nd  Nd4  1  0.659612  0.166810  0.879013  1
  Nd  Nd5  1  0.159566  0.333124  0.621154  1
  Nd  Nd6  1  0.514219  0.681869  0.593608  1
  Nd  Nd7  1  0.014119  0.818178  0.906420  1
  Nd  Nd8  1  0.488216  0.316483  0.094884  1
  Nd  Nd9  1  0.990053  0.182975  0.405731  1
  Nd  Nd10  1  0.485883  0.321223  0.407905  1
  Nd  Nd11  1  0.987893  0.178192  0.091331  1
  Nd  Nd12  1  0.511209  0.680457  0.907429  1
  Nd  Nd13  1  0.011117  0.819653  0.592437  1
  Nd  Nd14  1  0.820783  0.514019  0.749741  1
  Nd  Nd15  1  0.320823  0.986116  0.750290  1
  Nd  Nd16  1  0.175121  0.491810  0.249592  1
  Nd  Nd17  1  0.674163  0.008739  0.250380  1
  Pa  Pa18  1  0.658846  0.161080  0.625007  1
  Pa  Pa19  1  0.158934  0.338977  0.874805  1
  Ir  Ir20  1  0.689936  0.975355  0.472343  1
  Ir  Ir21  1  0.189279  0.525037  0.027511  1
  Ir  Ir22  1  0.302402  0.059237  0.957078  1
  Ir  Ir23  1  0.802713  0.440554  0.542805  1
  Ir  Ir24  1  0.341833  0.033290  0.547461  1
  Ir  Ir25  1  0.842033  0.466586  0.952756  1
  Ir  Ir26  1  0.668861  0.968369  0.042533  1
  Ir  Ir27  1  0.167689  0.531891  0.457555  1
  Ir  Ir28  1  0.458851  0.374515  0.748083  1
  Ir  Ir29  1  0.958542  0.125448  0.751941  1
  Ir  Ir30  1  0.543812  0.601018  0.251096  1
  Ir  Ir31  1  0.043874  0.900442  0.248961  1
  Ir  Ir32  1  0.701545  0.878991  0.740818  1
  Ir  Ir33  1  0.201520  0.620963  0.759275  1
  Ir  Ir34  1  0.298721  0.139238  0.250315  1
  Rh  Rh35  1  0.800342  0.358608  0.249764  1
