# generated using pymatgen
data_YbCr3TcC4
_symmetry_space_group_name_H-M   'P 1'
_cell_length_a   5.82605934
_cell_length_b   5.82605889
_cell_length_c   5.70821642
_cell_angle_alpha   94.20830961
_cell_angle_beta   95.09378253
_cell_angle_gamma   147.25764248
_symmetry_Int_Tables_number   1
_chemical_formula_structural   YbCr3TcC4
_chemical_formula_sum   'Yb1 Cr3 Tc1 C4'
_cell_volume   100.36065735
_cell_formula_units_Z   1
loop_
 _symmetry_equiv_pos_site_id
 _symmetry_equiv_pos_as_xyz
  1  'x, y, z'
loop_
 _atom_site_type_symbol
 _atom_site_label
 _atom_site_symmetry_multiplicity
 _atom_site_fract_x
 _atom_site_fract_y
 _atom_site_fract_z
 _atom_site_occupancy
  Yb  Yb0  1  0.998572  0.998533  0.997105  1
  Cr  Cr1  1  0.636340  0.821335  0.457674  1
  Cr  Cr2  1  0.362103  0.184212  0.546315  1
  Cr  Cr3  1  0.179455  0.632545  0.811999  1
  Tc  Tc4  1  0.825230  0.370665  0.195894  1
  C  C5  1  0.405164  0.738284  0.143448  1
  C  C6  1  0.748892  0.609654  0.358544  1
  C  C7  1  0.248467  0.399789  0.648256  1
  C  C8  1  0.595782  0.244987  0.840769  1
