# generated using pymatgen
data_Zr2(Ti2Sb3)3
_symmetry_space_group_name_H-M   'P 1'
_cell_length_a   10.14833500
_cell_length_b   10.14833500
_cell_length_c   7.26298900
_cell_angle_alpha   90.00000000
_cell_angle_beta   90.00000000
_cell_angle_gamma   90.00000000
_symmetry_Int_Tables_number   1
_chemical_formula_structural   Zr2(Ti2Sb3)3
_chemical_formula_sum   'Zr4 Ti12 Sb18'
_cell_volume   748.00581899
_cell_formula_units_Z   2
loop_
 _symmetry_equiv_pos_site_id
 _symmetry_equiv_pos_as_xyz
  1  'x, y, z'
loop_
 _atom_site_type_symbol
 _atom_site_label
 _atom_site_symmetry_multiplicity
 _atom_site_fract_x
 _atom_site_fract_y
 _atom_site_fract_z
 _atom_site_occupancy
  Zr  Zr0  1  0.500000  0.000000  0.085397  1
  Zr  Zr1  1  0.000000  0.500000  0.914603  1
  Zr  Zr2  1  0.500000  0.000000  0.582056  1
  Zr  Zr3  1  0.000000  0.500000  0.417944  1
  Ti  Ti4  1  0.143425  0.000000  0.159193  1
  Ti  Ti5  1  0.356575  0.500000  0.840807  1
  Ti  Ti6  1  0.000000  0.143425  0.840807  1
  Ti  Ti7  1  0.500000  0.643425  0.159193  1
  Ti  Ti8  1  0.000000  0.856575  0.840807  1
  Ti  Ti9  1  0.856575  0.000000  0.159193  1
  Ti  Ti10  1  0.250000  0.750000  0.000000  1
  Ti  Ti11  1  0.250000  0.250000  0.000000  1
  Ti  Ti12  1  0.750000  0.750000  0.000000  1
  Ti  Ti13  1  0.643425  0.500000  0.840807  1
  Ti  Ti14  1  0.500000  0.356575  0.159193  1
  Ti  Ti15  1  0.750000  0.250000  0.000000  1
  Sb  Sb16  1  0.829440  0.670560  0.649930  1
  Sb  Sb17  1  0.255877  0.000000  0.815800  1
  Sb  Sb18  1  0.244123  0.500000  0.184200  1
  Sb  Sb19  1  0.670560  0.170560  0.350070  1
  Sb  Sb20  1  0.170560  0.329440  0.649930  1
  Sb  Sb21  1  0.829440  0.329440  0.649930  1
  Sb  Sb22  1  0.755877  0.500000  0.184200  1
  Sb  Sb23  1  0.329440  0.829440  0.350070  1
  Sb  Sb24  1  0.000000  0.255877  0.184200  1
  Sb  Sb25  1  0.670560  0.829440  0.350070  1
  Sb  Sb26  1  0.000000  0.000000  0.500000  1
  Sb  Sb27  1  0.500000  0.755877  0.815800  1
  Sb  Sb28  1  0.000000  0.744123  0.184200  1
  Sb  Sb29  1  0.170560  0.670560  0.649930  1
  Sb  Sb30  1  0.744123  0.000000  0.815800  1
  Sb  Sb31  1  0.329440  0.170560  0.350070  1
  Sb  Sb32  1  0.500000  0.244123  0.815800  1
  Sb  Sb33  1  0.500000  0.500000  0.500000  1
