# generated using pymatgen
data_Er7Tm13(SnPb)8
_symmetry_space_group_name_H-M   'P 1'
_cell_length_a   8.05744609
_cell_length_b   8.11627002
_cell_length_c   15.39312417
_cell_angle_alpha   90.00454782
_cell_angle_beta   90.01626456
_cell_angle_gamma   89.99355230
_symmetry_Int_Tables_number   1
_chemical_formula_structural   Er7Tm13(SnPb)8
_chemical_formula_sum   'Er7 Tm13 Sn8 Pb8'
_cell_volume   1006.65498085
_cell_formula_units_Z   1
loop_
 _symmetry_equiv_pos_site_id
 _symmetry_equiv_pos_as_xyz
  1  'x, y, z'
loop_
 _atom_site_type_symbol
 _atom_site_label
 _atom_site_symmetry_multiplicity
 _atom_site_fract_x
 _atom_site_fract_y
 _atom_site_fract_z
 _atom_site_occupancy
  Er  Er0  1  0.035401  0.176504  0.602634  1
  Er  Er1  1  0.464589  0.676491  0.397352  1
  Er  Er2  1  0.964558  0.823557  0.102631  1
  Er  Er3  1  0.464567  0.676490  0.102616  1
  Er  Er4  1  0.964577  0.823519  0.397351  1
  Er  Er5  1  0.535404  0.323531  0.602595  1
  Er  Er6  1  0.035416  0.176495  0.897402  1
  Tm  Tm7  1  0.378229  0.839811  0.876762  1
  Tm  Tm8  1  0.878204  0.660191  0.623234  1
  Tm  Tm9  1  0.621783  0.160200  0.376765  1
  Tm  Tm10  1  0.121736  0.339771  0.123250  1
  Tm  Tm11  1  0.621739  0.160240  0.123202  1
  Tm  Tm12  1  0.121784  0.339786  0.376759  1
  Tm  Tm13  1  0.378231  0.839811  0.623251  1
  Tm  Tm14  1  0.878201  0.660180  0.876758  1
  Tm  Tm15  1  0.535482  0.323546  0.897351  1
  Tm  Tm16  1  0.209198  0.504145  0.750033  1
  Tm  Tm17  1  0.709103  0.995862  0.750026  1
  Tm  Tm18  1  0.790884  0.495823  0.250001  1
  Tm  Tm19  1  0.290890  0.004181  0.249994  1
  Sn  Sn20  1  0.574122  0.623391  0.750009  1
  Sn  Sn21  1  0.074108  0.876456  0.749998  1
  Sn  Sn22  1  0.425888  0.376477  0.249991  1
  Sn  Sn23  1  0.925906  0.123544  0.250013  1
  Sn  Sn24  1  0.344516  0.149836  0.750210  1
  Sn  Sn25  1  0.844136  0.350473  0.750063  1
  Sn  Sn26  1  0.655751  0.850486  0.249995  1
  Sn  Sn27  1  0.155700  0.649557  0.250014  1
  Pb  Pb28  1  0.282157  0.033918  0.041433  1
  Pb  Pb29  1  0.782233  0.466067  0.458537  1
  Pb  Pb30  1  0.717757  0.966049  0.541365  1
  Pb  Pb31  1  0.218188  0.533547  0.958601  1
  Pb  Pb32  1  0.717512  0.966336  0.958616  1
  Pb  Pb33  1  0.217781  0.533949  0.541363  1
  Pb  Pb34  1  0.282267  0.033900  0.458589  1
  Pb  Pb35  1  0.782002  0.465879  0.041233  1
