# generated using pymatgen
data_Ho18Lu2Si15Hg
_symmetry_space_group_name_H-M   'P 1'
_cell_length_a   7.38729658
_cell_length_b   7.66817310
_cell_length_c   14.56766539
_cell_angle_alpha   89.92703162
_cell_angle_beta   89.21307936
_cell_angle_gamma   90.09336951
_symmetry_Int_Tables_number   1
_chemical_formula_structural   Ho18Lu2Si15Hg
_chemical_formula_sum   'Ho18 Lu2 Si15 Hg1'
_cell_volume   825.13592652
_cell_formula_units_Z   1
loop_
 _symmetry_equiv_pos_site_id
 _symmetry_equiv_pos_as_xyz
  1  'x, y, z'
loop_
 _atom_site_type_symbol
 _atom_site_label
 _atom_site_symmetry_multiplicity
 _atom_site_fract_x
 _atom_site_fract_y
 _atom_site_fract_z
 _atom_site_occupancy
  Ho  Ho0  1  0.847616  0.489639  0.747827  1
  Ho  Ho1  1  0.346997  0.011122  0.749539  1
  Ho  Ho2  1  0.979446  0.824080  0.102521  1
  Ho  Ho3  1  0.473202  0.683698  0.400763  1
  Ho  Ho4  1  0.516467  0.311200  0.899262  1
  Ho  Ho5  1  0.029630  0.182317  0.597386  1
  Ho  Ho6  1  0.025423  0.175920  0.900411  1
  Ho  Ho7  1  0.528821  0.315850  0.597569  1
  Ho  Ho8  1  0.477517  0.682601  0.101634  1
  Ho  Ho9  1  0.971325  0.816683  0.400075  1
  Ho  Ho10  1  0.670753  0.830510  0.873875  1
  Ho  Ho11  1  0.181697  0.679676  0.621023  1
  Ho  Ho12  1  0.823471  0.320954  0.127607  1
  Ho  Ho13  1  0.319357  0.178014  0.376905  1
  Ho  Ho14  1  0.324640  0.177111  0.125210  1
  Ho  Ho15  1  0.819695  0.321937  0.376873  1
  Ho  Ho16  1  0.180003  0.674681  0.877260  1
  Ho  Ho17  1  0.681353  0.822371  0.621391  1
  Lu  Lu18  1  0.651346  0.990503  0.250217  1
  Lu  Lu19  1  0.153623  0.511247  0.248736  1
  Si  Si20  1  0.771425  0.632499  0.252061  1
  Si  Si21  1  0.271783  0.869510  0.251888  1
  Si  Si22  1  0.732305  0.127540  0.747450  1
  Si  Si23  1  0.228549  0.371848  0.747114  1
  Si  Si24  1  0.022333  0.102308  0.252503  1
  Si  Si25  1  0.522807  0.396890  0.252494  1
  Si  Si26  1  0.475316  0.604791  0.747413  1
  Si  Si27  1  0.975820  0.891746  0.747351  1
  Si  Si28  1  0.354459  0.971543  0.539909  1
  Si  Si29  1  0.654586  0.030091  0.042059  1
  Si  Si30  1  0.147948  0.470845  0.459073  1
  Si  Si31  1  0.161720  0.470774  0.044321  1
  Si  Si32  1  0.646946  0.027858  0.457645  1
  Si  Si33  1  0.345378  0.967085  0.962516  1
  Si  Si34  1  0.854129  0.530496  0.538640  1
  Hg  Hg35  1  0.832110  0.534065  0.961480  1
