# generated using pymatgen
data_Ac8Lu12Si15Bi
_symmetry_space_group_name_H-M   'P 1'
_cell_length_a   7.77342175
_cell_length_b   7.98816877
_cell_length_c   15.15738700
_cell_angle_alpha   90.07640952
_cell_angle_beta   87.15623012
_cell_angle_gamma   90.14308294
_symmetry_Int_Tables_number   1
_chemical_formula_structural   Ac8Lu12Si15Bi
_chemical_formula_sum   'Ac8 Lu12 Si15 Bi1'
_cell_volume   940.04139505
_cell_formula_units_Z   1
loop_
 _symmetry_equiv_pos_site_id
 _symmetry_equiv_pos_as_xyz
  1  'x, y, z'
loop_
 _atom_site_type_symbol
 _atom_site_label
 _atom_site_symmetry_multiplicity
 _atom_site_fract_x
 _atom_site_fract_y
 _atom_site_fract_z
 _atom_site_occupancy
  Ac  Ac0  1  0.013501  0.174034  0.098080  1
  Ac  Ac1  1  0.988205  0.830324  0.902233  1
  Ac  Ac2  1  0.489371  0.670762  0.902167  1
  Ac  Ac3  1  0.004463  0.833083  0.600184  1
  Ac  Ac4  1  0.513541  0.327330  0.098845  1
  Ac  Ac5  1  0.993558  0.171607  0.398342  1
  Ac  Ac6  1  0.504926  0.316658  0.396653  1
  Ac  Ac7  1  0.516049  0.683869  0.600790  1
  Lu  Lu8  1  0.166996  0.495012  0.755157  1
  Lu  Lu9  1  0.832566  0.508021  0.253665  1
  Lu  Lu10  1  0.333355  0.993390  0.252915  1
  Lu  Lu11  1  0.670086  0.005428  0.750061  1
  Lu  Lu12  1  0.355602  0.149845  0.628654  1
  Lu  Lu13  1  0.649033  0.833537  0.375460  1
  Lu  Lu14  1  0.148209  0.674276  0.369405  1
  Lu  Lu15  1  0.670270  0.824589  0.123638  1
  Lu  Lu16  1  0.830372  0.334041  0.627702  1
  Lu  Lu17  1  0.327220  0.171684  0.875146  1
  Lu  Lu18  1  0.826826  0.327124  0.875328  1
  Lu  Lu19  1  0.170978  0.674449  0.124743  1
  Si  Si20  1  0.036280  0.139968  0.751418  1
  Si  Si21  1  0.956810  0.868442  0.245815  1
  Si  Si22  1  0.458876  0.633650  0.247171  1
  Si  Si23  1  0.533731  0.362741  0.752951  1
  Si  Si24  1  0.305992  0.874314  0.754256  1
  Si  Si25  1  0.701097  0.112190  0.245644  1
  Si  Si26  1  0.199679  0.384641  0.247136  1
  Si  Si27  1  0.808358  0.622562  0.752898  1
  Si  Si28  1  0.810054  0.547290  0.450662  1
  Si  Si29  1  0.312620  0.954321  0.452224  1
  Si  Si30  1  0.857079  0.533745  0.039829  1
  Si  Si31  1  0.687425  0.046720  0.547629  1
  Si  Si32  1  0.142571  0.468442  0.959782  1
  Si  Si33  1  0.642163  0.033262  0.960016  1
  Si  Si34  1  0.356401  0.966957  0.040026  1
  Bi  Bi35  1  0.185738  0.451693  0.543378  1
