# generated using pymatgen
data_DyTm2Hf(NiP)4
_symmetry_space_group_name_H-M   'P 1'
_cell_length_a   3.86336500
_cell_length_b   3.86336505
_cell_length_c   14.91923500
_cell_angle_alpha   90.00000000
_cell_angle_beta   90.00000000
_cell_angle_gamma   120.00000816
_symmetry_Int_Tables_number   1
_chemical_formula_structural   DyTm2Hf(NiP)4
_chemical_formula_sum   'Dy1 Tm2 Hf1 Ni4 P4'
_cell_volume   192.84511322
_cell_formula_units_Z   1
loop_
 _symmetry_equiv_pos_site_id
 _symmetry_equiv_pos_as_xyz
  1  'x, y, z'
loop_
 _atom_site_type_symbol
 _atom_site_label
 _atom_site_symmetry_multiplicity
 _atom_site_fract_x
 _atom_site_fract_y
 _atom_site_fract_z
 _atom_site_occupancy
  Dy  Dy0  1  0.000000  0.000000  0.493695  1
  Tm  Tm1  1  0.000000  0.000000  0.005842  1
  Tm  Tm2  1  0.000000  0.000000  0.751793  1
  Hf  Hf3  1  0.000000  0.000000  0.248508  1
  Ni  Ni4  1  0.333333  0.666667  0.345100  1
  Ni  Ni5  1  0.666667  0.333333  0.627924  1
  Ni  Ni6  1  0.666667  0.333333  0.875478  1
  Ni  Ni7  1  0.333333  0.666667  0.151573  1
  P  P8  1  0.333333  0.666667  0.881731  1
  P  P9  1  0.666667  0.333333  0.124693  1
  P  P10  1  0.666667  0.333333  0.372173  1
  P  P11  1  0.333333  0.666667  0.621491  1
