# generated using pymatgen
data_EuDy2Al7Cu2
_symmetry_space_group_name_H-M   'P 1'
_cell_length_a   8.99793993
_cell_length_b   8.99794075
_cell_length_c   8.99793957
_cell_angle_alpha   35.54449313
_cell_angle_beta   35.54448634
_cell_angle_gamma   35.54448317
_symmetry_Int_Tables_number   1
_chemical_formula_structural   EuDy2Al7Cu2
_chemical_formula_sum   'Eu1 Dy2 Al7 Cu2'
_cell_volume   220.03024142
_cell_formula_units_Z   1
loop_
 _symmetry_equiv_pos_site_id
 _symmetry_equiv_pos_as_xyz
  1  'x, y, z'
loop_
 _atom_site_type_symbol
 _atom_site_label
 _atom_site_symmetry_multiplicity
 _atom_site_fract_x
 _atom_site_fract_y
 _atom_site_fract_z
 _atom_site_occupancy
  Eu  Eu0  1  0.000000  0.000000  0.000000  1
  Dy  Dy1  1  0.858216  0.858216  0.858216  1
  Dy  Dy2  1  0.141784  0.141784  0.141784  1
  Al  Al3  1  0.417701  0.417701  0.926711  1
  Al  Al4  1  0.926711  0.417701  0.417701  1
  Al  Al5  1  0.417701  0.926711  0.417701  1
  Al  Al6  1  0.500000  0.500000  0.500000  1
  Al  Al7  1  0.582299  0.073289  0.582299  1
  Al  Al8  1  0.073289  0.582299  0.582299  1
  Al  Al9  1  0.582299  0.582299  0.073289  1
  Cu  Cu10  1  0.664837  0.664837  0.664837  1
  Cu  Cu11  1  0.335163  0.335163  0.335163  1
