# generated using pymatgen
data_Ac2B4Os3Ru
_symmetry_space_group_name_H-M   'P 1'
_cell_length_a   7.01212308
_cell_length_b   6.14386366
_cell_length_c   5.72070405
_cell_angle_alpha   72.35834337
_cell_angle_beta   56.61283237
_cell_angle_gamma   51.37975169
_symmetry_Int_Tables_number   1
_chemical_formula_structural   Ac2B4Os3Ru
_chemical_formula_sum   'Ac2 B4 Os3 Ru1'
_cell_volume   160.47049135
_cell_formula_units_Z   1
loop_
 _symmetry_equiv_pos_site_id
 _symmetry_equiv_pos_as_xyz
  1  'x, y, z'
loop_
 _atom_site_type_symbol
 _atom_site_label
 _atom_site_symmetry_multiplicity
 _atom_site_fract_x
 _atom_site_fract_y
 _atom_site_fract_z
 _atom_site_occupancy
  Ac  Ac0  1  0.998178  0.998178  0.001822  1
  Ac  Ac1  1  0.251526  0.251526  0.248474  1
  B  B2  1  0.671634  0.328748  0.677229  1
  B  B3  1  0.328748  0.671634  0.322388  1
  B  B4  1  0.928919  0.568777  0.926195  1
  B  B5  1  0.568777  0.928919  0.576108  1
  Os  Os6  1  0.615565  0.615565  0.884435  1
  Os  Os7  1  0.636002  0.636002  0.363997  1
  Os  Os8  1  0.363946  0.363947  0.636053  1
  Ru  Ru9  1  0.886704  0.886703  0.613296  1
