# generated using pymatgen
data_Tb7ThInPd24
_symmetry_space_group_name_H-M   'P 1'
_cell_length_a   8.43426428
_cell_length_b   8.43426428
_cell_length_c   8.43426428
_cell_angle_alpha   89.97900704
_cell_angle_beta   89.97900704
_cell_angle_gamma   89.97900704
_symmetry_Int_Tables_number   1
_chemical_formula_structural   Tb7ThInPd24
_chemical_formula_sum   'Tb7 Th1 In1 Pd24'
_cell_volume   599.98656870
_cell_formula_units_Z   1
loop_
 _symmetry_equiv_pos_site_id
 _symmetry_equiv_pos_as_xyz
  1  'x, y, z'
loop_
 _atom_site_type_symbol
 _atom_site_label
 _atom_site_symmetry_multiplicity
 _atom_site_fract_x
 _atom_site_fract_y
 _atom_site_fract_z
 _atom_site_occupancy
  Tb  Tb0  1  0.748253  0.748253  0.748253  1
  Tb  Tb1  1  0.748248  0.748248  0.251728  1
  Tb  Tb2  1  0.748248  0.251728  0.748248  1
  Tb  Tb3  1  0.251703  0.251703  0.748355  1
  Tb  Tb4  1  0.251703  0.748355  0.251703  1
  Tb  Tb5  1  0.251728  0.748248  0.748248  1
  Tb  Tb6  1  0.748355  0.251703  0.251703  1
  Th  Th7  1  0.252396  0.252396  0.252396  1
  In  In8  1  0.999276  0.999276  0.999276  1
  Pd  Pd9  1  0.266054  0.500045  0.999941  1
  Pd  Pd10  1  0.733988  0.500040  0.999971  1
  Pd  Pd11  1  0.999941  0.266054  0.500045  1
  Pd  Pd12  1  0.500045  0.266054  0.999941  1
  Pd  Pd13  1  0.999971  0.733988  0.500040  1
  Pd  Pd14  1  0.500040  0.733988  0.999971  1
  Pd  Pd15  1  0.500045  0.999941  0.266054  1
  Pd  Pd16  1  0.266054  0.999941  0.500045  1
  Pd  Pd17  1  0.500040  0.999971  0.733988  1
  Pd  Pd18  1  0.733988  0.999971  0.500040  1
  Pd  Pd19  1  0.999941  0.500045  0.266054  1
  Pd  Pd20  1  0.999971  0.500040  0.733988  1
  Pd  Pd21  1  0.255041  0.500143  0.500143  1
  Pd  Pd22  1  0.745135  0.500029  0.500029  1
  Pd  Pd23  1  0.500143  0.255041  0.500143  1
  Pd  Pd24  1  0.500029  0.745135  0.500029  1
  Pd  Pd25  1  0.500143  0.500143  0.255041  1
  Pd  Pd26  1  0.500029  0.500029  0.745135  1
  Pd  Pd27  1  0.311241  0.999726  0.999726  1
  Pd  Pd28  1  0.688882  0.999958  0.999958  1
  Pd  Pd29  1  0.999726  0.311241  0.999726  1
  Pd  Pd30  1  0.999958  0.688882  0.999958  1
  Pd  Pd31  1  0.999726  0.999726  0.311241  1
  Pd  Pd32  1  0.999958  0.999958  0.688882  1
