# generated using pymatgen
data_Ce5Y2PtF30
_symmetry_space_group_name_H-M   'P 1'
_cell_length_a   8.53157086
_cell_length_b   8.53157225
_cell_length_c   8.56458876
_cell_angle_alpha   79.75364663
_cell_angle_beta   79.75363586
_cell_angle_gamma   100.27267520
_symmetry_Int_Tables_number   1
_chemical_formula_structural   Ce5Y2PtF30
_chemical_formula_sum   'Ce5 Y2 Pt1 F30'
_cell_volume   589.30904339
_cell_formula_units_Z   1
loop_
 _symmetry_equiv_pos_site_id
 _symmetry_equiv_pos_as_xyz
  1  'x, y, z'
loop_
 _atom_site_type_symbol
 _atom_site_label
 _atom_site_symmetry_multiplicity
 _atom_site_fract_x
 _atom_site_fract_y
 _atom_site_fract_z
 _atom_site_occupancy
  Ce  Ce0  1  0.249678  0.750322  0.750000  1
  Ce  Ce1  1  0.753381  0.679080  0.673309  1
  Ce  Ce2  1  0.320920  0.246619  0.826691  1
  Ce  Ce3  1  0.246533  0.321281  0.327504  1
  Ce  Ce4  1  0.678719  0.753467  0.172496  1
  Y  Y5  1  0.179557  0.820443  0.250000  1
  Y  Y6  1  0.822172  0.177828  0.750000  1
  Pt  Pt7  1  0.750437  0.249563  0.250000  1
  F  F8  1  0.311660  0.350679  0.055443  1
  F  F9  1  0.943696  0.809206  0.155199  1
  F  F10  1  0.843657  0.448200  0.688079  1
  F  F11  1  0.452317  0.844051  0.182064  1
  F  F12  1  0.815732  0.945813  0.654855  1
  F  F13  1  0.351376  0.320642  0.552355  1
  F  F14  1  0.679358  0.648624  0.947644  1
  F  F15  1  0.054187  0.184268  0.845145  1
  F  F16  1  0.155949  0.547683  0.317936  1
  F  F17  1  0.551800  0.156343  0.811921  1
  F  F18  1  0.190794  0.056304  0.344801  1
  F  F19  1  0.649321  0.688340  0.444557  1
  F  F20  1  0.773798  0.279160  0.011555  1
  F  F21  1  0.989952  0.274186  0.217111  1
  F  F22  1  0.783132  0.489066  0.224062  1
  F  F23  1  0.511555  0.782942  0.723888  1
  F  F24  1  0.274694  0.013559  0.714399  1
  F  F25  1  0.277191  0.774121  0.490668  1
  F  F26  1  0.225879  0.722809  0.009332  1
  F  F27  1  0.986441  0.725306  0.785601  1
  F  F28  1  0.217058  0.488445  0.776112  1
  F  F29  1  0.510934  0.216868  0.275938  1
  F  F30  1  0.725814  0.010048  0.282889  1
  F  F31  1  0.720840  0.226202  0.488445  1
  F  F32  1  0.468429  0.531571  0.250000  1
  F  F33  1  0.750113  0.962956  0.965424  1
  F  F34  1  0.037044  0.249887  0.534576  1
  F  F35  1  0.250507  0.036992  0.034971  1
  F  F36  1  0.963008  0.749493  0.465029  1
  F  F37  1  0.532369  0.467631  0.750000  1
