# generated using pymatgen
data_Nd2GeP(RhO)2
_symmetry_space_group_name_H-M   'P 1'
_cell_length_a   4.04827100
_cell_length_b   4.04827100
_cell_length_c   8.50662400
_cell_angle_alpha   90.00000000
_cell_angle_beta   90.00000000
_cell_angle_gamma   90.00000000
_symmetry_Int_Tables_number   1
_chemical_formula_structural   Nd2GeP(RhO)2
_chemical_formula_sum   'Nd2 Ge1 P1 Rh2 O2'
_cell_volume   139.41079117
_cell_formula_units_Z   1
loop_
 _symmetry_equiv_pos_site_id
 _symmetry_equiv_pos_as_xyz
  1  'x, y, z'
loop_
 _atom_site_type_symbol
 _atom_site_label
 _atom_site_symmetry_multiplicity
 _atom_site_fract_x
 _atom_site_fract_y
 _atom_site_fract_z
 _atom_site_occupancy
  Nd  Nd0  1  0.000000  0.000000  0.133924  1
  Nd  Nd1  1  0.500002  0.500002  0.856254  1
  Ge  Ge2  1  0.500002  0.500002  0.342674  1
  P  P3  1  0.000000  0.000000  0.651122  1
  Rh  Rh4  1  0.500000  0.000000  0.511388  1
  Rh  Rh5  1  0.000000  0.500000  0.511388  1
  O  O6  1  0.500000  0.000000  0.996624  1
  O  O7  1  0.000000  0.500000  0.996624  1
