# generated using pymatgen
data_K3Sr(MnN2)4
_symmetry_space_group_name_H-M   'P 1'
_cell_length_a   6.34097510
_cell_length_b   6.34097474
_cell_length_c   7.75772594
_cell_angle_alpha   90.40434236
_cell_angle_beta   89.59565426
_cell_angle_gamma   126.39503702
_symmetry_Int_Tables_number   1
_chemical_formula_structural   K3Sr(MnN2)4
_chemical_formula_sum   'K3 Sr1 Mn4 N8'
_cell_volume   251.07255494
_cell_formula_units_Z   1
loop_
 _symmetry_equiv_pos_site_id
 _symmetry_equiv_pos_as_xyz
  1  'x, y, z'
loop_
 _atom_site_type_symbol
 _atom_site_label
 _atom_site_symmetry_multiplicity
 _atom_site_fract_x
 _atom_site_fract_y
 _atom_site_fract_z
 _atom_site_occupancy
  K  K0  1  0.836986  0.163014  0.558327  1
  K  K1  1  0.157616  0.842384  0.440058  1
  K  K2  1  0.660176  0.339824  0.070001  1
  Sr  Sr3  1  0.345694  0.654306  0.954177  1
  Mn  Mn4  1  0.544052  0.455948  0.634638  1
  Mn  Mn5  1  0.450386  0.549614  0.367169  1
  Mn  Mn6  1  0.957055  0.042945  0.132183  1
  Mn  Mn7  1  0.048549  0.951451  0.862201  1
  N  N8  1  0.894291  0.105709  0.918074  1
  N  N9  1  0.112064  0.887936  0.075668  1
  N  N10  1  0.602374  0.397626  0.419067  1
  N  N11  1  0.390412  0.609588  0.587301  1
  N  N12  1  0.334270  0.167889  0.748613  1
  N  N13  1  0.171254  0.337289  0.241955  1
  N  N14  1  0.662711  0.828746  0.241955  1
  N  N15  1  0.832111  0.665730  0.748613  1
