# generated using pymatgen
data_Nd2Be25Ni
_symmetry_space_group_name_H-M   'P 1'
_cell_length_a   7.30212250
_cell_length_b   7.31859877
_cell_length_c   7.30200923
_cell_angle_alpha   60.18274215
_cell_angle_beta   60.14985060
_cell_angle_gamma   59.92430955
_symmetry_Int_Tables_number   1
_chemical_formula_structural   Nd2Be25Ni
_chemical_formula_sum   'Nd2 Be25 Ni1'
_cell_volume   276.46562802
_cell_formula_units_Z   1
loop_
 _symmetry_equiv_pos_site_id
 _symmetry_equiv_pos_as_xyz
  1  'x, y, z'
loop_
 _atom_site_type_symbol
 _atom_site_label
 _atom_site_symmetry_multiplicity
 _atom_site_fract_x
 _atom_site_fract_y
 _atom_site_fract_z
 _atom_site_occupancy
  Nd  Nd0  1  0.749650  0.751558  0.748689  1
  Nd  Nd1  1  0.249897  0.251311  0.248442  1
  Be  Be2  1  0.565178  0.788465  0.211535  1
  Be  Be3  1  0.208026  0.438245  0.561755  1
  Be  Be4  1  0.434917  0.209302  0.790698  1
  Be  Be5  1  0.435308  0.788800  0.564870  1
  Be  Be6  1  0.562454  0.436028  0.791067  1
  Be  Be7  1  0.788978  0.435130  0.211200  1
  Be  Be8  1  0.789549  0.208933  0.563972  1
  Be  Be9  1  0.210467  0.562813  0.788991  1
  Be  Be10  1  0.437202  0.564124  0.208247  1
  Be  Be11  1  0.562271  0.211009  0.437187  1
  Be  Be12  1  0.209574  0.791753  0.435876  1
  Be  Be13  1  0.936633  0.712612  0.063540  1
  Be  Be14  1  0.712785  0.936460  0.287388  1
  Be  Be15  1  0.064875  0.287489  0.935735  1
  Be  Be16  1  0.288099  0.064265  0.712511  1
  Be  Be17  1  0.710738  0.064797  0.935203  1
  Be  Be18  1  0.064622  0.933329  0.714740  1
  Be  Be19  1  0.065640  0.714035  0.285965  1
  Be  Be20  1  0.286892  0.712910  0.935910  1
  Be  Be21  1  0.935001  0.288539  0.711461  1
  Be  Be22  1  0.935712  0.064090  0.287090  1
  Be  Be23  1  0.288341  0.935056  0.064944  1
  Be  Be24  1  0.712691  0.285260  0.066671  1
  Be  Be25  1  0.501005  0.500432  0.499568  1
  Be  Be26  1  0.999778  0.001670  0.998330  1
  Ni  Ni27  1  0.793716  0.561580  0.438420  1
