# generated using pymatgen
data_Ca11Yb9Ir4
_symmetry_space_group_name_H-M   'P 1'
_cell_length_a   7.48702884
_cell_length_b   15.75263344
_cell_length_c   6.71721038
_cell_angle_alpha   89.97780972
_cell_angle_beta   89.90399819
_cell_angle_gamma   90.01633258
_symmetry_Int_Tables_number   1
_chemical_formula_structural   Ca11Yb9Ir4
_chemical_formula_sum   'Ca11 Yb9 Ir4'
_cell_volume   792.22941439
_cell_formula_units_Z   1
loop_
 _symmetry_equiv_pos_site_id
 _symmetry_equiv_pos_as_xyz
  1  'x, y, z'
loop_
 _atom_site_type_symbol
 _atom_site_label
 _atom_site_symmetry_multiplicity
 _atom_site_fract_x
 _atom_site_fract_y
 _atom_site_fract_z
 _atom_site_occupancy
  Ca  Ca0  1  0.537956  0.855643  0.172836  1
  Ca  Ca1  1  0.462180  0.355082  0.826948  1
  Ca  Ca2  1  0.038208  0.644561  0.327423  1
  Ca  Ca3  1  0.308941  0.433163  0.357744  1
  Ca  Ca4  1  0.191423  0.566648  0.857773  1
  Ca  Ca5  1  0.809328  0.066942  0.142014  1
  Ca  Ca6  1  0.691751  0.933593  0.642177  1
  Ca  Ca7  1  0.690135  0.566683  0.642674  1
  Ca  Ca8  1  0.809405  0.432871  0.142926  1
  Ca  Ca9  1  0.189937  0.933527  0.857391  1
  Ca  Ca10  1  0.308795  0.066927  0.358084  1
  Yb  Yb11  1  0.036109  0.852687  0.324685  1
  Yb  Yb12  1  0.463712  0.146869  0.825120  1
  Yb  Yb13  1  0.536015  0.647138  0.175436  1
  Yb  Yb14  1  0.963598  0.353196  0.674787  1
  Yb  Yb15  1  0.963023  0.146100  0.674272  1
  Yb  Yb16  1  0.904643  0.750269  0.848957  1
  Yb  Yb17  1  0.595468  0.249877  0.349363  1
  Yb  Yb18  1  0.404885  0.750014  0.651106  1
  Yb  Yb19  1  0.095568  0.250000  0.150710  1
  Ir  Ir20  1  0.741173  0.749957  0.466247  1
  Ir  Ir21  1  0.759868  0.249082  0.963051  1
  Ir  Ir22  1  0.241577  0.750118  0.033105  1
  Ir  Ir23  1  0.256308  0.249054  0.535169  1
