# generated using pymatgen
data_Er4Al2Ga3Si
_symmetry_space_group_name_H-M   'P 1'
_cell_length_a   6.94479114
_cell_length_b   6.94479144
_cell_length_c   4.36334400
_cell_angle_alpha   90.00000000
_cell_angle_beta   90.00000000
_cell_angle_gamma   90.47588452
_symmetry_Int_Tables_number   1
_chemical_formula_structural   Er4Al2Ga3Si
_chemical_formula_sum   'Er4 Al2 Ga3 Si1'
_cell_volume   210.43737253
_cell_formula_units_Z   1
loop_
 _symmetry_equiv_pos_site_id
 _symmetry_equiv_pos_as_xyz
  1  'x, y, z'
loop_
 _atom_site_type_symbol
 _atom_site_label
 _atom_site_symmetry_multiplicity
 _atom_site_fract_x
 _atom_site_fract_y
 _atom_site_fract_z
 _atom_site_occupancy
  Er  Er0  1  0.828223  0.673791  0.500000  1
  Er  Er1  1  0.173791  0.328223  0.500000  1
  Er  Er2  1  0.673812  0.173812  0.500000  1
  Er  Er3  1  0.324486  0.824486  0.500000  1
  Al  Al4  1  0.001507  0.997364  0.000000  1
  Al  Al5  1  0.497364  0.501507  0.000000  1
  Ga  Ga6  1  0.628653  0.871837  0.000000  1
  Ga  Ga7  1  0.371837  0.128653  0.000000  1
  Ga  Ga8  1  0.873961  0.373961  0.000000  1
  Si  Si9  1  0.126369  0.626369  0.000000  1
