# generated using pymatgen
data_La5NdCd23P
_symmetry_space_group_name_H-M   'P 1'
_cell_length_a   10.14490076
_cell_length_b   10.15117969
_cell_length_c   10.15117894
_cell_angle_alpha   59.95908493
_cell_angle_beta   60.02046146
_cell_angle_gamma   60.02045871
_symmetry_Int_Tables_number   1
_chemical_formula_structural   La5NdCd23P
_chemical_formula_sum   'La5 Nd1 Cd23 P1'
_cell_volume   739.20600938
_cell_formula_units_Z   1
loop_
 _symmetry_equiv_pos_site_id
 _symmetry_equiv_pos_as_xyz
  1  'x, y, z'
loop_
 _atom_site_type_symbol
 _atom_site_label
 _atom_site_symmetry_multiplicity
 _atom_site_fract_x
 _atom_site_fract_y
 _atom_site_fract_z
 _atom_site_occupancy
  La  La0  1  0.795646  0.795239  0.204354  1
  La  La1  1  0.204761  0.795239  0.204354  1
  La  La2  1  0.795556  0.204444  0.204444  1
  La  La3  1  0.204761  0.204354  0.795239  1
  La  La4  1  0.795646  0.204354  0.795239  1
  Nd  Nd5  1  0.203773  0.796227  0.796227  1
  Cd  Cd6  1  0.832023  0.831830  0.504123  1
  Cd  Cd7  1  0.832023  0.504123  0.831830  1
  Cd  Cd8  1  0.503344  0.831979  0.831979  1
  Cd  Cd9  1  0.832697  0.831979  0.831979  1
  Cd  Cd10  1  0.168021  0.167303  0.496656  1
  Cd  Cd11  1  0.168021  0.496656  0.167303  1
  Cd  Cd12  1  0.495877  0.167977  0.167977  1
  Cd  Cd13  1  0.168170  0.167977  0.167977  1
  Cd  Cd14  1  0.621071  0.621096  0.136761  1
  Cd  Cd15  1  0.621071  0.136761  0.621096  1
  Cd  Cd16  1  0.136924  0.621451  0.621451  1
  Cd  Cd17  1  0.620173  0.621451  0.621451  1
  Cd  Cd18  1  0.378549  0.379827  0.863076  1
  Cd  Cd19  1  0.378549  0.863076  0.379827  1
  Cd  Cd20  1  0.863239  0.378929  0.378929  1
  Cd  Cd21  1  0.378904  0.378929  0.378929  1
  Cd  Cd22  1  0.000285  0.999715  0.500196  1
  Cd  Cd23  1  0.499804  0.999715  0.500196  1
  Cd  Cd24  1  0.000113  0.499887  0.499887  1
  Cd  Cd25  1  0.499804  0.500196  0.999715  1
  Cd  Cd26  1  0.000285  0.500196  0.999715  1
  Cd  Cd27  1  0.500113  0.999887  0.999887  1
  Cd  Cd28  1  0.499998  0.500002  0.500002  1
  P  P29  1  0.000800  0.999200  0.999200  1
