# generated using pymatgen
data_AcSi2
_symmetry_space_group_name_H-M   'P 1'
_cell_length_a   4.19229402
_cell_length_b   4.19229440
_cell_length_c   4.62842900
_cell_angle_alpha   90.00000000
_cell_angle_beta   90.00000000
_cell_angle_gamma   120.00171991
_symmetry_Int_Tables_number   1
_chemical_formula_structural   AcSi2
_chemical_formula_sum   'Ac1 Si2'
_cell_volume   70.44662906
_cell_formula_units_Z   1
loop_
 _symmetry_equiv_pos_site_id
 _symmetry_equiv_pos_as_xyz
  1  'x, y, z'
loop_
 _atom_site_type_symbol
 _atom_site_label
 _atom_site_symmetry_multiplicity
 _atom_site_fract_x
 _atom_site_fract_y
 _atom_site_fract_z
 _atom_site_occupancy
  Ac  Ac0  1  0.000001  0.000001  0.000000  1
  Si  Si1  1  0.666702  0.333374  0.500000  1
  Si  Si2  1  0.333375  0.666701  0.500000  1
