# generated using pymatgen
data_NdSi4(Pt2Rh)2
_symmetry_space_group_name_H-M   'P 1'
_cell_length_a   7.15210900
_cell_length_b   7.10837689
_cell_length_c   3.92433700
_cell_angle_alpha   90.00000000
_cell_angle_beta   90.00000000
_cell_angle_gamma   120.20371779
_symmetry_Int_Tables_number   1
_chemical_formula_structural   NdSi4(Pt2Rh)2
_chemical_formula_sum   'Nd1 Si4 Pt4 Rh2'
_cell_volume   172.42741391
_cell_formula_units_Z   1
loop_
 _symmetry_equiv_pos_site_id
 _symmetry_equiv_pos_as_xyz
  1  'x, y, z'
loop_
 _atom_site_type_symbol
 _atom_site_label
 _atom_site_symmetry_multiplicity
 _atom_site_fract_x
 _atom_site_fract_y
 _atom_site_fract_z
 _atom_site_occupancy
  Nd  Nd0  1  0.998807  0.997614  0.000000  1
  Si  Si1  1  0.330381  0.660761  0.000000  1
  Si  Si2  1  0.398067  0.203914  0.500000  1
  Si  Si3  1  0.805848  0.203914  0.500000  1
  Si  Si4  1  0.798763  0.597525  0.500000  1
  Pt  Pt5  1  0.532610  0.065218  0.000000  1
  Pt  Pt6  1  0.197793  0.395585  0.500000  1
  Pt  Pt7  1  0.194720  0.805351  0.500000  1
  Pt  Pt8  1  0.610632  0.805351  0.500000  1
  Rh  Rh9  1  0.532562  0.465716  0.000000  1
  Rh  Rh10  1  0.933155  0.465716  0.000000  1
