# generated using pymatgen
data_Yb2Si14Ir5Ru
_symmetry_space_group_name_H-M   'P 1'
_cell_length_a   7.99378007
_cell_length_b   7.99378091
_cell_length_c   8.06427709
_cell_angle_alpha   56.86986715
_cell_angle_beta   56.86986173
_cell_angle_gamma   56.96411128
_symmetry_Int_Tables_number   1
_chemical_formula_structural   Yb2Si14Ir5Ru
_chemical_formula_sum   'Yb2 Si14 Ir5 Ru1'
_cell_volume   338.33221279
_cell_formula_units_Z   1
loop_
 _symmetry_equiv_pos_site_id
 _symmetry_equiv_pos_as_xyz
  1  'x, y, z'
loop_
 _atom_site_type_symbol
 _atom_site_label
 _atom_site_symmetry_multiplicity
 _atom_site_fract_x
 _atom_site_fract_y
 _atom_site_fract_z
 _atom_site_occupancy
  Yb  Yb0  1  0.000120  0.000802  0.999109  1
  Yb  Yb1  1  0.499198  0.499880  0.500891  1
  Si  Si2  1  0.753392  0.746608  0.750000  1
  Si  Si3  1  0.250264  0.249736  0.250000  1
  Si  Si4  1  0.848511  0.067372  0.672410  1
  Si  Si5  1  0.671615  0.851103  0.065920  1
  Si  Si6  1  0.062960  0.672012  0.849855  1
  Si  Si7  1  0.648897  0.828385  0.434080  1
  Si  Si8  1  0.432628  0.651489  0.827590  1
  Si  Si9  1  0.827988  0.437040  0.650145  1
  Si  Si10  1  0.172431  0.564408  0.352453  1
  Si  Si11  1  0.568007  0.349148  0.171952  1
  Si  Si12  1  0.350175  0.174610  0.565924  1
  Si  Si13  1  0.935592  0.327569  0.147547  1
  Si  Si14  1  0.325390  0.149825  0.934076  1
  Si  Si15  1  0.150852  0.931993  0.328048  1
  Ir  Ir16  1  0.249413  0.928811  0.570723  1
  Ir  Ir17  1  0.571189  0.250587  0.929277  1
  Ir  Ir18  1  0.927182  0.572818  0.250000  1
  Ir  Ir19  1  0.429275  0.750317  0.070262  1
  Ir  Ir20  1  0.749683  0.070725  0.429738  1
  Ru  Ru21  1  0.075236  0.424764  0.750000  1
