# generated using pymatgen
data_Pr4Pd3Rh
_symmetry_space_group_name_H-M   'P 1'
_cell_length_a   4.61679100
_cell_length_b   5.80405622
_cell_length_c   7.41781597
_cell_angle_alpha   89.91501046
_cell_angle_beta   90.00000000
_cell_angle_gamma   90.00000000
_symmetry_Int_Tables_number   1
_chemical_formula_structural   Pr4Pd3Rh
_chemical_formula_sum   'Pr4 Pd3 Rh1'
_cell_volume   198.76842753
_cell_formula_units_Z   1
loop_
 _symmetry_equiv_pos_site_id
 _symmetry_equiv_pos_as_xyz
  1  'x, y, z'
loop_
 _atom_site_type_symbol
 _atom_site_label
 _atom_site_symmetry_multiplicity
 _atom_site_fract_x
 _atom_site_fract_y
 _atom_site_fract_z
 _atom_site_occupancy
  Pr  Pr0  1  0.250000  0.362914  0.679160  1
  Pr  Pr1  1  0.250000  0.139289  0.185566  1
  Pr  Pr2  1  0.750000  0.646443  0.322856  1
  Pr  Pr3  1  0.750000  0.858419  0.810287  1
  Pd  Pd4  1  0.250000  0.649946  0.042016  1
  Pd  Pd5  1  0.750000  0.153600  0.456085  1
  Pd  Pd6  1  0.750000  0.350446  0.960629  1
  Rh  Rh7  1  0.250000  0.838941  0.543402  1
