# generated using pymatgen
data_Tm2Sc4Pb5
_symmetry_space_group_name_H-M   'P 1'
_cell_length_a   11.26205958
_cell_length_b   11.26206023
_cell_length_c   11.26282857
_cell_angle_alpha   131.96663858
_cell_angle_beta   59.29079512
_cell_angle_gamma   147.34899305
_symmetry_Int_Tables_number   1
_chemical_formula_structural   Tm2Sc4Pb5
_chemical_formula_sum   'Tm4 Sc8 Pb10'
_cell_volume   568.15015786
_cell_formula_units_Z   2
loop_
 _symmetry_equiv_pos_site_id
 _symmetry_equiv_pos_as_xyz
  1  'x, y, z'
loop_
 _atom_site_type_symbol
 _atom_site_label
 _atom_site_symmetry_multiplicity
 _atom_site_fract_x
 _atom_site_fract_y
 _atom_site_fract_z
 _atom_site_occupancy
  Tm  Tm0  1  0.141785  0.112222  0.254007  1
  Tm  Tm1  1  0.858214  0.887780  0.745994  1
  Tm  Tm2  1  0.358215  0.612236  0.970449  1
  Tm  Tm3  1  0.641785  0.387765  0.029549  1
  Sc  Sc4  1  0.556924  0.249979  0.306911  1
  Sc  Sc5  1  0.943068  0.250012  0.693089  1
  Sc  Sc6  1  0.443077  0.750021  0.693089  1
  Sc  Sc7  1  0.056932  0.749988  0.306911  1
  Sc  Sc8  1  0.438080  0.238183  0.676263  1
  Sc  Sc9  1  0.561921  0.761817  0.323737  1
  Sc  Sc10  1  0.061926  0.738329  0.800255  1
  Sc  Sc11  1  0.938074  0.261673  0.199746  1
  Pb  Pb12  1  0.291028  0.299599  0.590627  1
  Pb  Pb13  1  0.708972  0.700401  0.409372  1
  Pb  Pb14  1  0.208969  0.799601  0.008568  1
  Pb  Pb15  1  0.791033  0.200399  0.991432  1
  Pb  Pb16  1  0.249984  0.249984  0.000000  1
  Pb  Pb17  1  0.750015  0.750015  0.000000  1
  Pb  Pb18  1  0.071554  0.404721  0.476274  1
  Pb  Pb19  1  0.928447  0.595279  0.523726  1
  Pb  Pb20  1  0.428426  0.904745  0.333170  1
  Pb  Pb21  1  0.571574  0.095255  0.666830  1
