# generated using pymatgen
data_Sr(PaN2)2
_symmetry_space_group_name_H-M   'P 1'
_cell_length_a   10.27553205
_cell_length_b   3.59021300
_cell_length_c   12.07482602
_cell_angle_alpha   90.00000000
_cell_angle_beta   89.99805095
_cell_angle_gamma   90.00000000
_symmetry_Int_Tables_number   1
_chemical_formula_structural   Sr(PaN2)2
_chemical_formula_sum   'Sr4 Pa8 N16'
_cell_volume   445.45661760
_cell_formula_units_Z   4
loop_
 _symmetry_equiv_pos_site_id
 _symmetry_equiv_pos_as_xyz
  1  'x, y, z'
loop_
 _atom_site_type_symbol
 _atom_site_label
 _atom_site_symmetry_multiplicity
 _atom_site_fract_x
 _atom_site_fract_y
 _atom_site_fract_z
 _atom_site_occupancy
  Sr  Sr0  1  0.749213  0.500001  0.145195  1
  Sr  Sr1  1  0.249212  0.500001  0.354786  1
  Sr  Sr2  1  0.750778  0.000000  0.645220  1
  Sr  Sr3  1  0.250798  0.000000  0.854802  1
  Pa  Pa4  1  0.078985  0.500001  0.113011  1
  Pa  Pa5  1  0.425339  0.000000  0.113623  1
  Pa  Pa6  1  0.925344  0.000000  0.386375  1
  Pa  Pa7  1  0.578977  0.500001  0.386983  1
  Pa  Pa8  1  0.421015  0.000000  0.613022  1
  Pa  Pa9  1  0.074650  0.500001  0.613620  1
  Pa  Pa10  1  0.574667  0.500001  0.886385  1
  Pa  Pa11  1  0.921032  0.000000  0.886983  1
  N  N12  1  0.614945  0.000000  0.008030  1
  N  N13  1  0.940330  0.000000  0.074951  1
  N  N14  1  0.209466  0.000000  0.166570  1
  N  N15  1  0.487220  0.500001  0.214824  1
  N  N16  1  0.987262  0.500001  0.285185  1
  N  N17  1  0.709469  0.000000  0.333406  1
  N  N18  1  0.440328  0.000000  0.425051  1
  N  N19  1  0.114932  0.000000  0.491969  1
  N  N20  1  0.885057  0.500001  0.508026  1
  N  N21  1  0.559659  0.500001  0.574957  1
  N  N22  1  0.290525  0.500001  0.666593  1
  N  N23  1  0.012745  0.000000  0.714811  1
  N  N24  1  0.512776  0.000000  0.785186  1
  N  N25  1  0.790543  0.500001  0.833426  1
  N  N26  1  0.059686  0.500001  0.925038  1
  N  N27  1  0.385060  0.500001  0.991980  1
