# generated using pymatgen
data_Pm4HgPt3
_symmetry_space_group_name_H-M   'P 1'
_cell_length_a   7.38959191
_cell_length_b   5.79422880
_cell_length_c   4.68655600
_cell_angle_alpha   90.00000000
_cell_angle_beta   90.00000000
_cell_angle_gamma   89.24220952
_symmetry_Int_Tables_number   1
_chemical_formula_structural   Pm4HgPt3
_chemical_formula_sum   'Pm4 Hg1 Pt3'
_cell_volume   200.64665337
_cell_formula_units_Z   1
loop_
 _symmetry_equiv_pos_site_id
 _symmetry_equiv_pos_as_xyz
  1  'x, y, z'
loop_
 _atom_site_type_symbol
 _atom_site_label
 _atom_site_symmetry_multiplicity
 _atom_site_fract_x
 _atom_site_fract_y
 _atom_site_fract_z
 _atom_site_occupancy
  Pm  Pm0  1  0.115809  0.502236  0.000000  1
  Pm  Pm1  1  0.582778  0.737967  0.000000  1
  Pm  Pm2  1  0.237548  0.026549  0.499999  1
  Pm  Pm3  1  0.723600  0.228839  0.499999  1
  Hg  Hg4  1  0.879679  0.721736  0.499999  1
  Pt  Pt5  1  0.461035  0.223787  0.000000  1
  Pt  Pt6  1  0.957077  0.021061  0.000000  1
  Pt  Pt7  1  0.375807  0.537826  0.499999  1
