# generated using pymatgen
data_PrTmP7Ru12
_symmetry_space_group_name_H-M   'P 1'
_cell_length_a   9.45747500
_cell_length_b   9.45747286
_cell_length_c   3.96886200
_cell_angle_alpha   90.00000000
_cell_angle_beta   90.00000000
_cell_angle_gamma   119.99999699
_symmetry_Int_Tables_number   1
_chemical_formula_structural   PrTmP7Ru12
_chemical_formula_sum   'Pr1 Tm1 P7 Ru12'
_cell_volume   307.43049824
_cell_formula_units_Z   1
loop_
 _symmetry_equiv_pos_site_id
 _symmetry_equiv_pos_as_xyz
  1  'x, y, z'
loop_
 _atom_site_type_symbol
 _atom_site_label
 _atom_site_symmetry_multiplicity
 _atom_site_fract_x
 _atom_site_fract_y
 _atom_site_fract_z
 _atom_site_occupancy
  Pr  Pr0  1  0.333333  0.666667  0.000000  1
  Tm  Tm1  1  0.666667  0.333333  0.500000  1
  P  P2  1  0.605102  0.718787  0.500000  1
  P  P3  1  0.000000  0.000000  0.000000  1
  P  P4  1  0.281213  0.886315  0.500000  1
  P  P5  1  0.113685  0.394898  0.500000  1
  P  P6  1  0.886134  0.571758  0.000000  1
  P  P7  1  0.428242  0.314377  0.000000  1
  P  P8  1  0.685623  0.113866  0.000000  1
  Ru  Ru9  1  0.559948  0.955914  0.500000  1
  Ru  Ru10  1  0.395967  0.440052  0.500000  1
  Ru  Ru11  1  0.914717  0.119750  0.500000  1
  Ru  Ru12  1  0.205033  0.085283  0.500000  1
  Ru  Ru13  1  0.880250  0.794967  0.500000  1
  Ru  Ru14  1  0.728735  0.892889  0.000000  1
  Ru  Ru15  1  0.107111  0.835845  0.000000  1
  Ru  Ru16  1  0.164155  0.271265  0.000000  1
  Ru  Ru17  1  0.422550  0.069353  0.000000  1
  Ru  Ru18  1  0.930647  0.353198  0.000000  1
  Ru  Ru19  1  0.646802  0.577450  0.000000  1
  Ru  Ru20  1  0.044086  0.604033  0.500000  1
