# generated using pymatgen
data_AlGa7Cl16
_symmetry_space_group_name_H-M   'P 1'
_cell_length_a   7.20119886
_cell_length_b   9.88110392
_cell_length_c   9.91508500
_cell_angle_alpha   90.00000000
_cell_angle_beta   90.00000000
_cell_angle_gamma   90.10208632
_symmetry_Int_Tables_number   1
_chemical_formula_structural   AlGa7Cl16
_chemical_formula_sum   'Al1 Ga7 Cl16'
_cell_volume   705.51462855
_cell_formula_units_Z   1
loop_
 _symmetry_equiv_pos_site_id
 _symmetry_equiv_pos_as_xyz
  1  'x, y, z'
loop_
 _atom_site_type_symbol
 _atom_site_label
 _atom_site_symmetry_multiplicity
 _atom_site_fract_x
 _atom_site_fract_y
 _atom_site_fract_z
 _atom_site_occupancy
  Al  Al0  1  0.750000  0.000000  0.818810  1
  Ga  Ga1  1  0.250000  0.500000  0.319257  1
  Ga  Ga2  1  0.827672  0.749973  0.250015  1
  Ga  Ga3  1  0.172144  0.249893  0.750015  1
  Ga  Ga4  1  0.250000  0.000000  0.180882  1
  Ga  Ga5  1  0.672328  0.250027  0.250015  1
  Ga  Ga6  1  0.750000  0.500000  0.680686  1
  Ga  Ga7  1  0.327856  0.750107  0.750015  1
  Cl  Cl8  1  0.334801  0.324599  0.442812  1
  Cl  Cl9  1  0.494580  0.540367  0.189662  1
  Cl  Cl10  1  0.665176  0.675376  0.557249  1
  Cl  Cl11  1  0.334775  0.175443  0.057165  1
  Cl  Cl12  1  0.005438  0.040326  0.310323  1
  Cl  Cl13  1  0.667244  0.828276  0.940280  1
  Cl  Cl14  1  0.834824  0.324624  0.557249  1
  Cl  Cl15  1  0.994588  0.540350  0.810365  1
  Cl  Cl16  1  0.165199  0.675401  0.442812  1
  Cl  Cl17  1  0.005420  0.459633  0.189662  1
  Cl  Cl18  1  0.494562  0.959674  0.310323  1
  Cl  Cl19  1  0.832756  0.171724  0.940280  1
  Cl  Cl20  1  0.165225  0.824557  0.057165  1
  Cl  Cl21  1  0.989551  0.960330  0.692297  1
  Cl  Cl22  1  0.505412  0.459650  0.810365  1
  Cl  Cl23  1  0.510449  0.039670  0.692297  1
