# generated using pymatgen
data_Sr2Cd9InAu6
_symmetry_space_group_name_H-M   'P 1'
_cell_length_a   4.56696000
_cell_length_b   12.98069072
_cell_length_c   14.33513201
_cell_angle_alpha   90.65046358
_cell_angle_beta   90.00000000
_cell_angle_gamma   90.00000000
_symmetry_Int_Tables_number   1
_chemical_formula_structural   Sr2Cd9InAu6
_chemical_formula_sum   'Sr4 Cd18 In2 Au12'
_cell_volume   849.76476520
_cell_formula_units_Z   2
loop_
 _symmetry_equiv_pos_site_id
 _symmetry_equiv_pos_as_xyz
  1  'x, y, z'
loop_
 _atom_site_type_symbol
 _atom_site_label
 _atom_site_symmetry_multiplicity
 _atom_site_fract_x
 _atom_site_fract_y
 _atom_site_fract_z
 _atom_site_occupancy
  Sr  Sr0  1  0.250000  0.900294  0.294530  1
  Sr  Sr1  1  0.750000  0.099706  0.705470  1
  Sr  Sr2  1  0.750000  0.397501  0.204212  1
  Sr  Sr3  1  0.250000  0.602499  0.795788  1
  Cd  Cd4  1  0.250000  0.413766  0.002366  1
  Cd  Cd5  1  0.750000  0.586234  0.997634  1
  Cd  Cd6  1  0.750000  0.911363  0.501019  1
  Cd  Cd7  1  0.250000  0.088637  0.498981  1
  Cd  Cd8  1  0.250000  0.606311  0.321259  1
  Cd  Cd9  1  0.750000  0.393689  0.678741  1
  Cd  Cd10  1  0.750000  0.109082  0.179321  1
  Cd  Cd11  1  0.250000  0.890918  0.820679  1
  Cd  Cd12  1  0.250000  0.012448  0.067482  1
  Cd  Cd13  1  0.750000  0.987552  0.932518  1
  Cd  Cd14  1  0.750000  0.513390  0.431771  1
  Cd  Cd15  1  0.250000  0.486610  0.568229  1
  Cd  Cd16  1  0.250000  0.777856  0.019518  1
  Cd  Cd17  1  0.750000  0.222144  0.980482  1
  Cd  Cd18  1  0.750000  0.276334  0.477829  1
  Cd  Cd19  1  0.250000  0.723666  0.522171  1
  Cd  Cd20  1  0.250000  0.190394  0.305507  1
  Cd  Cd21  1  0.750000  0.809606  0.694493  1
  In  In22  1  0.750000  0.692678  0.192903  1
  In  In23  1  0.250000  0.307322  0.807097  1
  Au  Au24  1  0.250000  0.585723  0.124069  1
  Au  Au25  1  0.750000  0.414277  0.875931  1
  Au  Au26  1  0.750000  0.080870  0.376211  1
  Au  Au27  1  0.250000  0.919130  0.623789  1
  Au  Au28  1  0.250000  0.229714  0.110103  1
  Au  Au29  1  0.750000  0.770286  0.889897  1
  Au  Au30  1  0.750000  0.728940  0.390273  1
  Au  Au31  1  0.250000  0.271060  0.609727  1
  Au  Au32  1  0.250000  0.389298  0.384409  1
  Au  Au33  1  0.750000  0.610702  0.615591  1
  Au  Au34  1  0.750000  0.887543  0.117168  1
  Au  Au35  1  0.250000  0.112457  0.882832  1
