# generated using pymatgen
data_KB13C2
_symmetry_space_group_name_H-M   'P 1'
_cell_length_a   5.66947043
_cell_length_b   7.48914877
_cell_length_c   7.48914966
_cell_angle_alpha   96.65288829
_cell_angle_beta   112.24156020
_cell_angle_gamma   112.24155996
_symmetry_Int_Tables_number   1
_chemical_formula_structural   KB13C2
_chemical_formula_sum   'K2 B26 C4'
_cell_volume   259.66743735
_cell_formula_units_Z   2
loop_
 _symmetry_equiv_pos_site_id
 _symmetry_equiv_pos_as_xyz
  1  'x, y, z'
loop_
 _atom_site_type_symbol
 _atom_site_label
 _atom_site_symmetry_multiplicity
 _atom_site_fract_x
 _atom_site_fract_y
 _atom_site_fract_z
 _atom_site_occupancy
  K  K0  1  0.344809  0.594809  0.094809  1
  K  K1  1  0.655191  0.405191  0.905191  1
  B  B2  1  0.320420  0.219952  0.097444  1
  B  B3  1  0.996974  0.219952  0.097444  1
  B  B4  1  0.306101  0.979977  0.122596  1
  B  B5  1  0.796471  0.979977  0.122596  1
  B  B6  1  0.984069  0.820392  0.147745  1
  B  B7  1  0.173637  0.098157  0.249116  1
  B  B8  1  0.003023  0.402555  0.280047  1
  B  B9  1  0.679579  0.402555  0.280047  1
  B  B10  1  0.984069  0.647745  0.320392  1
  B  B11  1  0.650772  0.900772  0.400772  1
  B  B12  1  0.826363  0.250883  0.401843  1
  B  B13  1  0.306101  0.622596  0.479977  1
  B  B14  1  0.796471  0.622596  0.479977  1
  B  B15  1  0.203529  0.377404  0.520023  1
  B  B16  1  0.693899  0.377404  0.520023  1
  B  B17  1  0.173637  0.749117  0.598157  1
  B  B18  1  0.349228  0.099228  0.599228  1
  B  B19  1  0.015931  0.352255  0.679608  1
  B  B20  1  0.320421  0.597445  0.719953  1
  B  B21  1  0.996976  0.597445  0.719953  1
  B  B22  1  0.826363  0.901843  0.750884  1
  B  B23  1  0.015931  0.179608  0.852255  1
  B  B24  1  0.203529  0.020023  0.877404  1
  B  B25  1  0.693899  0.020023  0.877404  1
  B  B26  1  0.003026  0.780048  0.902556  1
  B  B27  1  0.679579  0.780048  0.902556  1
  C  C28  1  0.635184  0.013424  0.256944  1
  C  C29  1  0.364816  0.243055  0.486575  1
  C  C30  1  0.635184  0.756945  0.513425  1
  C  C31  1  0.364816  0.986576  0.743056  1
