# generated using pymatgen
data_Yb3(SmRu)2
_symmetry_space_group_name_H-M   'P 1'
_cell_length_a   8.58669249
_cell_length_b   8.58669174
_cell_length_c   7.35648963
_cell_angle_alpha   82.91158868
_cell_angle_beta   82.91159053
_cell_angle_gamma   44.16424460
_symmetry_Int_Tables_number   1
_chemical_formula_structural   Yb3(SmRu)2
_chemical_formula_sum   'Yb6 Sm4 Ru4'
_cell_volume   374.53613369
_cell_formula_units_Z   2
loop_
 _symmetry_equiv_pos_site_id
 _symmetry_equiv_pos_as_xyz
  1  'x, y, z'
loop_
 _atom_site_type_symbol
 _atom_site_label
 _atom_site_symmetry_multiplicity
 _atom_site_fract_x
 _atom_site_fract_y
 _atom_site_fract_z
 _atom_site_occupancy
  Yb  Yb0  1  0.024133  0.797880  0.917592  1
  Yb  Yb1  1  0.202120  0.975867  0.582408  1
  Yb  Yb2  1  0.978361  0.200676  0.083409  1
  Yb  Yb3  1  0.799324  0.021639  0.416591  1
  Yb  Yb4  1  0.358547  0.205719  0.817139  1
  Yb  Yb5  1  0.794281  0.641453  0.682861  1
  Sm  Sm6  1  0.634569  0.798435  0.180796  1
  Sm  Sm7  1  0.201565  0.365431  0.319204  1
  Sm  Sm8  1  0.571001  0.428999  0.750000  1
  Sm  Sm9  1  0.433296  0.566704  0.250000  1
  Ru  Ru10  1  0.182110  0.598744  0.568487  1
  Ru  Ru11  1  0.401256  0.817890  0.931513  1
  Ru  Ru12  1  0.823653  0.404216  0.423048  1
  Ru  Ru13  1  0.595784  0.176347  0.076952  1
