# generated using pymatgen
data_Li4Pr3YSi8
_symmetry_space_group_name_H-M   'P 1'
_cell_length_a   3.86724600
_cell_length_b   7.72939127
_cell_length_c   10.46643153
_cell_angle_alpha   89.86284362
_cell_angle_beta   90.00000000
_cell_angle_gamma   90.00000000
_symmetry_Int_Tables_number   1
_chemical_formula_structural   Li4Pr3YSi8
_chemical_formula_sum   'Li4 Pr3 Y1 Si8'
_cell_volume   312.85599655
_cell_formula_units_Z   1
loop_
 _symmetry_equiv_pos_site_id
 _symmetry_equiv_pos_as_xyz
  1  'x, y, z'
loop_
 _atom_site_type_symbol
 _atom_site_label
 _atom_site_symmetry_multiplicity
 _atom_site_fract_x
 _atom_site_fract_y
 _atom_site_fract_z
 _atom_site_occupancy
  Li  Li0  1  0.250000  0.994277  0.389587  1
  Li  Li1  1  0.750000  0.004230  0.610711  1
  Li  Li2  1  0.250000  0.495179  0.107674  1
  Li  Li3  1  0.750000  0.509161  0.890408  1
  Pr  Pr4  1  0.750000  0.862705  0.135340  1
  Pr  Pr5  1  0.250000  0.637645  0.636924  1
  Pr  Pr6  1  0.750000  0.359462  0.364636  1
  Y  Y7  1  0.250000  0.134777  0.864195  1
  Si  Si8  1  0.750000  0.272248  0.064401  1
  Si  Si9  1  0.250000  0.732461  0.929336  1
  Si  Si10  1  0.750000  0.773153  0.429841  1
  Si  Si11  1  0.250000  0.221676  0.575676  1
  Si  Si12  1  0.750000  0.842381  0.822921  1
  Si  Si13  1  0.250000  0.165013  0.173094  1
  Si  Si14  1  0.750000  0.331559  0.682539  1
  Si  Si15  1  0.250000  0.664071  0.322719  1
