# generated using pymatgen
data_HoNp3(MoN2)4
_symmetry_space_group_name_H-M   'P 1'
_cell_length_a   3.18205300
_cell_length_b   5.61432639
_cell_length_c   10.86149656
_cell_angle_alpha   89.89466321
_cell_angle_beta   90.00000000
_cell_angle_gamma   90.00000000
_symmetry_Int_Tables_number   1
_chemical_formula_structural   HoNp3(MoN2)4
_chemical_formula_sum   'Ho1 Np3 Mo4 N8'
_cell_volume   194.04122182
_cell_formula_units_Z   1
loop_
 _symmetry_equiv_pos_site_id
 _symmetry_equiv_pos_as_xyz
  1  'x, y, z'
loop_
 _atom_site_type_symbol
 _atom_site_label
 _atom_site_symmetry_multiplicity
 _atom_site_fract_x
 _atom_site_fract_y
 _atom_site_fract_z
 _atom_site_occupancy
  Ho  Ho0  1  0.750000  0.424598  0.353915  1
  Np  Np1  1  0.250000  0.074703  0.856034  1
  Np  Np2  1  0.250000  0.570578  0.642399  1
  Np  Np3  1  0.750000  0.925271  0.144969  1
  Mo  Mo4  1  0.250000  0.429636  0.101593  1
  Mo  Mo5  1  0.250000  0.933109  0.403595  1
  Mo  Mo6  1  0.750000  0.570068  0.900158  1
  Mo  Mo7  1  0.750000  0.068343  0.599014  1
  N  N8  1  0.250000  0.160941  0.244977  1
  N  N9  1  0.250000  0.670030  0.254918  1
  N  N10  1  0.750000  0.834310  0.754600  1
  N  N11  1  0.750000  0.335043  0.744677  1
  N  N12  1  0.250000  0.756463  0.996317  1
  N  N13  1  0.250000  0.260524  0.502636  1
  N  N14  1  0.750000  0.242169  0.003909  1
  N  N15  1  0.750000  0.744215  0.496290  1
