# generated using pymatgen
data_Dy2Tm3Co(P2Ru3)6
_symmetry_space_group_name_H-M   'P 1'
_cell_length_a   12.46499900
_cell_length_b   12.46499856
_cell_length_c   3.96223000
_cell_angle_alpha   90.00000000
_cell_angle_beta   90.00000000
_cell_angle_gamma   120.00000381
_symmetry_Int_Tables_number   1
_chemical_formula_structural   Dy2Tm3Co(P2Ru3)6
_chemical_formula_sum   'Dy2 Tm3 Co1 P12 Ru18'
_cell_volume   533.15658525
_cell_formula_units_Z   1
loop_
 _symmetry_equiv_pos_site_id
 _symmetry_equiv_pos_as_xyz
  1  'x, y, z'
loop_
 _atom_site_type_symbol
 _atom_site_label
 _atom_site_symmetry_multiplicity
 _atom_site_fract_x
 _atom_site_fract_y
 _atom_site_fract_z
 _atom_site_occupancy
  Dy  Dy0  1  0.666667  0.333333  0.000000  1
  Dy  Dy1  1  0.333333  0.666667  0.000000  1
  Tm  Tm2  1  0.182533  0.182533  0.500000  1
  Tm  Tm3  1  0.817467  0.000000  0.500000  1
  Tm  Tm4  1  0.000000  0.817467  0.500000  1
  Co  Co5  1  0.000000  0.000000  0.000000  1
  P  P6  1  0.372409  0.372409  0.000000  1
  P  P7  1  0.627591  0.000000  0.000000  1
  P  P8  1  0.000000  0.627591  0.000000  1
  P  P9  1  0.830917  0.306931  0.500000  1
  P  P10  1  0.693069  0.523987  0.500000  1
  P  P11  1  0.476013  0.169083  0.500000  1
  P  P12  1  0.306931  0.830917  0.500000  1
  P  P13  1  0.523987  0.693069  0.500000  1
  P  P14  1  0.169083  0.476013  0.500000  1
  P  P15  1  0.823891  0.823891  0.000000  1
  P  P16  1  0.176109  0.000000  0.000000  1
  P  P17  1  0.000000  0.176109  0.000000  1
  Ru  Ru18  1  0.816086  0.189945  0.000000  1
  Ru  Ru19  1  0.810055  0.626141  0.000000  1
  Ru  Ru20  1  0.373859  0.183914  0.000000  1
  Ru  Ru21  1  0.189945  0.816086  0.000000  1
  Ru  Ru22  1  0.626141  0.810055  0.000000  1
  Ru  Ru23  1  0.183914  0.373859  0.000000  1
  Ru  Ru24  1  0.556145  0.556145  0.000000  1
  Ru  Ru25  1  0.443855  0.000000  0.000000  1
  Ru  Ru26  1  0.000000  0.443855  0.000000  1
  Ru  Ru27  1  0.635023  0.126131  0.500000  1
  Ru  Ru28  1  0.873869  0.508893  0.500000  1
  Ru  Ru29  1  0.491107  0.364977  0.500000  1
  Ru  Ru30  1  0.126131  0.635023  0.500000  1
  Ru  Ru31  1  0.508893  0.873869  0.500000  1
  Ru  Ru32  1  0.364977  0.491107  0.500000  1
  Ru  Ru33  1  0.721801  0.721801  0.500000  1
  Ru  Ru34  1  0.278199  0.000000  0.500000  1
  Ru  Ru35  1  0.000000  0.278199  0.500000  1
