# generated using pymatgen
data_Tb3Er2(In2Pt)2
_symmetry_space_group_name_H-M   'P 1'
_cell_length_a   3.63930500
_cell_length_b   8.15885700
_cell_length_c   18.23242300
_cell_angle_alpha   90.00000000
_cell_angle_beta   90.00000000
_cell_angle_gamma   90.00000000
_symmetry_Int_Tables_number   1
_chemical_formula_structural   Tb3Er2(In2Pt)2
_chemical_formula_sum   'Tb6 Er4 In8 Pt4'
_cell_volume   541.36747932
_cell_formula_units_Z   2
loop_
 _symmetry_equiv_pos_site_id
 _symmetry_equiv_pos_as_xyz
  1  'x, y, z'
loop_
 _atom_site_type_symbol
 _atom_site_label
 _atom_site_symmetry_multiplicity
 _atom_site_fract_x
 _atom_site_fract_y
 _atom_site_fract_z
 _atom_site_occupancy
  Tb  Tb0  1  0.000000  0.243365  0.219687  1
  Tb  Tb1  1  0.000000  0.756635  0.780313  1
  Tb  Tb2  1  0.000000  0.256635  0.719687  1
  Tb  Tb3  1  0.000000  0.743365  0.280313  1
  Tb  Tb4  1  0.000000  0.000000  0.000000  1
  Tb  Tb5  1  0.000000  0.500000  0.500000  1
  Er  Er6  1  0.000000  0.115927  0.414172  1
  Er  Er7  1  0.000000  0.884073  0.585828  1
  Er  Er8  1  0.000000  0.384073  0.914172  1
  Er  Er9  1  0.000000  0.615927  0.085828  1
  In  In10  1  0.500000  0.422579  0.351066  1
  In  In11  1  0.500000  0.577421  0.648934  1
  In  In12  1  0.500000  0.077421  0.851066  1
  In  In13  1  0.500000  0.922579  0.148934  1
  In  In14  1  0.500000  0.293809  0.066302  1
  In  In15  1  0.500000  0.706191  0.933698  1
  In  In16  1  0.500000  0.206191  0.566302  1
  In  In17  1  0.500000  0.793809  0.433698  1
  Pt  Pt18  1  0.500000  0.026317  0.303972  1
  Pt  Pt19  1  0.500000  0.973683  0.696028  1
  Pt  Pt20  1  0.500000  0.473683  0.803972  1
  Pt  Pt21  1  0.500000  0.526317  0.196028  1
