# generated using pymatgen
data_Nd3SmScPt3O14
_symmetry_space_group_name_H-M   'P 1'
_cell_length_a   7.40805540
_cell_length_b   7.48332314
_cell_length_c   7.40805600
_cell_angle_alpha   60.33216140
_cell_angle_beta   59.99999734
_cell_angle_gamma   60.33216482
_symmetry_Int_Tables_number   1
_chemical_formula_structural   Nd3SmScPt3O14
_chemical_formula_sum   'Nd3 Sm1 Sc1 Pt3 O14'
_cell_volume   291.84365808
_cell_formula_units_Z   1
loop_
 _symmetry_equiv_pos_site_id
 _symmetry_equiv_pos_as_xyz
  1  'x, y, z'
loop_
 _atom_site_type_symbol
 _atom_site_label
 _atom_site_symmetry_multiplicity
 _atom_site_fract_x
 _atom_site_fract_y
 _atom_site_fract_z
 _atom_site_occupancy
  Nd  Nd0  1  0.625000  0.625000  0.125000  1
  Nd  Nd1  1  0.125000  0.625000  0.625000  1
  Nd  Nd2  1  0.625000  0.625000  0.625000  1
  Sm  Sm3  1  0.625000  0.125000  0.625000  1
  Sc  Sc4  1  0.125000  0.625000  0.125000  1
  Pt  Pt5  1  0.125000  0.125000  0.625000  1
  Pt  Pt6  1  0.625000  0.125000  0.125000  1
  Pt  Pt7  1  0.125000  0.125000  0.125000  1
  O  O8  1  0.503673  0.488980  0.503673  1
  O  O9  1  0.746327  0.761020  0.746327  1
  O  O10  1  0.456981  0.051754  0.456981  1
  O  O11  1  0.213150  0.795242  0.213150  1
  O  O12  1  0.471543  0.454758  0.036850  1
  O  O13  1  0.036850  0.454758  0.471543  1
  O  O14  1  0.456981  0.051754  0.034285  1
  O  O15  1  0.034285  0.051754  0.456981  1
  O  O16  1  0.036850  0.454758  0.036850  1
  O  O17  1  0.793019  0.198246  0.215715  1
  O  O18  1  0.213150  0.795242  0.778457  1
  O  O19  1  0.793019  0.198246  0.793019  1
  O  O20  1  0.215715  0.198246  0.793019  1
  O  O21  1  0.778457  0.795242  0.213150  1
