# generated using pymatgen
data_Tm4Lu4B24Ru3W
_symmetry_space_group_name_H-M   'P 1'
_cell_length_a   3.59296600
_cell_length_b   9.08202117
_cell_length_c   11.46919276
_cell_angle_alpha   89.86660332
_cell_angle_beta   90.00000000
_cell_angle_gamma   90.00000000
_symmetry_Int_Tables_number   1
_chemical_formula_structural   Tm4Lu4B24Ru3W
_chemical_formula_sum   'Tm4 Lu4 B24 Ru3 W1'
_cell_volume   374.25472486
_cell_formula_units_Z   1
loop_
 _symmetry_equiv_pos_site_id
 _symmetry_equiv_pos_as_xyz
  1  'x, y, z'
loop_
 _atom_site_type_symbol
 _atom_site_label
 _atom_site_symmetry_multiplicity
 _atom_site_fract_x
 _atom_site_fract_y
 _atom_site_fract_z
 _atom_site_occupancy
  Tm  Tm0  1  0.000000  0.320672  0.413774  1
  Tm  Tm1  1  0.000000  0.678366  0.585328  1
  Tm  Tm2  1  0.000000  0.819967  0.086726  1
  Tm  Tm3  1  0.000000  0.177882  0.914883  1
  Lu  Lu4  1  0.000000  0.946351  0.373280  1
  Lu  Lu5  1  0.000000  0.057531  0.628576  1
  Lu  Lu6  1  0.000000  0.442539  0.125859  1
  Lu  Lu7  1  0.000000  0.556787  0.871271  1
  B  B8  1  0.500000  0.549870  0.437028  1
  B  B9  1  0.500000  0.445713  0.568253  1
  B  B10  1  0.500000  0.053994  0.066208  1
  B  B11  1  0.500000  0.946333  0.933419  1
  B  B12  1  0.500000  0.753381  0.422829  1
  B  B13  1  0.500000  0.250632  0.580893  1
  B  B14  1  0.500000  0.249301  0.079866  1
  B  B15  1  0.500000  0.750530  0.919355  1
  B  B16  1  0.500000  0.796585  0.263441  1
  B  B17  1  0.500000  0.207974  0.734891  1
  B  B18  1  0.500000  0.290794  0.233088  1
  B  B19  1  0.500000  0.708586  0.765268  1
  B  B20  1  0.500000  0.631335  0.180985  1
  B  B21  1  0.500000  0.368605  0.815905  1
  B  B22  1  0.500000  0.131053  0.315114  1
  B  B23  1  0.500000  0.869747  0.684518  1
  B  B24  1  0.500000  0.983325  0.212600  1
  B  B25  1  0.500000  0.017950  0.787872  1
  B  B26  1  0.500000  0.475738  0.286203  1
  B  B27  1  0.500000  0.517376  0.713226  1
  B  B28  1  0.500000  0.604257  0.026868  1
  B  B29  1  0.500000  0.394817  0.970260  1
  B  B30  1  0.500000  0.105573  0.471793  1
  B  B31  1  0.500000  0.898102  0.530084  1
  Ru  Ru32  1  0.000000  0.360864  0.680812  1
  Ru  Ru33  1  0.000000  0.137783  0.178365  1
  Ru  Ru34  1  0.000000  0.861890  0.820119  1
  W  W35  1  0.000000  0.637797  0.321039  1
