# generated using pymatgen
data_Tb4YNp2O12
_symmetry_space_group_name_H-M   'P 1'
_cell_length_a   6.56332442
_cell_length_b   6.67111455
_cell_length_c   6.58824878
_cell_angle_alpha   99.74203173
_cell_angle_beta   98.83370320
_cell_angle_gamma   98.97650014
_symmetry_Int_Tables_number   1
_chemical_formula_structural   Tb4YNp2O12
_chemical_formula_sum   'Tb4 Y1 Np2 O12'
_cell_volume   275.98224418
_cell_formula_units_Z   1
loop_
 _symmetry_equiv_pos_site_id
 _symmetry_equiv_pos_as_xyz
  1  'x, y, z'
loop_
 _atom_site_type_symbol
 _atom_site_label
 _atom_site_symmetry_multiplicity
 _atom_site_fract_x
 _atom_site_fract_y
 _atom_site_fract_z
 _atom_site_occupancy
  Tb  Tb0  1  0.390450  0.856030  0.685124  1
  Tb  Tb1  1  0.304994  0.611208  0.141064  1
  Tb  Tb2  1  0.144588  0.313390  0.606979  1
  Tb  Tb3  1  0.607191  0.134880  0.311747  1
  Y  Y4  1  0.859626  0.692455  0.394161  1
  Np  Np5  1  0.694362  0.398280  0.862778  1
  Np  Np6  1  0.000209  0.002819  0.999295  1
  O  O7  1  0.436096  0.177728  0.594874  1
  O  O8  1  0.587707  0.421913  0.164251  1
  O  O9  1  0.175172  0.581231  0.432828  1
  O  O10  1  0.565754  0.818344  0.408173  1
  O  O11  1  0.427447  0.571223  0.822777  1
  O  O12  1  0.811806  0.419277  0.576234  1
  O  O13  1  0.068384  0.319418  0.939327  1
  O  O14  1  0.689869  0.052104  0.927131  1
  O  O15  1  0.052977  0.922276  0.685391  1
  O  O16  1  0.926998  0.683140  0.057700  1
  O  O17  1  0.310845  0.946433  0.073309  1
  O  O18  1  0.945523  0.077850  0.316856  1
