# generated using pymatgen
data_Ho4Er8Co4RuPb
_symmetry_space_group_name_H-M   'P 1'
_cell_length_a   8.25561639
_cell_length_b   8.25562784
_cell_length_c   8.25561457
_cell_angle_alpha   110.74310018
_cell_angle_beta   111.24879768
_cell_angle_gamma   106.46336252
_symmetry_Int_Tables_number   1
_chemical_formula_structural   Ho4Er8Co4RuPb
_chemical_formula_sum   'Ho4 Er8 Co4 Ru1 Pb1'
_cell_volume   432.24093826
_cell_formula_units_Z   1
loop_
 _symmetry_equiv_pos_site_id
 _symmetry_equiv_pos_as_xyz
  1  'x, y, z'
loop_
 _atom_site_type_symbol
 _atom_site_label
 _atom_site_symmetry_multiplicity
 _atom_site_fract_x
 _atom_site_fract_y
 _atom_site_fract_z
 _atom_site_occupancy
  Ho  Ho0  1  0.285796  0.184293  0.470089  1
  Ho  Ho1  1  0.714204  0.815707  0.529911  1
  Ho  Ho2  1  0.285798  0.815707  0.101505  1
  Ho  Ho3  1  0.714202  0.184293  0.898495  1
  Er  Er4  1  0.620045  0.312089  0.307953  1
  Er  Er5  1  0.379955  0.687911  0.692047  1
  Er  Er6  1  0.004138  0.312089  0.692043  1
  Er  Er7  1  0.995862  0.687911  0.307957  1
  Er  Er8  1  0.213720  0.408113  0.194392  1
  Er  Er9  1  0.786280  0.591887  0.805608  1
  Er  Er10  1  0.213728  0.019336  0.805609  1
  Er  Er11  1  0.786272  0.980664  0.194391  1
  Co  Co12  1  0.999997  0.378149  0.378152  1
  Co  Co13  1  0.000003  0.621851  0.621848  1
  Co  Co14  1  0.388824  0.888826  0.500002  1
  Co  Co15  1  0.611176  0.111174  0.499998  1
  Ru  Ru16  1  0.000000  0.000000  0.000000  1
  Pb  Pb17  1  0.500000  0.500000  0.000000  1
