# generated using pymatgen
data_Cs4K8Li4Si15Ge
_symmetry_space_group_name_H-M   'P 1'
_cell_length_a   7.89613656
_cell_length_b   9.86012600
_cell_length_c   12.69325889
_cell_angle_alpha   90.00000000
_cell_angle_beta   90.04304689
_cell_angle_gamma   90.00000000
_symmetry_Int_Tables_number   1
_chemical_formula_structural   Cs4K8Li4Si15Ge
_chemical_formula_sum   'Cs4 K8 Li4 Si15 Ge1'
_cell_volume   988.25752694
_cell_formula_units_Z   1
loop_
 _symmetry_equiv_pos_site_id
 _symmetry_equiv_pos_as_xyz
  1  'x, y, z'
loop_
 _atom_site_type_symbol
 _atom_site_label
 _atom_site_symmetry_multiplicity
 _atom_site_fract_x
 _atom_site_fract_y
 _atom_site_fract_z
 _atom_site_occupancy
  Cs  Cs0  1  0.645893  0.250000  0.394261  1
  Cs  Cs1  1  0.145902  0.250000  0.105722  1
  Cs  Cs2  1  0.354012  0.750000  0.605463  1
  Cs  Cs3  1  0.854253  0.750000  0.894371  1
  K  K4  1  0.660619  0.442527  0.689530  1
  K  K5  1  0.160279  0.057753  0.810401  1
  K  K6  1  0.339466  0.942684  0.310564  1
  K  K7  1  0.839393  0.557346  0.189585  1
  K  K8  1  0.339466  0.557316  0.310564  1
  K  K9  1  0.839393  0.942654  0.189585  1
  K  K10  1  0.660619  0.057473  0.689530  1
  K  K11  1  0.160279  0.442247  0.810401  1
  Li  Li12  1  0.500100  0.499674  0.000284  1
  Li  Li13  1  0.999993  0.000007  0.500005  1
  Li  Li14  1  0.500100  0.000326  0.000284  1
  Li  Li15  1  0.999993  0.499993  0.500005  1
  Si  Si16  1  0.862234  0.750000  0.587979  1
  Si  Si17  1  0.637921  0.250000  0.087823  1
  Si  Si18  1  0.137769  0.250000  0.412115  1
  Si  Si19  1  0.721743  0.629266  0.444060  1
  Si  Si20  1  0.221338  0.870481  0.057785  1
  Si  Si21  1  0.278256  0.129257  0.556000  1
  Si  Si22  1  0.778206  0.370746  0.944056  1
  Si  Si23  1  0.012703  0.250000  0.588952  1
  Si  Si24  1  0.512576  0.250000  0.910953  1
  Si  Si25  1  0.987290  0.750000  0.411103  1
  Si  Si26  1  0.486588  0.750000  0.090854  1
  Si  Si27  1  0.221338  0.629519  0.057785  1
  Si  Si28  1  0.721743  0.870734  0.444060  1
  Si  Si29  1  0.778206  0.129254  0.944056  1
  Si  Si30  1  0.278256  0.370743  0.556000  1
  Ge  Ge31  1  0.364073  0.750000  0.905865  1
