# generated using pymatgen
data_Cs12KRb5(GaBi4)2
_symmetry_space_group_name_H-M   'P 1'
_cell_length_a   11.53811400
_cell_length_b   11.51866126
_cell_length_c   12.10006900
_cell_angle_alpha   90.00000000
_cell_angle_beta   90.00000000
_cell_angle_gamma   120.05587512
_symmetry_Int_Tables_number   1
_chemical_formula_structural   Cs12KRb5(GaBi4)2
_chemical_formula_sum   'Cs12 K1 Rb5 Ga2 Bi8'
_cell_volume   1391.90794122
_cell_formula_units_Z   1
loop_
 _symmetry_equiv_pos_site_id
 _symmetry_equiv_pos_as_xyz
  1  'x, y, z'
loop_
 _atom_site_type_symbol
 _atom_site_label
 _atom_site_symmetry_multiplicity
 _atom_site_fract_x
 _atom_site_fract_y
 _atom_site_fract_z
 _atom_site_occupancy
  Cs  Cs0  1  0.208972  0.417941  0.540232  1
  Cs  Cs1  1  0.791180  0.209260  0.041386  1
  Cs  Cs2  1  0.418078  0.209260  0.041386  1
  Cs  Cs3  1  0.581476  0.790804  0.540980  1
  Cs  Cs4  1  0.209330  0.790804  0.540980  1
  Cs  Cs5  1  0.790776  0.581553  0.459020  1
  Cs  Cs6  1  0.791180  0.209260  0.458614  1
  Cs  Cs7  1  0.790776  0.581553  0.040980  1
  Cs  Cs8  1  0.418078  0.209260  0.458614  1
  Cs  Cs9  1  0.581476  0.790804  0.959020  1
  Cs  Cs10  1  0.208972  0.417941  0.959768  1
  Cs  Cs11  1  0.209330  0.790804  0.959020  1
  K  K12  1  0.119432  0.238862  0.250000  1
  Rb  Rb13  1  0.880953  0.119220  0.750000  1
  Rb  Rb14  1  0.238266  0.119220  0.750000  1
  Rb  Rb15  1  0.762276  0.881394  0.250000  1
  Rb  Rb16  1  0.119118  0.881394  0.250000  1
  Rb  Rb17  1  0.881065  0.762130  0.750000  1
  Ga  Ga18  1  0.333411  0.666824  0.250000  1
  Ga  Ga19  1  0.666698  0.333395  0.750000  1
  Bi  Bi20  1  0.470474  0.523553  0.250000  1
  Bi  Bi21  1  0.947381  0.474014  0.750000  1
  Bi  Bi22  1  0.526100  0.052201  0.750000  1
  Bi  Bi23  1  0.473832  0.947664  0.250000  1
  Bi  Bi24  1  0.053079  0.523553  0.250000  1
  Bi  Bi25  1  0.526633  0.474014  0.750000  1
  Bi  Bi26  1  0.000829  0.001658  0.001599  1
  Bi  Bi27  1  0.000829  0.001658  0.498401  1
