# generated using pymatgen
data_AcNdNi5B2Ir3
_symmetry_space_group_name_H-M   'P 1'
_cell_length_a   5.41808516
_cell_length_b   5.26794548
_cell_length_c   7.18725100
_cell_angle_alpha   90.00000000
_cell_angle_beta   90.00000000
_cell_angle_gamma   121.17668300
_symmetry_Int_Tables_number   1
_chemical_formula_structural   AcNdNi5B2Ir3
_chemical_formula_sum   'Ac1 Nd1 Ni5 B2 Ir3'
_cell_volume   175.51247818
_cell_formula_units_Z   1
loop_
 _symmetry_equiv_pos_site_id
 _symmetry_equiv_pos_as_xyz
  1  'x, y, z'
loop_
 _atom_site_type_symbol
 _atom_site_label
 _atom_site_symmetry_multiplicity
 _atom_site_fract_x
 _atom_site_fract_y
 _atom_site_fract_z
 _atom_site_occupancy
  Ac  Ac0  1  0.000000  0.000000  0.002633  1
  Nd  Nd1  1  0.000000  0.000000  0.502048  1
  Ni  Ni2  1  0.343150  0.672054  0.996641  1
  Ni  Ni3  1  0.656850  0.327946  0.996641  1
  Ni  Ni4  1  0.500000  0.000000  0.299096  1
  Ni  Ni5  1  0.500000  0.000000  0.702697  1
  Ni  Ni6  1  0.000000  0.500000  0.705365  1
  B  B7  1  0.671113  0.331369  0.502813  1
  B  B8  1  0.328887  0.668631  0.502813  1
  Ir  Ir9  1  0.500000  0.500000  0.291588  1
  Ir  Ir10  1  0.000000  0.500000  0.289284  1
  Ir  Ir11  1  0.500000  0.500000  0.708379  1
