# generated using pymatgen
data_Tb2Lu2ScSi4
_symmetry_space_group_name_H-M   'P 1'
_cell_length_a   7.20315800
_cell_length_b   7.55005800
_cell_length_c   14.31051400
_cell_angle_alpha   90.00000000
_cell_angle_beta   90.00000000
_cell_angle_gamma   90.00000000
_symmetry_Int_Tables_number   1
_chemical_formula_structural   Tb2Lu2ScSi4
_chemical_formula_sum   'Tb8 Lu8 Sc4 Si16'
_cell_volume   778.26672389
_cell_formula_units_Z   4
loop_
 _symmetry_equiv_pos_site_id
 _symmetry_equiv_pos_as_xyz
  1  'x, y, z'
loop_
 _atom_site_type_symbol
 _atom_site_label
 _atom_site_symmetry_multiplicity
 _atom_site_fract_x
 _atom_site_fract_y
 _atom_site_fract_z
 _atom_site_occupancy
  Tb  Tb0  1  0.013875  0.178375  0.098092  1
  Tb  Tb1  1  0.986125  0.821625  0.901908  1
  Tb  Tb2  1  0.486125  0.678375  0.901908  1
  Tb  Tb3  1  0.986125  0.821625  0.598092  1
  Tb  Tb4  1  0.513875  0.321625  0.098092  1
  Tb  Tb5  1  0.013875  0.178375  0.401908  1
  Tb  Tb6  1  0.513875  0.321625  0.401908  1
  Tb  Tb7  1  0.486125  0.678375  0.598092  1
  Lu  Lu8  1  0.328565  0.177233  0.625045  1
  Lu  Lu9  1  0.671435  0.822767  0.374955  1
  Lu  Lu10  1  0.171435  0.677233  0.374955  1
  Lu  Lu11  1  0.671435  0.822767  0.125045  1
  Lu  Lu12  1  0.828565  0.322767  0.625045  1
  Lu  Lu13  1  0.328565  0.177233  0.874955  1
  Lu  Lu14  1  0.828565  0.322767  0.874955  1
  Lu  Lu15  1  0.171435  0.677233  0.125045  1
  Sc  Sc16  1  0.161245  0.508501  0.750000  1
  Sc  Sc17  1  0.838755  0.491499  0.250000  1
  Sc  Sc18  1  0.338755  0.008501  0.250000  1
  Sc  Sc19  1  0.661245  0.991499  0.750000  1
  Si  Si20  1  0.028837  0.106221  0.750000  1
  Si  Si21  1  0.971163  0.893779  0.250000  1
  Si  Si22  1  0.471163  0.606221  0.250000  1
  Si  Si23  1  0.528837  0.393779  0.750000  1
  Si  Si24  1  0.285102  0.868159  0.750000  1
  Si  Si25  1  0.714898  0.131841  0.250000  1
  Si  Si26  1  0.214898  0.368159  0.250000  1
  Si  Si27  1  0.785102  0.631841  0.750000  1
  Si  Si28  1  0.156310  0.467796  0.539546  1
  Si  Si29  1  0.843690  0.532204  0.460454  1
  Si  Si30  1  0.343690  0.967796  0.460454  1
  Si  Si31  1  0.843690  0.532204  0.039546  1
  Si  Si32  1  0.656310  0.032204  0.539546  1
  Si  Si33  1  0.156310  0.467796  0.960454  1
  Si  Si34  1  0.656310  0.032204  0.960454  1
  Si  Si35  1  0.343690  0.967796  0.039546  1
