# generated using pymatgen
data_Th10Sn4Sb3
_symmetry_space_group_name_H-M   'P 1'
_cell_length_a   6.51969519
_cell_length_b   9.55621996
_cell_length_c   9.55097100
_cell_angle_alpha   119.98229912
_cell_angle_beta   89.88044650
_cell_angle_gamma   90.06009847
_symmetry_Int_Tables_number   1
_chemical_formula_structural   Th10Sn4Sb3
_chemical_formula_sum   'Th10 Sn4 Sb3'
_cell_volume   515.42808405
_cell_formula_units_Z   1
loop_
 _symmetry_equiv_pos_site_id
 _symmetry_equiv_pos_as_xyz
  1  'x, y, z'
loop_
 _atom_site_type_symbol
 _atom_site_label
 _atom_site_symmetry_multiplicity
 _atom_site_fract_x
 _atom_site_fract_y
 _atom_site_fract_z
 _atom_site_occupancy
  Th  Th0  1  0.498960  0.333665  0.667394  1
  Th  Th1  1  0.498963  0.666319  0.333716  1
  Th  Th2  1  0.001599  0.666440  0.333816  1
  Th  Th3  1  0.001597  0.333545  0.667379  1
  Th  Th4  1  0.763328  0.273006  0.999238  1
  Th  Th5  1  0.763315  0.726999  0.726232  1
  Th  Th6  1  0.764176  0.999990  0.271254  1
  Th  Th7  1  0.236436  0.726449  0.000491  1
  Th  Th8  1  0.236437  0.273548  0.274042  1
  Th  Th9  1  0.235741  0.000015  0.726431  1
  Sn  Sn10  1  0.743522  0.999985  0.618868  1
  Sn  Sn11  1  0.255421  0.378874  0.999812  1
  Sn  Sn12  1  0.255386  0.621175  0.620959  1
  Sn  Sn13  1  0.255186  0.999998  0.380263  1
  Sb  Sb14  1  0.745058  0.620322  0.000303  1
  Sb  Sb15  1  0.745049  0.379676  0.379967  1
  Sb  Sb16  1  0.499825  0.999996  0.999836  1
