# generated using pymatgen
data_Dy3Tm7Cd3Ir
_symmetry_space_group_name_H-M   'P 1'
_cell_length_a   9.58079700
_cell_length_b   9.58079710
_cell_length_c   9.70293300
_cell_angle_alpha   90.00000000
_cell_angle_beta   90.00000000
_cell_angle_gamma   119.99999619
_symmetry_Int_Tables_number   1
_chemical_formula_structural   Dy3Tm7Cd3Ir
_chemical_formula_sum   'Dy6 Tm14 Cd6 Ir2'
_cell_volume   771.32420877
_cell_formula_units_Z   2
loop_
 _symmetry_equiv_pos_site_id
 _symmetry_equiv_pos_as_xyz
  1  'x, y, z'
loop_
 _atom_site_type_symbol
 _atom_site_label
 _atom_site_symmetry_multiplicity
 _atom_site_fract_x
 _atom_site_fract_y
 _atom_site_fract_z
 _atom_site_occupancy
  Dy  Dy0  1  0.540486  0.459514  0.250000  1
  Dy  Dy1  1  0.540486  0.080972  0.250000  1
  Dy  Dy2  1  0.919028  0.459514  0.250000  1
  Dy  Dy3  1  0.459514  0.540486  0.750000  1
  Dy  Dy4  1  0.459514  0.919028  0.750000  1
  Dy  Dy5  1  0.080972  0.540486  0.750000  1
  Tm  Tm6  1  0.000000  0.000000  0.500000  1
  Tm  Tm7  1  0.000000  0.000000  0.000000  1
  Tm  Tm8  1  0.209272  0.790728  0.440565  1
  Tm  Tm9  1  0.209272  0.418544  0.440565  1
  Tm  Tm10  1  0.581456  0.790728  0.440565  1
  Tm  Tm11  1  0.790728  0.209272  0.559435  1
  Tm  Tm12  1  0.790728  0.581456  0.559435  1
  Tm  Tm13  1  0.418544  0.209272  0.559435  1
  Tm  Tm14  1  0.790728  0.209272  0.940565  1
  Tm  Tm15  1  0.790728  0.581456  0.940565  1
  Tm  Tm16  1  0.418544  0.209272  0.940565  1
  Tm  Tm17  1  0.209272  0.790728  0.059435  1
  Tm  Tm18  1  0.209272  0.418544  0.059435  1
  Tm  Tm19  1  0.581456  0.790728  0.059435  1
  Cd  Cd20  1  0.886444  0.113556  0.250000  1
  Cd  Cd21  1  0.886444  0.772888  0.250000  1
  Cd  Cd22  1  0.227112  0.113556  0.250000  1
  Cd  Cd23  1  0.113556  0.886444  0.750000  1
  Cd  Cd24  1  0.113556  0.227112  0.750000  1
  Cd  Cd25  1  0.772888  0.886444  0.750000  1
  Ir  Ir26  1  0.333333  0.666667  0.250000  1
  Ir  Ir27  1  0.666667  0.333333  0.750000  1
