# generated using pymatgen
data_CePr2Mg3Ir2Pt
_symmetry_space_group_name_H-M   'P 1'
_cell_length_a   7.47605909
_cell_length_b   7.66018355
_cell_length_c   4.07376100
_cell_angle_alpha   90.00000000
_cell_angle_beta   90.00000000
_cell_angle_gamma   120.81809659
_symmetry_Int_Tables_number   1
_chemical_formula_structural   CePr2Mg3Ir2Pt
_chemical_formula_sum   'Ce1 Pr2 Mg3 Ir2 Pt1'
_cell_volume   200.35423957
_cell_formula_units_Z   1
loop_
 _symmetry_equiv_pos_site_id
 _symmetry_equiv_pos_as_xyz
  1  'x, y, z'
loop_
 _atom_site_type_symbol
 _atom_site_label
 _atom_site_symmetry_multiplicity
 _atom_site_fract_x
 _atom_site_fract_y
 _atom_site_fract_z
 _atom_site_occupancy
  Ce  Ce0  1  0.000000  0.422975  0.000000  1
  Pr  Pr1  1  0.583688  0.585521  0.000000  1
  Pr  Pr2  1  0.416312  0.001833  0.000000  1
  Mg  Mg3  1  0.000000  0.761618  0.500000  1
  Mg  Mg4  1  0.242667  0.244839  0.500000  1
  Mg  Mg5  1  0.757333  0.002172  0.500000  1
  Ir  Ir6  1  0.309276  0.644106  0.500000  1
  Ir  Ir7  1  0.690724  0.334829  0.500000  1
  Pt  Pt8  1  0.000000  0.002108  0.000000  1
