# generated using pymatgen
data_Li2Dy3HfIr3
_symmetry_space_group_name_H-M   'P 1'
_cell_length_a   7.27888009
_cell_length_b   7.25366808
_cell_length_c   4.00182000
_cell_angle_alpha   90.00000000
_cell_angle_beta   90.00000000
_cell_angle_gamma   119.88548159
_symmetry_Int_Tables_number   1
_chemical_formula_structural   Li2Dy3HfIr3
_chemical_formula_sum   'Li2 Dy3 Hf1 Ir3'
_cell_volume   183.19365620
_cell_formula_units_Z   1
loop_
 _symmetry_equiv_pos_site_id
 _symmetry_equiv_pos_as_xyz
  1  'x, y, z'
loop_
 _atom_site_type_symbol
 _atom_site_label
 _atom_site_symmetry_multiplicity
 _atom_site_fract_x
 _atom_site_fract_y
 _atom_site_fract_z
 _atom_site_occupancy
  Li  Li0  1  0.246599  0.242486  0.500000  1
  Li  Li1  1  0.753401  0.995888  0.500000  1
  Dy  Dy2  1  0.572463  0.584346  0.000000  1
  Dy  Dy3  1  0.427537  0.011883  0.000000  1
  Dy  Dy4  1  0.000000  0.390657  0.000000  1
  Hf  Hf5  1  0.000000  0.756842  0.500000  1
  Ir  Ir6  1  0.000000  0.983562  0.000000  1
  Ir  Ir7  1  0.682169  0.358252  0.500000  1
  Ir  Ir8  1  0.317831  0.676084  0.500000  1
