# generated using pymatgen
data_Ho20MnCd6Rh
_symmetry_space_group_name_H-M   'P 1'
_cell_length_a   9.54214100
_cell_length_b   9.54214254
_cell_length_c   9.74793600
_cell_angle_alpha   90.00000000
_cell_angle_beta   90.00000000
_cell_angle_gamma   119.99999813
_symmetry_Int_Tables_number   1
_chemical_formula_structural   Ho20MnCd6Rh
_chemical_formula_sum   'Ho20 Mn1 Cd6 Rh1'
_cell_volume   768.66133939
_cell_formula_units_Z   1
loop_
 _symmetry_equiv_pos_site_id
 _symmetry_equiv_pos_as_xyz
  1  'x, y, z'
loop_
 _atom_site_type_symbol
 _atom_site_label
 _atom_site_symmetry_multiplicity
 _atom_site_fract_x
 _atom_site_fract_y
 _atom_site_fract_z
 _atom_site_occupancy
  Ho  Ho0  1  0.000000  0.000000  0.500566  1
  Ho  Ho1  1  0.000000  0.000000  0.999434  1
  Ho  Ho2  1  0.542635  0.457365  0.250000  1
  Ho  Ho3  1  0.542635  0.085270  0.250000  1
  Ho  Ho4  1  0.914730  0.457365  0.250000  1
  Ho  Ho5  1  0.460932  0.539068  0.750000  1
  Ho  Ho6  1  0.460932  0.921864  0.750000  1
  Ho  Ho7  1  0.078136  0.539068  0.750000  1
  Ho  Ho8  1  0.209421  0.790579  0.441332  1
  Ho  Ho9  1  0.209421  0.418843  0.441332  1
  Ho  Ho10  1  0.581157  0.790579  0.441332  1
  Ho  Ho11  1  0.788057  0.211943  0.563281  1
  Ho  Ho12  1  0.788057  0.576114  0.563281  1
  Ho  Ho13  1  0.423886  0.211943  0.563281  1
  Ho  Ho14  1  0.788057  0.211943  0.936719  1
  Ho  Ho15  1  0.788057  0.576114  0.936719  1
  Ho  Ho16  1  0.423886  0.211943  0.936719  1
  Ho  Ho17  1  0.209421  0.790579  0.058668  1
  Ho  Ho18  1  0.209421  0.418843  0.058668  1
  Ho  Ho19  1  0.581157  0.790579  0.058668  1
  Mn  Mn20  1  0.666667  0.333333  0.750000  1
  Cd  Cd21  1  0.885782  0.114218  0.250000  1
  Cd  Cd22  1  0.885782  0.771564  0.250000  1
  Cd  Cd23  1  0.228436  0.114218  0.250000  1
  Cd  Cd24  1  0.114264  0.885736  0.750000  1
  Cd  Cd25  1  0.114264  0.228528  0.750000  1
  Cd  Cd26  1  0.771472  0.885736  0.750000  1
  Rh  Rh27  1  0.333333  0.666667  0.250000  1
