# generated using pymatgen
data_Ca2Co3Si7Ir9
_symmetry_space_group_name_H-M   'P 1'
_cell_length_a   9.53341400
_cell_length_b   9.53341302
_cell_length_c   3.85099800
_cell_angle_alpha   90.00000000
_cell_angle_beta   90.00000000
_cell_angle_gamma   119.99999832
_symmetry_Int_Tables_number   1
_chemical_formula_structural   Ca2Co3Si7Ir9
_chemical_formula_sum   'Ca2 Co3 Si7 Ir9'
_cell_volume   303.11036943
_cell_formula_units_Z   1
loop_
 _symmetry_equiv_pos_site_id
 _symmetry_equiv_pos_as_xyz
  1  'x, y, z'
loop_
 _atom_site_type_symbol
 _atom_site_label
 _atom_site_symmetry_multiplicity
 _atom_site_fract_x
 _atom_site_fract_y
 _atom_site_fract_z
 _atom_site_occupancy
  Ca  Ca0  1  0.333333  0.666667  0.762220  1
  Ca  Ca1  1  0.666667  0.333333  0.262244  1
  Co  Co2  1  0.272303  0.116192  0.261854  1
  Co  Co3  1  0.843888  0.727697  0.261854  1
  Co  Co4  1  0.883808  0.156112  0.261854  1
  Si  Si5  1  0.000000  0.000000  0.261757  1
  Si  Si6  1  0.291664  0.888803  0.261885  1
  Si  Si7  1  0.597139  0.708336  0.261885  1
  Si  Si8  1  0.111197  0.402861  0.261885  1
  Si  Si9  1  0.716241  0.115765  0.761946  1
  Si  Si10  1  0.399524  0.283759  0.761946  1
  Si  Si11  1  0.884235  0.600476  0.761946  1
  Ir  Ir12  1  0.791522  0.909391  0.761750  1
  Ir  Ir13  1  0.117869  0.208478  0.761750  1
  Ir  Ir14  1  0.090609  0.882131  0.761750  1
  Ir  Ir15  1  0.057091  0.629089  0.261923  1
  Ir  Ir16  1  0.571998  0.942909  0.261923  1
  Ir  Ir17  1  0.370911  0.428002  0.261923  1
  Ir  Ir18  1  0.947473  0.383012  0.761902  1
  Ir  Ir19  1  0.435539  0.052527  0.761902  1
  Ir  Ir20  1  0.616988  0.564461  0.761902  1
