# generated using pymatgen
data_Pr20Si15Ge
_symmetry_space_group_name_H-M   'P 1'
_cell_length_a   7.95135221
_cell_length_b   7.94631344
_cell_length_c   15.37232287
_cell_angle_alpha   90.02092939
_cell_angle_beta   90.07888880
_cell_angle_gamma   90.03200385
_symmetry_Int_Tables_number   1
_chemical_formula_structural   Pr20Si15Ge
_chemical_formula_sum   'Pr20 Si15 Ge1'
_cell_volume   971.28274180
_cell_formula_units_Z   1
loop_
 _symmetry_equiv_pos_site_id
 _symmetry_equiv_pos_as_xyz
  1  'x, y, z'
loop_
 _atom_site_type_symbol
 _atom_site_label
 _atom_site_symmetry_multiplicity
 _atom_site_fract_x
 _atom_site_fract_y
 _atom_site_fract_z
 _atom_site_occupancy
  Pr  Pr0  1  0.306167  0.309232  0.999391  1
  Pr  Pr1  1  0.989951  0.622123  0.052520  1
  Pr  Pr2  1  0.982182  0.125810  0.123352  1
  Pr  Pr3  1  0.517403  0.629219  0.127083  1
  Pr  Pr4  1  0.510231  0.119292  0.198491  1
  Pr  Pr5  1  0.190368  0.809063  0.250639  1
  Pr  Pr6  1  0.879459  0.488368  0.302878  1
  Pr  Pr7  1  0.373208  0.481013  0.373519  1
  Pr  Pr8  1  0.873292  0.019046  0.376714  1
  Pr  Pr9  1  0.379170  0.011549  0.447428  1
  Pr  Pr10  1  0.690756  0.691006  0.500045  1
  Pr  Pr11  1  0.011283  0.379341  0.552844  1
  Pr  Pr12  1  0.019206  0.873225  0.623339  1
  Pr  Pr13  1  0.480970  0.373037  0.626395  1
  Pr  Pr14  1  0.488467  0.879361  0.697032  1
  Pr  Pr15  1  0.809053  0.190860  0.749834  1
  Pr  Pr16  1  0.121045  0.511928  0.802429  1
  Pr  Pr17  1  0.627008  0.518927  0.872871  1
  Pr  Pr18  1  0.127135  0.980102  0.876080  1
  Pr  Pr19  1  0.620564  0.986863  0.946634  1
  Si  Si20  1  0.287974  0.920725  0.059796  1
  Si  Si21  1  0.212098  0.420326  0.190169  1
  Si  Si22  1  0.804683  0.831503  0.202978  1
  Si  Si23  1  0.168340  0.195421  0.297071  1
  Si  Si24  1  0.579772  0.787804  0.310029  1
  Si  Si25  1  0.079292  0.712123  0.440273  1
  Si  Si26  1  0.668323  0.304509  0.452968  1
  Si  Si27  1  0.304483  0.668466  0.546876  1
  Si  Si28  1  0.712433  0.079418  0.559698  1
  Si  Si29  1  0.787558  0.579504  0.690019  1
  Si  Si30  1  0.195645  0.168302  0.702882  1
  Si  Si31  1  0.831273  0.804796  0.796712  1
  Si  Si32  1  0.420986  0.212118  0.809750  1
  Si  Si33  1  0.924029  0.288035  0.938402  1
  Si  Si34  1  0.332584  0.695511  0.953024  1
  Ge  Ge35  1  0.693610  0.332077  0.049835  1
