# generated using pymatgen
data_K10RbNd(TaAs4)2
_symmetry_space_group_name_H-M   'P 1'
_cell_length_a   10.61988397
_cell_length_b   10.36501178
_cell_length_c   8.00369984
_cell_angle_alpha   87.72996350
_cell_angle_beta   90.27664768
_cell_angle_gamma   120.62872430
_symmetry_Int_Tables_number   1
_chemical_formula_structural   K10RbNd(TaAs4)2
_chemical_formula_sum   'K10 Rb1 Nd1 Ta2 As8'
_cell_volume   757.38091172
_cell_formula_units_Z   1
loop_
 _symmetry_equiv_pos_site_id
 _symmetry_equiv_pos_as_xyz
  1  'x, y, z'
loop_
 _atom_site_type_symbol
 _atom_site_label
 _atom_site_symmetry_multiplicity
 _atom_site_fract_x
 _atom_site_fract_y
 _atom_site_fract_z
 _atom_site_occupancy
  K  K0  1  0.470113  0.527791  0.607531  1
  K  K1  1  0.056204  0.526882  0.606814  1
  K  K2  1  0.528256  0.460995  0.107907  1
  K  K3  1  0.531023  0.063380  0.110598  1
  K  K4  1  0.866029  0.152434  0.808893  1
  K  K5  1  0.292601  0.154502  0.812095  1
  K  K6  1  0.853868  0.711487  0.773420  1
  K  K7  1  0.135673  0.854488  0.273107  1
  K  K8  1  0.717123  0.854920  0.270388  1
  K  K9  1  0.148530  0.294405  0.322321  1
  Rb  Rb10  1  0.934051  0.461790  0.104682  1
  Nd  Nd11  1  0.469790  0.939686  0.597341  1
  Ta  Ta12  1  0.661223  0.325597  0.502537  1
  Ta  Ta13  1  0.339891  0.676973  0.998334  1
  As  As14  1  0.660058  0.323232  0.809923  1
  As  As15  1  0.352995  0.706359  0.316301  1
  As  As16  1  0.221311  0.809966  0.863253  1
  As  As17  1  0.590317  0.810199  0.865740  1
  As  As18  1  0.208531  0.408589  0.924127  1
  As  As19  1  0.775382  0.171512  0.425101  1
  As  As20  1  0.394473  0.173141  0.422099  1
  As  As21  1  0.792558  0.591672  0.391888  1
