# generated using pymatgen
data_Ho5Pb3S
_symmetry_space_group_name_H-M   'P 1'
_cell_length_a   9.10486500
_cell_length_b   9.10489889
_cell_length_c   6.68752500
_cell_angle_alpha   90.00000000
_cell_angle_beta   90.00000000
_cell_angle_gamma   120.00012261
_symmetry_Int_Tables_number   1
_chemical_formula_structural   Ho5Pb3S
_chemical_formula_sum   'Ho10 Pb6 S2'
_cell_volume   480.11375895
_cell_formula_units_Z   2
loop_
 _symmetry_equiv_pos_site_id
 _symmetry_equiv_pos_as_xyz
  1  'x, y, z'
loop_
 _atom_site_type_symbol
 _atom_site_label
 _atom_site_symmetry_multiplicity
 _atom_site_fract_x
 _atom_site_fract_y
 _atom_site_fract_z
 _atom_site_occupancy
  Ho  Ho0  1  0.757566  0.757569  0.750000  1
  Ho  Ho1  1  0.242434  0.000003  0.750000  1
  Ho  Ho2  1  0.000000  0.242429  0.750000  1
  Ho  Ho3  1  0.242434  0.242431  0.250000  1
  Ho  Ho4  1  0.757566  0.999997  0.250000  1
  Ho  Ho5  1  0.000000  0.757571  0.250000  1
  Ho  Ho6  1  0.666663  0.333331  0.000000  1
  Ho  Ho7  1  0.333337  0.666669  0.000000  1
  Ho  Ho8  1  0.333337  0.666669  0.500000  1
  Ho  Ho9  1  0.666663  0.333331  0.500000  1
  Pb  Pb10  1  0.398068  0.398071  0.750000  1
  Pb  Pb11  1  0.601932  0.000003  0.750000  1
  Pb  Pb12  1  0.000000  0.601928  0.750000  1
  Pb  Pb13  1  0.601932  0.601929  0.250000  1
  Pb  Pb14  1  0.398068  0.999997  0.250000  1
  Pb  Pb15  1  0.000000  0.398072  0.250000  1
  S  S16  1  0.000000  0.000000  0.000000  1
  S  S17  1  0.000000  0.000000  0.500000  1
