# generated using pymatgen
data_DyLuTaB2Ru5
_symmetry_space_group_name_H-M   'P 1'
_cell_length_a   9.64828981
_cell_length_b   9.64828981
_cell_length_c   3.11900800
_cell_angle_alpha   90.00000000
_cell_angle_beta   90.00000000
_cell_angle_gamma   90.38626055
_symmetry_Int_Tables_number   1
_chemical_formula_structural   DyLuTaB2Ru5
_chemical_formula_sum   'Dy2 Lu2 Ta2 B4 Ru10'
_cell_volume   290.34028583
_cell_formula_units_Z   2
loop_
 _symmetry_equiv_pos_site_id
 _symmetry_equiv_pos_as_xyz
  1  'x, y, z'
loop_
 _atom_site_type_symbol
 _atom_site_label
 _atom_site_symmetry_multiplicity
 _atom_site_fract_x
 _atom_site_fract_y
 _atom_site_fract_z
 _atom_site_occupancy
  Dy  Dy0  1  0.825237  0.674763  0.000000  1
  Dy  Dy1  1  0.174763  0.325237  0.000000  1
  Lu  Lu2  1  0.325391  0.825391  0.000000  1
  Lu  Lu3  1  0.674609  0.174609  0.000000  1
  Ta  Ta4  1  0.500000  0.500000  0.000000  1
  Ta  Ta5  1  0.000000  0.000000  0.000000  1
  B  B6  1  0.619568  0.880432  0.000000  1
  B  B7  1  0.380432  0.119568  0.000000  1
  B  B8  1  0.121005  0.621005  0.000000  1
  B  B9  1  0.878995  0.378995  0.000000  1
  Ru  Ru10  1  0.568927  0.718907  0.500000  1
  Ru  Ru11  1  0.431073  0.281093  0.500000  1
  Ru  Ru12  1  0.073933  0.782741  0.500000  1
  Ru  Ru13  1  0.926067  0.217259  0.500000  1
  Ru  Ru14  1  0.282741  0.573933  0.500000  1
  Ru  Ru15  1  0.717259  0.426067  0.500000  1
  Ru  Ru16  1  0.218907  0.068927  0.500000  1
  Ru  Ru17  1  0.781093  0.931073  0.500000  1
  Ru  Ru18  1  0.500000  0.000000  0.500000  1
  Ru  Ru19  1  0.000000  0.500000  0.500000  1
