# generated using pymatgen
data_Tb5YAl24Os5Pd2Rh
_symmetry_space_group_name_H-M   'P 1'
_cell_length_a   8.81286863
_cell_length_b   8.79207292
_cell_length_c   9.57971300
_cell_angle_alpha   90.24061883
_cell_angle_beta   89.92458401
_cell_angle_gamma   119.36322905
_symmetry_Int_Tables_number   1
_chemical_formula_structural   Tb5YAl24Os5Pd2Rh
_chemical_formula_sum   'Tb5 Y1 Al24 Os5 Pd2 Rh1'
_cell_volume   646.90241503
_cell_formula_units_Z   1
loop_
 _symmetry_equiv_pos_site_id
 _symmetry_equiv_pos_as_xyz
  1  'x, y, z'
loop_
 _atom_site_type_symbol
 _atom_site_label
 _atom_site_symmetry_multiplicity
 _atom_site_fract_x
 _atom_site_fract_y
 _atom_site_fract_z
 _atom_site_occupancy
  Tb  Tb0  1  0.184842  0.386629  0.251562  1
  Tb  Tb1  1  0.815024  0.613219  0.748441  1
  Tb  Tb2  1  0.617397  0.812949  0.250553  1
  Tb  Tb3  1  0.382664  0.187107  0.749493  1
  Tb  Tb4  1  0.190240  0.806429  0.251859  1
  Y  Y5  1  0.809144  0.194480  0.748093  1
  Al  Al6  1  0.328831  0.665386  0.028235  1
  Al  Al7  1  0.671097  0.334554  0.971577  1
  Al  Al8  1  0.666916  0.331476  0.526394  1
  Al  Al9  1  0.333260  0.668382  0.473762  1
  Al  Al10  1  0.163299  0.327011  0.574820  1
  Al  Al11  1  0.836625  0.672848  0.425241  1
  Al  Al12  1  0.673567  0.837105  0.574144  1
  Al  Al13  1  0.840781  0.674460  0.077327  1
  Al  Al14  1  0.326605  0.163019  0.426008  1
  Al  Al15  1  0.159137  0.325401  0.922602  1
  Al  Al16  1  0.165568  0.835638  0.575219  1
  Al  Al17  1  0.323677  0.164001  0.079628  1
  Al  Al18  1  0.834552  0.164373  0.424950  1
  Al  Al19  1  0.676372  0.836054  0.920340  1
  Al  Al20  1  0.840774  0.168896  0.077904  1
  Al  Al21  1  0.159221  0.830979  0.921920  1
  Al  Al22  1  0.561616  0.126818  0.252250  1
  Al  Al23  1  0.438671  0.873322  0.747768  1
  Al  Al24  1  0.873301  0.439706  0.249403  1
  Al  Al25  1  0.126553  0.559995  0.750421  1
  Al  Al26  1  0.561208  0.439301  0.252091  1
  Al  Al27  1  0.438794  0.560659  0.748056  1
  Al  Al28  1  0.996778  0.002721  0.250371  1
  Al  Al29  1  0.003139  0.997264  0.749603  1
  Os  Os30  1  0.999934  0.499891  0.999815  1
  Os  Os31  1  0.500090  0.999993  0.500006  1
  Os  Os32  1  0.000083  0.500031  0.499898  1
  Os  Os33  1  0.999980  0.999967  0.999986  1
  Os  Os34  1  0.000037  0.000031  0.499975  1
  Pd  Pd35  1  0.500012  0.000048  0.999965  1
  Pd  Pd36  1  0.499973  0.500115  0.000214  1
  Rh  Rh37  1  0.500235  0.499741  0.500110  1
