# generated using pymatgen
data_Y4TmLuGa10
_symmetry_space_group_name_H-M   'P 1'
_cell_length_a   6.06663600
_cell_length_b   9.60700700
_cell_length_c   11.55384100
_cell_angle_alpha   90.00000000
_cell_angle_beta   90.00000000
_cell_angle_gamma   90.00000000
_symmetry_Int_Tables_number   1
_chemical_formula_structural   Y4TmLuGa10
_chemical_formula_sum   'Y8 Tm2 Lu2 Ga20'
_cell_volume   673.38343967
_cell_formula_units_Z   2
loop_
 _symmetry_equiv_pos_site_id
 _symmetry_equiv_pos_as_xyz
  1  'x, y, z'
loop_
 _atom_site_type_symbol
 _atom_site_label
 _atom_site_symmetry_multiplicity
 _atom_site_fract_x
 _atom_site_fract_y
 _atom_site_fract_z
 _atom_site_occupancy
  Y  Y0  1  0.890033  0.506634  0.350728  1
  Y  Y1  1  0.609967  0.993366  0.850728  1
  Y  Y2  1  0.110150  0.006802  0.649216  1
  Y  Y3  1  0.389850  0.493198  0.149216  1
  Y  Y4  1  0.110150  0.493198  0.649216  1
  Y  Y5  1  0.389850  0.006802  0.149216  1
  Y  Y6  1  0.890033  0.993366  0.350728  1
  Y  Y7  1  0.609967  0.506634  0.850728  1
  Tm  Tm8  1  0.850598  0.750000  0.075119  1
  Tm  Tm9  1  0.649402  0.750000  0.575119  1
  Lu  Lu10  1  0.149540  0.250000  0.924744  1
  Lu  Lu11  1  0.350460  0.250000  0.424744  1
  Ga  Ga12  1  0.875398  0.053831  0.089056  1
  Ga  Ga13  1  0.624602  0.446169  0.589056  1
  Ga  Ga14  1  0.124630  0.553581  0.910960  1
  Ga  Ga15  1  0.375370  0.946419  0.410960  1
  Ga  Ga16  1  0.124630  0.946419  0.910960  1
  Ga  Ga17  1  0.375370  0.553581  0.410960  1
  Ga  Ga18  1  0.875398  0.446169  0.089056  1
  Ga  Ga19  1  0.624602  0.053831  0.589056  1
  Ga  Ga20  1  0.167674  0.750000  0.255020  1
  Ga  Ga21  1  0.332326  0.750000  0.755020  1
  Ga  Ga22  1  0.832712  0.250000  0.745126  1
  Ga  Ga23  1  0.667288  0.250000  0.245126  1
  Ga  Ga24  1  0.379830  0.750000  0.001875  1
  Ga  Ga25  1  0.120170  0.750000  0.501875  1
  Ga  Ga26  1  0.619722  0.250000  0.998103  1
  Ga  Ga27  1  0.880278  0.250000  0.498103  1
  Ga  Ga28  1  0.602877  0.750000  0.298956  1
  Ga  Ga29  1  0.897123  0.750000  0.798956  1
  Ga  Ga30  1  0.397008  0.250000  0.701135  1
  Ga  Ga31  1  0.102992  0.250000  0.201135  1
