# generated using pymatgen
data_Dy3Ho12Th(CdPt)4
_symmetry_space_group_name_H-M   'P 1'
_cell_length_a   9.67386166
_cell_length_b   9.67386234
_cell_length_c   9.67386207
_cell_angle_alpha   60.20220022
_cell_angle_beta   60.20220028
_cell_angle_gamma   60.20219415
_symmetry_Int_Tables_number   1
_chemical_formula_structural   Dy3Ho12Th(CdPt)4
_chemical_formula_sum   'Dy3 Ho12 Th1 Cd4 Pt4'
_cell_volume   643.08522355
_cell_formula_units_Z   1
loop_
 _symmetry_equiv_pos_site_id
 _symmetry_equiv_pos_as_xyz
  1  'x, y, z'
loop_
 _atom_site_type_symbol
 _atom_site_label
 _atom_site_symmetry_multiplicity
 _atom_site_fract_x
 _atom_site_fract_y
 _atom_site_fract_z
 _atom_site_occupancy
  Dy  Dy0  1  0.603935  0.603935  0.189037  1
  Dy  Dy1  1  0.603935  0.189037  0.603935  1
  Dy  Dy2  1  0.189037  0.603935  0.603935  1
  Ho  Ho3  1  0.062548  0.438966  0.438966  1
  Ho  Ho4  1  0.440416  0.060752  0.060752  1
  Ho  Ho5  1  0.438966  0.062548  0.438966  1
  Ho  Ho6  1  0.060752  0.440416  0.060752  1
  Ho  Ho7  1  0.438966  0.438966  0.062548  1
  Ho  Ho8  1  0.060752  0.060752  0.440416  1
  Ho  Ho9  1  0.185266  0.816760  0.816760  1
  Ho  Ho10  1  0.814456  0.186157  0.186157  1
  Ho  Ho11  1  0.816760  0.185266  0.816760  1
  Ho  Ho12  1  0.186157  0.814456  0.186157  1
  Ho  Ho13  1  0.816760  0.816760  0.185266  1
  Ho  Ho14  1  0.186157  0.186157  0.814456  1
  Th  Th15  1  0.599786  0.599786  0.599786  1
  Cd  Cd16  1  0.831926  0.831926  0.831926  1
  Cd  Cd17  1  0.832826  0.832826  0.502055  1
  Cd  Cd18  1  0.832826  0.502055  0.832826  1
  Cd  Cd19  1  0.502055  0.832826  0.832826  1
  Pt  Pt20  1  0.393857  0.393857  0.393857  1
  Pt  Pt21  1  0.390327  0.390327  0.821206  1
  Pt  Pt22  1  0.390327  0.821206  0.390327  1
  Pt  Pt23  1  0.821206  0.390327  0.390327  1
