# generated using pymatgen
data_Nd2ErPaRh4
_symmetry_space_group_name_H-M   'P 1'
_cell_length_a   4.47568400
_cell_length_b   5.52664248
_cell_length_c   6.98149900
_cell_angle_alpha   88.93792374
_cell_angle_beta   90.00000000
_cell_angle_gamma   90.00000000
_symmetry_Int_Tables_number   1
_chemical_formula_structural   Nd2ErPaRh4
_chemical_formula_sum   'Nd2 Er1 Pa1 Rh4'
_cell_volume   172.66123728
_cell_formula_units_Z   1
loop_
 _symmetry_equiv_pos_site_id
 _symmetry_equiv_pos_as_xyz
  1  'x, y, z'
loop_
 _atom_site_type_symbol
 _atom_site_label
 _atom_site_symmetry_multiplicity
 _atom_site_fract_x
 _atom_site_fract_y
 _atom_site_fract_z
 _atom_site_occupancy
  Nd  Nd0  1  0.750000  0.353603  0.816571  1
  Nd  Nd1  1  0.250000  0.861699  0.683603  1
  Er  Er2  1  0.750000  0.147090  0.321600  1
  Pa  Pa3  1  0.250000  0.633408  0.185648  1
  Rh  Rh4  1  0.250000  0.166687  0.070429  1
  Rh  Rh5  1  0.750000  0.823091  0.995600  1
  Rh  Rh6  1  0.750000  0.659617  0.413785  1
  Rh  Rh7  1  0.250000  0.354806  0.512764  1
