# generated using pymatgen
data_Ti5NbSi2B
_symmetry_space_group_name_H-M   'P 1'
_cell_length_a   6.77206500
_cell_length_b   6.77867591
_cell_length_c   3.34540700
_cell_angle_alpha   90.00000000
_cell_angle_beta   90.00000000
_cell_angle_gamma   119.96773930
_symmetry_Int_Tables_number   1
_chemical_formula_structural   Ti5NbSi2B
_chemical_formula_sum   'Ti5 Nb1 Si2 B1'
_cell_volume   133.04135843
_cell_formula_units_Z   1
loop_
 _symmetry_equiv_pos_site_id
 _symmetry_equiv_pos_as_xyz
  1  'x, y, z'
loop_
 _atom_site_type_symbol
 _atom_site_label
 _atom_site_symmetry_multiplicity
 _atom_site_fract_x
 _atom_site_fract_y
 _atom_site_fract_z
 _atom_site_occupancy
  Ti  Ti0  1  0.238004  0.000000  0.500000  1
  Ti  Ti1  1  0.761592  0.759994  0.500000  1
  Ti  Ti2  1  0.001597  0.240006  0.500000  1
  Ti  Ti3  1  0.399689  0.399902  0.000000  1
  Ti  Ti4  1  0.999787  0.600098  0.000000  1
  Nb  Nb5  1  0.600705  0.000000  0.000000  1
  Si  Si6  1  0.332155  0.665087  0.500000  1
  Si  Si7  1  0.667070  0.334913  0.500000  1
  B  B8  1  0.999400  0.000000  0.000000  1
