# generated using pymatgen
data_Hf10SiNi2As5
_symmetry_space_group_name_H-M   'P 1'
_cell_length_a   3.68240500
_cell_length_b   10.33949278
_cell_length_c   17.44274900
_cell_angle_alpha   90.22350900
_cell_angle_beta   90.00000000
_cell_angle_gamma   90.00000000
_symmetry_Int_Tables_number   1
_chemical_formula_structural   Hf10SiNi2As5
_chemical_formula_sum   'Hf20 Si2 Ni4 As10'
_cell_volume   664.11365893
_cell_formula_units_Z   2
loop_
 _symmetry_equiv_pos_site_id
 _symmetry_equiv_pos_as_xyz
  1  'x, y, z'
loop_
 _atom_site_type_symbol
 _atom_site_label
 _atom_site_symmetry_multiplicity
 _atom_site_fract_x
 _atom_site_fract_y
 _atom_site_fract_z
 _atom_site_occupancy
  Hf  Hf0  1  0.250000  0.119312  0.478555  1
  Hf  Hf1  1  0.750000  0.880688  0.521445  1
  Hf  Hf2  1  0.750000  0.622146  0.021292  1
  Hf  Hf3  1  0.250000  0.377854  0.978708  1
  Hf  Hf4  1  0.250000  0.060667  0.076190  1
  Hf  Hf5  1  0.750000  0.939333  0.923810  1
  Hf  Hf6  1  0.750000  0.560960  0.419662  1
  Hf  Hf7  1  0.250000  0.439040  0.580338  1
  Hf  Hf8  1  0.250000  0.487059  0.273778  1
  Hf  Hf9  1  0.750000  0.512941  0.726222  1
  Hf  Hf10  1  0.750000  0.987148  0.225191  1
  Hf  Hf11  1  0.250000  0.012852  0.774809  1
  Hf  Hf12  1  0.250000  0.815421  0.368494  1
  Hf  Hf13  1  0.750000  0.184579  0.631506  1
  Hf  Hf14  1  0.750000  0.313957  0.129297  1
  Hf  Hf15  1  0.250000  0.686043  0.870703  1
  Hf  Hf16  1  0.250000  0.759717  0.166464  1
  Hf  Hf17  1  0.750000  0.240283  0.833536  1
  Hf  Hf18  1  0.750000  0.259379  0.331776  1
  Hf  Hf19  1  0.250000  0.740621  0.668224  1
  Si  Si20  1  0.250000  0.812674  0.008665  1
  Si  Si21  1  0.750000  0.187326  0.991335  1
  Ni  Ni22  1  0.250000  0.369035  0.411642  1
  Ni  Ni23  1  0.750000  0.630965  0.588358  1
  Ni  Ni24  1  0.750000  0.866185  0.087105  1
  Ni  Ni25  1  0.250000  0.133815  0.912895  1
  As  As26  1  0.750000  0.312745  0.492753  1
  As  As27  1  0.250000  0.687255  0.507247  1
  As  As28  1  0.250000  0.509104  0.118152  1
  As  As29  1  0.750000  0.490896  0.881848  1
  As  As30  1  0.750000  0.010556  0.381201  1
  As  As31  1  0.250000  0.989444  0.618799  1
  As  As32  1  0.250000  0.188709  0.219569  1
  As  As33  1  0.750000  0.811291  0.780431  1
  As  As34  1  0.750000  0.689132  0.278903  1
  As  As35  1  0.250000  0.310868  0.721097  1
