# generated using pymatgen
data_Ca7Y(AgSn)4
_symmetry_space_group_name_H-M   'P 1'
_cell_length_a   7.58556700
_cell_length_b   5.31223000
_cell_length_c   10.63248700
_cell_angle_alpha   90.00000000
_cell_angle_beta   90.00118016
_cell_angle_gamma   90.00000000
_symmetry_Int_Tables_number   1
_chemical_formula_structural   Ca7Y(AgSn)4
_chemical_formula_sum   'Ca7 Y1 Ag4 Sn4'
_cell_volume   428.44963690
_cell_formula_units_Z   1
loop_
 _symmetry_equiv_pos_site_id
 _symmetry_equiv_pos_as_xyz
  1  'x, y, z'
loop_
 _atom_site_type_symbol
 _atom_site_label
 _atom_site_symmetry_multiplicity
 _atom_site_fract_x
 _atom_site_fract_y
 _atom_site_fract_z
 _atom_site_occupancy
  Ca  Ca0  1  0.496978  0.750000  0.125911  1
  Ca  Ca1  1  0.000584  0.250000  0.376580  1
  Ca  Ca2  1  0.500010  0.250000  0.374173  1
  Ca  Ca3  1  0.502189  0.750000  0.625772  1
  Ca  Ca4  1  0.000711  0.750000  0.625865  1
  Ca  Ca5  1  0.499568  0.250000  0.874179  1
  Ca  Ca6  1  0.000194  0.250000  0.871772  1
  Y  Y7  1  0.999715  0.750000  0.125666  1
  Ag  Ag8  1  0.754616  0.250000  0.122856  1
  Ag  Ag9  1  0.247663  0.750000  0.374292  1
  Ag  Ag10  1  0.750015  0.250000  0.622863  1
  Ag  Ag11  1  0.247148  0.750000  0.879695  1
  Sn  Sn12  1  0.243863  0.250000  0.123924  1
  Sn  Sn13  1  0.753085  0.750000  0.373112  1
  Sn  Sn14  1  0.250852  0.250000  0.623581  1
  Sn  Sn15  1  0.752805  0.750000  0.879760  1
