# generated using pymatgen
data_TaTc5S8
_symmetry_space_group_name_H-M   'P 1'
_cell_length_a   6.38571909
_cell_length_b   6.46932913
_cell_length_c   6.50703200
_cell_angle_alpha   93.16387444
_cell_angle_beta   93.39714314
_cell_angle_gamma   94.05864486
_symmetry_Int_Tables_number   1
_chemical_formula_structural   TaTc5S8
_chemical_formula_sum   'Ta1 Tc5 S8'
_cell_volume   267.19227543
_cell_formula_units_Z   1
loop_
 _symmetry_equiv_pos_site_id
 _symmetry_equiv_pos_as_xyz
  1  'x, y, z'
loop_
 _atom_site_type_symbol
 _atom_site_label
 _atom_site_symmetry_multiplicity
 _atom_site_fract_x
 _atom_site_fract_y
 _atom_site_fract_z
 _atom_site_occupancy
  Ta  Ta0  1  0.593025  0.452419  0.780898  1
  Tc  Tc1  1  0.447204  0.771144  0.587024  1
  Tc  Tc2  1  0.774202  0.592260  0.450915  1
  Tc  Tc3  1  0.410924  0.547843  0.230531  1
  Tc  Tc4  1  0.550637  0.225248  0.410053  1
  Tc  Tc5  1  0.224404  0.405697  0.546632  1
  S  S6  1  0.727794  0.377383  0.138533  1
  S  S7  1  0.372243  0.123206  0.718951  1
  S  S8  1  0.785678  0.793014  0.773986  1
  S  S9  1  0.218492  0.217450  0.222634  1
  S  S10  1  0.873011  0.275935  0.623073  1
  S  S11  1  0.263591  0.624344  0.867535  1
  S  S12  1  0.627864  0.869761  0.276160  1
  S  S13  1  0.130932  0.724298  0.373075  1
