# generated using pymatgen
data_Pr4Ga16Co2Pt
_symmetry_space_group_name_H-M   'P 1'
_cell_length_a   6.17874300
_cell_length_b   6.17874300
_cell_length_c   11.42889300
_cell_angle_alpha   90.00000000
_cell_angle_beta   90.00000000
_cell_angle_gamma   90.00000000
_symmetry_Int_Tables_number   1
_chemical_formula_structural   Pr4Ga16Co2Pt
_chemical_formula_sum   'Pr4 Ga16 Co2 Pt1'
_cell_volume   436.31930585
_cell_formula_units_Z   1
loop_
 _symmetry_equiv_pos_site_id
 _symmetry_equiv_pos_as_xyz
  1  'x, y, z'
loop_
 _atom_site_type_symbol
 _atom_site_label
 _atom_site_symmetry_multiplicity
 _atom_site_fract_x
 _atom_site_fract_y
 _atom_site_fract_z
 _atom_site_occupancy
  Pr  Pr0  1  0.500000  0.000000  0.802427  1
  Pr  Pr1  1  0.000000  0.500000  0.802427  1
  Pr  Pr2  1  0.500000  0.000000  0.197573  1
  Pr  Pr3  1  0.000000  0.500000  0.197573  1
  Ga  Ga4  1  0.251162  0.251162  0.611025  1
  Ga  Ga5  1  0.748838  0.748838  0.611025  1
  Ga  Ga6  1  0.748838  0.251162  0.611025  1
  Ga  Ga7  1  0.251162  0.748838  0.611025  1
  Ga  Ga8  1  0.748838  0.748838  0.388975  1
  Ga  Ga9  1  0.251162  0.251162  0.388975  1
  Ga  Ga10  1  0.251162  0.748838  0.388975  1
  Ga  Ga11  1  0.748838  0.251162  0.388975  1
  Ga  Ga12  1  0.290644  0.290644  0.000000  1
  Ga  Ga13  1  0.709356  0.709356  0.000000  1
  Ga  Ga14  1  0.709356  0.290644  0.000000  1
  Ga  Ga15  1  0.290644  0.709356  0.000000  1
  Ga  Ga16  1  0.500000  0.500000  0.803023  1
  Ga  Ga17  1  0.500000  0.500000  0.196977  1
  Ga  Ga18  1  0.000000  0.000000  0.768448  1
  Ga  Ga19  1  0.000000  0.000000  0.231552  1
  Co  Co20  1  0.500000  0.000000  0.500000  1
  Co  Co21  1  0.000000  0.500000  0.500000  1
  Pt  Pt22  1  0.000000  0.000000  0.000000  1
