# generated using pymatgen
data_Tb2Nd4NiBr10
_symmetry_space_group_name_H-M   'P 1'
_cell_length_a   7.47220932
_cell_length_b   9.49308199
_cell_length_c   9.46521962
_cell_angle_alpha   108.97396679
_cell_angle_beta   95.35211466
_cell_angle_gamma   105.59027243
_symmetry_Int_Tables_number   1
_chemical_formula_structural   Tb2Nd4NiBr10
_chemical_formula_sum   'Tb2 Nd4 Ni1 Br10'
_cell_volume   599.41908320
_cell_formula_units_Z   1
loop_
 _symmetry_equiv_pos_site_id
 _symmetry_equiv_pos_as_xyz
  1  'x, y, z'
loop_
 _atom_site_type_symbol
 _atom_site_label
 _atom_site_symmetry_multiplicity
 _atom_site_fract_x
 _atom_site_fract_y
 _atom_site_fract_z
 _atom_site_occupancy
  Tb  Tb0  1  0.351333  0.128539  0.171260  1
  Tb  Tb1  1  0.648667  0.871461  0.828740  1
  Nd  Nd2  1  0.129907  0.044828  0.752861  1
  Nd  Nd3  1  0.870093  0.955172  0.247139  1
  Nd  Nd4  1  0.972177  0.298829  0.098768  1
  Nd  Nd5  1  0.027823  0.701171  0.901232  1
  Ni  Ni6  1  0.000000  0.000000  0.000000  1
  Br  Br7  1  0.550940  0.173580  0.918533  1
  Br  Br8  1  0.449060  0.826420  0.081467  1
  Br  Br9  1  0.361943  0.445063  0.267863  1
  Br  Br10  1  0.638057  0.554937  0.732137  1
  Br  Br11  1  0.255040  0.083251  0.447697  1
  Br  Br12  1  0.744960  0.916749  0.552303  1
  Br  Br13  1  0.765840  0.253041  0.346313  1
  Br  Br14  1  0.234160  0.746959  0.653687  1
  Br  Br15  1  0.086224  0.365377  0.826060  1
  Br  Br16  1  0.913776  0.634623  0.173940  1
