# generated using pymatgen
data_Sc20Cd6FeRu
_symmetry_space_group_name_H-M   'P 1'
_cell_length_a   8.95861200
_cell_length_b   8.95861100
_cell_length_c   9.14089300
_cell_angle_alpha   90.00000000
_cell_angle_beta   90.00000000
_cell_angle_gamma   119.99999630
_symmetry_Int_Tables_number   1
_chemical_formula_structural   Sc20Cd6FeRu
_chemical_formula_sum   'Sc20 Cd6 Fe1 Ru1'
_cell_volume   635.33192658
_cell_formula_units_Z   1
loop_
 _symmetry_equiv_pos_site_id
 _symmetry_equiv_pos_as_xyz
  1  'x, y, z'
loop_
 _atom_site_type_symbol
 _atom_site_label
 _atom_site_symmetry_multiplicity
 _atom_site_fract_x
 _atom_site_fract_y
 _atom_site_fract_z
 _atom_site_occupancy
  Sc  Sc0  1  0.000000  0.000000  0.499922  1
  Sc  Sc1  1  0.000000  0.000000  0.000078  1
  Sc  Sc2  1  0.212802  0.787198  0.437772  1
  Sc  Sc3  1  0.212802  0.425607  0.437772  1
  Sc  Sc4  1  0.574393  0.787198  0.437772  1
  Sc  Sc5  1  0.789998  0.210002  0.557337  1
  Sc  Sc6  1  0.789998  0.579994  0.557337  1
  Sc  Sc7  1  0.420006  0.210002  0.557337  1
  Sc  Sc8  1  0.789998  0.210002  0.942663  1
  Sc  Sc9  1  0.789998  0.579994  0.942663  1
  Sc  Sc10  1  0.420006  0.210002  0.942663  1
  Sc  Sc11  1  0.212802  0.787198  0.062228  1
  Sc  Sc12  1  0.212802  0.425607  0.062228  1
  Sc  Sc13  1  0.574393  0.787198  0.062228  1
  Sc  Sc14  1  0.539644  0.460356  0.250000  1
  Sc  Sc15  1  0.539644  0.079289  0.250000  1
  Sc  Sc16  1  0.920711  0.460356  0.250000  1
  Sc  Sc17  1  0.458819  0.541181  0.750000  1
  Sc  Sc18  1  0.458819  0.917638  0.750000  1
  Sc  Sc19  1  0.082362  0.541181  0.750000  1
  Cd  Cd20  1  0.884667  0.115333  0.250000  1
  Cd  Cd21  1  0.884667  0.769334  0.250000  1
  Cd  Cd22  1  0.230666  0.115333  0.250000  1
  Cd  Cd23  1  0.115424  0.884576  0.750000  1
  Cd  Cd24  1  0.115424  0.230846  0.750000  1
  Cd  Cd25  1  0.769154  0.884576  0.750000  1
  Fe  Fe26  1  0.333333  0.666667  0.250000  1
  Ru  Ru27  1  0.666667  0.333333  0.750000  1
