# generated using pymatgen
data_Ta3Nb3CN2
_symmetry_space_group_name_H-M   'P 1'
_cell_length_a   5.36626900
_cell_length_b   5.36626814
_cell_length_c   4.96693800
_cell_angle_alpha   90.00000000
_cell_angle_beta   90.00000000
_cell_angle_gamma   120.00001144
_symmetry_Int_Tables_number   1
_chemical_formula_structural   Ta3Nb3CN2
_chemical_formula_sum   'Ta3 Nb3 C1 N2'
_cell_volume   123.86942727
_cell_formula_units_Z   1
loop_
 _symmetry_equiv_pos_site_id
 _symmetry_equiv_pos_as_xyz
  1  'x, y, z'
loop_
 _atom_site_type_symbol
 _atom_site_label
 _atom_site_symmetry_multiplicity
 _atom_site_fract_x
 _atom_site_fract_y
 _atom_site_fract_z
 _atom_site_occupancy
  Ta  Ta0  1  0.335521  0.336209  0.247357  1
  Ta  Ta1  1  0.000687  0.664479  0.247357  1
  Ta  Ta2  1  0.663791  0.999313  0.247357  1
  Nb  Nb3  1  0.663021  0.664131  0.753801  1
  Nb  Nb4  1  0.001110  0.336979  0.753801  1
  Nb  Nb5  1  0.335869  0.998890  0.753801  1
  C  C6  1  0.666667  0.333333  0.497348  1
  N  N7  1  0.333333  0.666667  0.495078  1
  N  N8  1  0.000000  0.000000  0.004101  1
