# generated using pymatgen
data_Er20Pt5Rh7
_symmetry_space_group_name_H-M   'P 1'
_cell_length_a   10.86862677
_cell_length_b   10.86862707
_cell_length_c   6.29987400
_cell_angle_alpha   89.92720353
_cell_angle_beta   89.92719826
_cell_angle_gamma   89.68486609
_symmetry_Int_Tables_number   1
_chemical_formula_structural   Er20Pt5Rh7
_chemical_formula_sum   'Er20 Pt5 Rh7'
_cell_volume   744.17308733
_cell_formula_units_Z   1
loop_
 _symmetry_equiv_pos_site_id
 _symmetry_equiv_pos_as_xyz
  1  'x, y, z'
loop_
 _atom_site_type_symbol
 _atom_site_label
 _atom_site_symmetry_multiplicity
 _atom_site_fract_x
 _atom_site_fract_y
 _atom_site_fract_z
 _atom_site_occupancy
  Er  Er0  1  0.292157  0.089467  0.379718  1
  Er  Er1  1  0.292635  0.913599  0.875937  1
  Er  Er2  1  0.708728  0.088142  0.877486  1
  Er  Er3  1  0.710201  0.911788  0.377314  1
  Er  Er4  1  0.590118  0.794307  0.874594  1
  Er  Er5  1  0.589819  0.206325  0.373753  1
  Er  Er6  1  0.412745  0.794356  0.374393  1
  Er  Er7  1  0.410285  0.206198  0.874628  1
  Er  Er8  1  0.205693  0.409882  0.625406  1
  Er  Er9  1  0.205644  0.587255  0.125607  1
  Er  Er10  1  0.793675  0.410181  0.126247  1
  Er  Er11  1  0.793802  0.589715  0.625372  1
  Er  Er12  1  0.910533  0.707843  0.120282  1
  Er  Er13  1  0.911858  0.291272  0.622514  1
  Er  Er14  1  0.086401  0.707365  0.624063  1
  Er  Er15  1  0.088212  0.289799  0.122686  1
  Er  Er16  1  0.999431  0.001585  0.500120  1
  Er  Er17  1  0.998415  0.000569  0.999880  1
  Er  Er18  1  0.500074  0.500385  0.999986  1
  Er  Er19  1  0.499615  0.499926  0.500014  1
  Pt  Pt20  1  0.154614  0.845386  0.250000  1
  Pt  Pt21  1  0.654582  0.345418  0.750000  1
  Pt  Pt22  1  0.654168  0.654700  0.250682  1
  Pt  Pt23  1  0.345300  0.345832  0.249318  1
  Pt  Pt24  1  0.345282  0.654718  0.750000  1
  Rh  Rh25  1  0.845025  0.154975  0.250000  1
  Rh  Rh26  1  0.846102  0.845703  0.749332  1
  Rh  Rh27  1  0.154297  0.153898  0.750668  1
  Rh  Rh28  1  0.500641  0.000390  0.122758  1
  Rh  Rh29  1  0.500503  0.000165  0.621893  1
  Rh  Rh30  1  0.999835  0.499497  0.878107  1
  Rh  Rh31  1  0.999610  0.499359  0.377242  1
