# generated using pymatgen
data_Lu2CuNi2
_symmetry_space_group_name_H-M   'P 1'
_cell_length_a   4.06277307
_cell_length_b   5.18529312
_cell_length_c   5.18529235
_cell_angle_alpha   61.06317527
_cell_angle_beta   66.93599178
_cell_angle_gamma   66.93599288
_symmetry_Int_Tables_number   1
_chemical_formula_structural   Lu2CuNi2
_chemical_formula_sum   'Lu2 Cu1 Ni2'
_cell_volume   85.13888462
_cell_formula_units_Z   1
loop_
 _symmetry_equiv_pos_site_id
 _symmetry_equiv_pos_as_xyz
  1  'x, y, z'
loop_
 _atom_site_type_symbol
 _atom_site_label
 _atom_site_symmetry_multiplicity
 _atom_site_fract_x
 _atom_site_fract_y
 _atom_site_fract_z
 _atom_site_occupancy
  Lu  Lu0  1  0.203073  0.296927  0.296927  1
  Lu  Lu1  1  0.796927  0.703073  0.703073  1
  Cu  Cu2  1  0.000000  0.000000  0.000000  1
  Ni  Ni3  1  0.500000  0.270417  0.729583  1
  Ni  Ni4  1  0.500000  0.729583  0.270417  1
