# generated using pymatgen
data_Ho4Er8Co2Ni3Bi
_symmetry_space_group_name_H-M   'P 1'
_cell_length_a   8.28960547
_cell_length_b   8.28960506
_cell_length_c   8.28960593
_cell_angle_alpha   109.36445918
_cell_angle_beta   111.16271279
_cell_angle_gamma   107.90298300
_symmetry_Int_Tables_number   1
_chemical_formula_structural   Ho4Er8Co2Ni3Bi
_chemical_formula_sum   'Ho4 Er8 Co2 Ni3 Bi1'
_cell_volume   438.15353161
_cell_formula_units_Z   1
loop_
 _symmetry_equiv_pos_site_id
 _symmetry_equiv_pos_as_xyz
  1  'x, y, z'
loop_
 _atom_site_type_symbol
 _atom_site_label
 _atom_site_symmetry_multiplicity
 _atom_site_fract_x
 _atom_site_fract_y
 _atom_site_fract_z
 _atom_site_occupancy
  Ho  Ho0  1  0.289546  0.180469  0.470014  1
  Ho  Ho1  1  0.710454  0.819531  0.529986  1
  Ho  Ho2  1  0.289546  0.819531  0.109077  1
  Ho  Ho3  1  0.710454  0.180469  0.890923  1
  Er  Er4  1  0.626454  0.315822  0.310631  1
  Er  Er5  1  0.373546  0.684178  0.689369  1
  Er  Er6  1  0.005192  0.315822  0.689369  1
  Er  Er7  1  0.994808  0.684178  0.310631  1
  Er  Er8  1  0.209727  0.403591  0.193864  1
  Er  Er9  1  0.790273  0.596409  0.806136  1
  Er  Er10  1  0.209727  0.015865  0.806136  1
  Er  Er11  1  0.790273  0.984135  0.193864  1
  Co  Co12  1  0.385516  0.885516  0.500000  1
  Co  Co13  1  0.614484  0.114484  0.500000  1
  Ni  Ni14  1  0.000000  0.367789  0.367789  1
  Ni  Ni15  1  0.000000  0.632211  0.632211  1
  Ni  Ni16  1  0.000000  0.000000  0.000000  1
  Bi  Bi17  1  0.500000  0.500000  0.000000  1
