# generated using pymatgen
data_Rb4PaIrBr12
_symmetry_space_group_name_H-M   'P 1'
_cell_length_a   7.65856000
_cell_length_b   7.65856000
_cell_length_c   11.16971900
_cell_angle_alpha   90.00000000
_cell_angle_beta   90.00000000
_cell_angle_gamma   90.00000000
_symmetry_Int_Tables_number   1
_chemical_formula_structural   Rb4PaIrBr12
_chemical_formula_sum   'Rb4 Pa1 Ir1 Br12'
_cell_volume   655.14357438
_cell_formula_units_Z   1
loop_
 _symmetry_equiv_pos_site_id
 _symmetry_equiv_pos_as_xyz
  1  'x, y, z'
loop_
 _atom_site_type_symbol
 _atom_site_label
 _atom_site_symmetry_multiplicity
 _atom_site_fract_x
 _atom_site_fract_y
 _atom_site_fract_z
 _atom_site_occupancy
  Rb  Rb0  1  0.500000  0.000000  0.796527  1
  Rb  Rb1  1  0.500000  0.000000  0.203473  1
  Rb  Rb2  1  0.000000  0.500000  0.203473  1
  Rb  Rb3  1  0.000000  0.500000  0.796527  1
  Pa  Pa4  1  0.500000  0.500000  0.500000  1
  Ir  Ir5  1  0.000000  0.000000  0.000000  1
  Br  Br6  1  0.769721  0.235854  0.000000  1
  Br  Br7  1  0.230279  0.764146  0.000000  1
  Br  Br8  1  0.500000  0.500000  0.255176  1
  Br  Br9  1  0.309910  0.200785  0.500000  1
  Br  Br10  1  0.235854  0.230279  0.000000  1
  Br  Br11  1  0.799215  0.309910  0.500000  1
  Br  Br12  1  0.000000  0.000000  0.226466  1
  Br  Br13  1  0.690090  0.799215  0.500000  1
  Br  Br14  1  0.200785  0.690090  0.500000  1
  Br  Br15  1  0.500000  0.500000  0.744824  1
  Br  Br16  1  0.764146  0.769721  0.000000  1
  Br  Br17  1  0.000000  0.000000  0.773534  1
