# generated using pymatgen
data_Pr7PCl12
_symmetry_space_group_name_H-M   'P 1'
_cell_length_a   9.05588698
_cell_length_b   9.05588615
_cell_length_c   9.05588600
_cell_angle_alpha   107.63328203
_cell_angle_beta   107.63328035
_cell_angle_gamma   107.63327279
_symmetry_Int_Tables_number   1
_chemical_formula_structural   Pr7PCl12
_chemical_formula_sum   'Pr7 P1 Cl12'
_cell_volume   607.49716198
_cell_formula_units_Z   1
loop_
 _symmetry_equiv_pos_site_id
 _symmetry_equiv_pos_as_xyz
  1  'x, y, z'
loop_
 _atom_site_type_symbol
 _atom_site_label
 _atom_site_symmetry_multiplicity
 _atom_site_fract_x
 _atom_site_fract_y
 _atom_site_fract_z
 _atom_site_occupancy
  Pr  Pr0  1  0.500000  0.500000  0.500000  1
  Pr  Pr1  1  0.111516  0.328580  0.030166  1
  Pr  Pr2  1  0.328580  0.030167  0.111515  1
  Pr  Pr3  1  0.030167  0.111515  0.328581  1
  Pr  Pr4  1  0.969834  0.888485  0.671420  1
  Pr  Pr5  1  0.671420  0.969834  0.888485  1
  Pr  Pr6  1  0.888484  0.671420  0.969834  1
  P  P7  1  0.000000  0.000000  0.000000  1
  Cl  Cl8  1  0.225597  0.687113  0.075588  1
  Cl  Cl9  1  0.469405  0.386708  0.161319  1
  Cl  Cl10  1  0.687114  0.075588  0.225597  1
  Cl  Cl11  1  0.924413  0.774403  0.312887  1
  Cl  Cl12  1  0.161319  0.469405  0.386708  1
  Cl  Cl13  1  0.386708  0.161319  0.469405  1
  Cl  Cl14  1  0.613292  0.838681  0.530596  1
  Cl  Cl15  1  0.838682  0.530595  0.613292  1
  Cl  Cl16  1  0.075588  0.225597  0.687114  1
  Cl  Cl17  1  0.312887  0.924413  0.774403  1
  Cl  Cl18  1  0.530595  0.613292  0.838682  1
  Cl  Cl19  1  0.774403  0.312887  0.924412  1
