# generated using pymatgen
data_Dy4Ho2CoTe2
_symmetry_space_group_name_H-M   'P 1'
_cell_length_a   8.34546300
_cell_length_b   8.34951401
_cell_length_c   3.90627800
_cell_angle_alpha   90.00000000
_cell_angle_beta   90.00000000
_cell_angle_gamma   119.98395567
_symmetry_Int_Tables_number   1
_chemical_formula_structural   Dy4Ho2CoTe2
_chemical_formula_sum   'Dy4 Ho2 Co1 Te2'
_cell_volume   235.76297565
_cell_formula_units_Z   1
loop_
 _symmetry_equiv_pos_site_id
 _symmetry_equiv_pos_as_xyz
  1  'x, y, z'
loop_
 _atom_site_type_symbol
 _atom_site_label
 _atom_site_symmetry_multiplicity
 _atom_site_fract_x
 _atom_site_fract_y
 _atom_site_fract_z
 _atom_site_occupancy
  Dy  Dy0  1  0.999977  0.400732  0.500000  1
  Dy  Dy1  1  0.599245  0.599268  0.500000  1
  Dy  Dy2  1  0.400416  0.000000  0.500000  1
  Dy  Dy3  1  0.764302  0.000000  0.000000  1
  Ho  Ho4  1  0.000105  0.764580  0.000000  1
  Ho  Ho5  1  0.235525  0.235420  0.000000  1
  Co  Co6  1  0.000617  0.000000  0.500000  1
  Te  Te7  1  0.333070  0.666329  0.000000  1
  Te  Te8  1  0.666742  0.333671  0.000000  1
