# generated using pymatgen
data_HoTh2As4Pd7
_symmetry_space_group_name_H-M   'P 1'
_cell_length_a   8.21988163
_cell_length_b   8.21988067
_cell_length_c   9.72642873
_cell_angle_alpha   55.39311258
_cell_angle_beta   55.39311673
_cell_angle_gamma   29.59539182
_symmetry_Int_Tables_number   1
_chemical_formula_structural   HoTh2As4Pd7
_chemical_formula_sum   'Ho1 Th2 As4 Pd7'
_cell_volume   262.66168977
_cell_formula_units_Z   1
loop_
 _symmetry_equiv_pos_site_id
 _symmetry_equiv_pos_as_xyz
  1  'x, y, z'
loop_
 _atom_site_type_symbol
 _atom_site_label
 _atom_site_symmetry_multiplicity
 _atom_site_fract_x
 _atom_site_fract_y
 _atom_site_fract_z
 _atom_site_occupancy
  Ho  Ho0  1  0.321007  0.321007  0.672996  1
  Th  Th1  1  0.676719  0.676719  0.331253  1
  Th  Th2  1  0.001986  0.001986  0.995777  1
  As  As3  1  0.343325  0.343325  0.249240  1
  As  As4  1  0.662139  0.662139  0.745914  1
  As  As5  1  0.890777  0.890777  0.822284  1
  As  As6  1  0.106040  0.106040  0.174385  1
  Pd  Pd7  1  0.308910  0.308910  0.021400  1
  Pd  Pd8  1  0.691074  0.691074  0.978501  1
  Pd  Pd9  1  0.512404  0.512404  0.704758  1
  Pd  Pd10  1  0.834626  0.834626  0.431924  1
  Pd  Pd11  1  0.487457  0.487457  0.297258  1
  Pd  Pd12  1  0.165386  0.165386  0.571809  1
  Pd  Pd13  1  0.998150  0.998150  0.502501  1
