# generated using pymatgen
data_Sr5EuPa2O12
_symmetry_space_group_name_H-M   'P 1'
_cell_length_a   6.09703013
_cell_length_b   6.26388227
_cell_length_c   8.68705120
_cell_angle_alpha   89.54090022
_cell_angle_beta   89.31665251
_cell_angle_gamma   89.71138476
_symmetry_Int_Tables_number   1
_chemical_formula_structural   Sr5EuPa2O12
_chemical_formula_sum   'Sr5 Eu1 Pa2 O12'
_cell_volume   331.72956101
_cell_formula_units_Z   1
loop_
 _symmetry_equiv_pos_site_id
 _symmetry_equiv_pos_as_xyz
  1  'x, y, z'
loop_
 _atom_site_type_symbol
 _atom_site_label
 _atom_site_symmetry_multiplicity
 _atom_site_fract_x
 _atom_site_fract_y
 _atom_site_fract_z
 _atom_site_occupancy
  Sr  Sr0  1  0.000000  0.000000  0.000000  1
  Sr  Sr1  1  0.982962  0.446911  0.244014  1
  Sr  Sr2  1  0.513398  0.957424  0.248908  1
  Sr  Sr3  1  0.486602  0.042576  0.751092  1
  Sr  Sr4  1  0.017038  0.553089  0.755986  1
  Eu  Eu5  1  0.000000  0.000000  0.500000  1
  Pa  Pa6  1  0.500000  0.500000  0.500000  1
  Pa  Pa7  1  0.500000  0.500000  0.000000  1
  O  O8  1  0.883263  0.945446  0.730682  1
  O  O9  1  0.776068  0.699263  0.432664  1
  O  O10  1  0.787395  0.673873  0.052566  1
  O  O11  1  0.696556  0.221680  0.437163  1
  O  O12  1  0.671370  0.214517  0.061168  1
  O  O13  1  0.613525  0.453615  0.742803  1
  O  O14  1  0.386475  0.546385  0.257197  1
  O  O15  1  0.328630  0.785483  0.938832  1
  O  O16  1  0.303444  0.778320  0.562837  1
  O  O17  1  0.212605  0.326127  0.947434  1
  O  O18  1  0.223932  0.300737  0.567336  1
  O  O19  1  0.116737  0.054554  0.269318  1
