# generated using pymatgen
data_Tm2AlB6
_symmetry_space_group_name_H-M   'P 1'
_cell_length_a   3.57627700
_cell_length_b   9.15377900
_cell_length_c   11.51052800
_cell_angle_alpha   90.00000000
_cell_angle_beta   90.00000000
_cell_angle_gamma   90.00000000
_symmetry_Int_Tables_number   1
_chemical_formula_structural   Tm2AlB6
_chemical_formula_sum   'Tm8 Al4 B24'
_cell_volume   376.81381630
_cell_formula_units_Z   4
loop_
 _symmetry_equiv_pos_site_id
 _symmetry_equiv_pos_as_xyz
  1  'x, y, z'
loop_
 _atom_site_type_symbol
 _atom_site_label
 _atom_site_symmetry_multiplicity
 _atom_site_fract_x
 _atom_site_fract_y
 _atom_site_fract_z
 _atom_site_occupancy
  Tm  Tm0  1  0.000000  0.321594  0.413544  1
  Tm  Tm1  1  0.000000  0.678406  0.586456  1
  Tm  Tm2  1  0.000000  0.821594  0.086456  1
  Tm  Tm3  1  0.000000  0.178406  0.913544  1
  Tm  Tm4  1  0.000000  0.943665  0.371588  1
  Tm  Tm5  1  0.000000  0.056335  0.628412  1
  Tm  Tm6  1  0.000000  0.443665  0.128412  1
  Tm  Tm7  1  0.000000  0.556335  0.871588  1
  Al  Al8  1  0.000000  0.639717  0.320707  1
  Al  Al9  1  0.000000  0.360283  0.679293  1
  Al  Al10  1  0.000000  0.139717  0.179293  1
  Al  Al11  1  0.000000  0.860283  0.820707  1
  B  B12  1  0.500000  0.550804  0.436088  1
  B  B13  1  0.500000  0.449196  0.563912  1
  B  B14  1  0.500000  0.050804  0.063912  1
  B  B15  1  0.500000  0.949196  0.936088  1
  B  B16  1  0.500000  0.750819  0.420799  1
  B  B17  1  0.500000  0.249181  0.579201  1
  B  B18  1  0.500000  0.250819  0.079201  1
  B  B19  1  0.500000  0.749181  0.920799  1
  B  B20  1  0.500000  0.796723  0.262343  1
  B  B21  1  0.500000  0.203277  0.737657  1
  B  B22  1  0.500000  0.296723  0.237657  1
  B  B23  1  0.500000  0.703277  0.762343  1
  B  B24  1  0.500000  0.632023  0.182500  1
  B  B25  1  0.500000  0.367977  0.817500  1
  B  B26  1  0.500000  0.132023  0.317500  1
  B  B27  1  0.500000  0.867977  0.682500  1
  B  B28  1  0.500000  0.979190  0.211756  1
  B  B29  1  0.500000  0.020810  0.788244  1
  B  B30  1  0.500000  0.479190  0.288244  1
  B  B31  1  0.500000  0.520810  0.711756  1
  B  B32  1  0.500000  0.603481  0.028774  1
  B  B33  1  0.500000  0.396519  0.971226  1
  B  B34  1  0.500000  0.103481  0.471226  1
  B  B35  1  0.500000  0.896519  0.528774  1
