# generated using pymatgen
data_GdYHoTaO7
_symmetry_space_group_name_H-M   'P 1'
_cell_length_a   6.50439905
_cell_length_b   6.52170404
_cell_length_c   7.50035500
_cell_angle_alpha   89.99987419
_cell_angle_beta   90.00004522
_cell_angle_gamma   108.52558957
_symmetry_Int_Tables_number   1
_chemical_formula_structural   GdYHoTaO7
_chemical_formula_sum   'Gd2 Y2 Ho2 Ta2 O14'
_cell_volume   301.67666557
_cell_formula_units_Z   2
loop_
 _symmetry_equiv_pos_site_id
 _symmetry_equiv_pos_as_xyz
  1  'x, y, z'
loop_
 _atom_site_type_symbol
 _atom_site_label
 _atom_site_symmetry_multiplicity
 _atom_site_fract_x
 _atom_site_fract_y
 _atom_site_fract_z
 _atom_site_occupancy
  Gd  Gd0  1  0.534170  0.535264  0.499816  1
  Gd  Gd1  1  0.465823  0.464733  0.999817  1
  Y  Y2  1  0.999823  0.534920  0.240910  1
  Y  Y3  1  0.000176  0.465081  0.740910  1
  Ho  Ho4  1  0.534775  0.000490  0.758859  1
  Ho  Ho5  1  0.465225  0.999515  0.258859  1
  Ta  Ta6  1  0.002340  0.002166  0.500039  1
  Ta  Ta7  1  0.997659  0.997832  0.000039  1
  O  O8  1  0.930799  0.066646  0.750050  1
  O  O9  1  0.069202  0.933353  0.250051  1
  O  O10  1  0.359534  0.643140  0.249779  1
  O  O11  1  0.640467  0.356859  0.749780  1
  O  O12  1  0.370579  0.632600  0.750279  1
  O  O13  1  0.629418  0.367399  0.250280  1
  O  O14  1  0.327450  0.078626  0.975200  1
  O  O15  1  0.672552  0.921375  0.475198  1
  O  O16  1  0.306763  0.047024  0.545856  1
  O  O17  1  0.693238  0.952976  0.045857  1
  O  O18  1  0.050233  0.306925  0.455392  1
  O  O19  1  0.949771  0.693076  0.955390  1
  O  O20  1  0.918977  0.673074  0.523819  1
  O  O21  1  0.081026  0.326926  0.023819  1
