# generated using pymatgen
data_Sc3Si3Tc2Rh
_symmetry_space_group_name_H-M   'P 1'
_cell_length_a   6.94913010
_cell_length_b   6.90219153
_cell_length_c   3.44518600
_cell_angle_alpha   90.00000000
_cell_angle_beta   90.00000000
_cell_angle_gamma   119.77681133
_symmetry_Int_Tables_number   1
_chemical_formula_structural   Sc3Si3Tc2Rh
_chemical_formula_sum   'Sc3 Si3 Tc2 Rh1'
_cell_volume   143.42772000
_cell_formula_units_Z   1
loop_
 _symmetry_equiv_pos_site_id
 _symmetry_equiv_pos_as_xyz
  1  'x, y, z'
loop_
 _atom_site_type_symbol
 _atom_site_label
 _atom_site_symmetry_multiplicity
 _atom_site_fract_x
 _atom_site_fract_y
 _atom_site_fract_z
 _atom_site_occupancy
  Sc  Sc0  1  0.403717  0.400524  0.500000  1
  Sc  Sc1  1  0.596283  0.996807  0.500000  1
  Sc  Sc2  1  0.000000  0.602405  0.500000  1
  Si  Si3  1  0.664647  0.333470  0.000000  1
  Si  Si4  1  0.335353  0.668824  0.000000  1
  Si  Si5  1  0.000000  0.998007  0.500000  1
  Tc  Tc6  1  0.745866  0.746052  0.000000  1
  Tc  Tc7  1  0.254134  0.000187  0.000000  1
  Rh  Rh8  1  0.000000  0.253722  0.000000  1
