# generated using pymatgen
data_Gd3ThB16
_symmetry_space_group_name_H-M   'P 1'
_cell_length_a   7.16752793
_cell_length_b   7.16752707
_cell_length_c   4.06785300
_cell_angle_alpha   90.00000000
_cell_angle_beta   90.00000000
_cell_angle_gamma   90.50582532
_symmetry_Int_Tables_number   1
_chemical_formula_structural   Gd3ThB16
_chemical_formula_sum   'Gd3 Th1 B16'
_cell_volume   208.97150084
_cell_formula_units_Z   1
loop_
 _symmetry_equiv_pos_site_id
 _symmetry_equiv_pos_as_xyz
  1  'x, y, z'
loop_
 _atom_site_type_symbol
 _atom_site_label
 _atom_site_symmetry_multiplicity
 _atom_site_fract_x
 _atom_site_fract_y
 _atom_site_fract_z
 _atom_site_occupancy
  Gd  Gd0  1  0.184646  0.684646  0.000000  1
  Gd  Gd1  1  0.683435  0.816640  0.000000  1
  Gd  Gd2  1  0.316640  0.183435  0.000000  1
  Th  Th3  1  0.814426  0.314426  0.000000  1
  B  B4  1  0.322412  0.461744  0.500000  1
  B  B5  1  0.673834  0.540983  0.500000  1
  B  B6  1  0.536040  0.325878  0.500000  1
  B  B7  1  0.460135  0.677791  0.500000  1
  B  B8  1  0.002783  0.997091  0.203012  1
  B  B9  1  0.497091  0.502783  0.796988  1
  B  B10  1  0.002783  0.997091  0.796988  1
  B  B11  1  0.497091  0.502783  0.203012  1
  B  B12  1  0.589200  0.089200  0.500000  1
  B  B13  1  0.087181  0.412528  0.500000  1
  B  B14  1  0.912528  0.587181  0.500000  1
  B  B15  1  0.413376  0.913376  0.500000  1
  B  B16  1  0.040983  0.173834  0.500000  1
  B  B17  1  0.177791  0.960135  0.500000  1
  B  B18  1  0.825878  0.036040  0.500000  1
  B  B19  1  0.961744  0.822412  0.500000  1
