# generated using pymatgen
data_YEr(Co5P3)2
_symmetry_space_group_name_H-M   'P 1'
_cell_length_a   3.64265600
_cell_length_b   10.26977388
_cell_length_c   11.71838301
_cell_angle_alpha   90.04744209
_cell_angle_beta   90.00000000
_cell_angle_gamma   90.00000000
_symmetry_Int_Tables_number   1
_chemical_formula_structural   YEr(Co5P3)2
_chemical_formula_sum   'Y2 Er2 Co20 P12'
_cell_volume   438.37580947
_cell_formula_units_Z   2
loop_
 _symmetry_equiv_pos_site_id
 _symmetry_equiv_pos_as_xyz
  1  'x, y, z'
loop_
 _atom_site_type_symbol
 _atom_site_label
 _atom_site_symmetry_multiplicity
 _atom_site_fract_x
 _atom_site_fract_y
 _atom_site_fract_z
 _atom_site_occupancy
  Y  Y0  1  0.750000  0.417020  0.297229  1
  Y  Y1  1  0.250000  0.582980  0.702771  1
  Er  Er2  1  0.250000  0.917204  0.202558  1
  Er  Er3  1  0.750000  0.082796  0.797442  1
  Co  Co4  1  0.250000  0.784068  0.491262  1
  Co  Co5  1  0.750000  0.215932  0.508738  1
  Co  Co6  1  0.750000  0.283616  0.008772  1
  Co  Co7  1  0.250000  0.716384  0.991228  1
  Co  Co8  1  0.250000  0.093053  0.987651  1
  Co  Co9  1  0.750000  0.906947  0.012349  1
  Co  Co10  1  0.750000  0.593344  0.511587  1
  Co  Co11  1  0.250000  0.406656  0.488413  1
  Co  Co12  1  0.250000  0.278216  0.676821  1
  Co  Co13  1  0.750000  0.721784  0.323179  1
  Co  Co14  1  0.750000  0.779120  0.823482  1
  Co  Co15  1  0.250000  0.220880  0.176518  1
  Co  Co16  1  0.250000  0.617930  0.198467  1
  Co  Co17  1  0.750000  0.382070  0.801533  1
  Co  Co18  1  0.750000  0.116743  0.301232  1
  Co  Co19  1  0.250000  0.883257  0.698768  1
  Co  Co20  1  0.250000  0.031967  0.431632  1
  Co  Co21  1  0.750000  0.968033  0.568368  1
  Co  Co22  1  0.750000  0.532535  0.068248  1
  Co  Co23  1  0.250000  0.467465  0.931752  1
  P  P24  1  0.250000  0.081483  0.612440  1
  P  P25  1  0.750000  0.918517  0.387560  1
  P  P26  1  0.750000  0.581591  0.888227  1
  P  P27  1  0.250000  0.418409  0.111773  1
  P  P28  1  0.250000  0.229063  0.370542  1
  P  P29  1  0.750000  0.770937  0.629458  1
  P  P30  1  0.750000  0.730051  0.129859  1
  P  P31  1  0.250000  0.269949  0.870141  1
  P  P32  1  0.250000  0.898557  0.891096  1
  P  P33  1  0.750000  0.101443  0.108904  1
  P  P34  1  0.750000  0.397781  0.608559  1
  P  P35  1  0.250000  0.602219  0.391441  1
