# generated using pymatgen
data_NdThRe6(Si2Tc)2
_symmetry_space_group_name_H-M   'P 1'
_cell_length_a   4.17195900
_cell_length_b   7.26973202
_cell_length_c   15.65451367
_cell_angle_alpha   90.24967926
_cell_angle_beta   90.00000000
_cell_angle_gamma   90.00000000
_symmetry_Int_Tables_number   1
_chemical_formula_structural   NdThRe6(Si2Tc)2
_chemical_formula_sum   'Nd2 Th2 Re12 Si8 Tc4'
_cell_volume   474.78161171
_cell_formula_units_Z   2
loop_
 _symmetry_equiv_pos_site_id
 _symmetry_equiv_pos_as_xyz
  1  'x, y, z'
loop_
 _atom_site_type_symbol
 _atom_site_label
 _atom_site_symmetry_multiplicity
 _atom_site_fract_x
 _atom_site_fract_y
 _atom_site_fract_z
 _atom_site_occupancy
  Nd  Nd0  1  0.000000  0.584186  0.116852  1
  Nd  Nd1  1  0.000000  0.415814  0.883148  1
  Th  Th2  1  0.500000  0.085394  0.381213  1
  Th  Th3  1  0.500000  0.914606  0.618787  1
  Re  Re4  1  0.000000  0.737460  0.320044  1
  Re  Re5  1  0.000000  0.262540  0.679956  1
  Re  Re6  1  0.500000  0.235636  0.179945  1
  Re  Re7  1  0.500000  0.764364  0.820055  1
  Re  Re8  1  0.000000  0.433060  0.419927  1
  Re  Re9  1  0.000000  0.566940  0.580073  1
  Re  Re10  1  0.500000  0.937443  0.080149  1
  Re  Re11  1  0.500000  0.062557  0.919851  1
  Re  Re12  1  0.000000  0.998882  0.205843  1
  Re  Re13  1  0.000000  0.001118  0.794157  1
  Re  Re14  1  0.500000  0.499548  0.294084  1
  Re  Re15  1  0.500000  0.500452  0.705916  1
  Si  Si16  1  0.000000  0.827315  0.474487  1
  Si  Si17  1  0.000000  0.172685  0.525513  1
  Si  Si18  1  0.500000  0.326873  0.025373  1
  Si  Si19  1  0.500000  0.673127  0.974627  1
  Si  Si20  1  0.000000  0.304801  0.272816  1
  Si  Si21  1  0.000000  0.695199  0.727184  1
  Si  Si22  1  0.500000  0.798385  0.224148  1
  Si  Si23  1  0.500000  0.201615  0.775852  1
  Tc  Tc24  1  0.000000  0.140284  0.051744  1
  Tc  Tc25  1  0.000000  0.859716  0.948256  1
  Tc  Tc26  1  0.500000  0.642812  0.449436  1
  Tc  Tc27  1  0.500000  0.357188  0.550564  1
