# generated using pymatgen
data_Zr3Be2Al3Pt
_symmetry_space_group_name_H-M   'P 1'
_cell_length_a   6.52506400
_cell_length_b   6.52506471
_cell_length_c   4.01859700
_cell_angle_alpha   90.00000000
_cell_angle_beta   90.00000000
_cell_angle_gamma   119.99999642
_symmetry_Int_Tables_number   1
_chemical_formula_structural   Zr3Be2Al3Pt
_chemical_formula_sum   'Zr3 Be2 Al3 Pt1'
_cell_volume   148.17492001
_cell_formula_units_Z   1
loop_
 _symmetry_equiv_pos_site_id
 _symmetry_equiv_pos_as_xyz
  1  'x, y, z'
loop_
 _atom_site_type_symbol
 _atom_site_label
 _atom_site_symmetry_multiplicity
 _atom_site_fract_x
 _atom_site_fract_y
 _atom_site_fract_z
 _atom_site_occupancy
  Zr  Zr0  1  0.000000  0.423977  0.500000  1
  Zr  Zr1  1  0.576023  0.576023  0.500000  1
  Zr  Zr2  1  0.423977  0.000000  0.500000  1
  Be  Be3  1  0.333333  0.666667  0.000000  1
  Be  Be4  1  0.666667  0.333333  0.000000  1
  Al  Al5  1  0.000000  0.744704  0.000000  1
  Al  Al6  1  0.255296  0.255296  0.000000  1
  Al  Al7  1  0.744704  0.000000  0.000000  1
  Pt  Pt8  1  0.000000  0.000000  0.500000  1
