# generated using pymatgen
data_Pr2TePd14
_symmetry_space_group_name_H-M   'P 1'
_cell_length_a   9.04267000
_cell_length_b   9.04267000
_cell_length_c   7.40820600
_cell_angle_alpha   90.00000000
_cell_angle_beta   90.00000000
_cell_angle_gamma   90.00000000
_symmetry_Int_Tables_number   1
_chemical_formula_structural   Pr2TePd14
_chemical_formula_sum   'Pr4 Te2 Pd28'
_cell_volume   605.76812104
_cell_formula_units_Z   2
loop_
 _symmetry_equiv_pos_site_id
 _symmetry_equiv_pos_as_xyz
  1  'x, y, z'
loop_
 _atom_site_type_symbol
 _atom_site_label
 _atom_site_symmetry_multiplicity
 _atom_site_fract_x
 _atom_site_fract_y
 _atom_site_fract_z
 _atom_site_occupancy
  Pr  Pr0  1  0.500000  0.000000  0.933278  1
  Pr  Pr1  1  0.000000  0.500000  0.066722  1
  Pr  Pr2  1  0.000000  0.000000  0.500000  1
  Pr  Pr3  1  0.500000  0.500000  0.500000  1
  Te  Te4  1  0.500000  0.000000  0.454410  1
  Te  Te5  1  0.000000  0.500000  0.545590  1
  Pd  Pd6  1  0.322734  0.822734  0.634349  1
  Pd  Pd7  1  0.322734  0.177266  0.634349  1
  Pd  Pd8  1  0.677266  0.822734  0.634349  1
  Pd  Pd9  1  0.677266  0.177266  0.634349  1
  Pd  Pd10  1  0.177266  0.677266  0.365651  1
  Pd  Pd11  1  0.177266  0.322734  0.365651  1
  Pd  Pd12  1  0.822734  0.677266  0.365651  1
  Pd  Pd13  1  0.822734  0.322734  0.365651  1
  Pd  Pd14  1  0.500000  0.761305  0.244925  1
  Pd  Pd15  1  0.500000  0.238695  0.244925  1
  Pd  Pd16  1  0.261305  0.000000  0.244925  1
  Pd  Pd17  1  0.738695  0.000000  0.244925  1
  Pd  Pd18  1  0.000000  0.738695  0.755075  1
  Pd  Pd19  1  0.000000  0.261305  0.755075  1
  Pd  Pd20  1  0.238695  0.500000  0.755075  1
  Pd  Pd21  1  0.761305  0.500000  0.755075  1
  Pd  Pd22  1  0.500000  0.348558  0.861002  1
  Pd  Pd23  1  0.500000  0.651442  0.861002  1
  Pd  Pd24  1  0.848558  0.000000  0.861002  1
  Pd  Pd25  1  0.151442  0.000000  0.861002  1
  Pd  Pd26  1  0.000000  0.151442  0.138998  1
  Pd  Pd27  1  0.000000  0.848558  0.138998  1
  Pd  Pd28  1  0.651442  0.500000  0.138998  1
  Pd  Pd29  1  0.348558  0.500000  0.138998  1
  Pd  Pd30  1  0.250000  0.750000  0.000000  1
  Pd  Pd31  1  0.250000  0.250000  0.000000  1
  Pd  Pd32  1  0.750000  0.750000  0.000000  1
  Pd  Pd33  1  0.750000  0.250000  0.000000  1
