# generated using pymatgen
data_Tm4Zr3(ScPb2)5
_symmetry_space_group_name_H-M   'P 1'
_cell_length_a   6.20794650
_cell_length_b   9.16439128
_cell_length_c   11.28253700
_cell_angle_alpha   114.03822245
_cell_angle_beta   106.07560628
_cell_angle_gamma   89.74712401
_symmetry_Int_Tables_number   1
_chemical_formula_structural   Tm4Zr3(ScPb2)5
_chemical_formula_sum   'Tm4 Zr3 Sc5 Pb10'
_cell_volume   558.98295210
_cell_formula_units_Z   1
loop_
 _symmetry_equiv_pos_site_id
 _symmetry_equiv_pos_as_xyz
  1  'x, y, z'
loop_
 _atom_site_type_symbol
 _atom_site_label
 _atom_site_symmetry_multiplicity
 _atom_site_fract_x
 _atom_site_fract_y
 _atom_site_fract_z
 _atom_site_occupancy
  Tm  Tm0  1  0.146455  0.259524  0.288235  1
  Tm  Tm1  1  0.853883  0.741645  0.711995  1
  Tm  Tm2  1  0.641782  0.028711  0.288235  1
  Tm  Tm3  1  0.358110  0.970349  0.711995  1
  Zr  Zr4  1  0.558662  0.308662  0.617323  1
  Zr  Zr5  1  0.441789  0.691789  0.383579  1
  Zr  Zr6  1  0.942569  0.692569  0.385139  1
  Sc  Sc7  1  0.057094  0.307094  0.614188  1
  Sc  Sc8  1  0.439649  0.675803  0.876025  1
  Sc  Sc9  1  0.562217  0.324258  0.123972  1
  Sc  Sc10  1  0.936377  0.200222  0.876025  1
  Sc  Sc11  1  0.061755  0.799715  0.123972  1
  Pb  Pb12  1  0.291897  0.593395  0.584712  1
  Pb  Pb13  1  0.706896  0.406353  0.415827  1
  Pb  Pb14  1  0.792815  0.991317  0.584712  1
  Pb  Pb15  1  0.208932  0.009474  0.415827  1
  Pb  Pb16  1  0.251002  0.001002  0.002003  1
  Pb  Pb17  1  0.749543  0.999543  0.999086  1
  Pb  Pb18  1  0.068791  0.471454  0.140073  1
  Pb  Pb19  1  0.932211  0.527950  0.858503  1
  Pb  Pb20  1  0.571282  0.668619  0.140073  1
  Pb  Pb21  1  0.426292  0.330552  0.858503  1
