# generated using pymatgen
data_AcCBr
_symmetry_space_group_name_H-M   'P 1'
_cell_length_a   4.45333694
_cell_length_b   4.45333602
_cell_length_c   10.70689469
_cell_angle_alpha   87.35497142
_cell_angle_beta   87.35497213
_cell_angle_gamma   56.38331598
_symmetry_Int_Tables_number   1
_chemical_formula_structural   AcCBr
_chemical_formula_sum   'Ac2 C2 Br2'
_cell_volume   176.58683166
_cell_formula_units_Z   2
loop_
 _symmetry_equiv_pos_site_id
 _symmetry_equiv_pos_as_xyz
  1  'x, y, z'
loop_
 _atom_site_type_symbol
 _atom_site_label
 _atom_site_symmetry_multiplicity
 _atom_site_fract_x
 _atom_site_fract_y
 _atom_site_fract_z
 _atom_site_occupancy
  Ac  Ac0  1  0.852766  0.852766  0.149386  1
  Ac  Ac1  1  0.147234  0.147234  0.850614  1
  C  C2  1  0.573106  0.573106  0.028188  1
  C  C3  1  0.426894  0.426894  0.971812  1
  Br  Br4  1  0.825071  0.825071  0.666159  1
  Br  Br5  1  0.174929  0.174929  0.333841  1
