# generated using pymatgen
data_LaNd3(LuPt)4
_symmetry_space_group_name_H-M   'P 1'
_cell_length_a   4.81966400
_cell_length_b   7.26348584
_cell_length_c   8.79199836
_cell_angle_alpha   90.37937141
_cell_angle_beta   90.00000000
_cell_angle_gamma   90.00000000
_symmetry_Int_Tables_number   1
_chemical_formula_structural   LaNd3(LuPt)4
_chemical_formula_sum   'La1 Nd3 Lu4 Pt4'
_cell_volume   307.77967379
_cell_formula_units_Z   1
loop_
 _symmetry_equiv_pos_site_id
 _symmetry_equiv_pos_as_xyz
  1  'x, y, z'
loop_
 _atom_site_type_symbol
 _atom_site_label
 _atom_site_symmetry_multiplicity
 _atom_site_fract_x
 _atom_site_fract_y
 _atom_site_fract_z
 _atom_site_occupancy
  La  La0  1  0.250000  0.013390  0.675254  1
  Nd  Nd1  1  0.250000  0.511352  0.826862  1
  Nd  Nd2  1  0.750000  0.987302  0.323701  1
  Nd  Nd3  1  0.750000  0.486763  0.173673  1
  Lu  Lu4  1  0.250000  0.141841  0.078667  1
  Lu  Lu5  1  0.250000  0.641780  0.422510  1
  Lu  Lu6  1  0.750000  0.855868  0.925666  1
  Lu  Lu7  1  0.750000  0.362124  0.575200  1
  Pt  Pt8  1  0.250000  0.257316  0.408969  1
  Pt  Pt9  1  0.250000  0.756573  0.091953  1
  Pt  Pt10  1  0.750000  0.743918  0.589295  1
  Pt  Pt11  1  0.750000  0.241775  0.908249  1
