# generated using pymatgen
data_Rb4SrUO6
_symmetry_space_group_name_H-M   'P 1'
_cell_length_a   6.53511978
_cell_length_b   6.53514372
_cell_length_c   6.87437951
_cell_angle_alpha   99.28148256
_cell_angle_beta   99.28164639
_cell_angle_gamma   119.74882631
_symmetry_Int_Tables_number   1
_chemical_formula_structural   Rb4SrUO6
_chemical_formula_sum   'Rb4 Sr1 U1 O6'
_cell_volume   241.37807336
_cell_formula_units_Z   1
loop_
 _symmetry_equiv_pos_site_id
 _symmetry_equiv_pos_as_xyz
  1  'x, y, z'
loop_
 _atom_site_type_symbol
 _atom_site_label
 _atom_site_symmetry_multiplicity
 _atom_site_fract_x
 _atom_site_fract_y
 _atom_site_fract_z
 _atom_site_occupancy
  Rb  Rb0  1  0.500175  0.499823  0.999998  1
  Rb  Rb1  1  0.002399  0.997600  0.500000  1
  Rb  Rb2  1  0.658685  0.341320  0.499999  1
  Rb  Rb3  1  0.337509  0.662494  0.500000  1
  Sr  Sr4  1  0.833426  0.166577  0.000000  1
  U  U5  1  0.167191  0.832810  0.000001  1
  O  O6  1  0.979510  0.615989  0.186893  1
  O  O7  1  0.511620  0.926243  0.187627  1
  O  O8  1  0.199807  0.148085  0.185062  1
  O  O9  1  0.851913  0.800194  0.814938  1
  O  O10  1  0.073758  0.488383  0.812375  1
  O  O11  1  0.384013  0.020490  0.813109  1
