# generated using pymatgen
data_La8CeY11Sn16
_symmetry_space_group_name_H-M   'P 1'
_cell_length_a   8.16511966
_cell_length_b   8.35092125
_cell_length_c   15.76466000
_cell_angle_alpha   89.86159951
_cell_angle_beta   90.02305130
_cell_angle_gamma   89.92649875
_symmetry_Int_Tables_number   1
_chemical_formula_structural   La8CeY11Sn16
_chemical_formula_sum   'La8 Ce1 Y11 Sn16'
_cell_volume   1074.92927396
_cell_formula_units_Z   1
loop_
 _symmetry_equiv_pos_site_id
 _symmetry_equiv_pos_as_xyz
  1  'x, y, z'
loop_
 _atom_site_type_symbol
 _atom_site_label
 _atom_site_symmetry_multiplicity
 _atom_site_fract_x
 _atom_site_fract_y
 _atom_site_fract_z
 _atom_site_occupancy
  La  La0  1  0.513413  0.321703  0.903806  1
  La  La1  1  0.012389  0.179387  0.595303  1
  La  La2  1  0.487348  0.678541  0.403479  1
  La  La3  1  0.986351  0.821527  0.097244  1
  La  La4  1  0.486571  0.679121  0.096920  1
  La  La5  1  0.987103  0.821351  0.403639  1
  La  La6  1  0.513049  0.321210  0.594831  1
  La  La7  1  0.013939  0.178868  0.903349  1
  Ce  Ce8  1  0.360124  0.834580  0.879488  1
  Y  Y9  1  0.858122  0.663641  0.621837  1
  Y  Y10  1  0.642261  0.164245  0.376574  1
  Y  Y11  1  0.141298  0.335926  0.124804  1
  Y  Y12  1  0.641471  0.163558  0.123060  1
  Y  Y13  1  0.142122  0.336333  0.376804  1
  Y  Y14  1  0.358045  0.835733  0.622768  1
  Y  Y15  1  0.857184  0.663868  0.876637  1
  Y  Y16  1  0.191830  0.502106  0.748762  1
  Y  Y17  1  0.691729  0.997420  0.749788  1
  Y  Y18  1  0.807404  0.498171  0.250010  1
  Y  Y19  1  0.307398  0.002420  0.250996  1
  Sn  Sn20  1  0.304651  0.041770  0.044699  1
  Sn  Sn21  1  0.806356  0.458876  0.457088  1
  Sn  Sn22  1  0.692850  0.959272  0.541989  1
  Sn  Sn23  1  0.190449  0.538211  0.958279  1
  Sn  Sn24  1  0.700016  0.960954  0.957631  1
  Sn  Sn25  1  0.194343  0.541080  0.541991  1
  Sn  Sn26  1  0.306607  0.040860  0.457771  1
  Sn  Sn27  1  0.806168  0.459248  0.042158  1
  Sn  Sn28  1  0.558192  0.623039  0.749723  1
  Sn  Sn29  1  0.057361  0.875060  0.749144  1
  Sn  Sn30  1  0.442777  0.376253  0.250062  1
  Sn  Sn31  1  0.941996  0.123674  0.250413  1
  Sn  Sn32  1  0.320815  0.141840  0.749198  1
  Sn  Sn33  1  0.821248  0.359492  0.749213  1
  Sn  Sn34  1  0.678218  0.859565  0.250110  1
  Sn  Sn35  1  0.178801  0.641099  0.250432  1
