# generated using pymatgen
data_La2Nd2Th3P12Pd17
_symmetry_space_group_name_H-M   'P 1'
_cell_length_a   12.40008602
_cell_length_b   12.40008574
_cell_length_c   13.71820376
_cell_angle_alpha   68.59179688
_cell_angle_beta   68.59179792
_cell_angle_gamma   19.06902467
_symmetry_Int_Tables_number   1
_chemical_formula_structural   La2Nd2Th3P12Pd17
_chemical_formula_sum   'La2 Nd2 Th3 P12 Pd17'
_cell_volume   640.19566137
_cell_formula_units_Z   1
loop_
 _symmetry_equiv_pos_site_id
 _symmetry_equiv_pos_as_xyz
  1  'x, y, z'
loop_
 _atom_site_type_symbol
 _atom_site_label
 _atom_site_symmetry_multiplicity
 _atom_site_fract_x
 _atom_site_fract_y
 _atom_site_fract_z
 _atom_site_occupancy
  La  La0  1  0.417540  0.417540  0.263184  1
  La  La1  1  0.582460  0.582460  0.736816  1
  Nd  Nd2  1  0.364095  0.364095  0.999731  1
  Nd  Nd3  1  0.635905  0.635905  0.000269  1
  Th  Th4  1  0.500000  0.500000  0.500000  1
  Th  Th5  1  0.233770  0.233770  0.312639  1
  Th  Th6  1  0.766230  0.766230  0.687361  1
  P  P7  1  0.061175  0.061175  0.926111  1
  P  P8  1  0.938825  0.938825  0.073889  1
  P  P9  1  0.886081  0.886081  0.829073  1
  P  P10  1  0.113919  0.113919  0.170927  1
  P  P11  1  0.189571  0.189571  0.619722  1
  P  P12  1  0.810429  0.810429  0.380278  1
  P  P13  1  0.365858  0.365858  0.577862  1
  P  P14  1  0.634142  0.634142  0.422138  1
  P  P15  1  0.009884  0.009884  0.665622  1
  P  P16  1  0.990116  0.990116  0.334378  1
  P  P17  1  0.233451  0.233451  0.885388  1
  P  P18  1  0.766549  0.766549  0.114612  1
  Pd  Pd19  1  0.837892  0.837892  0.193882  1
  Pd  Pd20  1  0.162108  0.162108  0.806118  1
  Pd  Pd21  1  0.026939  0.026939  0.123508  1
  Pd  Pd22  1  0.973061  0.973061  0.876492  1
  Pd  Pd23  1  0.890079  0.890079  0.459455  1
  Pd  Pd24  1  0.109921  0.109921  0.540545  1
  Pd  Pd25  1  0.500000  0.500000  0.000000  1
  Pd  Pd26  1  0.546016  0.546016  0.253704  1
  Pd  Pd27  1  0.453984  0.453984  0.746296  1
  Pd  Pd28  1  0.295927  0.295927  0.487974  1
  Pd  Pd29  1  0.704073  0.704073  0.512026  1
  Pd  Pd30  1  0.665366  0.665366  0.226924  1
  Pd  Pd31  1  0.334634  0.334634  0.773076  1
  Pd  Pd32  1  0.907512  0.907512  0.644546  1
  Pd  Pd33  1  0.092488  0.092488  0.355454  1
  Pd  Pd34  1  0.217977  0.217977  0.075323  1
  Pd  Pd35  1  0.782023  0.782023  0.924677  1
