# generated using pymatgen
data_Ho7Er3(Cd2Rh)4
_symmetry_space_group_name_H-M   'P 1'
_cell_length_a   3.63233600
_cell_length_b   7.97673229
_cell_length_c   18.26650300
_cell_angle_alpha   90.05206140
_cell_angle_beta   90.00000000
_cell_angle_gamma   90.00000000
_symmetry_Int_Tables_number   1
_chemical_formula_structural   Ho7Er3(Cd2Rh)4
_chemical_formula_sum   'Ho7 Er3 Cd8 Rh4'
_cell_volume   529.25657890
_cell_formula_units_Z   1
loop_
 _symmetry_equiv_pos_site_id
 _symmetry_equiv_pos_as_xyz
  1  'x, y, z'
loop_
 _atom_site_type_symbol
 _atom_site_label
 _atom_site_symmetry_multiplicity
 _atom_site_fract_x
 _atom_site_fract_y
 _atom_site_fract_z
 _atom_site_occupancy
  Ho  Ho0  1  0.000000  0.499927  0.500040  1
  Ho  Ho1  1  0.000000  0.999906  0.999924  1
  Ho  Ho2  1  0.000000  0.749127  0.280449  1
  Ho  Ho3  1  0.000000  0.251198  0.719639  1
  Ho  Ho4  1  0.000000  0.751027  0.779997  1
  Ho  Ho5  1  0.000000  0.249016  0.219928  1
  Ho  Ho6  1  0.000000  0.614264  0.088232  1
  Er  Er7  1  0.000000  0.385801  0.911485  1
  Er  Er8  1  0.000000  0.885859  0.588427  1
  Er  Er9  1  0.000000  0.114087  0.411819  1
  Cd  Cd10  1  0.500000  0.710272  0.933372  1
  Cd  Cd11  1  0.500000  0.289035  0.066235  1
  Cd  Cd12  1  0.500000  0.790029  0.433991  1
  Cd  Cd13  1  0.500000  0.210082  0.566081  1
  Cd  Cd14  1  0.500000  0.573731  0.647382  1
  Cd  Cd15  1  0.500000  0.425824  0.352670  1
  Cd  Cd16  1  0.500000  0.926959  0.147676  1
  Cd  Cd17  1  0.500000  0.074139  0.852352  1
  Rh  Rh18  1  0.500000  0.533002  0.196941  1
  Rh  Rh19  1  0.500000  0.466456  0.803327  1
  Rh  Rh20  1  0.500000  0.966873  0.696253  1
  Rh  Rh21  1  0.500000  0.033388  0.303780  1
