# generated using pymatgen
data_Y7HoTc3B24Os
_symmetry_space_group_name_H-M   'P 1'
_cell_length_a   3.68252400
_cell_length_b   9.17150910
_cell_length_c   11.56093403
_cell_angle_alpha   89.95665292
_cell_angle_beta   90.00000000
_cell_angle_gamma   90.00000000
_symmetry_Int_Tables_number   1
_chemical_formula_structural   Y7HoTc3B24Os
_chemical_formula_sum   'Y7 Ho1 Tc3 B24 Os1'
_cell_volume   390.46236990
_cell_formula_units_Z   1
loop_
 _symmetry_equiv_pos_site_id
 _symmetry_equiv_pos_as_xyz
  1  'x, y, z'
loop_
 _atom_site_type_symbol
 _atom_site_label
 _atom_site_symmetry_multiplicity
 _atom_site_fract_x
 _atom_site_fract_y
 _atom_site_fract_z
 _atom_site_occupancy
  Y  Y0  1  0.000000  0.323839  0.413892  1
  Y  Y1  1  0.000000  0.675268  0.584430  1
  Y  Y2  1  0.000000  0.822969  0.087171  1
  Y  Y3  1  0.000000  0.177947  0.914486  1
  Y  Y4  1  0.000000  0.942620  0.370175  1
  Y  Y5  1  0.000000  0.058109  0.629957  1
  Y  Y6  1  0.000000  0.443052  0.129892  1
  Ho  Ho7  1  0.000000  0.557041  0.869314  1
  Tc  Tc8  1  0.000000  0.638404  0.320623  1
  Tc  Tc9  1  0.000000  0.361908  0.680173  1
  Tc  Tc10  1  0.000000  0.137946  0.178177  1
  B  B11  1  0.500000  0.553215  0.432764  1
  B  B12  1  0.500000  0.446757  0.567040  1
  B  B13  1  0.500000  0.053149  0.067048  1
  B  B14  1  0.500000  0.946103  0.932723  1
  B  B15  1  0.500000  0.748263  0.418653  1
  B  B16  1  0.500000  0.251426  0.581372  1
  B  B17  1  0.500000  0.248844  0.081355  1
  B  B18  1  0.500000  0.751265  0.918240  1
  B  B19  1  0.500000  0.791447  0.265619  1
  B  B20  1  0.500000  0.208819  0.734935  1
  B  B21  1  0.500000  0.291421  0.234616  1
  B  B22  1  0.500000  0.709109  0.765610  1
  B  B23  1  0.500000  0.631242  0.185850  1
  B  B24  1  0.500000  0.369026  0.814760  1
  B  B25  1  0.500000  0.130801  0.313837  1
  B  B26  1  0.500000  0.868708  0.686082  1
  B  B27  1  0.500000  0.982162  0.211694  1
  B  B28  1  0.500000  0.016554  0.788330  1
  B  B29  1  0.500000  0.482468  0.288151  1
  B  B30  1  0.500000  0.517426  0.711970  1
  B  B31  1  0.500000  0.602200  0.027944  1
  B  B32  1  0.500000  0.399082  0.971355  1
  B  B33  1  0.500000  0.102142  0.471638  1
  B  B34  1  0.500000  0.897920  0.528809  1
  Os  Os35  1  0.000000  0.861349  0.821316  1
