# generated using pymatgen
data_Cs4LiMnS4
_symmetry_space_group_name_H-M   'P 1'
_cell_length_a   8.47321507
_cell_length_b   8.47321460
_cell_length_c   8.47321532
_cell_angle_alpha   134.59522787
_cell_angle_beta   130.94280103
_cell_angle_gamma   69.05945455
_symmetry_Int_Tables_number   1
_chemical_formula_structural   Cs4LiMnS4
_chemical_formula_sum   'Cs4 Li1 Mn1 S4'
_cell_volume   321.19632856
_cell_formula_units_Z   1
loop_
 _symmetry_equiv_pos_site_id
 _symmetry_equiv_pos_as_xyz
  1  'x, y, z'
loop_
 _atom_site_type_symbol
 _atom_site_label
 _atom_site_symmetry_multiplicity
 _atom_site_fract_x
 _atom_site_fract_y
 _atom_site_fract_z
 _atom_site_occupancy
  Cs  Cs0  1  0.519936  0.863212  0.677540  1
  Cs  Cs1  1  0.480064  0.157604  0.343276  1
  Cs  Cs2  1  0.814328  0.636788  0.156724  1
  Cs  Cs3  1  0.185672  0.342396  0.822460  1
  Li  Li4  1  0.000000  0.250000  0.250000  1
  Mn  Mn5  1  0.000000  0.750000  0.750000  1
  S  S6  1  0.063230  0.882450  0.139667  1
  S  S7  1  0.742783  0.423563  0.360333  1
  S  S8  1  0.936770  0.076437  0.819220  1
  S  S9  1  0.257218  0.617550  0.680780  1
