# generated using pymatgen
data_KRb6(FeSe2)4
_symmetry_space_group_name_H-M   'P 1'
_cell_length_a   10.43326372
_cell_length_b   10.43326315
_cell_length_c   16.86129704
_cell_angle_alpha   64.82701484
_cell_angle_beta   64.82701645
_cell_angle_gamma   47.76079738
_symmetry_Int_Tables_number   1
_chemical_formula_structural   KRb6(FeSe2)4
_chemical_formula_sum   'K2 Rb12 Fe8 Se16'
_cell_volume   1202.86239375
_cell_formula_units_Z   2
loop_
 _symmetry_equiv_pos_site_id
 _symmetry_equiv_pos_as_xyz
  1  'x, y, z'
loop_
 _atom_site_type_symbol
 _atom_site_label
 _atom_site_symmetry_multiplicity
 _atom_site_fract_x
 _atom_site_fract_y
 _atom_site_fract_z
 _atom_site_occupancy
  K  K0  1  0.231447  0.768553  0.750000  1
  K  K1  1  0.768553  0.231447  0.250000  1
  Rb  Rb2  1  0.241678  0.746612  0.989986  1
  Rb  Rb3  1  0.253388  0.758322  0.510014  1
  Rb  Rb4  1  0.758322  0.253388  0.010014  1
  Rb  Rb5  1  0.746612  0.241678  0.489986  1
  Rb  Rb6  1  0.002108  0.520119  0.611240  1
  Rb  Rb7  1  0.479881  0.997892  0.888760  1
  Rb  Rb8  1  0.997892  0.479881  0.388760  1
  Rb  Rb9  1  0.520119  0.002108  0.111240  1
  Rb  Rb10  1  0.011543  0.507127  0.861225  1
  Rb  Rb11  1  0.492873  0.988457  0.638775  1
  Rb  Rb12  1  0.988457  0.492873  0.138775  1
  Rb  Rb13  1  0.507127  0.011543  0.361225  1
  Fe  Fe14  1  0.679733  0.430703  0.667571  1
  Fe  Fe15  1  0.569297  0.320267  0.832429  1
  Fe  Fe16  1  0.320267  0.569297  0.332429  1
  Fe  Fe17  1  0.430703  0.679733  0.167571  1
  Fe  Fe18  1  0.895264  0.212489  0.776742  1
  Fe  Fe19  1  0.787511  0.104736  0.723258  1
  Fe  Fe20  1  0.104736  0.787511  0.223258  1
  Fe  Fe21  1  0.212489  0.895264  0.276742  1
  Se  Se22  1  0.647858  0.517207  0.791828  1
  Se  Se23  1  0.482793  0.352142  0.708172  1
  Se  Se24  1  0.352142  0.482793  0.208172  1
  Se  Se25  1  0.517207  0.647858  0.291828  1
  Se  Se26  1  0.984252  0.184597  0.622327  1
  Se  Se27  1  0.815403  0.015748  0.877673  1
  Se  Se28  1  0.015748  0.815403  0.377673  1
  Se  Se29  1  0.184597  0.984252  0.122327  1
  Se  Se30  1  0.673519  0.607191  0.046616  1
  Se  Se31  1  0.392809  0.326481  0.453384  1
  Se  Se32  1  0.326481  0.392809  0.953384  1
  Se  Se33  1  0.607191  0.673519  0.546616  1
  Se  Se34  1  0.869673  0.864859  0.682669  1
  Se  Se35  1  0.135141  0.130327  0.817331  1
  Se  Se36  1  0.130327  0.135141  0.317331  1
  Se  Se37  1  0.864859  0.869673  0.182669  1
