# generated using pymatgen
data_DyHo2In3Ni2Ag
_symmetry_space_group_name_H-M   'P 1'
_cell_length_a   7.69337902
_cell_length_b   7.70011789
_cell_length_c   3.71600100
_cell_angle_alpha   90.00000000
_cell_angle_beta   90.00000000
_cell_angle_gamma   119.97914044
_symmetry_Int_Tables_number   1
_chemical_formula_structural   DyHo2In3Ni2Ag
_chemical_formula_sum   'Dy1 Ho2 In3 Ni2 Ag1'
_cell_volume   190.68310066
_cell_formula_units_Z   1
loop_
 _symmetry_equiv_pos_site_id
 _symmetry_equiv_pos_as_xyz
  1  'x, y, z'
loop_
 _atom_site_type_symbol
 _atom_site_label
 _atom_site_symmetry_multiplicity
 _atom_site_fract_x
 _atom_site_fract_y
 _atom_site_fract_z
 _atom_site_occupancy
  Dy  Dy0  1  0.026545  0.605520  0.500000  1
  Ho  Ho1  1  0.394413  0.421033  0.500000  1
  Ho  Ho2  1  0.579182  0.973412  0.500000  1
  In  In3  1  0.750476  0.746225  0.000000  1
  In  In4  1  0.995425  0.249001  0.000000  1
  In  In5  1  0.253821  0.005059  0.000000  1
  Ni  Ni6  1  0.335407  0.666376  0.000000  1
  Ni  Ni7  1  0.998884  0.000636  0.500000  1
  Ag  Ag8  1  0.665844  0.332740  0.000000  1
