# generated using pymatgen
data_Ca3Dy2Lu(Si3Ru)8
_symmetry_space_group_name_H-M   'P 1'
_cell_length_a   10.14370915
_cell_length_b   10.14371047
_cell_length_c   8.15022906
_cell_angle_alpha   90.01366009
_cell_angle_beta   90.01365832
_cell_angle_gamma   132.62229063
_symmetry_Int_Tables_number   1
_chemical_formula_structural   Ca3Dy2Lu(Si3Ru)8
_chemical_formula_sum   'Ca3 Dy2 Lu1 Si24 Ru8'
_cell_volume   617.08223362
_cell_formula_units_Z   1
loop_
 _symmetry_equiv_pos_site_id
 _symmetry_equiv_pos_as_xyz
  1  'x, y, z'
loop_
 _atom_site_type_symbol
 _atom_site_label
 _atom_site_symmetry_multiplicity
 _atom_site_fract_x
 _atom_site_fract_y
 _atom_site_fract_z
 _atom_site_occupancy
  Ca  Ca0  1  0.999929  0.000071  0.000000  1
  Ca  Ca1  1  0.500470  0.000697  0.750264  1
  Ca  Ca2  1  0.999303  0.499530  0.249736  1
  Dy  Dy3  1  0.498600  0.998507  0.249700  1
  Dy  Dy4  1  0.001493  0.501400  0.750300  1
  Lu  Lu5  1  0.500060  0.499940  0.500000  1
  Si  Si6  1  0.794683  0.205317  0.500000  1
  Si  Si7  1  0.294808  0.705192  0.000000  1
  Si  Si8  1  0.205816  0.794184  0.500000  1
  Si  Si9  1  0.704634  0.295366  0.000000  1
  Si  Si10  1  0.330036  0.334733  0.833728  1
  Si  Si11  1  0.665267  0.669964  0.166272  1
  Si  Si12  1  0.168254  0.163578  0.332036  1
  Si  Si13  1  0.836422  0.831746  0.667964  1
  Si  Si14  1  0.122032  0.889021  0.729398  1
  Si  Si15  1  0.110979  0.877968  0.270602  1
  Si  Si16  1  0.607608  0.375003  0.229060  1
  Si  Si17  1  0.624997  0.392392  0.770940  1
  Si  Si18  1  0.875674  0.108641  0.270541  1
  Si  Si19  1  0.891359  0.124326  0.729459  1
  Si  Si20  1  0.389858  0.622364  0.771257  1
  Si  Si21  1  0.377636  0.610142  0.228743  1
  Si  Si22  1  0.344605  0.111420  0.503685  1
  Si  Si23  1  0.888580  0.655395  0.496315  1
  Si  Si24  1  0.386312  0.153634  0.007708  1
  Si  Si25  1  0.846366  0.613688  0.992292  1
  Si  Si26  1  0.655087  0.887780  0.492731  1
  Si  Si27  1  0.112220  0.344913  0.507269  1
  Si  Si28  1  0.612887  0.846091  0.995417  1
  Si  Si29  1  0.153909  0.387113  0.004583  1
  Ru  Ru30  1  0.669068  0.330932  0.500000  1
  Ru  Ru31  1  0.170005  0.829995  0.000000  1
  Ru  Ru32  1  0.331743  0.668257  0.500000  1
  Ru  Ru33  1  0.829221  0.170779  0.000000  1
  Ru  Ru34  1  0.128003  0.128485  0.624293  1
  Ru  Ru35  1  0.871515  0.871997  0.375707  1
  Ru  Ru36  1  0.375708  0.375148  0.128088  1
  Ru  Ru37  1  0.624852  0.624292  0.871912  1
