# generated using pymatgen
data_LaTh3Al13Au9
_symmetry_space_group_name_H-M   'P 1'
_cell_length_a   11.75322607
_cell_length_b   11.75324094
_cell_length_c   4.27392400
_cell_angle_alpha   90.00000000
_cell_angle_beta   90.00000000
_cell_angle_gamma   120.01225717
_symmetry_Int_Tables_number   1
_chemical_formula_structural   LaTh3Al13Au9
_chemical_formula_sum   'La1 Th3 Al13 Au9'
_cell_volume   511.23255563
_cell_formula_units_Z   1
loop_
 _symmetry_equiv_pos_site_id
 _symmetry_equiv_pos_as_xyz
  1  'x, y, z'
loop_
 _atom_site_type_symbol
 _atom_site_label
 _atom_site_symmetry_multiplicity
 _atom_site_fract_x
 _atom_site_fract_y
 _atom_site_fract_z
 _atom_site_occupancy
  La  La0  1  0.666672  0.333345  0.000000  1
  Th  Th1  1  0.207203  0.792840  0.500000  1
  Th  Th2  1  0.585667  0.792787  0.500000  1
  Th  Th3  1  0.207238  0.414341  0.500000  1
  Al  Al4  1  0.947700  0.291344  0.000000  1
  Al  Al5  1  0.708640  0.656339  0.000000  1
  Al  Al6  1  0.947679  0.656296  0.000000  1
  Al  Al7  1  0.343711  0.052327  0.000000  1
  Al  Al8  1  0.165335  0.082700  0.500000  1
  Al  Al9  1  0.917295  0.834661  0.500000  1
  Al  Al10  1  0.708647  0.052297  0.000000  1
  Al  Al11  1  0.530749  0.061508  0.500000  1
  Al  Al12  1  0.917310  0.082682  0.500000  1
  Al  Al13  1  0.343663  0.291352  0.000000  1
  Al  Al14  1  0.530745  0.469273  0.500000  1
  Al  Al15  1  0.938487  0.469259  0.500000  1
  Al  Al16  1  0.333304  0.666679  0.000000  1
  Au  Au17  1  0.457344  0.542647  0.000000  1
  Au  Au18  1  0.825467  0.912729  0.000000  1
  Au  Au19  1  0.457346  0.914706  0.000000  1
  Au  Au20  1  0.087280  0.174545  0.000000  1
  Au  Au21  1  0.087305  0.912703  0.000000  1
  Au  Au22  1  0.790017  0.580079  0.500000  1
  Au  Au23  1  0.085286  0.542646  0.000000  1
  Au  Au24  1  0.790013  0.209954  0.500000  1
  Au  Au25  1  0.419902  0.209956  0.500000  1
