# generated using pymatgen
data_Ho10FeHg3
_symmetry_space_group_name_H-M   'P 1'
_cell_length_a   9.51934800
_cell_length_b   9.51934870
_cell_length_c   9.56646800
_cell_angle_alpha   90.00000000
_cell_angle_beta   90.00000000
_cell_angle_gamma   119.99999758
_symmetry_Int_Tables_number   1
_chemical_formula_structural   Ho10FeHg3
_chemical_formula_sum   'Ho20 Fe2 Hg6'
_cell_volume   750.75235733
_cell_formula_units_Z   2
loop_
 _symmetry_equiv_pos_site_id
 _symmetry_equiv_pos_as_xyz
  1  'x, y, z'
loop_
 _atom_site_type_symbol
 _atom_site_label
 _atom_site_symmetry_multiplicity
 _atom_site_fract_x
 _atom_site_fract_y
 _atom_site_fract_z
 _atom_site_occupancy
  Ho  Ho0  1  0.000000  0.000000  0.500000  1
  Ho  Ho1  1  0.000000  0.000000  0.000000  1
  Ho  Ho2  1  0.541184  0.458816  0.250000  1
  Ho  Ho3  1  0.541184  0.082367  0.250000  1
  Ho  Ho4  1  0.917633  0.458816  0.250000  1
  Ho  Ho5  1  0.458816  0.541184  0.750000  1
  Ho  Ho6  1  0.458816  0.917633  0.750000  1
  Ho  Ho7  1  0.082367  0.541184  0.750000  1
  Ho  Ho8  1  0.212611  0.787389  0.436959  1
  Ho  Ho9  1  0.212611  0.425225  0.436959  1
  Ho  Ho10  1  0.574775  0.787389  0.436959  1
  Ho  Ho11  1  0.787389  0.212611  0.563041  1
  Ho  Ho12  1  0.787389  0.574775  0.563041  1
  Ho  Ho13  1  0.425225  0.212611  0.563041  1
  Ho  Ho14  1  0.787389  0.212611  0.936959  1
  Ho  Ho15  1  0.787389  0.574775  0.936959  1
  Ho  Ho16  1  0.425225  0.212611  0.936959  1
  Ho  Ho17  1  0.212611  0.787389  0.063041  1
  Ho  Ho18  1  0.212611  0.425225  0.063041  1
  Ho  Ho19  1  0.574775  0.787389  0.063041  1
  Fe  Fe20  1  0.333333  0.666667  0.250000  1
  Fe  Fe21  1  0.666667  0.333333  0.750000  1
  Hg  Hg22  1  0.881666  0.118334  0.250000  1
  Hg  Hg23  1  0.881666  0.763332  0.250000  1
  Hg  Hg24  1  0.236668  0.118334  0.250000  1
  Hg  Hg25  1  0.118334  0.881666  0.750000  1
  Hg  Hg26  1  0.118334  0.236668  0.750000  1
  Hg  Hg27  1  0.763332  0.881666  0.750000  1
