# generated using pymatgen
data_TbDyTi2Cr2O10
_symmetry_space_group_name_H-M   'P 1'
_cell_length_a   5.85527600
_cell_length_b   7.46830013
_cell_length_c   8.60906800
_cell_angle_alpha   89.98989663
_cell_angle_beta   90.00000000
_cell_angle_gamma   90.00000000
_symmetry_Int_Tables_number   1
_chemical_formula_structural   TbDyTi2Cr2O10
_chemical_formula_sum   'Tb2 Dy2 Ti4 Cr4 O20'
_cell_volume   376.46557145
_cell_formula_units_Z   2
loop_
 _symmetry_equiv_pos_site_id
 _symmetry_equiv_pos_as_xyz
  1  'x, y, z'
loop_
 _atom_site_type_symbol
 _atom_site_label
 _atom_site_symmetry_multiplicity
 _atom_site_fract_x
 _atom_site_fract_y
 _atom_site_fract_z
 _atom_site_occupancy
  Tb  Tb0  1  0.500000  0.359541  0.329830  1
  Tb  Tb1  1  0.500000  0.640459  0.670170  1
  Dy  Dy2  1  0.500000  0.141126  0.829851  1
  Dy  Dy3  1  0.500000  0.858874  0.170149  1
  Ti  Ti4  1  0.000000  0.118043  0.146426  1
  Ti  Ti5  1  0.000000  0.881957  0.853574  1
  Ti  Ti6  1  0.000000  0.381743  0.646432  1
  Ti  Ti7  1  0.000000  0.618257  0.353568  1
  Cr  Cr8  1  0.254074  0.000000  0.500000  1
  Cr  Cr9  1  0.745926  0.000000  0.500000  1
  Cr  Cr10  1  0.745910  0.500000  0.000000  1
  Cr  Cr11  1  0.254090  0.500000  0.000000  1
  O  O12  1  0.252597  0.110226  0.287629  1
  O  O13  1  0.747403  0.889774  0.712371  1
  O  O14  1  0.252597  0.889774  0.712371  1
  O  O15  1  0.747323  0.389398  0.787746  1
  O  O16  1  0.747403  0.110226  0.287629  1
  O  O17  1  0.252677  0.610602  0.212254  1
  O  O18  1  0.747323  0.610602  0.212254  1
  O  O19  1  0.252677  0.389398  0.787746  1
  O  O20  1  0.000000  0.342592  0.077792  1
  O  O21  1  0.000000  0.657408  0.922208  1
  O  O22  1  0.000000  0.157453  0.577675  1
  O  O23  1  0.000000  0.842547  0.422325  1
  O  O24  1  0.500000  0.332648  0.059405  1
  O  O25  1  0.500000  0.667352  0.940595  1
  O  O26  1  0.500000  0.167057  0.560123  1
  O  O27  1  0.500000  0.832943  0.439877  1
  O  O28  1  0.220488  0.000000  0.000000  1
  O  O29  1  0.779512  0.000000  0.000000  1
  O  O30  1  0.780119  0.500000  0.500000  1
  O  O31  1  0.219881  0.500000  0.500000  1
