# generated using pymatgen
data_Nb12Al5Zn(CuN2)2
_symmetry_space_group_name_H-M   'P 1'
_cell_length_a   7.03324035
_cell_length_b   7.02995360
_cell_length_c   7.03388141
_cell_angle_alpha   90.08693574
_cell_angle_beta   90.00041633
_cell_angle_gamma   89.98572383
_symmetry_Int_Tables_number   1
_chemical_formula_structural   Nb12Al5Zn(CuN2)2
_chemical_formula_sum   'Nb12 Al5 Zn1 Cu2 N4'
_cell_volume   347.77827298
_cell_formula_units_Z   1
loop_
 _symmetry_equiv_pos_site_id
 _symmetry_equiv_pos_as_xyz
  1  'x, y, z'
loop_
 _atom_site_type_symbol
 _atom_site_label
 _atom_site_symmetry_multiplicity
 _atom_site_fract_x
 _atom_site_fract_y
 _atom_site_fract_z
 _atom_site_occupancy
  Nb  Nb0  1  0.792346  0.955839  0.377287  1
  Nb  Nb1  1  0.707264  0.042566  0.871551  1
  Nb  Nb2  1  0.206628  0.455025  0.127200  1
  Nb  Nb3  1  0.294433  0.543524  0.625667  1
  Nb  Nb4  1  0.955698  0.377139  0.792393  1
  Nb  Nb5  1  0.042417  0.872403  0.707831  1
  Nb  Nb6  1  0.455852  0.126604  0.206480  1
  Nb  Nb7  1  0.544052  0.626073  0.294092  1
  Nb  Nb8  1  0.377275  0.792192  0.955114  1
  Nb  Nb9  1  0.872185  0.707229  0.042366  1
  Nb  Nb10  1  0.126898  0.206437  0.455411  1
  Nb  Nb11  1  0.626365  0.294459  0.544150  1
  Al  Al12  1  0.677181  0.677031  0.678049  1
  Al  Al13  1  0.571526  0.417336  0.934119  1
  Al  Al14  1  0.421631  0.936947  0.576630  1
  Al  Al15  1  0.929265  0.565908  0.418540  1
  Al  Al16  1  0.072060  0.078597  0.069242  1
  Zn  Zn17  1  0.178680  0.821755  0.318587  1
  Cu  Cu18  1  0.318790  0.179369  0.822566  1
  Cu  Cu19  1  0.821086  0.318585  0.177717  1
  N  N20  1  0.879389  0.126395  0.624251  1
  N  N21  1  0.624782  0.879336  0.125270  1
  N  N22  1  0.126668  0.623188  0.878998  1
  N  N23  1  0.377528  0.376062  0.376487  1
