# generated using pymatgen
data_Ac4Ga13Pt9
_symmetry_space_group_name_H-M   'P 1'
_cell_length_a   11.62861316
_cell_length_b   11.62804306
_cell_length_c   4.38286500
_cell_angle_alpha   90.00000000
_cell_angle_beta   90.00000000
_cell_angle_gamma   119.99936910
_symmetry_Int_Tables_number   1
_chemical_formula_structural   Ac4Ga13Pt9
_chemical_formula_sum   'Ac4 Ga13 Pt9'
_cell_volume   513.24655271
_cell_formula_units_Z   1
loop_
 _symmetry_equiv_pos_site_id
 _symmetry_equiv_pos_as_xyz
  1  'x, y, z'
loop_
 _atom_site_type_symbol
 _atom_site_label
 _atom_site_symmetry_multiplicity
 _atom_site_fract_x
 _atom_site_fract_y
 _atom_site_fract_z
 _atom_site_occupancy
  Ac  Ac0  1  0.202592  0.797397  0.500000  1
  Ac  Ac1  1  0.594865  0.797425  0.500000  1
  Ac  Ac2  1  0.202605  0.405193  0.500000  1
  Ac  Ac3  1  0.666612  0.333302  0.000000  1
  Ga  Ga4  1  0.945717  0.286324  0.000000  1
  Ga  Ga5  1  0.713674  0.659418  0.000000  1
  Ga  Ga6  1  0.945715  0.659390  0.000000  1
  Ga  Ga7  1  0.340551  0.054223  0.000000  1
  Ga  Ga8  1  0.159246  0.079633  0.500000  1
  Ga  Ga9  1  0.920425  0.840800  0.500000  1
  Ga  Ga10  1  0.713668  0.054241  0.000000  1
  Ga  Ga11  1  0.531515  0.063039  0.500000  1
  Ga  Ga12  1  0.920426  0.079654  0.500000  1
  Ga  Ga13  1  0.340567  0.286313  0.000000  1
  Ga  Ga14  1  0.531517  0.468475  0.500000  1
  Ga  Ga15  1  0.936937  0.468471  0.500000  1
  Ga  Ga16  1  0.333365  0.666684  0.000000  1
  Pt  Pt17  1  0.460015  0.539985  0.000000  1
  Pt  Pt18  1  0.837273  0.918639  0.000000  1
  Pt  Pt19  1  0.460015  0.920026  0.000000  1
  Pt  Pt20  1  0.081362  0.162740  0.000000  1
  Pt  Pt21  1  0.081354  0.918623  0.000000  1
  Pt  Pt22  1  0.794331  0.588681  0.500000  1
  Pt  Pt23  1  0.080004  0.540003  0.000000  1
  Pt  Pt24  1  0.794324  0.205659  0.500000  1
  Pt  Pt25  1  0.411326  0.205657  0.500000  1
