# generated using pymatgen
data_Hf6Al16Pd2PtRh3Au
_symmetry_space_group_name_H-M   'P 1'
_cell_length_a   8.73987342
_cell_length_b   8.74032112
_cell_length_c   8.75198300
_cell_angle_alpha   59.95267630
_cell_angle_beta   59.96695749
_cell_angle_gamma   60.09012383
_symmetry_Int_Tables_number   1
_chemical_formula_structural   Hf6Al16Pd2PtRh3Au
_chemical_formula_sum   'Hf6 Al16 Pd2 Pt1 Rh3 Au1'
_cell_volume   472.77500892
_cell_formula_units_Z   1
loop_
 _symmetry_equiv_pos_site_id
 _symmetry_equiv_pos_as_xyz
  1  'x, y, z'
loop_
 _atom_site_type_symbol
 _atom_site_label
 _atom_site_symmetry_multiplicity
 _atom_site_fract_x
 _atom_site_fract_y
 _atom_site_fract_z
 _atom_site_occupancy
  Hf  Hf0  1  0.684954  0.314188  0.315026  1
  Hf  Hf1  1  0.315188  0.685795  0.684791  1
  Hf  Hf2  1  0.320775  0.679233  0.320750  1
  Hf  Hf3  1  0.317790  0.316720  0.682183  1
  Hf  Hf4  1  0.679140  0.320869  0.679108  1
  Hf  Hf5  1  0.682219  0.683295  0.317757  1
  Al  Al6  1  0.333439  0.337097  0.336626  1
  Al  Al7  1  0.341035  0.330956  0.993928  1
  Al  Al8  1  0.994046  0.334148  0.341068  1
  Al  Al9  1  0.336619  0.992822  0.333496  1
  Al  Al10  1  0.666420  0.663003  0.663382  1
  Al  Al11  1  0.658915  0.669263  0.005959  1
  Al  Al12  1  0.663363  0.007196  0.666477  1
  Al  Al13  1  0.006076  0.665936  0.658944  1
  Al  Al14  1  0.127277  0.108937  0.119318  1
  Al  Al15  1  0.118774  0.122994  0.642713  1
  Al  Al16  1  0.642741  0.115519  0.118682  1
  Al  Al17  1  0.119425  0.644368  0.127272  1
  Al  Al18  1  0.872772  0.891072  0.880657  1
  Al  Al19  1  0.881304  0.876903  0.357392  1
  Al  Al20  1  0.880770  0.355402  0.872755  1
  Al  Al21  1  0.357411  0.884403  0.881221  1
  Pd  Pd22  1  0.999986  0.000017  0.500022  1
  Pd  Pd23  1  0.500043  0.499965  0.999973  1
  Pt  Pt24  1  0.500012  0.000033  0.499935  1
  Rh  Rh25  1  0.000175  0.999689  0.000358  1
  Rh  Rh26  1  0.499446  0.000186  0.999941  1
  Rh  Rh27  1  0.999891  0.499947  0.500269  1
  Au  Au28  1  0.999991  0.500039  0.999993  1
