# generated using pymatgen
data_Ac9Nd(Sn3O)2
_symmetry_space_group_name_H-M   'P 1'
_cell_length_a   9.91712805
_cell_length_b   9.91708685
_cell_length_c   9.91711700
_cell_angle_alpha   125.90034528
_cell_angle_beta   125.90068650
_cell_angle_gamma   80.05159574
_symmetry_Int_Tables_number   1
_chemical_formula_structural   Ac9Nd(Sn3O)2
_chemical_formula_sum   'Ac9 Nd1 Sn6 O2'
_cell_volume   617.84164477
_cell_formula_units_Z   1
loop_
 _symmetry_equiv_pos_site_id
 _symmetry_equiv_pos_as_xyz
  1  'x, y, z'
loop_
 _atom_site_type_symbol
 _atom_site_label
 _atom_site_symmetry_multiplicity
 _atom_site_fract_x
 _atom_site_fract_y
 _atom_site_fract_z
 _atom_site_occupancy
  Ac  Ac0  1  0.495409  0.303643  0.495974  1
  Ac  Ac1  1  0.807676  0.999433  0.504029  1
  Ac  Ac2  1  0.999427  0.495404  0.191754  1
  Ac  Ac3  1  0.303646  0.807665  0.808240  1
  Ac  Ac4  1  0.506951  0.698640  0.503997  1
  Ac  Ac5  1  0.194655  0.002959  0.496012  1
  Ac  Ac6  1  0.002953  0.506959  0.808311  1
  Ac  Ac7  1  0.698649  0.194645  0.191688  1
  Ac  Ac8  1  0.502032  0.502039  0.000002  1
  Nd  Nd9  1  0.002070  0.002059  0.999998  1
  Sn  Sn10  1  0.139665  0.355985  0.493345  1
  Sn  Sn11  1  0.862635  0.646325  0.506665  1
  Sn  Sn12  1  0.646320  0.139665  0.783683  1
  Sn  Sn13  1  0.355971  0.862633  0.216312  1
  Sn  Sn14  1  0.752827  0.752827  0.000009  1
  Sn  Sn15  1  0.249700  0.249703  0.999990  1
  O  O16  1  0.751132  0.251131  0.499998  1
  O  O17  1  0.251125  0.751129  0.499997  1
