# generated using pymatgen
data_Be8Fe4Mo9W3C2
_symmetry_space_group_name_H-M   'P 1'
_cell_length_a   7.54835582
_cell_length_b   7.55508611
_cell_length_c   7.55272238
_cell_angle_alpha   59.99841319
_cell_angle_beta   60.00889919
_cell_angle_gamma   60.03287557
_symmetry_Int_Tables_number   1
_chemical_formula_structural   Be8Fe4Mo9W3C2
_chemical_formula_sum   'Be8 Fe4 Mo9 W3 C2'
_cell_volume   304.65765581
_cell_formula_units_Z   1
loop_
 _symmetry_equiv_pos_site_id
 _symmetry_equiv_pos_as_xyz
  1  'x, y, z'
loop_
 _atom_site_type_symbol
 _atom_site_label
 _atom_site_symmetry_multiplicity
 _atom_site_fract_x
 _atom_site_fract_y
 _atom_site_fract_z
 _atom_site_occupancy
  Be  Be0  1  0.920694  0.236717  0.921188  1
  Be  Be1  1  0.328975  0.013187  0.328564  1
  Be  Be2  1  0.329052  0.328947  0.328835  1
  Be  Be3  1  0.013515  0.328551  0.328689  1
  Be  Be4  1  0.920953  0.921443  0.236334  1
  Be  Be5  1  0.236228  0.921126  0.921347  1
  Be  Be6  1  0.328767  0.328300  0.014121  1
  Be  Be7  1  0.920481  0.921329  0.921063  1
  Fe  Fe8  1  0.125076  0.125044  0.624859  1
  Fe  Fe9  1  0.124800  0.625117  0.125052  1
  Fe  Fe10  1  0.124989  0.124797  0.124581  1
  Fe  Fe11  1  0.624973  0.125086  0.125060  1
  Mo  Mo12  1  0.298249  0.701586  0.701733  1
  Mo  Mo13  1  0.298710  0.298593  0.701455  1
  Mo  Mo14  1  0.548457  0.951369  0.548427  1
  Mo  Mo15  1  0.950976  0.548662  0.548523  1
  Mo  Mo16  1  0.548502  0.951467  0.951452  1
  Mo  Mo17  1  0.701733  0.298143  0.298701  1
  Mo  Mo18  1  0.951457  0.548332  0.951917  1
  Mo  Mo19  1  0.298614  0.701226  0.299053  1
  Mo  Mo20  1  0.548717  0.548848  0.951034  1
  W  W21  1  0.701783  0.298155  0.701764  1
  W  W22  1  0.702039  0.701859  0.298215  1
  W  W23  1  0.951644  0.951945  0.548084  1
  C  C24  1  0.750229  0.750256  0.749758  1
  C  C25  1  0.500387  0.499916  0.500191  1
