# generated using pymatgen
data_TaNb(GaCl8)2
_symmetry_space_group_name_H-M   'P 1'
_cell_length_a   9.98640410
_cell_length_b   9.98640505
_cell_length_c   8.81663100
_cell_angle_alpha   90.00000000
_cell_angle_beta   90.00000000
_cell_angle_gamma   128.56458294
_symmetry_Int_Tables_number   1
_chemical_formula_structural   TaNb(GaCl8)2
_chemical_formula_sum   'Ta1 Nb1 Ga2 Cl16'
_cell_volume   687.50443984
_cell_formula_units_Z   1
loop_
 _symmetry_equiv_pos_site_id
 _symmetry_equiv_pos_as_xyz
  1  'x, y, z'
loop_
 _atom_site_type_symbol
 _atom_site_label
 _atom_site_symmetry_multiplicity
 _atom_site_fract_x
 _atom_site_fract_y
 _atom_site_fract_z
 _atom_site_occupancy
  Ta  Ta0  1  0.114933  0.885067  0.750000  1
  Nb  Nb1  1  0.885623  0.114377  0.250000  1
  Ga  Ga2  1  0.315894  0.684106  0.750000  1
  Ga  Ga3  1  0.684295  0.315705  0.250000  1
  Cl  Cl4  1  0.377339  0.622661  0.541935  1
  Cl  Cl5  1  0.622633  0.377367  0.458079  1
  Cl  Cl6  1  0.421013  0.965031  0.750000  1
  Cl  Cl7  1  0.965101  0.422075  0.250000  1
  Cl  Cl8  1  0.577925  0.034899  0.250000  1
  Cl  Cl9  1  0.034969  0.578987  0.750000  1
  Cl  Cl10  1  0.237907  0.166896  0.750000  1
  Cl  Cl11  1  0.168394  0.238757  0.250000  1
  Cl  Cl12  1  0.761243  0.831606  0.250000  1
  Cl  Cl13  1  0.833104  0.762093  0.750000  1
  Cl  Cl14  1  0.133227  0.866773  0.489710  1
  Cl  Cl15  1  0.866600  0.133400  0.511208  1
  Cl  Cl16  1  0.866600  0.133400  0.988792  1
  Cl  Cl17  1  0.133227  0.866773  0.010290  1
  Cl  Cl18  1  0.377339  0.622661  0.958065  1
  Cl  Cl19  1  0.622633  0.377367  0.041921  1
