# generated using pymatgen
data_AlGaNiO4
_symmetry_space_group_name_H-M   'P 1'
_cell_length_a   5.76250600
_cell_length_b   5.85538200
_cell_length_c   8.23917500
_cell_angle_alpha   90.00000000
_cell_angle_beta   90.00000000
_cell_angle_gamma   90.00000000
_symmetry_Int_Tables_number   1
_chemical_formula_structural   AlGaNiO4
_chemical_formula_sum   'Al4 Ga4 Ni4 O16'
_cell_volume   278.00355612
_cell_formula_units_Z   4
loop_
 _symmetry_equiv_pos_site_id
 _symmetry_equiv_pos_as_xyz
  1  'x, y, z'
loop_
 _atom_site_type_symbol
 _atom_site_label
 _atom_site_symmetry_multiplicity
 _atom_site_fract_x
 _atom_site_fract_y
 _atom_site_fract_z
 _atom_site_occupancy
  Al  Al0  1  0.000000  0.500000  0.500000  1
  Al  Al1  1  0.500000  0.000000  0.000000  1
  Al  Al2  1  0.000000  0.000000  0.500000  1
  Al  Al3  1  0.500000  0.500000  0.000000  1
  Ga  Ga4  1  0.000000  0.250000  0.133499  1
  Ga  Ga5  1  0.500000  0.750000  0.633499  1
  Ga  Ga6  1  0.000000  0.750000  0.866501  1
  Ga  Ga7  1  0.500000  0.250000  0.366501  1
  Ni  Ni8  1  0.250000  0.250000  0.750000  1
  Ni  Ni9  1  0.750000  0.250000  0.750000  1
  Ni  Ni10  1  0.750000  0.750000  0.250000  1
  Ni  Ni11  1  0.250000  0.750000  0.250000  1
  O  O12  1  0.000000  0.505261  0.269715  1
  O  O13  1  0.500000  0.005261  0.769715  1
  O  O14  1  0.000000  0.994739  0.269715  1
  O  O15  1  0.500000  0.494739  0.769715  1
  O  O16  1  0.000000  0.005261  0.730285  1
  O  O17  1  0.500000  0.505261  0.230285  1
  O  O18  1  0.000000  0.494739  0.730285  1
  O  O19  1  0.500000  0.994739  0.230285  1
  O  O20  1  0.227446  0.750000  0.500796  1
  O  O21  1  0.727446  0.250000  0.000796  1
  O  O22  1  0.772554  0.750000  0.500796  1
  O  O23  1  0.272554  0.250000  0.000796  1
  O  O24  1  0.227446  0.250000  0.499204  1
  O  O25  1  0.727446  0.750000  0.999204  1
  O  O26  1  0.772554  0.250000  0.499204  1
  O  O27  1  0.272554  0.750000  0.999204  1
