# generated using pymatgen
data_Y2(ErPb)3
_symmetry_space_group_name_H-M   'P 1'
_cell_length_a   9.04114531
_cell_length_b   9.04114574
_cell_length_c   6.59170000
_cell_angle_alpha   90.00000000
_cell_angle_beta   90.00000000
_cell_angle_gamma   120.03007799
_symmetry_Int_Tables_number   1
_chemical_formula_structural   Y2(ErPb)3
_chemical_formula_sum   'Y4 Er6 Pb6'
_cell_volume   466.49100754
_cell_formula_units_Z   2
loop_
 _symmetry_equiv_pos_site_id
 _symmetry_equiv_pos_as_xyz
  1  'x, y, z'
loop_
 _atom_site_type_symbol
 _atom_site_label
 _atom_site_symmetry_multiplicity
 _atom_site_fract_x
 _atom_site_fract_y
 _atom_site_fract_z
 _atom_site_occupancy
  Y  Y0  1  0.762032  0.762032  0.750000  1
  Y  Y1  1  0.238784  0.999454  0.750000  1
  Y  Y2  1  0.999454  0.238784  0.750000  1
  Y  Y3  1  0.237904  0.237904  0.250000  1
  Er  Er4  1  0.666592  0.333323  0.000164  1
  Er  Er5  1  0.333323  0.666592  0.000164  1
  Er  Er6  1  0.333323  0.666592  0.499836  1
  Er  Er7  1  0.666592  0.333323  0.499836  1
  Er  Er8  1  0.761706  0.999892  0.250000  1
  Er  Er9  1  0.999892  0.761706  0.250000  1
  Pb  Pb10  1  0.394673  0.394673  0.750000  1
  Pb  Pb11  1  0.604780  0.999804  0.750000  1
  Pb  Pb12  1  0.999804  0.604780  0.750000  1
  Pb  Pb13  1  0.606838  0.606838  0.250000  1
  Pb  Pb14  1  0.394850  0.999454  0.250000  1
  Pb  Pb15  1  0.999454  0.394850  0.250000  1
