# generated using pymatgen
data_DyY9Sn5Bi
_symmetry_space_group_name_H-M   'P 1'
_cell_length_a   9.01623906
_cell_length_b   9.00847969
_cell_length_c   6.55477705
_cell_angle_alpha   89.99031875
_cell_angle_beta   90.01331805
_cell_angle_gamma   120.02694691
_symmetry_Int_Tables_number   1
_chemical_formula_structural   DyY9Sn5Bi
_chemical_formula_sum   'Dy1 Y9 Sn5 Bi1'
_cell_volume   460.94326686
_cell_formula_units_Z   1
loop_
 _symmetry_equiv_pos_site_id
 _symmetry_equiv_pos_as_xyz
  1  'x, y, z'
loop_
 _atom_site_type_symbol
 _atom_site_label
 _atom_site_symmetry_multiplicity
 _atom_site_fract_x
 _atom_site_fract_y
 _atom_site_fract_z
 _atom_site_occupancy
  Dy  Dy0  1  0.332551  0.662237  0.002023  1
  Y  Y1  1  0.994264  0.756011  0.750074  1
  Y  Y2  1  0.000362  0.240418  0.249911  1
  Y  Y3  1  0.759947  0.759595  0.249934  1
  Y  Y4  1  0.763705  0.999984  0.750086  1
  Y  Y5  1  0.238276  0.244016  0.750105  1
  Y  Y6  1  0.239105  0.999995  0.249921  1
  Y  Y7  1  0.332565  0.662405  0.498023  1
  Y  Y8  1  0.670182  0.337617  0.001932  1
  Y  Y9  1  0.670207  0.337674  0.498048  1
  Sn  Sn10  1  0.394987  0.393269  0.249728  1
  Sn  Sn11  1  0.002038  0.606912  0.249735  1
  Sn  Sn12  1  0.999404  0.395814  0.750256  1
  Sn  Sn13  1  0.603452  0.604334  0.750244  1
  Sn  Sn14  1  0.605871  0.999835  0.249739  1
  Bi  Bi15  1  0.393086  0.999884  0.750240  1
