# generated using pymatgen
data_Tb3YEr2Ta2O14
_symmetry_space_group_name_H-M   'P 1'
_cell_length_a   6.48743987
_cell_length_b   6.49296495
_cell_length_c   7.48513608
_cell_angle_alpha   89.94792436
_cell_angle_beta   89.95412311
_cell_angle_gamma   108.71815583
_symmetry_Int_Tables_number   1
_chemical_formula_structural   Tb3YEr2Ta2O14
_chemical_formula_sum   'Tb3 Y1 Er2 Ta2 O14'
_cell_volume   298.61762201
_cell_formula_units_Z   1
loop_
 _symmetry_equiv_pos_site_id
 _symmetry_equiv_pos_as_xyz
  1  'x, y, z'
loop_
 _atom_site_type_symbol
 _atom_site_label
 _atom_site_symmetry_multiplicity
 _atom_site_fract_x
 _atom_site_fract_y
 _atom_site_fract_z
 _atom_site_occupancy
  Tb  Tb0  1  0.534820  0.000055  0.757491  1
  Tb  Tb1  1  0.535354  0.533890  0.498666  1
  Tb  Tb2  1  0.465909  0.464580  0.001326  1
  Y  Y3  1  0.999740  0.466257  0.742657  1
  Er  Er4  1  0.464992  0.999360  0.257857  1
  Er  Er5  1  0.000681  0.534972  0.242137  1
  Ta  Ta6  1  0.002705  0.003139  0.498357  1
  Ta  Ta7  1  0.996847  0.997072  0.001652  1
  O  O8  1  0.069858  0.930170  0.250018  1
  O  O9  1  0.049323  0.308756  0.454394  1
  O  O10  1  0.080253  0.327231  0.027665  1
  O  O11  1  0.358135  0.641945  0.249975  1
  O  O12  1  0.369457  0.628528  0.749865  1
  O  O13  1  0.327961  0.081931  0.977127  1
  O  O14  1  0.310822  0.054306  0.539675  1
  O  O15  1  0.691249  0.950598  0.045875  1
  O  O16  1  0.672821  0.919606  0.472047  1
  O  O17  1  0.631298  0.368661  0.250015  1
  O  O18  1  0.639363  0.361531  0.749985  1
  O  O19  1  0.918332  0.672162  0.523066  1
  O  O20  1  0.945873  0.689406  0.960128  1
  O  O21  1  0.934209  0.065845  0.750023  1
