# generated using pymatgen
data_NaNi4P3Ru
_symmetry_space_group_name_H-M   'P 1'
_cell_length_a   3.62807200
_cell_length_b   10.49764900
_cell_length_c   11.91395200
_cell_angle_alpha   90.00000000
_cell_angle_beta   90.00000000
_cell_angle_gamma   90.00000000
_symmetry_Int_Tables_number   1
_chemical_formula_structural   NaNi4P3Ru
_chemical_formula_sum   'Na4 Ni16 P12 Ru4'
_cell_volume   453.75747322
_cell_formula_units_Z   4
loop_
 _symmetry_equiv_pos_site_id
 _symmetry_equiv_pos_as_xyz
  1  'x, y, z'
loop_
 _atom_site_type_symbol
 _atom_site_label
 _atom_site_symmetry_multiplicity
 _atom_site_fract_x
 _atom_site_fract_y
 _atom_site_fract_z
 _atom_site_occupancy
  Na  Na0  1  0.250000  0.585315  0.705382  1
  Na  Na1  1  0.250000  0.914685  0.205382  1
  Na  Na2  1  0.750000  0.414685  0.294618  1
  Na  Na3  1  0.750000  0.085315  0.794618  1
  Ni  Ni4  1  0.250000  0.411240  0.486845  1
  Ni  Ni5  1  0.250000  0.088760  0.986845  1
  Ni  Ni6  1  0.750000  0.588760  0.513155  1
  Ni  Ni7  1  0.750000  0.911240  0.013155  1
  Ni  Ni8  1  0.250000  0.218324  0.178750  1
  Ni  Ni9  1  0.250000  0.281676  0.678750  1
  Ni  Ni10  1  0.750000  0.781676  0.821250  1
  Ni  Ni11  1  0.750000  0.718324  0.321250  1
  Ni  Ni12  1  0.250000  0.886567  0.702792  1
  Ni  Ni13  1  0.250000  0.613433  0.202792  1
  Ni  Ni14  1  0.750000  0.113433  0.297208  1
  Ni  Ni15  1  0.750000  0.386567  0.797208  1
  Ni  Ni16  1  0.250000  0.466507  0.929533  1
  Ni  Ni17  1  0.250000  0.033493  0.429533  1
  Ni  Ni18  1  0.750000  0.533493  0.070467  1
  Ni  Ni19  1  0.750000  0.966507  0.570467  1
  P  P20  1  0.250000  0.414637  0.112501  1
  P  P21  1  0.250000  0.085363  0.612501  1
  P  P22  1  0.750000  0.585363  0.887499  1
  P  P23  1  0.750000  0.914637  0.387499  1
  P  P24  1  0.250000  0.267686  0.869944  1
  P  P25  1  0.250000  0.232314  0.369944  1
  P  P26  1  0.750000  0.732314  0.130056  1
  P  P27  1  0.750000  0.767686  0.630056  1
  P  P28  1  0.250000  0.596962  0.389688  1
  P  P29  1  0.250000  0.903038  0.889688  1
  P  P30  1  0.750000  0.403038  0.610312  1
  P  P31  1  0.750000  0.096962  0.110312  1
  Ru  Ru32  1  0.250000  0.714403  0.990638  1
  Ru  Ru33  1  0.250000  0.785597  0.490638  1
  Ru  Ru34  1  0.750000  0.285597  0.009362  1
  Ru  Ru35  1  0.750000  0.214403  0.509362  1
