# generated using pymatgen
data_Lu2Si2RuRh
_symmetry_space_group_name_H-M   'P 1'
_cell_length_a   4.22614800
_cell_length_b   6.80939943
_cell_length_c   7.23898731
_cell_angle_alpha   90.23958721
_cell_angle_beta   90.00000000
_cell_angle_gamma   90.00000000
_symmetry_Int_Tables_number   1
_chemical_formula_structural   Lu2Si2RuRh
_chemical_formula_sum   'Lu4 Si4 Ru2 Rh2'
_cell_volume   208.31835165
_cell_formula_units_Z   2
loop_
 _symmetry_equiv_pos_site_id
 _symmetry_equiv_pos_as_xyz
  1  'x, y, z'
loop_
 _atom_site_type_symbol
 _atom_site_label
 _atom_site_symmetry_multiplicity
 _atom_site_fract_x
 _atom_site_fract_y
 _atom_site_fract_z
 _atom_site_occupancy
  Lu  Lu0  1  0.250000  0.000165  0.810964  1
  Lu  Lu1  1  0.750000  0.999835  0.189036  1
  Lu  Lu2  1  0.250000  0.492973  0.688959  1
  Lu  Lu3  1  0.750000  0.507027  0.311041  1
  Si  Si4  1  0.250000  0.295788  0.116016  1
  Si  Si5  1  0.750000  0.704212  0.883984  1
  Si  Si6  1  0.250000  0.797471  0.397802  1
  Si  Si7  1  0.750000  0.202529  0.602198  1
  Ru  Ru8  1  0.750000  0.843074  0.564950  1
  Ru  Ru9  1  0.250000  0.156926  0.435050  1
  Rh  Rh10  1  0.750000  0.343487  0.936465  1
  Rh  Rh11  1  0.250000  0.656513  0.063535  1
