# generated using pymatgen
data_Zn3FeSb(PN2)6
_symmetry_space_group_name_H-M   'P 1'
_cell_length_a   7.26394687
_cell_length_b   7.24892172
_cell_length_c   7.26394694
_cell_angle_alpha   109.42931305
_cell_angle_beta   109.51307855
_cell_angle_gamma   109.42933560
_symmetry_Int_Tables_number   1
_chemical_formula_structural   Zn3FeSb(PN2)6
_chemical_formula_sum   'Zn3 Fe1 Sb1 P6 N12'
_cell_volume   294.59214761
_cell_formula_units_Z   1
loop_
 _symmetry_equiv_pos_site_id
 _symmetry_equiv_pos_as_xyz
  1  'x, y, z'
loop_
 _atom_site_type_symbol
 _atom_site_label
 _atom_site_symmetry_multiplicity
 _atom_site_fract_x
 _atom_site_fract_y
 _atom_site_fract_z
 _atom_site_occupancy
  Zn  Zn0  1  0.649925  0.649594  0.649925  1
  Zn  Zn1  1  0.350075  0.999670  0.000000  1
  Zn  Zn2  1  0.000000  0.999670  0.350075  1
  Fe  Fe3  1  0.000000  0.370794  0.000000  1
  Sb  Sb4  1  0.000000  0.012258  0.000000  1
  P  P5  1  0.750022  0.248205  0.498433  1
  P  P6  1  0.251589  0.749772  0.501567  1
  P  P7  1  0.501567  0.749772  0.251589  1
  P  P8  1  0.498433  0.248205  0.750022  1
  P  P9  1  0.748411  0.498183  0.249978  1
  P  P10  1  0.249978  0.498183  0.748411  1
  N  N11  1  0.565863  0.273203  0.000000  1
  N  N12  1  0.439201  0.437814  0.715762  1
  N  N13  1  0.000000  0.273203  0.565863  1
  N  N14  1  0.276561  0.998612  0.560799  1
  N  N15  1  0.715762  0.437814  0.439201  1
  N  N16  1  0.000000  0.560313  0.275947  1
  N  N17  1  0.560799  0.998612  0.276561  1
  N  N18  1  0.434137  0.707341  0.434137  1
  N  N19  1  0.275947  0.560313  0.000000  1
  N  N20  1  0.724053  0.284366  0.724053  1
  N  N21  1  0.723439  0.722051  0.284238  1
  N  N22  1  0.284238  0.722051  0.723439  1
