# generated using pymatgen
data_Li2Tm3MgTl3
_symmetry_space_group_name_H-M   'P 1'
_cell_length_a   7.08564800
_cell_length_b   7.49272578
_cell_length_c   4.75410100
_cell_angle_alpha   90.00000000
_cell_angle_beta   90.00000000
_cell_angle_gamma   121.91937170
_symmetry_Int_Tables_number   1
_chemical_formula_structural   Li2Tm3MgTl3
_chemical_formula_sum   'Li2 Tm3 Mg1 Tl3'
_cell_volume   214.23458981
_cell_formula_units_Z   1
loop_
 _symmetry_equiv_pos_site_id
 _symmetry_equiv_pos_as_xyz
  1  'x, y, z'
loop_
 _atom_site_type_symbol
 _atom_site_label
 _atom_site_symmetry_multiplicity
 _atom_site_fract_x
 _atom_site_fract_y
 _atom_site_fract_z
 _atom_site_occupancy
  Li  Li0  1  0.772224  0.762813  0.500000  1
  Li  Li1  1  0.227776  0.990588  0.500000  1
  Tm  Tm2  1  0.000000  0.562753  0.000000  1
  Tm  Tm3  1  0.435991  0.446218  0.000000  1
  Tm  Tm4  1  0.564009  0.010226  0.000000  1
  Mg  Mg5  1  0.000000  0.223454  0.500000  1
  Tl  Tl6  1  0.664121  0.343881  0.500000  1
  Tl  Tl7  1  0.000000  0.980305  0.000000  1
  Tl  Tl8  1  0.335879  0.679762  0.500000  1
