# generated using pymatgen
data_Tm10Co3Rh
_symmetry_space_group_name_H-M   'P 1'
_cell_length_a   6.25561772
_cell_length_b   6.93098777
_cell_length_c   8.40124039
_cell_angle_alpha   96.35481560
_cell_angle_beta   111.69346501
_cell_angle_gamma   90.16352742
_symmetry_Int_Tables_number   1
_chemical_formula_structural   Tm10Co3Rh
_chemical_formula_sum   'Tm10 Co3 Rh1'
_cell_volume   336.00138196
_cell_formula_units_Z   1
loop_
 _symmetry_equiv_pos_site_id
 _symmetry_equiv_pos_as_xyz
  1  'x, y, z'
loop_
 _atom_site_type_symbol
 _atom_site_label
 _atom_site_symmetry_multiplicity
 _atom_site_fract_x
 _atom_site_fract_y
 _atom_site_fract_z
 _atom_site_occupancy
  Tm  Tm0  1  0.784493  0.089370  0.812101  1
  Tm  Tm1  1  0.984341  0.412239  0.188030  1
  Tm  Tm2  1  0.203024  0.911451  0.187271  1
  Tm  Tm3  1  0.013892  0.579034  0.813005  1
  Tm  Tm4  1  0.214493  0.188890  0.561314  1
  Tm  Tm5  1  0.649307  0.316503  0.433038  1
  Tm  Tm6  1  0.783653  0.816245  0.432867  1
  Tm  Tm7  1  0.354559  0.679840  0.563747  1
  Tm  Tm8  1  0.431470  0.256980  0.004079  1
  Tm  Tm9  1  0.577101  0.746003  0.002531  1
  Co  Co10  1  0.601679  0.426872  0.778446  1
  Co  Co11  1  0.825519  0.072427  0.220313  1
  Co  Co12  1  0.397113  0.574042  0.221924  1
  Rh  Rh13  1  0.179357  0.930106  0.781335  1
