# generated using pymatgen
data_La4GaPd12
_symmetry_space_group_name_H-M   'P 1'
_cell_length_a   7.53207876
_cell_length_b   7.53207762
_cell_length_c   7.53207800
_cell_angle_alpha   109.57499225
_cell_angle_beta   109.41935017
_cell_angle_gamma   109.41937210
_symmetry_Int_Tables_number   1
_chemical_formula_structural   La4GaPd12
_chemical_formula_sum   'La4 Ga1 Pd12'
_cell_volume   328.94362500
_cell_formula_units_Z   1
loop_
 _symmetry_equiv_pos_site_id
 _symmetry_equiv_pos_as_xyz
  1  'x, y, z'
loop_
 _atom_site_type_symbol
 _atom_site_label
 _atom_site_symmetry_multiplicity
 _atom_site_fract_x
 _atom_site_fract_y
 _atom_site_fract_z
 _atom_site_occupancy
  La  La0  1  0.501642  0.972033  0.972033  1
  La  La1  1  0.000000  0.972033  0.470392  1
  La  La2  1  0.498358  0.470392  0.470392  1
  La  La3  1  0.000000  0.470392  0.972033  1
  Ga  Ga4  1  0.000000  0.467883  0.467883  1
  Pd  Pd5  1  0.250518  0.970074  0.220591  1
  Pd  Pd6  1  0.000000  0.757418  0.757418  1
  Pd  Pd7  1  0.288206  0.760035  0.471830  1
  Pd  Pd8  1  0.711794  0.471830  0.183624  1
  Pd  Pd9  1  0.500000  0.221526  0.721526  1
  Pd  Pd10  1  0.711794  0.183624  0.471830  1
  Pd  Pd11  1  0.749482  0.719557  0.970074  1
  Pd  Pd12  1  0.749482  0.970074  0.719557  1
  Pd  Pd13  1  0.288206  0.471830  0.760035  1
  Pd  Pd14  1  0.500000  0.721526  0.221526  1
  Pd  Pd15  1  0.250518  0.220591  0.970074  1
  Pd  Pd16  1  0.000000  0.179176  0.179176  1
