# generated using pymatgen
data_Er5TmCo14(P3Rh)4
_symmetry_space_group_name_H-M   'P 1'
_cell_length_a   3.69798900
_cell_length_b   10.65192625
_cell_length_c   12.32994129
_cell_angle_alpha   89.97519224
_cell_angle_beta   90.00000000
_cell_angle_gamma   90.00000000
_symmetry_Int_Tables_number   1
_chemical_formula_structural   Er5TmCo14(P3Rh)4
_chemical_formula_sum   'Er5 Tm1 Co14 P12 Rh4'
_cell_volume   485.68504802
_cell_formula_units_Z   1
loop_
 _symmetry_equiv_pos_site_id
 _symmetry_equiv_pos_as_xyz
  1  'x, y, z'
loop_
 _atom_site_type_symbol
 _atom_site_label
 _atom_site_symmetry_multiplicity
 _atom_site_fract_x
 _atom_site_fract_y
 _atom_site_fract_z
 _atom_site_occupancy
  Er  Er0  1  0.000000  0.499884  0.520845  1
  Er  Er1  1  0.500000  0.000118  0.479096  1
  Er  Er2  1  0.500000  0.814442  0.205748  1
  Er  Er3  1  0.500000  0.185628  0.205893  1
  Er  Er4  1  0.000000  0.685468  0.794240  1
  Tm  Tm5  1  0.000000  0.314414  0.794099  1
  Co  Co6  1  0.000000  0.499906  0.988425  1
  Co  Co7  1  0.500000  0.000066  0.011455  1
  Co  Co8  1  0.500000  0.331973  0.993612  1
  Co  Co9  1  0.500000  0.667949  0.993793  1
  Co  Co10  1  0.000000  0.168149  0.006057  1
  Co  Co11  1  0.000000  0.831971  0.006190  1
  Co  Co12  1  0.500000  0.299977  0.430357  1
  Co  Co13  1  0.500000  0.700027  0.430315  1
  Co  Co14  1  0.000000  0.200116  0.569827  1
  Co  Co15  1  0.000000  0.799944  0.569686  1
  Co  Co16  1  0.500000  0.879841  0.709184  1
  Co  Co17  1  0.500000  0.120494  0.709362  1
  Co  Co18  1  0.000000  0.620157  0.290827  1
  Co  Co19  1  0.000000  0.379801  0.290833  1
  P  P20  1  0.500000  0.499810  0.889555  1
  P  P21  1  0.000000  0.000008  0.110297  1
  P  P22  1  0.500000  0.499983  0.351359  1
  P  P23  1  0.000000  0.999945  0.648655  1
  P  P24  1  0.500000  0.303332  0.614124  1
  P  P25  1  0.500000  0.696667  0.613877  1
  P  P26  1  0.000000  0.196775  0.386170  1
  P  P27  1  0.000000  0.803256  0.386148  1
  P  P28  1  0.500000  0.844236  0.893773  1
  P  P29  1  0.500000  0.156107  0.893530  1
  P  P30  1  0.000000  0.655767  0.106221  1
  P  P31  1  0.000000  0.344224  0.106283  1
  Rh  Rh32  1  0.500000  0.499995  0.160539  1
  Rh  Rh33  1  0.000000  0.000001  0.839416  1
  Rh  Rh34  1  0.500000  0.499560  0.703387  1
  Rh  Rh35  1  0.000000  0.000012  0.296825  1
