# generated using pymatgen
data_MgPa2Zn11
_symmetry_space_group_name_H-M   'P 1'
_cell_length_a   4.41135333
_cell_length_b   7.99991330
_cell_length_c   7.99991388
_cell_angle_alpha   68.64004015
_cell_angle_beta   73.99550842
_cell_angle_gamma   73.99551502
_symmetry_Int_Tables_number   1
_chemical_formula_structural   MgPa2Zn11
_chemical_formula_sum   'Mg1 Pa2 Zn11'
_cell_volume   247.84453661
_cell_formula_units_Z   1
loop_
 _symmetry_equiv_pos_site_id
 _symmetry_equiv_pos_as_xyz
  1  'x, y, z'
loop_
 _atom_site_type_symbol
 _atom_site_label
 _atom_site_symmetry_multiplicity
 _atom_site_fract_x
 _atom_site_fract_y
 _atom_site_fract_z
 _atom_site_occupancy
  Mg  Mg0  1  0.000000  0.000000  0.000000  1
  Pa  Pa1  1  0.710412  0.289588  0.289588  1
  Pa  Pa2  1  0.289588  0.710412  0.710412  1
  Zn  Zn3  1  0.000000  0.500000  0.500000  1
  Zn  Zn4  1  0.500000  0.330551  0.669449  1
  Zn  Zn5  1  0.500000  0.669449  0.330551  1
  Zn  Zn6  1  0.652362  0.986673  0.708605  1
  Zn  Zn7  1  0.347638  0.013327  0.291395  1
  Zn  Zn8  1  0.652362  0.708605  0.986673  1
  Zn  Zn9  1  0.347638  0.291395  0.013327  1
  Zn  Zn10  1  0.863127  0.855880  0.417867  1
  Zn  Zn11  1  0.136873  0.144120  0.582133  1
  Zn  Zn12  1  0.863127  0.417867  0.855880  1
  Zn  Zn13  1  0.136873  0.582133  0.144120  1
