# generated using pymatgen
data_LiTbC2
_symmetry_space_group_name_H-M   'P 1'
_cell_length_a   3.60281400
_cell_length_b   3.60281400
_cell_length_c   7.92890500
_cell_angle_alpha   90.00000000
_cell_angle_beta   90.00000000
_cell_angle_gamma   90.00000000
_symmetry_Int_Tables_number   1
_chemical_formula_structural   LiTbC2
_chemical_formula_sum   'Li2 Tb2 C4'
_cell_volume   102.91931754
_cell_formula_units_Z   2
loop_
 _symmetry_equiv_pos_site_id
 _symmetry_equiv_pos_as_xyz
  1  'x, y, z'
loop_
 _atom_site_type_symbol
 _atom_site_label
 _atom_site_symmetry_multiplicity
 _atom_site_fract_x
 _atom_site_fract_y
 _atom_site_fract_z
 _atom_site_occupancy
  Li  Li0  1  0.000000  0.000000  0.000000  1
  Li  Li1  1  0.500000  0.500000  0.000000  1
  Tb  Tb2  1  0.000000  0.500000  0.652916  1
  Tb  Tb3  1  0.500000  0.000000  0.347084  1
  C  C4  1  0.000000  0.500000  0.183401  1
  C  C5  1  0.500000  0.000000  0.816599  1
  C  C6  1  0.000000  0.500000  0.353972  1
  C  C7  1  0.500000  0.000000  0.646028  1
