# generated using pymatgen
data_YbTm3Se4
_symmetry_space_group_name_H-M   'P 1'
_cell_length_a   13.37576508
_cell_length_b   13.37576498
_cell_length_c   13.37576530
_cell_angle_alpha   17.44344180
_cell_angle_beta   17.44344425
_cell_angle_gamma   17.44344103
_symmetry_Int_Tables_number   1
_chemical_formula_structural   YbTm3Se4
_chemical_formula_sum   'Yb1 Tm3 Se4'
_cell_volume   187.66667900
_cell_formula_units_Z   1
loop_
 _symmetry_equiv_pos_site_id
 _symmetry_equiv_pos_as_xyz
  1  'x, y, z'
loop_
 _atom_site_type_symbol
 _atom_site_label
 _atom_site_symmetry_multiplicity
 _atom_site_fract_x
 _atom_site_fract_y
 _atom_site_fract_z
 _atom_site_occupancy
  Yb  Yb0  1  0.000000  0.000000  0.000000  1
  Tm  Tm1  1  0.248734  0.248734  0.248734  1
  Tm  Tm2  1  0.500000  0.500000  0.500000  1
  Tm  Tm3  1  0.751266  0.751266  0.751266  1
  Se  Se4  1  0.376499  0.376499  0.376499  1
  Se  Se5  1  0.125512  0.125512  0.125512  1
  Se  Se6  1  0.623501  0.623501  0.623501  1
  Se  Se7  1  0.874488  0.874488  0.874488  1
