# generated using pymatgen
data_Nb3In(AsO4)6
_symmetry_space_group_name_H-M   'P 1'
_cell_length_a   9.48173045
_cell_length_b   9.48172964
_cell_length_c   9.48172903
_cell_angle_alpha   56.80302561
_cell_angle_beta   56.80302894
_cell_angle_gamma   56.80302760
_symmetry_Int_Tables_number   1
_chemical_formula_structural   Nb3In(AsO4)6
_chemical_formula_sum   'Nb3 In1 As6 O24'
_cell_volume   558.28891507
_cell_formula_units_Z   1
loop_
 _symmetry_equiv_pos_site_id
 _symmetry_equiv_pos_as_xyz
  1  'x, y, z'
loop_
 _atom_site_type_symbol
 _atom_site_label
 _atom_site_symmetry_multiplicity
 _atom_site_fract_x
 _atom_site_fract_y
 _atom_site_fract_z
 _atom_site_occupancy
  Nb  Nb0  1  0.856114  0.856114  0.856114  1
  Nb  Nb1  1  0.641811  0.641811  0.641811  1
  Nb  Nb2  1  0.359906  0.359906  0.359906  1
  In  In3  1  0.143947  0.143947  0.143947  1
  As  As4  1  0.255301  0.523264  0.967851  1
  As  As5  1  0.967851  0.255301  0.523264  1
  As  As6  1  0.523264  0.967851  0.255301  1
  As  As7  1  0.471269  0.030422  0.751469  1
  As  As8  1  0.030422  0.751469  0.471269  1
  As  As9  1  0.751469  0.471269  0.030422  1
  O  O10  1  0.681206  0.515270  0.873590  1
  O  O11  1  0.515270  0.873590  0.681206  1
  O  O12  1  0.047038  0.691304  0.964400  1
  O  O13  1  0.873590  0.681206  0.515270  1
  O  O14  1  0.406761  0.609937  0.767591  1
  O  O15  1  0.292142  0.325849  0.973492  1
  O  O16  1  0.964400  0.047038  0.691304  1
  O  O17  1  0.767591  0.406761  0.609937  1
  O  O18  1  0.609937  0.767591  0.406761  1
  O  O19  1  0.671246  0.010209  0.735511  1
  O  O20  1  0.313846  0.002074  0.958471  1
  O  O21  1  0.010209  0.735511  0.671246  1
  O  O22  1  0.973492  0.292142  0.325849  1
  O  O23  1  0.691304  0.964400  0.047038  1
  O  O24  1  0.325849  0.973492  0.292142  1
  O  O25  1  0.408248  0.232842  0.586459  1
  O  O26  1  0.232842  0.586459  0.408248  1
  O  O27  1  0.002074  0.958471  0.313846  1
  O  O28  1  0.735511  0.671246  0.010209  1
  O  O29  1  0.586459  0.408248  0.232842  1
  O  O30  1  0.141904  0.285884  0.503373  1
  O  O31  1  0.958471  0.313846  0.002074  1
  O  O32  1  0.503373  0.141904  0.285884  1
  O  O33  1  0.285884  0.503373  0.141904  1
