# generated using pymatgen
data_Ce2Ga9IrPtRh
_symmetry_space_group_name_H-M   'P 1'
_cell_length_a   7.71643278
_cell_length_b   7.71644161
_cell_length_c   9.54648772
_cell_angle_alpha   89.98160259
_cell_angle_beta   89.98142869
_cell_angle_gamma   119.87624186
_symmetry_Int_Tables_number   1
_chemical_formula_structural   Ce2Ga9IrPtRh
_chemical_formula_sum   'Ce4 Ga18 Ir2 Pt2 Rh2'
_cell_volume   492.88778649
_cell_formula_units_Z   2
loop_
 _symmetry_equiv_pos_site_id
 _symmetry_equiv_pos_as_xyz
  1  'x, y, z'
loop_
 _atom_site_type_symbol
 _atom_site_label
 _atom_site_symmetry_multiplicity
 _atom_site_fract_x
 _atom_site_fract_y
 _atom_site_fract_z
 _atom_site_occupancy
  Ce  Ce0  1  0.997805  0.670053  0.251012  1
  Ce  Ce1  1  0.002195  0.329947  0.748988  1
  Ce  Ce2  1  0.670052  0.997804  0.251012  1
  Ce  Ce3  1  0.329948  0.002196  0.748988  1
  Ga  Ga4  1  0.134590  0.134589  0.249808  1
  Ga  Ga5  1  0.865410  0.865411  0.750192  1
  Ga  Ga6  1  0.999934  0.338192  0.078693  1
  Ga  Ga7  1  0.000066  0.661808  0.921307  1
  Ga  Ga8  1  0.999614  0.662200  0.578997  1
  Ga  Ga9  1  0.337800  0.000386  0.421003  1
  Ga  Ga10  1  0.000386  0.337800  0.421003  1
  Ga  Ga11  1  0.662200  0.999614  0.578997  1
  Ga  Ga12  1  0.661808  0.000066  0.921307  1
  Ga  Ga13  1  0.338192  0.999934  0.078693  1
  Ga  Ga14  1  0.337348  0.337348  0.566229  1
  Ga  Ga15  1  0.662652  0.662652  0.433771  1
  Ga  Ga16  1  0.662571  0.662571  0.066493  1
  Ga  Ga17  1  0.337429  0.337429  0.933507  1
  Ga  Ga18  1  0.337247  0.545896  0.249144  1
  Ga  Ga19  1  0.662753  0.454104  0.750856  1
  Ga  Ga20  1  0.545895  0.337246  0.249144  1
  Ga  Ga21  1  0.454105  0.662754  0.750856  1
  Ir  Ir22  1  0.329669  0.670331  0.500000  1
  Ir  Ir23  1  0.670331  0.329669  0.500000  1
  Pt  Pt24  1  0.000000  0.000000  0.000000  1
  Pt  Pt25  1  0.000000  0.000000  0.500000  1
  Rh  Rh26  1  0.669695  0.330305  0.000000  1
  Rh  Rh27  1  0.330305  0.669695  0.000000  1
