# generated using pymatgen
data_NdEr(CuNi)5
_symmetry_space_group_name_H-M   'P 1'
_cell_length_a   3.99052700
_cell_length_b   4.98368327
_cell_length_c   8.63701296
_cell_angle_alpha   90.28499770
_cell_angle_beta   90.00000000
_cell_angle_gamma   90.00000000
_symmetry_Int_Tables_number   1
_chemical_formula_structural   NdEr(CuNi)5
_chemical_formula_sum   'Nd1 Er1 Cu5 Ni5'
_cell_volume   171.76666593
_cell_formula_units_Z   1
loop_
 _symmetry_equiv_pos_site_id
 _symmetry_equiv_pos_as_xyz
  1  'x, y, z'
loop_
 _atom_site_type_symbol
 _atom_site_label
 _atom_site_symmetry_multiplicity
 _atom_site_fract_x
 _atom_site_fract_y
 _atom_site_fract_z
 _atom_site_occupancy
  Nd  Nd0  1  0.000000  0.501237  0.000738  1
  Er  Er1  1  0.000000  0.999617  0.499149  1
  Cu  Cu2  1  0.000000  0.493494  0.337790  1
  Cu  Cu3  1  0.000000  0.000848  0.826088  1
  Cu  Cu4  1  0.000000  0.500307  0.663377  1
  Cu  Cu5  1  0.500000  0.002167  0.999879  1
  Cu  Cu6  1  0.500000  0.752760  0.255523  1
  Ni  Ni7  1  0.000000  0.010073  0.174702  1
  Ni  Ni8  1  0.500000  0.495160  0.501421  1
  Ni  Ni9  1  0.500000  0.246762  0.742736  1
  Ni  Ni10  1  0.500000  0.245211  0.255592  1
  Ni  Ni11  1  0.500000  0.752366  0.743006  1
