# generated using pymatgen
data_Lu20Ir4Ru5Rh3
_symmetry_space_group_name_H-M   'P 1'
_cell_length_a   10.59304354
_cell_length_b   10.59241201
_cell_length_c   6.24705000
_cell_angle_alpha   89.94520546
_cell_angle_beta   89.98177771
_cell_angle_gamma   89.98974849
_symmetry_Int_Tables_number   1
_chemical_formula_structural   Lu20Ir4Ru5Rh3
_chemical_formula_sum   'Lu20 Ir4 Ru5 Rh3'
_cell_volume   700.95538548
_cell_formula_units_Z   1
loop_
 _symmetry_equiv_pos_site_id
 _symmetry_equiv_pos_as_xyz
  1  'x, y, z'
loop_
 _atom_site_type_symbol
 _atom_site_label
 _atom_site_symmetry_multiplicity
 _atom_site_fract_x
 _atom_site_fract_y
 _atom_site_fract_z
 _atom_site_occupancy
  Lu  Lu0  1  0.293022  0.085586  0.372998  1
  Lu  Lu1  1  0.292020  0.915564  0.874516  1
  Lu  Lu2  1  0.707368  0.086927  0.873854  1
  Lu  Lu3  1  0.707310  0.915114  0.371913  1
  Lu  Lu4  1  0.585822  0.793617  0.874344  1
  Lu  Lu5  1  0.586086  0.206982  0.373120  1
  Lu  Lu6  1  0.414823  0.794034  0.372346  1
  Lu  Lu7  1  0.412735  0.206577  0.874756  1
  Lu  Lu8  1  0.206322  0.412730  0.625548  1
  Lu  Lu9  1  0.206520  0.584660  0.127347  1
  Lu  Lu10  1  0.793467  0.413433  0.127016  1
  Lu  Lu11  1  0.793429  0.585894  0.625382  1
  Lu  Lu12  1  0.914718  0.706363  0.127140  1
  Lu  Lu13  1  0.914792  0.291503  0.625907  1
  Lu  Lu14  1  0.086045  0.706902  0.625721  1
  Lu  Lu15  1  0.085081  0.291994  0.127510  1
  Lu  Lu16  1  0.999948  0.001096  0.498742  1
  Lu  Lu17  1  0.998700  0.000605  0.001427  1
  Lu  Lu18  1  0.500333  0.500214  0.000248  1
  Lu  Lu19  1  0.499866  0.500467  0.499854  1
  Ir  Ir20  1  0.153633  0.152665  0.750837  1
  Ir  Ir21  1  0.153192  0.845938  0.250392  1
  Ir  Ir22  1  0.652987  0.652594  0.250097  1
  Ir  Ir23  1  0.348288  0.348088  0.250246  1
  Ru  Ru24  1  0.846894  0.152222  0.249802  1
  Ru  Ru25  1  0.500505  0.000081  0.125906  1
  Ru  Ru26  1  0.500290  0.000000  0.626897  1
  Ru  Ru27  1  0.999731  0.500240  0.872818  1
  Ru  Ru28  1  0.999549  0.500193  0.373932  1
  Rh  Rh29  1  0.847284  0.847137  0.749742  1
  Rh  Rh30  1  0.651972  0.348169  0.750367  1
  Rh  Rh31  1  0.347267  0.652415  0.749271  1
