# generated using pymatgen
data_Ho20AgIr7Ru4
_symmetry_space_group_name_H-M   'P 1'
_cell_length_a   10.82532663
_cell_length_b   10.82532663
_cell_length_c   6.43588906
_cell_angle_alpha   90.07891066
_cell_angle_beta   90.07891066
_cell_angle_gamma   89.74366603
_symmetry_Int_Tables_number   1
_chemical_formula_structural   Ho20AgIr7Ru4
_chemical_formula_sum   'Ho20 Ag1 Ir7 Ru4'
_cell_volume   754.19804229
_cell_formula_units_Z   1
loop_
 _symmetry_equiv_pos_site_id
 _symmetry_equiv_pos_as_xyz
  1  'x, y, z'
loop_
 _atom_site_type_symbol
 _atom_site_label
 _atom_site_symmetry_multiplicity
 _atom_site_fract_x
 _atom_site_fract_y
 _atom_site_fract_z
 _atom_site_occupancy
  Ho  Ho0  1  0.291961  0.085484  0.377639  1
  Ho  Ho1  1  0.295167  0.913064  0.877447  1
  Ho  Ho2  1  0.700977  0.082695  0.861257  1
  Ho  Ho3  1  0.703144  0.904924  0.381953  1
  Ho  Ho4  1  0.586077  0.792682  0.879416  1
  Ho  Ho5  1  0.575804  0.207597  0.379286  1
  Ho  Ho6  1  0.411741  0.792831  0.378312  1
  Ho  Ho7  1  0.412259  0.206427  0.879518  1
  Ho  Ho8  1  0.207318  0.413923  0.620584  1
  Ho  Ho9  1  0.207169  0.588259  0.121688  1
  Ho  Ho10  1  0.792403  0.424196  0.120714  1
  Ho  Ho11  1  0.793573  0.587741  0.620482  1
  Ho  Ho12  1  0.914516  0.708039  0.122361  1
  Ho  Ho13  1  0.917305  0.299023  0.638743  1
  Ho  Ho14  1  0.086936  0.704833  0.622553  1
  Ho  Ho15  1  0.095076  0.296856  0.118047  1
  Ho  Ho16  1  0.004311  0.994860  0.503869  1
  Ho  Ho17  1  0.005140  0.995689  0.996131  1
  Ho  Ho18  1  0.499216  0.500161  0.999086  1
  Ho  Ho19  1  0.499839  0.500784  0.500914  1
  Ag  Ag20  1  0.843578  0.156422  0.250000  1
  Ir  Ir21  1  0.848617  0.849077  0.750256  1
  Ir  Ir22  1  0.150923  0.151383  0.749744  1
  Ir  Ir23  1  0.153415  0.846585  0.250000  1
  Ir  Ir24  1  0.653671  0.346329  0.750000  1
  Ir  Ir25  1  0.652182  0.651780  0.249676  1
  Ir  Ir26  1  0.348220  0.347818  0.250324  1
  Ir  Ir27  1  0.347454  0.652546  0.750000  1
  Ru  Ru28  1  0.501247  0.999896  0.124945  1
  Ru  Ru29  1  0.500138  0.999478  0.621991  1
  Ru  Ru30  1  0.000522  0.499862  0.878009  1
  Ru  Ru31  1  0.000104  0.498753  0.375055  1
