# generated using pymatgen
data_Sc2(PaMn)3
_symmetry_space_group_name_H-M   'P 1'
_cell_length_a   6.19790700
_cell_length_b   7.57257497
_cell_length_c   7.57257600
_cell_angle_alpha   120.00000449
_cell_angle_beta   90.00000000
_cell_angle_gamma   90.00000000
_symmetry_Int_Tables_number   1
_chemical_formula_structural   Sc2(PaMn)3
_chemical_formula_sum   'Sc4 Pa6 Mn6'
_cell_volume   307.79594199
_cell_formula_units_Z   2
loop_
 _symmetry_equiv_pos_site_id
 _symmetry_equiv_pos_as_xyz
  1  'x, y, z'
loop_
 _atom_site_type_symbol
 _atom_site_label
 _atom_site_symmetry_multiplicity
 _atom_site_fract_x
 _atom_site_fract_y
 _atom_site_fract_z
 _atom_site_occupancy
  Sc  Sc0  1  0.000000  0.666667  0.333333  1
  Sc  Sc1  1  0.000000  0.333333  0.666667  1
  Sc  Sc2  1  0.500000  0.333333  0.666667  1
  Sc  Sc3  1  0.500000  0.666667  0.333333  1
  Pa  Pa4  1  0.750000  0.755691  0.755691  1
  Pa  Pa5  1  0.250000  0.244309  0.244309  1
  Pa  Pa6  1  0.750000  0.000000  0.244309  1
  Pa  Pa7  1  0.250000  0.000000  0.755691  1
  Pa  Pa8  1  0.750000  0.244309  0.000000  1
  Pa  Pa9  1  0.250000  0.755691  0.000000  1
  Mn  Mn10  1  0.750000  0.361611  0.361611  1
  Mn  Mn11  1  0.250000  0.638389  0.638389  1
  Mn  Mn12  1  0.750000  0.000000  0.638389  1
  Mn  Mn13  1  0.250000  0.000000  0.361611  1
  Mn  Mn14  1  0.750000  0.638389  0.000000  1
  Mn  Mn15  1  0.250000  0.361611  0.000000  1
