# generated using pymatgen
data_Yb2Dy(Si3Os)4
_symmetry_space_group_name_H-M   'P 1'
_cell_length_a   10.15936270
_cell_length_b   10.15936379
_cell_length_c   8.15820788
_cell_angle_alpha   89.99784922
_cell_angle_beta   89.99784967
_cell_angle_gamma   132.65138680
_symmetry_Int_Tables_number   1
_chemical_formula_structural   Yb2Dy(Si3Os)4
_chemical_formula_sum   'Yb4 Dy2 Si24 Os8'
_cell_volume   619.30466405
_cell_formula_units_Z   2
loop_
 _symmetry_equiv_pos_site_id
 _symmetry_equiv_pos_as_xyz
  1  'x, y, z'
loop_
 _atom_site_type_symbol
 _atom_site_label
 _atom_site_symmetry_multiplicity
 _atom_site_fract_x
 _atom_site_fract_y
 _atom_site_fract_z
 _atom_site_occupancy
  Yb  Yb0  1  0.500013  0.499987  0.500000  1
  Yb  Yb1  1  0.999933  0.000067  0.000000  1
  Yb  Yb2  1  0.499664  0.999676  0.749985  1
  Yb  Yb3  1  0.000324  0.500336  0.250015  1
  Dy  Dy4  1  0.500924  0.000964  0.249943  1
  Dy  Dy5  1  0.999036  0.499076  0.750057  1
  Si  Si6  1  0.796299  0.203701  0.500000  1
  Si  Si7  1  0.295489  0.704511  0.000000  1
  Si  Si8  1  0.204451  0.795549  0.500000  1
  Si  Si9  1  0.703767  0.296233  0.000000  1
  Si  Si10  1  0.330720  0.336628  0.831772  1
  Si  Si11  1  0.663372  0.669280  0.168228  1
  Si  Si12  1  0.169393  0.163403  0.331833  1
  Si  Si13  1  0.836597  0.830607  0.668167  1
  Si  Si14  1  0.124409  0.891161  0.730497  1
  Si  Si15  1  0.108839  0.875591  0.269503  1
  Si  Si16  1  0.608177  0.374840  0.230531  1
  Si  Si17  1  0.625160  0.391823  0.769469  1
  Si  Si18  1  0.874875  0.108344  0.269571  1
  Si  Si19  1  0.891656  0.125125  0.730429  1
  Si  Si20  1  0.391276  0.624501  0.769436  1
  Si  Si21  1  0.375499  0.608724  0.230564  1
  Si  Si22  1  0.347254  0.113362  0.507234  1
  Si  Si23  1  0.886638  0.652746  0.492766  1
  Si  Si24  1  0.385774  0.152494  0.009064  1
  Si  Si25  1  0.847506  0.614226  0.990936  1
  Si  Si26  1  0.652419  0.885830  0.490840  1
  Si  Si27  1  0.114170  0.347581  0.509160  1
  Si  Si28  1  0.613409  0.847254  0.992753  1
  Si  Si29  1  0.152746  0.386591  0.007247  1
  Os  Os30  1  0.671527  0.328473  0.500000  1
  Os  Os31  1  0.170580  0.829420  0.000000  1
  Os  Os32  1  0.329386  0.670614  0.500000  1
  Os  Os33  1  0.828595  0.171405  0.000000  1
  Os  Os34  1  0.126743  0.127615  0.625231  1
  Os  Os35  1  0.872385  0.873257  0.374769  1
  Os  Os36  1  0.373377  0.372380  0.125384  1
  Os  Os37  1  0.627620  0.626623  0.874616  1
