# generated using pymatgen
data_CaScBrO2
_symmetry_space_group_name_H-M   'P 1'
_cell_length_a   5.83751751
_cell_length_b   5.83751736
_cell_length_c   8.88017403
_cell_angle_alpha   77.60624236
_cell_angle_beta   77.60624391
_cell_angle_gamma   39.54304953
_symmetry_Int_Tables_number   1
_chemical_formula_structural   CaScBrO2
_chemical_formula_sum   'Ca2 Sc2 Br2 O4'
_cell_volume   187.57891485
_cell_formula_units_Z   2
loop_
 _symmetry_equiv_pos_site_id
 _symmetry_equiv_pos_as_xyz
  1  'x, y, z'
loop_
 _atom_site_type_symbol
 _atom_site_label
 _atom_site_symmetry_multiplicity
 _atom_site_fract_x
 _atom_site_fract_y
 _atom_site_fract_z
 _atom_site_occupancy
  Ca  Ca0  1  0.392269  0.392269  0.783255  1
  Ca  Ca1  1  0.607731  0.607731  0.216745  1
  Sc  Sc2  1  0.863794  0.863794  0.490271  1
  Sc  Sc3  1  0.136206  0.136206  0.509729  1
  Br  Br4  1  0.662226  0.662226  0.868719  1
  Br  Br5  1  0.337774  0.337774  0.131281  1
  O  O6  1  0.317034  0.317034  0.554918  1
  O  O7  1  0.969716  0.969716  0.661780  1
  O  O8  1  0.030284  0.030284  0.338220  1
  O  O9  1  0.682966  0.682966  0.445082  1
