# generated using pymatgen
data_Hf4Co2Si4NiPt
_symmetry_space_group_name_H-M   'P 1'
_cell_length_a   3.82191000
_cell_length_b   6.45742816
_cell_length_c   7.29546267
_cell_angle_alpha   90.88285198
_cell_angle_beta   90.00000000
_cell_angle_gamma   90.00000000
_symmetry_Int_Tables_number   1
_chemical_formula_structural   Hf4Co2Si4NiPt
_chemical_formula_sum   'Hf4 Co2 Si4 Ni1 Pt1'
_cell_volume   180.02852347
_cell_formula_units_Z   1
loop_
 _symmetry_equiv_pos_site_id
 _symmetry_equiv_pos_as_xyz
  1  'x, y, z'
loop_
 _atom_site_type_symbol
 _atom_site_label
 _atom_site_symmetry_multiplicity
 _atom_site_fract_x
 _atom_site_fract_y
 _atom_site_fract_z
 _atom_site_occupancy
  Hf  Hf0  1  0.750000  0.488065  0.318893  1
  Hf  Hf1  1  0.250000  0.017403  0.810394  1
  Hf  Hf2  1  0.750000  0.978968  0.190870  1
  Hf  Hf3  1  0.250000  0.518139  0.676347  1
  Co  Co4  1  0.250000  0.141463  0.437341  1
  Co  Co5  1  0.750000  0.856398  0.563697  1
  Si  Si6  1  0.250000  0.267867  0.132801  1
  Si  Si7  1  0.250000  0.779651  0.392139  1
  Si  Si8  1  0.750000  0.733085  0.879299  1
  Si  Si9  1  0.750000  0.217665  0.598850  1
  Ni  Ni10  1  0.250000  0.648891  0.065207  1
  Pt  Pt11  1  0.750000  0.352403  0.934162  1
