# generated using pymatgen
data_LaPrCu2(BiSb)2
_symmetry_space_group_name_H-M   'P 1'
_cell_length_a   4.51090200
_cell_length_b   4.51090200
_cell_length_c   10.14194200
_cell_angle_alpha   90.00000000
_cell_angle_beta   90.00000000
_cell_angle_gamma   90.00000000
_symmetry_Int_Tables_number   1
_chemical_formula_structural   LaPrCu2(BiSb)2
_chemical_formula_sum   'La1 Pr1 Cu2 Bi2 Sb2'
_cell_volume   206.37063797
_cell_formula_units_Z   1
loop_
 _symmetry_equiv_pos_site_id
 _symmetry_equiv_pos_as_xyz
  1  'x, y, z'
loop_
 _atom_site_type_symbol
 _atom_site_label
 _atom_site_symmetry_multiplicity
 _atom_site_fract_x
 _atom_site_fract_y
 _atom_site_fract_z
 _atom_site_occupancy
  La  La0  1  0.000000  0.500000  0.736943  1
  Pr  Pr1  1  0.500000  0.000000  0.262026  1
  Cu  Cu2  1  0.500000  0.500000  0.499919  1
  Cu  Cu3  1  0.000000  0.000000  0.499919  1
  Bi  Bi4  1  0.500000  0.500000  0.000766  1
  Bi  Bi5  1  0.000000  0.000000  0.000766  1
  Sb  Sb6  1  0.000000  0.500000  0.352478  1
  Sb  Sb7  1  0.500000  0.000000  0.647184  1
