# generated using pymatgen
data_Y2ErTm3FeSb2
_symmetry_space_group_name_H-M   'P 1'
_cell_length_a   8.12079900
_cell_length_b   8.13959333
_cell_length_c   4.13548600
_cell_angle_alpha   90.00000000
_cell_angle_beta   90.00000000
_cell_angle_gamma   119.92364414
_symmetry_Int_Tables_number   1
_chemical_formula_structural   Y2ErTm3FeSb2
_chemical_formula_sum   'Y2 Er1 Tm3 Fe1 Sb2'
_cell_volume   236.91485507
_cell_formula_units_Z   1
loop_
 _symmetry_equiv_pos_site_id
 _symmetry_equiv_pos_as_xyz
  1  'x, y, z'
loop_
 _atom_site_type_symbol
 _atom_site_label
 _atom_site_symmetry_multiplicity
 _atom_site_fract_x
 _atom_site_fract_y
 _atom_site_fract_z
 _atom_site_occupancy
  Y  Y0  1  0.000118  0.602502  0.500000  1
  Y  Y1  1  0.397616  0.397498  0.500000  1
  Er  Er2  1  0.606061  0.000000  0.500000  1
  Tm  Tm3  1  0.232574  0.000000  0.000000  1
  Tm  Tm4  1  0.766421  0.766950  0.000000  1
  Tm  Tm5  1  0.999471  0.233050  0.000000  1
  Fe  Fe6  1  0.996394  0.000000  0.500000  1
  Sb  Sb7  1  0.334895  0.668447  0.000000  1
  Sb  Sb8  1  0.666450  0.331553  0.000000  1
