# generated using pymatgen
data_Ba10Li4Ni(TeO6)5
_symmetry_space_group_name_H-M   'P 1'
_cell_length_a   10.16657547
_cell_length_b   10.16653084
_cell_length_c   10.16794668
_cell_angle_alpha   99.71860607
_cell_angle_beta   99.73497815
_cell_angle_gamma   131.45660701
_symmetry_Int_Tables_number   1
_chemical_formula_structural   Ba10Li4Ni(TeO6)5
_chemical_formula_sum   'Ba10 Li4 Ni1 Te5 O30'
_cell_volume   718.03771868
_cell_formula_units_Z   1
loop_
 _symmetry_equiv_pos_site_id
 _symmetry_equiv_pos_as_xyz
  1  'x, y, z'
loop_
 _atom_site_type_symbol
 _atom_site_label
 _atom_site_symmetry_multiplicity
 _atom_site_fract_x
 _atom_site_fract_y
 _atom_site_fract_z
 _atom_site_occupancy
  Ba  Ba0  1  0.749867  0.249861  0.500004  1
  Ba  Ba1  1  0.545954  0.646405  0.697320  1
  Ba  Ba2  1  0.949088  0.848636  0.302680  1
  Ba  Ba3  1  0.151182  0.454069  0.100241  1
  Ba  Ba4  1  0.353827  0.050933  0.899756  1
  Ba  Ba5  1  0.848818  0.545931  0.899759  1
  Ba  Ba6  1  0.646173  0.949067  0.100244  1
  Ba  Ba7  1  0.050912  0.151364  0.697320  1
  Ba  Ba8  1  0.250133  0.750139  0.499996  1
  Ba  Ba9  1  0.454046  0.353595  0.302680  1
  Li  Li10  1  0.401494  0.199422  0.600915  1
  Li  Li11  1  0.800474  0.401263  0.201734  1
  Li  Li12  1  0.199526  0.598737  0.798266  1
  Li  Li13  1  0.598506  0.800578  0.399085  1
  Ni  Ni14  1  0.000000  0.000000  0.000000  1
  Te  Te15  1  0.297988  0.901784  0.199774  1
  Te  Te16  1  0.098176  0.297794  0.395974  1
  Te  Te17  1  0.500000  0.500000  0.000000  1
  Te  Te18  1  0.702012  0.098216  0.800226  1
  Te  Te19  1  0.901824  0.702206  0.604026  1
  O  O20  1  0.529985  0.134721  0.199097  1
  O  O21  1  0.330839  0.529836  0.395117  1
  O  O22  1  0.738090  0.738094  0.999998  1
  O  O23  1  0.935613  0.330891  0.800902  1
  O  O24  1  0.134700  0.935712  0.604885  1
  O  O25  1  0.250614  0.760860  0.011464  1
  O  O26  1  0.050629  0.153588  0.204209  1
  O  O27  1  0.452532  0.359585  0.812121  1
  O  O28  1  0.655838  0.957007  0.612840  1
  O  O29  1  0.855105  0.560526  0.415637  1
  O  O30  1  0.153647  0.949362  0.103022  1
  O  O31  1  0.956972  0.344069  0.301039  1
  O  O32  1  0.359548  0.547486  0.907042  1
  O  O33  1  0.560432  0.144918  0.705363  1
  O  O34  1  0.760877  0.749477  0.510365  1
  O  O35  1  0.064387  0.669109  0.199098  1
  O  O36  1  0.865300  0.064288  0.395115  1
  O  O37  1  0.261910  0.261906  0.000002  1
  O  O38  1  0.470015  0.865279  0.800903  1
  O  O39  1  0.669161  0.470164  0.604883  1
  O  O40  1  0.344162  0.042993  0.387160  1
  O  O41  1  0.144895  0.439474  0.584363  1
  O  O42  1  0.547468  0.640415  0.187879  1
  O  O43  1  0.749386  0.239140  0.988536  1
  O  O44  1  0.949371  0.846412  0.795791  1
  O  O45  1  0.439568  0.855082  0.294637  1
  O  O46  1  0.239123  0.250523  0.489635  1
  O  O47  1  0.640452  0.452514  0.092958  1
  O  O48  1  0.846353  0.050638  0.896978  1
  O  O49  1  0.043028  0.655931  0.698961  1
