# generated using pymatgen
data_Y3Lu5(Ga3Pt)4
_symmetry_space_group_name_H-M   'P 1'
_cell_length_a   8.83071200
_cell_length_b   8.85724477
_cell_length_c   6.97680700
_cell_angle_alpha   90.00000000
_cell_angle_beta   90.00000000
_cell_angle_gamma   119.89917204
_symmetry_Int_Tables_number   1
_chemical_formula_structural   Y3Lu5(Ga3Pt)4
_chemical_formula_sum   'Y3 Lu5 Ga12 Pt4'
_cell_volume   473.06635315
_cell_formula_units_Z   1
loop_
 _symmetry_equiv_pos_site_id
 _symmetry_equiv_pos_as_xyz
  1  'x, y, z'
loop_
 _atom_site_type_symbol
 _atom_site_label
 _atom_site_symmetry_multiplicity
 _atom_site_fract_x
 _atom_site_fract_y
 _atom_site_fract_z
 _atom_site_occupancy
  Y  Y0  1  0.000236  0.000198  0.250000  1
  Y  Y1  1  0.999829  0.999914  0.750000  1
  Y  Y2  1  0.519914  0.039926  0.250000  1
  Lu  Lu3  1  0.520432  0.479836  0.250000  1
  Lu  Lu4  1  0.959113  0.479742  0.250000  1
  Lu  Lu5  1  0.479154  0.958180  0.750000  1
  Lu  Lu6  1  0.479700  0.520362  0.750000  1
  Lu  Lu7  1  0.040953  0.520462  0.750000  1
  Ga  Ga8  1  0.167365  0.334834  0.046662  1
  Ga  Ga9  1  0.166767  0.831271  0.454650  1
  Ga  Ga10  1  0.664746  0.831442  0.454618  1
  Ga  Ga11  1  0.664746  0.831442  0.045382  1
  Ga  Ga12  1  0.166767  0.831271  0.045350  1
  Ga  Ga13  1  0.832730  0.665372  0.953498  1
  Ga  Ga14  1  0.832323  0.168388  0.952693  1
  Ga  Ga15  1  0.335825  0.168217  0.952665  1
  Ga  Ga16  1  0.167365  0.334834  0.453338  1
  Ga  Ga17  1  0.335825  0.168217  0.547335  1
  Ga  Ga18  1  0.832730  0.665372  0.546502  1
  Ga  Ga19  1  0.832323  0.168388  0.547307  1
  Pt  Pt20  1  0.332693  0.665143  0.026175  1
  Pt  Pt21  1  0.332693  0.665143  0.473825  1
  Pt  Pt22  1  0.667886  0.336022  0.970076  1
  Pt  Pt23  1  0.667886  0.336022  0.529924  1
