# generated using pymatgen
data_Ho8Ti10NbSi16Mo
_symmetry_space_group_name_H-M   'P 1'
_cell_length_a   7.02703250
_cell_length_b   7.02703195
_cell_length_c   12.92174760
_cell_angle_alpha   89.99341280
_cell_angle_beta   90.00658992
_cell_angle_gamma   90.03333016
_symmetry_Int_Tables_number   1
_chemical_formula_structural   Ho8Ti10NbSi16Mo
_chemical_formula_sum   'Ho8 Ti10 Nb1 Si16 Mo1'
_cell_volume   638.06520907
_cell_formula_units_Z   1
loop_
 _symmetry_equiv_pos_site_id
 _symmetry_equiv_pos_as_xyz
  1  'x, y, z'
loop_
 _atom_site_type_symbol
 _atom_site_label
 _atom_site_symmetry_multiplicity
 _atom_site_fract_x
 _atom_site_fract_y
 _atom_site_fract_z
 _atom_site_occupancy
  Ho  Ho0  1  0.341876  0.001563  0.467337  1
  Ho  Ho1  1  0.498760  0.839994  0.715590  1
  Ho  Ho2  1  0.502098  0.159220  0.216760  1
  Ho  Ho3  1  0.839994  0.498760  0.284410  1
  Ho  Ho4  1  0.159220  0.502098  0.783240  1
  Ho  Ho5  1  0.658633  0.997536  0.967097  1
  Ho  Ho6  1  0.001563  0.341876  0.532663  1
  Ho  Ho7  1  0.997536  0.658633  0.032903  1
  Ti  Ti8  1  0.173172  0.826079  0.250477  1
  Ti  Ti9  1  0.826079  0.173172  0.749523  1
  Ti  Ti10  1  0.152603  0.008611  0.876218  1
  Ti  Ti11  1  0.492244  0.651106  0.125242  1
  Ti  Ti12  1  0.508068  0.348664  0.624353  1
  Ti  Ti13  1  0.651106  0.492244  0.874758  1
  Ti  Ti14  1  0.348664  0.508068  0.375647  1
  Ti  Ti15  1  0.846942  0.991135  0.376587  1
  Ti  Ti16  1  0.008611  0.152603  0.123782  1
  Ti  Ti17  1  0.991135  0.846942  0.623413  1
  Nb  Nb18  1  0.326536  0.326536  0.000000  1
  Si  Si19  1  0.202646  0.130578  0.683961  1
  Si  Si20  1  0.369239  0.703714  0.933923  1
  Si  Si21  1  0.630292  0.298459  0.434361  1
  Si  Si22  1  0.703714  0.369239  0.066077  1
  Si  Si23  1  0.298459  0.630292  0.565639  1
  Si  Si24  1  0.797730  0.869246  0.184352  1
  Si  Si25  1  0.130578  0.202646  0.316039  1
  Si  Si26  1  0.869246  0.797730  0.815648  1
  Si  Si27  1  0.291304  0.951487  0.065069  1
  Si  Si28  1  0.547548  0.791395  0.315363  1
  Si  Si29  1  0.454127  0.207688  0.813517  1
  Si  Si30  1  0.791395  0.547548  0.684637  1
  Si  Si31  1  0.207688  0.454127  0.186483  1
  Si  Si32  1  0.709257  0.046707  0.564730  1
  Si  Si33  1  0.951487  0.291304  0.934931  1
  Si  Si34  1  0.046707  0.709257  0.435270  1
  Mo  Mo35  1  0.673742  0.673742  0.500000  1
