# generated using pymatgen
data_CaEu9Cd3Ag
_symmetry_space_group_name_H-M   'P 1'
_cell_length_a   10.41645500
_cell_length_b   10.41645506
_cell_length_c   10.32907500
_cell_angle_alpha   90.00000000
_cell_angle_beta   90.00000000
_cell_angle_gamma   119.99999665
_symmetry_Int_Tables_number   1
_chemical_formula_structural   CaEu9Cd3Ag
_chemical_formula_sum   'Ca2 Eu18 Cd6 Ag2'
_cell_volume   970.58139826
_cell_formula_units_Z   2
loop_
 _symmetry_equiv_pos_site_id
 _symmetry_equiv_pos_as_xyz
  1  'x, y, z'
loop_
 _atom_site_type_symbol
 _atom_site_label
 _atom_site_symmetry_multiplicity
 _atom_site_fract_x
 _atom_site_fract_y
 _atom_site_fract_z
 _atom_site_occupancy
  Ca  Ca0  1  0.000000  0.000000  0.000000  1
  Ca  Ca1  1  0.000000  0.000000  0.500000  1
  Eu  Eu2  1  0.202893  0.797107  0.943714  1
  Eu  Eu3  1  0.202893  0.405789  0.943714  1
  Eu  Eu4  1  0.594211  0.797107  0.943714  1
  Eu  Eu5  1  0.797107  0.202893  0.056286  1
  Eu  Eu6  1  0.797107  0.594211  0.056286  1
  Eu  Eu7  1  0.405789  0.202893  0.056286  1
  Eu  Eu8  1  0.797107  0.202893  0.443714  1
  Eu  Eu9  1  0.797107  0.594211  0.443714  1
  Eu  Eu10  1  0.405789  0.202893  0.443714  1
  Eu  Eu11  1  0.202893  0.797107  0.556286  1
  Eu  Eu12  1  0.202893  0.405789  0.556286  1
  Eu  Eu13  1  0.594211  0.797107  0.556286  1
  Eu  Eu14  1  0.542621  0.457379  0.750000  1
  Eu  Eu15  1  0.542621  0.085241  0.750000  1
  Eu  Eu16  1  0.914759  0.457379  0.750000  1
  Eu  Eu17  1  0.457379  0.542621  0.250000  1
  Eu  Eu18  1  0.457379  0.914759  0.250000  1
  Eu  Eu19  1  0.085241  0.542621  0.250000  1
  Cd  Cd20  1  0.885548  0.114452  0.750000  1
  Cd  Cd21  1  0.885548  0.771096  0.750000  1
  Cd  Cd22  1  0.228904  0.114452  0.750000  1
  Cd  Cd23  1  0.114452  0.885548  0.250000  1
  Cd  Cd24  1  0.114452  0.228904  0.250000  1
  Cd  Cd25  1  0.771096  0.885548  0.250000  1
  Ag  Ag26  1  0.333333  0.666667  0.750000  1
  Ag  Ag27  1  0.666667  0.333333  0.250000  1
