# generated using pymatgen
data_Ho17Sc3(RuPt2)4
_symmetry_space_group_name_H-M   'P 1'
_cell_length_a   10.91973100
_cell_length_b   10.91973100
_cell_length_c   6.26484600
_cell_angle_alpha   90.00000000
_cell_angle_beta   90.00000000
_cell_angle_gamma   90.00000000
_symmetry_Int_Tables_number   1
_chemical_formula_structural   Ho17Sc3(RuPt2)4
_chemical_formula_sum   'Ho17 Sc3 Ru4 Pt8'
_cell_volume   747.02352679
_cell_formula_units_Z   1
loop_
 _symmetry_equiv_pos_site_id
 _symmetry_equiv_pos_as_xyz
  1  'x, y, z'
loop_
 _atom_site_type_symbol
 _atom_site_label
 _atom_site_symmetry_multiplicity
 _atom_site_fract_x
 _atom_site_fract_y
 _atom_site_fract_z
 _atom_site_occupancy
  Ho  Ho0  1  0.292898  0.085322  0.373666  1
  Ho  Ho1  1  0.292913  0.915214  0.873396  1
  Ho  Ho2  1  0.707087  0.084786  0.873396  1
  Ho  Ho3  1  0.707102  0.914678  0.373666  1
  Ho  Ho4  1  0.585199  0.794633  0.872350  1
  Ho  Ho5  1  0.586278  0.203539  0.371868  1
  Ho  Ho6  1  0.413722  0.796461  0.371868  1
  Ho  Ho7  1  0.414801  0.205367  0.872350  1
  Ho  Ho8  1  0.203539  0.413722  0.628132  1
  Ho  Ho9  1  0.205367  0.585199  0.127650  1
  Ho  Ho10  1  0.794633  0.414801  0.127650  1
  Ho  Ho11  1  0.796461  0.586278  0.628132  1
  Ho  Ho12  1  0.915214  0.707087  0.126604  1
  Ho  Ho13  1  0.914678  0.292898  0.626334  1
  Ho  Ho14  1  0.085322  0.707102  0.626334  1
  Ho  Ho15  1  0.084786  0.292913  0.126604  1
  Ho  Ho16  1  0.500000  0.500000  0.500000  1
  Sc  Sc17  1  0.000000  0.000000  0.500000  1
  Sc  Sc18  1  0.000000  0.000000  0.000000  1
  Sc  Sc19  1  0.500000  0.500000  0.000000  1
  Ru  Ru20  1  0.500000  0.000000  0.121147  1
  Ru  Ru21  1  0.500000  0.000000  0.621528  1
  Ru  Ru22  1  0.000000  0.500000  0.878853  1
  Ru  Ru23  1  0.000000  0.500000  0.378472  1
  Pt  Pt24  1  0.852955  0.146872  0.249778  1
  Pt  Pt25  1  0.853128  0.852955  0.750222  1
  Pt  Pt26  1  0.146872  0.147045  0.750222  1
  Pt  Pt27  1  0.147045  0.853128  0.249778  1
  Pt  Pt28  1  0.650808  0.348425  0.755516  1
  Pt  Pt29  1  0.651575  0.650808  0.244484  1
  Pt  Pt30  1  0.348425  0.349192  0.244484  1
  Pt  Pt31  1  0.349192  0.651575  0.755516  1
