# generated using pymatgen
data_Ce2Al9TcPt2
_symmetry_space_group_name_H-M   'P 1'
_cell_length_a   7.67441270
_cell_length_b   7.67441220
_cell_length_c   9.47740800
_cell_angle_alpha   90.00000000
_cell_angle_beta   90.00000000
_cell_angle_gamma   118.64052575
_symmetry_Int_Tables_number   1
_chemical_formula_structural   Ce2Al9TcPt2
_chemical_formula_sum   'Ce4 Al18 Tc2 Pt4'
_cell_volume   489.88971660
_cell_formula_units_Z   2
loop_
 _symmetry_equiv_pos_site_id
 _symmetry_equiv_pos_as_xyz
  1  'x, y, z'
loop_
 _atom_site_type_symbol
 _atom_site_label
 _atom_site_symmetry_multiplicity
 _atom_site_fract_x
 _atom_site_fract_y
 _atom_site_fract_z
 _atom_site_occupancy
  Ce  Ce0  1  0.995268  0.686761  0.250000  1
  Ce  Ce1  1  0.004732  0.313239  0.750000  1
  Ce  Ce2  1  0.686761  0.995268  0.250000  1
  Ce  Ce3  1  0.313239  0.004732  0.750000  1
  Al  Al4  1  0.003367  0.338086  0.078978  1
  Al  Al5  1  0.996633  0.661914  0.921022  1
  Al  Al6  1  0.996633  0.661914  0.578978  1
  Al  Al7  1  0.338086  0.003367  0.421022  1
  Al  Al8  1  0.003367  0.338086  0.421022  1
  Al  Al9  1  0.661914  0.996633  0.578978  1
  Al  Al10  1  0.661914  0.996633  0.921022  1
  Al  Al11  1  0.338086  0.003367  0.078978  1
  Al  Al12  1  0.329714  0.329714  0.544156  1
  Al  Al13  1  0.670286  0.670286  0.455844  1
  Al  Al14  1  0.670286  0.670286  0.044156  1
  Al  Al15  1  0.329714  0.329714  0.955844  1
  Al  Al16  1  0.139251  0.139251  0.250000  1
  Al  Al17  1  0.860749  0.860749  0.750000  1
  Al  Al18  1  0.349795  0.555241  0.250000  1
  Al  Al19  1  0.650205  0.444759  0.750000  1
  Al  Al20  1  0.555241  0.349795  0.250000  1
  Al  Al21  1  0.444759  0.650205  0.750000  1
  Tc  Tc22  1  0.000000  0.000000  0.000000  1
  Tc  Tc23  1  0.000000  0.000000  0.500000  1
  Pt  Pt24  1  0.672137  0.327863  0.000000  1
  Pt  Pt25  1  0.327863  0.672137  0.000000  1
  Pt  Pt26  1  0.327863  0.672137  0.500000  1
  Pt  Pt27  1  0.672137  0.327863  0.500000  1
