# generated using pymatgen
data_Cs4LiTlSe4
_symmetry_space_group_name_H-M   'P 1'
_cell_length_a   8.93500791
_cell_length_b   8.93500832
_cell_length_c   8.93500700
_cell_angle_alpha   134.25301193
_cell_angle_beta   128.46886058
_cell_angle_gamma   71.34207149
_symmetry_Int_Tables_number   1
_chemical_formula_structural   Cs4LiTlSe4
_chemical_formula_sum   'Cs4 Li1 Tl1 Se4'
_cell_volume   391.64703788
_cell_formula_units_Z   1
loop_
 _symmetry_equiv_pos_site_id
 _symmetry_equiv_pos_as_xyz
  1  'x, y, z'
loop_
 _atom_site_type_symbol
 _atom_site_label
 _atom_site_symmetry_multiplicity
 _atom_site_fract_x
 _atom_site_fract_y
 _atom_site_fract_z
 _atom_site_occupancy
  Cs  Cs0  1  0.521380  0.863284  0.676356  1
  Cs  Cs1  1  0.478620  0.154978  0.341904  1
  Cs  Cs2  1  0.813073  0.636716  0.158096  1
  Cs  Cs3  1  0.186927  0.345022  0.823644  1
  Li  Li4  1  0.000000  0.250000  0.250000  1
  Tl  Tl5  1  0.000000  0.750000  0.750000  1
  Se  Se6  1  0.086375  0.897820  0.187272  1
  Se  Se7  1  0.710548  0.399103  0.312728  1
  Se  Se8  1  0.913625  0.100897  0.811445  1
  Se  Se9  1  0.289453  0.602180  0.688555  1
