# generated using pymatgen
data_Nb16CoCu4Ni3N4
_symmetry_space_group_name_H-M   'P 1'
_cell_length_a   8.27967824
_cell_length_b   8.26646214
_cell_length_c   8.26646100
_cell_angle_alpha   60.00000056
_cell_angle_beta   60.05278869
_cell_angle_gamma   60.05279478
_symmetry_Int_Tables_number   1
_chemical_formula_structural   Nb16CoCu4Ni3N4
_chemical_formula_sum   'Nb16 Co1 Cu4 Ni3 N4'
_cell_volume   400.39057809
_cell_formula_units_Z   1
loop_
 _symmetry_equiv_pos_site_id
 _symmetry_equiv_pos_as_xyz
  1  'x, y, z'
loop_
 _atom_site_type_symbol
 _atom_site_label
 _atom_site_symmetry_multiplicity
 _atom_site_fract_x
 _atom_site_fract_y
 _atom_site_fract_z
 _atom_site_occupancy
  Nb  Nb0  1  0.116131  0.627956  0.627956  1
  Nb  Nb1  1  0.636083  0.125220  0.619348  1
  Nb  Nb2  1  0.636083  0.619348  0.125220  1
  Nb  Nb3  1  0.636083  0.619348  0.619348  1
  Nb  Nb4  1  0.817368  0.818592  0.182021  1
  Nb  Nb5  1  0.182138  0.185726  0.816069  1
  Nb  Nb6  1  0.817368  0.182021  0.818592  1
  Nb  Nb7  1  0.182138  0.816069  0.185726  1
  Nb  Nb8  1  0.182138  0.816069  0.816069  1
  Nb  Nb9  1  0.817368  0.182021  0.182021  1
  Nb  Nb10  1  0.435445  0.434154  0.065200  1
  Nb  Nb11  1  0.066316  0.070366  0.431659  1
  Nb  Nb12  1  0.435445  0.065200  0.434154  1
  Nb  Nb13  1  0.066316  0.431659  0.070366  1
  Nb  Nb14  1  0.066316  0.431659  0.431659  1
  Nb  Nb15  1  0.435445  0.065200  0.065200  1
  Co  Co16  1  0.734431  0.421857  0.421857  1
  Cu  Cu17  1  0.415957  0.747110  0.418466  1
  Cu  Cu18  1  0.415957  0.418466  0.747110  1
  Cu  Cu19  1  0.415957  0.418466  0.418466  1
  Cu  Cu20  1  0.500865  0.833045  0.833045  1
  Ni  Ni21  1  0.828635  0.512166  0.829600  1
  Ni  Ni22  1  0.828635  0.829600  0.512166  1
  Ni  Ni23  1  0.828635  0.829600  0.829600  1
  N  N24  1  0.623586  0.125471  0.125471  1
  N  N25  1  0.126387  0.624888  0.124362  1
  N  N26  1  0.126387  0.124362  0.624888  1
  N  N27  1  0.126387  0.124362  0.124362  1
