# generated using pymatgen
data_Pa3Ga3Fe2Ni
_symmetry_space_group_name_H-M   'P 1'
_cell_length_a   6.85699500
_cell_length_b   6.85699623
_cell_length_c   3.84312600
_cell_angle_alpha   90.00000000
_cell_angle_beta   90.00000000
_cell_angle_gamma   119.99999887
_symmetry_Int_Tables_number   1
_chemical_formula_structural   Pa3Ga3Fe2Ni
_chemical_formula_sum   'Pa3 Ga3 Fe2 Ni1'
_cell_volume   156.48870758
_cell_formula_units_Z   1
loop_
 _symmetry_equiv_pos_site_id
 _symmetry_equiv_pos_as_xyz
  1  'x, y, z'
loop_
 _atom_site_type_symbol
 _atom_site_label
 _atom_site_symmetry_multiplicity
 _atom_site_fract_x
 _atom_site_fract_y
 _atom_site_fract_z
 _atom_site_occupancy
  Pa  Pa0  1  0.424836  0.000000  0.500000  1
  Pa  Pa1  1  0.000000  0.424836  0.500000  1
  Pa  Pa2  1  0.575164  0.575164  0.500000  1
  Ga  Ga3  1  0.761264  0.000000  0.000000  1
  Ga  Ga4  1  0.000000  0.761264  0.000000  1
  Ga  Ga5  1  0.238736  0.238736  0.000000  1
  Fe  Fe6  1  0.333333  0.666667  0.000000  1
  Fe  Fe7  1  0.666667  0.333333  0.000000  1
  Ni  Ni8  1  0.000000  0.000000  0.500000  1
