# generated using pymatgen
data_Hg(S6Br)2
_symmetry_space_group_name_H-M   'P 1'
_cell_length_a   8.11125524
_cell_length_b   8.11125887
_cell_length_c   8.11125557
_cell_angle_alpha   91.40940959
_cell_angle_beta   91.40940491
_cell_angle_gamma   91.40936810
_symmetry_Int_Tables_number   1
_chemical_formula_structural   Hg(S6Br)2
_chemical_formula_sum   'Hg1 S12 Br2'
_cell_volume   533.16727142
_cell_formula_units_Z   1
loop_
 _symmetry_equiv_pos_site_id
 _symmetry_equiv_pos_as_xyz
  1  'x, y, z'
loop_
 _atom_site_type_symbol
 _atom_site_label
 _atom_site_symmetry_multiplicity
 _atom_site_fract_x
 _atom_site_fract_y
 _atom_site_fract_z
 _atom_site_occupancy
  Hg  Hg0  1  0.500000  0.500000  0.500000  1
  S  S1  1  0.205968  0.205968  0.831884  1
  S  S2  1  0.205968  0.831884  0.205968  1
  S  S3  1  0.794032  0.168116  0.794032  1
  S  S4  1  0.168116  0.794032  0.794032  1
  S  S5  1  0.794032  0.794032  0.168116  1
  S  S6  1  0.708722  0.291278  0.000000  1
  S  S7  1  0.291278  0.000000  0.708722  1
  S  S8  1  0.000000  0.708722  0.291278  1
  S  S9  1  0.291278  0.708722  0.000000  1
  S  S10  1  0.708722  0.000000  0.291278  1
  S  S11  1  0.000000  0.291278  0.708722  1
  S  S12  1  0.831884  0.205968  0.205968  1
  Br  Br13  1  0.322668  0.322668  0.322668  1
  Br  Br14  1  0.677332  0.677332  0.677332  1
