# generated using pymatgen
data_Ho5Er7Os3Ru
_symmetry_space_group_name_H-M   'P 1'
_cell_length_a   6.27356914
_cell_length_b   7.35260596
_cell_length_c   8.99284903
_cell_angle_alpha   89.99293569
_cell_angle_beta   90.03988673
_cell_angle_gamma   90.08232585
_symmetry_Int_Tables_number   1
_chemical_formula_structural   Ho5Er7Os3Ru
_chemical_formula_sum   'Ho5 Er7 Os3 Ru1'
_cell_volume   414.81335148
_cell_formula_units_Z   1
loop_
 _symmetry_equiv_pos_site_id
 _symmetry_equiv_pos_as_xyz
  1  'x, y, z'
loop_
 _atom_site_type_symbol
 _atom_site_label
 _atom_site_symmetry_multiplicity
 _atom_site_fract_x
 _atom_site_fract_y
 _atom_site_fract_z
 _atom_site_occupancy
  Ho  Ho0  1  0.333523  0.675247  0.062401  1
  Ho  Ho1  1  0.870081  0.538808  0.250179  1
  Ho  Ho2  1  0.630728  0.038594  0.250109  1
  Ho  Ho3  1  0.129774  0.461682  0.749820  1
  Ho  Ho4  1  0.370160  0.961805  0.749833  1
  Er  Er5  1  0.166724  0.175582  0.437120  1
  Er  Er6  1  0.667180  0.324780  0.562977  1
  Er  Er7  1  0.832267  0.824503  0.936202  1
  Er  Er8  1  0.667381  0.324575  0.936901  1
  Er  Er9  1  0.832291  0.824483  0.563656  1
  Er  Er10  1  0.333425  0.674969  0.437750  1
  Er  Er11  1  0.166742  0.175494  0.062864  1
  Os  Os12  1  0.459110  0.382192  0.250206  1
  Os  Os13  1  0.959316  0.117128  0.750086  1
  Os  Os14  1  0.541245  0.617522  0.749664  1
  Ru  Ru15  1  0.040052  0.882637  0.250233  1
