# generated using pymatgen
data_Er3In4CoCu
_symmetry_space_group_name_H-M   'P 1'
_cell_length_a   7.90451600
_cell_length_b   7.90451629
_cell_length_c   3.64300600
_cell_angle_alpha   90.00000000
_cell_angle_beta   90.00000000
_cell_angle_gamma   120.00000602
_symmetry_Int_Tables_number   1
_chemical_formula_structural   Er3In4CoCu
_chemical_formula_sum   'Er3 In4 Co1 Cu1'
_cell_volume   197.12471288
_cell_formula_units_Z   1
loop_
 _symmetry_equiv_pos_site_id
 _symmetry_equiv_pos_as_xyz
  1  'x, y, z'
loop_
 _atom_site_type_symbol
 _atom_site_label
 _atom_site_symmetry_multiplicity
 _atom_site_fract_x
 _atom_site_fract_y
 _atom_site_fract_z
 _atom_site_occupancy
  Er  Er0  1  0.712313  0.954686  0.500000  1
  Er  Er1  1  0.242373  0.287687  0.500000  1
  Er  Er2  1  0.045314  0.757627  0.500000  1
  In  In3  1  0.926824  0.334495  0.000000  1
  In  In4  1  0.407671  0.073176  0.000000  1
  In  In5  1  0.665505  0.592329  0.000000  1
  In  In6  1  0.333333  0.666667  0.000000  1
  Co  Co7  1  0.000000  0.000000  0.000000  1
  Cu  Cu8  1  0.666667  0.333333  0.500000  1
