# generated using pymatgen
data_Ti3MnCr2AsP2
_symmetry_space_group_name_H-M   'P 1'
_cell_length_a   6.45838615
_cell_length_b   6.43651381
_cell_length_c   3.26254000
_cell_angle_alpha   90.00000000
_cell_angle_beta   90.00000000
_cell_angle_gamma   119.82569548
_symmetry_Int_Tables_number   1
_chemical_formula_structural   Ti3MnCr2AsP2
_chemical_formula_sum   'Ti3 Mn1 Cr2 As1 P2'
_cell_volume   117.65795948
_cell_formula_units_Z   1
loop_
 _symmetry_equiv_pos_site_id
 _symmetry_equiv_pos_as_xyz
  1  'x, y, z'
loop_
 _atom_site_type_symbol
 _atom_site_label
 _atom_site_symmetry_multiplicity
 _atom_site_fract_x
 _atom_site_fract_y
 _atom_site_fract_z
 _atom_site_occupancy
  Ti  Ti0  1  0.396965  0.406510  0.500000  1
  Ti  Ti1  1  0.588029  0.981952  0.500000  1
  Ti  Ti2  1  0.014223  0.609954  0.500000  1
  Mn  Mn3  1  0.008478  0.255168  0.000000  1
  Cr  Cr4  1  0.245962  0.993271  0.000000  1
  Cr  Cr5  1  0.745831  0.754441  0.000000  1
  As  As6  1  0.669661  0.332459  0.000000  1
  P  P7  1  0.331550  0.663279  0.000000  1
  P  P8  1  0.999299  0.002967  0.500000  1
