# generated using pymatgen
data_Y8ReOsI8
_symmetry_space_group_name_H-M   'P 1'
_cell_length_a   11.47091491
_cell_length_b   11.47091636
_cell_length_c   6.18751703
_cell_angle_alpha   90.02515088
_cell_angle_beta   90.02516743
_cell_angle_gamma   88.65578164
_symmetry_Int_Tables_number   1
_chemical_formula_structural   Y8ReOsI8
_chemical_formula_sum   'Y8 Re1 Os1 I8'
_cell_volume   813.94107162
_cell_formula_units_Z   1
loop_
 _symmetry_equiv_pos_site_id
 _symmetry_equiv_pos_as_xyz
  1  'x, y, z'
loop_
 _atom_site_type_symbol
 _atom_site_label
 _atom_site_symmetry_multiplicity
 _atom_site_fract_x
 _atom_site_fract_y
 _atom_site_fract_z
 _atom_site_occupancy
  Y  Y0  1  0.801846  0.084295  0.999719  1
  Y  Y1  1  0.084325  0.801824  0.498374  1
  Y  Y2  1  0.077825  0.194676  0.000855  1
  Y  Y3  1  0.194632  0.077803  0.499576  1
  Y  Y4  1  0.922197  0.805368  0.000424  1
  Y  Y5  1  0.915705  0.198154  0.500281  1
  Y  Y6  1  0.198176  0.915675  0.001626  1
  Y  Y7  1  0.805324  0.922175  0.499145  1
  Re  Re8  1  0.999915  0.000085  0.250000  1
  Os  Os9  1  0.000081  0.999919  0.750000  1
  I  I10  1  0.644870  0.151693  0.508999  1
  I  I11  1  0.857957  0.649079  0.505347  1
  I  I12  1  0.350921  0.142043  0.994653  1
  I  I13  1  0.142034  0.350955  0.494956  1
  I  I14  1  0.649045  0.857966  0.005044  1
  I  I15  1  0.355175  0.848335  0.491470  1
  I  I16  1  0.151665  0.644825  0.008530  1
  I  I17  1  0.848307  0.355130  0.991001  1
