# generated using pymatgen
data_La3Tb2Sn10(IrPd)2
_symmetry_space_group_name_H-M   'P 1'
_cell_length_a   14.23695100
_cell_length_b   14.24557000
_cell_length_c   4.66266200
_cell_angle_alpha   90.00000000
_cell_angle_beta   90.00000000
_cell_angle_gamma   90.00000000
_symmetry_Int_Tables_number   1
_chemical_formula_structural   La3Tb2Sn10(IrPd)2
_chemical_formula_sum   'La6 Tb4 Sn20 Ir4 Pd4'
_cell_volume   945.65071588
_cell_formula_units_Z   2
loop_
 _symmetry_equiv_pos_site_id
 _symmetry_equiv_pos_as_xyz
  1  'x, y, z'
loop_
 _atom_site_type_symbol
 _atom_site_label
 _atom_site_symmetry_multiplicity
 _atom_site_fract_x
 _atom_site_fract_y
 _atom_site_fract_z
 _atom_site_occupancy
  La  La0  1  0.500000  0.500000  0.000000  1
  La  La1  1  0.000000  0.000000  0.000000  1
  La  La2  1  0.892290  0.389567  0.500000  1
  La  La3  1  0.107710  0.610433  0.500000  1
  La  La4  1  0.392290  0.110433  0.500000  1
  La  La5  1  0.607710  0.889567  0.500000  1
  Tb  Tb6  1  0.673385  0.180291  0.500000  1
  Tb  Tb7  1  0.326615  0.819709  0.500000  1
  Tb  Tb8  1  0.173385  0.319709  0.500000  1
  Tb  Tb9  1  0.826615  0.680291  0.500000  1
  Sn  Sn10  1  0.569042  0.070487  0.000000  1
  Sn  Sn11  1  0.430958  0.929513  0.000000  1
  Sn  Sn12  1  0.069042  0.429513  0.000000  1
  Sn  Sn13  1  0.930958  0.570487  0.000000  1
  Sn  Sn14  1  0.653292  0.703206  0.000000  1
  Sn  Sn15  1  0.346708  0.296794  0.000000  1
  Sn  Sn16  1  0.153292  0.796794  0.000000  1
  Sn  Sn17  1  0.846708  0.203206  0.000000  1
  Sn  Sn18  1  0.300833  0.653621  0.000000  1
  Sn  Sn19  1  0.699167  0.346379  0.000000  1
  Sn  Sn20  1  0.199167  0.153621  0.000000  1
  Sn  Sn21  1  0.800833  0.846379  0.000000  1
  Sn  Sn22  1  0.663920  0.505159  0.500000  1
  Sn  Sn23  1  0.336080  0.494841  0.500000  1
  Sn  Sn24  1  0.163920  0.994841  0.500000  1
  Sn  Sn25  1  0.836080  0.005159  0.500000  1
  Sn  Sn26  1  0.494848  0.662491  0.500000  1
  Sn  Sn27  1  0.505152  0.337509  0.500000  1
  Sn  Sn28  1  0.005152  0.162491  0.500000  1
  Sn  Sn29  1  0.994848  0.837509  0.500000  1
  Ir  Ir30  1  0.467305  0.745404  0.000000  1
  Ir  Ir31  1  0.532695  0.254596  0.000000  1
  Ir  Ir32  1  0.032695  0.245404  0.000000  1
  Ir  Ir33  1  0.967305  0.754596  0.000000  1
  Pd  Pd34  1  0.745814  0.532886  0.000000  1
  Pd  Pd35  1  0.254186  0.467114  0.000000  1
  Pd  Pd36  1  0.245814  0.967114  0.000000  1
  Pd  Pd37  1  0.754186  0.032886  0.000000  1
