# generated using pymatgen
data_Dy2Ho5Sn23Ru6
_symmetry_space_group_name_H-M   'P 1'
_cell_length_a   9.83843421
_cell_length_b   9.83843278
_cell_length_c   10.07548622
_cell_angle_alpha   89.93411829
_cell_angle_beta   90.06588253
_cell_angle_gamma   119.90222815
_symmetry_Int_Tables_number   1
_chemical_formula_structural   Dy2Ho5Sn23Ru6
_chemical_formula_sum   'Dy2 Ho5 Sn23 Ru6'
_cell_volume   845.42522325
_cell_formula_units_Z   1
loop_
 _symmetry_equiv_pos_site_id
 _symmetry_equiv_pos_as_xyz
  1  'x, y, z'
loop_
 _atom_site_type_symbol
 _atom_site_label
 _atom_site_symmetry_multiplicity
 _atom_site_fract_x
 _atom_site_fract_y
 _atom_site_fract_z
 _atom_site_occupancy
  Dy  Dy0  1  0.999994  0.000006  0.000006  1
  Dy  Dy1  1  0.515708  0.484292  0.696707  1
  Ho  Ho2  1  0.515556  0.030940  0.696978  1
  Ho  Ho3  1  0.969060  0.484444  0.696978  1
  Ho  Ho4  1  0.030928  0.515564  0.303021  1
  Ho  Ho5  1  0.484436  0.969072  0.303021  1
  Ho  Ho6  1  0.484471  0.515529  0.303169  1
  Sn  Sn7  1  0.666626  0.333374  0.178090  1
  Sn  Sn8  1  0.666733  0.333267  0.872131  1
  Sn  Sn9  1  0.333416  0.666584  0.128029  1
  Sn  Sn10  1  0.348945  0.348940  0.000062  1
  Sn  Sn11  1  0.999932  0.650807  0.999950  1
  Sn  Sn12  1  0.650807  0.999978  0.000105  1
  Sn  Sn13  1  0.651060  0.651055  0.000062  1
  Sn  Sn14  1  0.333327  0.666673  0.821958  1
  Sn  Sn15  1  0.439517  0.220043  0.462467  1
  Sn  Sn16  1  0.219921  0.780079  0.537500  1
  Sn  Sn17  1  0.219958  0.439541  0.537300  1
  Sn  Sn18  1  0.560459  0.780042  0.537300  1
  Sn  Sn19  1  0.118558  0.881442  0.273598  1
  Sn  Sn20  1  0.779957  0.560483  0.462467  1
  Sn  Sn21  1  0.780066  0.219934  0.462499  1
  Sn  Sn22  1  0.349193  0.000068  0.999950  1
  Sn  Sn23  1  0.118672  0.237031  0.273836  1
  Sn  Sn24  1  0.762969  0.881328  0.273836  1
  Sn  Sn25  1  0.236882  0.118493  0.726193  1
  Sn  Sn26  1  0.881507  0.763118  0.726193  1
  Sn  Sn27  1  0.881437  0.118563  0.726391  1
  Sn  Sn28  1  0.999993  0.000007  0.499990  1
  Sn  Sn29  1  0.000022  0.349193  0.000105  1
  Ru  Ru30  1  0.170024  0.829976  0.797521  1
  Ru  Ru31  1  0.169732  0.340158  0.797730  1
  Ru  Ru32  1  0.659842  0.830268  0.797730  1
  Ru  Ru33  1  0.340294  0.169993  0.202315  1
  Ru  Ru34  1  0.830007  0.659706  0.202315  1
  Ru  Ru35  1  0.829991  0.170009  0.202500  1
