# generated using pymatgen
data_Dy5Tm3Re3B24Os
_symmetry_space_group_name_H-M   'P 1'
_cell_length_a   3.66108000
_cell_length_b   9.14026257
_cell_length_c   11.52755001
_cell_angle_alpha   90.08093575
_cell_angle_beta   90.00000000
_cell_angle_gamma   90.00000000
_symmetry_Int_Tables_number   1
_chemical_formula_structural   Dy5Tm3Re3B24Os
_chemical_formula_sum   'Dy5 Tm3 Re3 B24 Os1'
_cell_volume   385.74870132
_cell_formula_units_Z   1
loop_
 _symmetry_equiv_pos_site_id
 _symmetry_equiv_pos_as_xyz
  1  'x, y, z'
loop_
 _atom_site_type_symbol
 _atom_site_label
 _atom_site_symmetry_multiplicity
 _atom_site_fract_x
 _atom_site_fract_y
 _atom_site_fract_z
 _atom_site_occupancy
  Dy  Dy0  1  0.000000  0.321548  0.414192  1
  Dy  Dy1  1  0.000000  0.677572  0.587857  1
  Dy  Dy2  1  0.000000  0.823884  0.084333  1
  Dy  Dy3  1  0.000000  0.177493  0.913541  1
  Dy  Dy4  1  0.000000  0.942420  0.370218  1
  Tm  Tm5  1  0.000000  0.056943  0.629942  1
  Tm  Tm6  1  0.000000  0.442624  0.129556  1
  Tm  Tm7  1  0.000000  0.557131  0.870870  1
  Re  Re8  1  0.000000  0.362069  0.678904  1
  Re  Re9  1  0.000000  0.139327  0.179565  1
  Re  Re10  1  0.000000  0.861441  0.820422  1
  B  B11  1  0.500000  0.553344  0.432641  1
  B  B12  1  0.500000  0.446900  0.567164  1
  B  B13  1  0.500000  0.053356  0.066799  1
  B  B14  1  0.500000  0.947009  0.932594  1
  B  B15  1  0.500000  0.747969  0.418231  1
  B  B16  1  0.500000  0.250111  0.581552  1
  B  B17  1  0.500000  0.250107  0.081415  1
  B  B18  1  0.500000  0.750650  0.918544  1
  B  B19  1  0.500000  0.790045  0.265272  1
  B  B20  1  0.500000  0.208133  0.734325  1
  B  B21  1  0.500000  0.292322  0.234641  1
  B  B22  1  0.500000  0.707883  0.765906  1
  B  B23  1  0.500000  0.630004  0.185304  1
  B  B24  1  0.500000  0.370364  0.814435  1
  B  B25  1  0.500000  0.131001  0.314705  1
  B  B26  1  0.500000  0.869714  0.685421  1
  B  B27  1  0.500000  0.982394  0.211607  1
  B  B28  1  0.500000  0.018307  0.787320  1
  B  B29  1  0.500000  0.482441  0.287566  1
  B  B30  1  0.500000  0.518716  0.712490  1
  B  B31  1  0.500000  0.600104  0.028333  1
  B  B32  1  0.500000  0.400232  0.972355  1
  B  B33  1  0.500000  0.100402  0.472684  1
  B  B34  1  0.500000  0.898935  0.528864  1
  Os  Os35  1  0.000000  0.637106  0.320429  1
