# generated using pymatgen
data_Hf13In3(Pd2N)4
_symmetry_space_group_name_H-M   'P 1'
_cell_length_a   8.73889382
_cell_length_b   8.74064938
_cell_length_c   8.73889300
_cell_angle_alpha   60.00664317
_cell_angle_beta   59.99999933
_cell_angle_gamma   60.00664558
_symmetry_Int_Tables_number   1
_chemical_formula_structural   Hf13In3(Pd2N)4
_chemical_formula_sum   'Hf13 In3 Pd8 N4'
_cell_volume   472.04694651
_cell_formula_units_Z   1
loop_
 _symmetry_equiv_pos_site_id
 _symmetry_equiv_pos_as_xyz
  1  'x, y, z'
loop_
 _atom_site_type_symbol
 _atom_site_label
 _atom_site_symmetry_multiplicity
 _atom_site_fract_x
 _atom_site_fract_y
 _atom_site_fract_z
 _atom_site_occupancy
  Hf  Hf0  1  0.625000  0.125000  0.625000  1
  Hf  Hf1  1  0.816131  0.817269  0.183300  1
  Hf  Hf2  1  0.181090  0.185671  0.816619  1
  Hf  Hf3  1  0.816619  0.185671  0.816619  1
  Hf  Hf4  1  0.183300  0.817269  0.183300  1
  Hf  Hf5  1  0.183300  0.817269  0.816131  1
  Hf  Hf6  1  0.816619  0.185671  0.181090  1
  Hf  Hf7  1  0.433869  0.432731  0.066700  1
  Hf  Hf8  1  0.068910  0.064329  0.433381  1
  Hf  Hf9  1  0.433381  0.064329  0.433381  1
  Hf  Hf10  1  0.066700  0.432731  0.066700  1
  Hf  Hf11  1  0.066700  0.432731  0.433869  1
  Hf  Hf12  1  0.433381  0.064329  0.068910  1
  In  In13  1  0.125000  0.625000  0.625000  1
  In  In14  1  0.625000  0.625000  0.125000  1
  In  In15  1  0.625000  0.625000  0.625000  1
  Pd  Pd16  1  0.775680  0.400642  0.411840  1
  Pd  Pd17  1  0.407558  0.777327  0.407558  1
  Pd  Pd18  1  0.411840  0.400642  0.775680  1
  Pd  Pd19  1  0.411840  0.400642  0.411840  1
  Pd  Pd20  1  0.474320  0.849358  0.838160  1
  Pd  Pd21  1  0.842442  0.472673  0.842442  1
  Pd  Pd22  1  0.838160  0.849358  0.474320  1
  Pd  Pd23  1  0.838160  0.849358  0.838160  1
  N  N24  1  0.625000  0.125000  0.125000  1
  N  N25  1  0.125000  0.625000  0.125000  1
  N  N26  1  0.125000  0.125000  0.625000  1
  N  N27  1  0.125000  0.125000  0.125000  1
