# generated using pymatgen
data_Hf4Zr6Sn6Sb
_symmetry_space_group_name_H-M   'P 1'
_cell_length_a   5.93476200
_cell_length_b   8.65200138
_cell_length_c   8.65203100
_cell_angle_alpha   119.99989387
_cell_angle_beta   89.99990792
_cell_angle_gamma   90.00017442
_symmetry_Int_Tables_number   1
_chemical_formula_structural   Hf4Zr6Sn6Sb
_chemical_formula_sum   'Hf4 Zr6 Sn6 Sb1'
_cell_volume   384.74151453
_cell_formula_units_Z   1
loop_
 _symmetry_equiv_pos_site_id
 _symmetry_equiv_pos_as_xyz
  1  'x, y, z'
loop_
 _atom_site_type_symbol
 _atom_site_label
 _atom_site_symmetry_multiplicity
 _atom_site_fract_x
 _atom_site_fract_y
 _atom_site_fract_z
 _atom_site_occupancy
  Hf  Hf0  1  0.499999  0.333331  0.666667  1
  Hf  Hf1  1  0.499999  0.666663  0.333333  1
  Hf  Hf2  1  0.999998  0.666663  0.333329  1
  Hf  Hf3  1  0.999998  0.333335  0.666671  1
  Zr  Zr4  1  0.770887  0.266273  0.000000  1
  Zr  Zr5  1  0.770890  0.733726  0.733727  1
  Zr  Zr6  1  0.770890  0.999997  0.266273  1
  Zr  Zr7  1  0.229105  0.733727  0.000000  1
  Zr  Zr8  1  0.229112  0.266278  0.266273  1
  Zr  Zr9  1  0.229112  0.000006  0.733727  1
  Sn  Sn10  1  0.743781  0.610737  0.000000  1
  Sn  Sn11  1  0.743789  0.389257  0.389256  1
  Sn  Sn12  1  0.743789  0.000000  0.610744  1
  Sn  Sn13  1  0.256213  0.389252  0.000000  1
  Sn  Sn14  1  0.256215  0.610741  0.610737  1
  Sn  Sn15  1  0.256215  0.000005  0.389263  1
  Sb  Sb16  1  0.500004  0.000012  0.000000  1
