# generated using pymatgen
data_Lu6Sc4Si5Pb
_symmetry_space_group_name_H-M   'P 1'
_cell_length_a   8.23406900
_cell_length_b   8.24882422
_cell_length_c   6.01030400
_cell_angle_alpha   90.00000000
_cell_angle_beta   90.00000000
_cell_angle_gamma   119.94084170
_symmetry_Int_Tables_number   1
_chemical_formula_structural   Lu6Sc4Si5Pb
_chemical_formula_sum   'Lu6 Sc4 Si5 Pb1'
_cell_volume   353.74654267
_cell_formula_units_Z   1
loop_
 _symmetry_equiv_pos_site_id
 _symmetry_equiv_pos_as_xyz
  1  'x, y, z'
loop_
 _atom_site_type_symbol
 _atom_site_label
 _atom_site_symmetry_multiplicity
 _atom_site_fract_x
 _atom_site_fract_y
 _atom_site_fract_z
 _atom_site_occupancy
  Lu  Lu0  1  0.986961  0.746443  0.750000  1
  Lu  Lu1  1  0.998334  0.243742  0.250000  1
  Lu  Lu2  1  0.754592  0.756258  0.250000  1
  Lu  Lu3  1  0.767646  0.000000  0.750000  1
  Lu  Lu4  1  0.240517  0.253557  0.750000  1
  Lu  Lu5  1  0.239392  0.000000  0.250000  1
  Sc  Sc6  1  0.331235  0.655318  0.495682  1
  Sc  Sc7  1  0.675919  0.344682  0.004318  1
  Sc  Sc8  1  0.675919  0.344682  0.495682  1
  Sc  Sc9  1  0.331235  0.655318  0.004318  1
  Si  Si10  1  0.396973  0.395296  0.250000  1
  Si  Si11  1  0.001677  0.604704  0.250000  1
  Si  Si12  1  0.997799  0.397513  0.750000  1
  Si  Si13  1  0.600286  0.602487  0.750000  1
  Si  Si14  1  0.602854  0.000000  0.250000  1
  Pb  Pb15  1  0.398661  0.000000  0.750000  1
