# generated using pymatgen
data_Yb4TlBi
_symmetry_space_group_name_H-M   'P 1'
_cell_length_a   5.29081100
_cell_length_b   7.51967900
_cell_length_c   9.79962000
_cell_angle_alpha   90.00000000
_cell_angle_beta   90.00000000
_cell_angle_gamma   90.00000000
_symmetry_Int_Tables_number   1
_chemical_formula_structural   Yb4TlBi
_chemical_formula_sum   'Yb8 Tl2 Bi2'
_cell_volume   389.87984525
_cell_formula_units_Z   2
loop_
 _symmetry_equiv_pos_site_id
 _symmetry_equiv_pos_as_xyz
  1  'x, y, z'
loop_
 _atom_site_type_symbol
 _atom_site_label
 _atom_site_symmetry_multiplicity
 _atom_site_fract_x
 _atom_site_fract_y
 _atom_site_fract_z
 _atom_site_occupancy
  Yb  Yb0  1  0.250000  0.822599  0.937921  1
  Yb  Yb1  1  0.250000  0.322599  0.562079  1
  Yb  Yb2  1  0.750000  0.167490  0.082387  1
  Yb  Yb3  1  0.750000  0.667490  0.417613  1
  Yb  Yb4  1  0.250000  0.981276  0.303999  1
  Yb  Yb5  1  0.250000  0.481276  0.196001  1
  Yb  Yb6  1  0.750000  0.027657  0.700425  1
  Yb  Yb7  1  0.750000  0.527657  0.799575  1
  Tl  Tl8  1  0.750000  0.737352  0.100015  1
  Tl  Tl9  1  0.750000  0.237352  0.399985  1
  Bi  Bi10  1  0.250000  0.263628  0.892919  1
  Bi  Bi11  1  0.250000  0.763628  0.607081  1
