# generated using pymatgen
data_Tb16MgIn3(RuPt)2
_symmetry_space_group_name_H-M   'P 1'
_cell_length_a   9.74284772
_cell_length_b   9.74388661
_cell_length_c   9.74039600
_cell_angle_alpha   60.01184286
_cell_angle_beta   60.00831713
_cell_angle_gamma   60.09098433
_symmetry_Int_Tables_number   1
_chemical_formula_structural   Tb16MgIn3(RuPt)2
_chemical_formula_sum   'Tb16 Mg1 In3 Ru2 Pt2'
_cell_volume   654.40066389
_cell_formula_units_Z   1
loop_
 _symmetry_equiv_pos_site_id
 _symmetry_equiv_pos_as_xyz
  1  'x, y, z'
loop_
 _atom_site_type_symbol
 _atom_site_label
 _atom_site_symmetry_multiplicity
 _atom_site_fract_x
 _atom_site_fract_y
 _atom_site_fract_z
 _atom_site_occupancy
  Tb  Tb0  1  0.599966  0.599507  0.594531  1
  Tb  Tb1  1  0.599966  0.599507  0.205996  1
  Tb  Tb2  1  0.605648  0.200868  0.596742  1
  Tb  Tb3  1  0.197765  0.605552  0.598342  1
  Tb  Tb4  1  0.052506  0.440827  0.442487  1
  Tb  Tb5  1  0.437654  0.055748  0.066496  1
  Tb  Tb6  1  0.437654  0.055748  0.440102  1
  Tb  Tb7  1  0.052506  0.440827  0.064180  1
  Tb  Tb8  1  0.438667  0.439700  0.060817  1
  Tb  Tb9  1  0.059647  0.059195  0.440579  1
  Tb  Tb10  1  0.188572  0.815427  0.809595  1
  Tb  Tb11  1  0.814772  0.188897  0.187701  1
  Tb  Tb12  1  0.814772  0.188897  0.808631  1
  Tb  Tb13  1  0.188572  0.815427  0.186405  1
  Tb  Tb14  1  0.812156  0.811016  0.188414  1
  Tb  Tb15  1  0.186623  0.186673  0.813352  1
  Mg  Mg16  1  0.520330  0.826666  0.826502  1
  In  In17  1  0.832415  0.833360  0.832965  1
  In  In18  1  0.832415  0.833360  0.501258  1
  In  In19  1  0.831591  0.503049  0.832679  1
  Ru  Ru20  1  0.389597  0.825121  0.392640  1
  Ru  Ru21  1  0.824991  0.391624  0.391693  1
  Pt  Pt22  1  0.390604  0.391502  0.393691  1
  Pt  Pt23  1  0.390604  0.391502  0.824202  1
