# generated using pymatgen
data_Dy16Er4PdRh11
_symmetry_space_group_name_H-M   'P 1'
_cell_length_a   10.87492303
_cell_length_b   10.87492283
_cell_length_c   6.33998100
_cell_angle_alpha   90.00422016
_cell_angle_beta   90.00422016
_cell_angle_gamma   90.02200143
_symmetry_Int_Tables_number   1
_chemical_formula_structural   Dy16Er4PdRh11
_chemical_formula_sum   'Dy16 Er4 Pd1 Rh11'
_cell_volume   749.79112866
_cell_formula_units_Z   1
loop_
 _symmetry_equiv_pos_site_id
 _symmetry_equiv_pos_as_xyz
  1  'x, y, z'
loop_
 _atom_site_type_symbol
 _atom_site_label
 _atom_site_symmetry_multiplicity
 _atom_site_fract_x
 _atom_site_fract_y
 _atom_site_fract_z
 _atom_site_occupancy
  Dy  Dy0  1  0.290261  0.090018  0.378554  1
  Dy  Dy1  1  0.289758  0.915740  0.878516  1
  Dy  Dy2  1  0.709732  0.089434  0.878689  1
  Dy  Dy3  1  0.710002  0.911225  0.379073  1
  Dy  Dy4  1  0.592928  0.791773  0.879922  1
  Dy  Dy5  1  0.589238  0.208851  0.377409  1
  Dy  Dy6  1  0.412988  0.792977  0.372326  1
  Dy  Dy7  1  0.410782  0.210655  0.878341  1
  Dy  Dy8  1  0.208227  0.407072  0.620078  1
  Dy  Dy9  1  0.207023  0.587012  0.127674  1
  Dy  Dy10  1  0.791149  0.410762  0.122591  1
  Dy  Dy11  1  0.789345  0.589218  0.621659  1
  Dy  Dy12  1  0.909982  0.709739  0.121446  1
  Dy  Dy13  1  0.910566  0.290268  0.621311  1
  Dy  Dy14  1  0.084260  0.710242  0.621484  1
  Dy  Dy15  1  0.088775  0.289998  0.120927  1
  Er  Er16  1  0.000204  0.000440  0.499379  1
  Er  Er17  1  0.999560  0.999796  0.000621  1
  Er  Er18  1  0.502286  0.498065  0.000436  1
  Er  Er19  1  0.501935  0.497714  0.499564  1
  Pd  Pd20  1  0.346505  0.653495  0.750000  1
  Rh  Rh21  1  0.846909  0.153091  0.250000  1
  Rh  Rh22  1  0.847305  0.847036  0.749577  1
  Rh  Rh23  1  0.152964  0.152695  0.750423  1
  Rh  Rh24  1  0.154361  0.845639  0.250000  1
  Rh  Rh25  1  0.654272  0.345728  0.750000  1
  Rh  Rh26  1  0.652124  0.653320  0.249440  1
  Rh  Rh27  1  0.346680  0.347876  0.250560  1
  Rh  Rh28  1  0.499594  0.000031  0.122977  1
  Rh  Rh29  1  0.499960  0.999648  0.625075  1
  Rh  Rh30  1  0.000352  0.500040  0.874925  1
  Rh  Rh31  1  0.999969  0.500406  0.377023  1
