# generated using pymatgen
data_Ta7Nb5Cr4(Co2N)4
_symmetry_space_group_name_H-M   'P 1'
_cell_length_a   8.00726620
_cell_length_b   8.01304628
_cell_length_c   8.01304685
_cell_angle_alpha   60.03715735
_cell_angle_beta   60.02386205
_cell_angle_gamma   60.02386449
_symmetry_Int_Tables_number   1
_chemical_formula_structural   Ta7Nb5Cr4(Co2N)4
_chemical_formula_sum   'Ta7 Nb5 Cr4 Co8 N4'
_cell_volume   363.78354549
_cell_formula_units_Z   1
loop_
 _symmetry_equiv_pos_site_id
 _symmetry_equiv_pos_as_xyz
  1  'x, y, z'
loop_
 _atom_site_type_symbol
 _atom_site_label
 _atom_site_symmetry_multiplicity
 _atom_site_fract_x
 _atom_site_fract_y
 _atom_site_fract_z
 _atom_site_occupancy
  Ta  Ta0  1  0.803505  0.196495  0.196495  1
  Ta  Ta1  1  0.445907  0.446677  0.053541  1
  Ta  Ta2  1  0.053875  0.053541  0.446677  1
  Ta  Ta3  1  0.445907  0.053541  0.446677  1
  Ta  Ta4  1  0.053875  0.446677  0.053541  1
  Ta  Ta5  1  0.053940  0.446060  0.446060  1
  Ta  Ta6  1  0.446152  0.053848  0.053848  1
  Nb  Nb7  1  0.803557  0.803271  0.196768  1
  Nb  Nb8  1  0.196404  0.196768  0.803271  1
  Nb  Nb9  1  0.803557  0.196768  0.803271  1
  Nb  Nb10  1  0.196404  0.803271  0.196768  1
  Nb  Nb11  1  0.196557  0.803443  0.803443  1
  Cr  Cr12  1  0.124519  0.625221  0.625221  1
  Cr  Cr13  1  0.625427  0.124155  0.624991  1
  Cr  Cr14  1  0.625427  0.624991  0.124155  1
  Cr  Cr15  1  0.625040  0.625221  0.625221  1
  Co  Co16  1  0.728368  0.423533  0.423533  1
  Co  Co17  1  0.424004  0.728060  0.423931  1
  Co  Co18  1  0.424004  0.423931  0.728060  1
  Co  Co19  1  0.424565  0.423533  0.423533  1
  Co  Co20  1  0.523135  0.825584  0.825584  1
  Co  Co21  1  0.825587  0.522591  0.826237  1
  Co  Co22  1  0.825587  0.826237  0.522591  1
  Co  Co23  1  0.825698  0.825584  0.825584  1
  N  N24  1  0.622828  0.126507  0.126507  1
  N  N25  1  0.126009  0.621813  0.126169  1
  N  N26  1  0.126009  0.126169  0.621813  1
  N  N27  1  0.124158  0.126507  0.126507  1
