# generated using pymatgen
data_Rb4Sr2HfBi4
_symmetry_space_group_name_H-M   'P 1'
_cell_length_a   11.41988688
_cell_length_b   11.41988606
_cell_length_c   8.59111500
_cell_angle_alpha   88.60042504
_cell_angle_beta   88.60042514
_cell_angle_gamma   60.46443316
_symmetry_Int_Tables_number   1
_chemical_formula_structural   Rb4Sr2HfBi4
_chemical_formula_sum   'Rb8 Sr4 Hf2 Bi8'
_cell_volume   974.41426973
_cell_formula_units_Z   2
loop_
 _symmetry_equiv_pos_site_id
 _symmetry_equiv_pos_as_xyz
  1  'x, y, z'
loop_
 _atom_site_type_symbol
 _atom_site_label
 _atom_site_symmetry_multiplicity
 _atom_site_fract_x
 _atom_site_fract_y
 _atom_site_fract_z
 _atom_site_occupancy
  Rb  Rb0  1  0.944923  0.527584  0.373279  1
  Rb  Rb1  1  0.527584  0.944923  0.373279  1
  Rb  Rb2  1  0.721670  0.133015  0.187418  1
  Rb  Rb3  1  0.133015  0.721670  0.187418  1
  Rb  Rb4  1  0.141206  0.141206  0.204220  1
  Rb  Rb5  1  0.275020  0.865607  0.688542  1
  Rb  Rb6  1  0.865607  0.275020  0.688542  1
  Rb  Rb7  1  0.855687  0.855687  0.651027  1
  Sr  Sr8  1  0.528727  0.528727  0.371229  1
  Sr  Sr9  1  0.056407  0.475998  0.876609  1
  Sr  Sr10  1  0.475998  0.056407  0.876609  1
  Sr  Sr11  1  0.477502  0.477502  0.868661  1
  Hf  Hf12  1  0.335869  0.335869  0.489189  1
  Hf  Hf13  1  0.663947  0.663947  0.981222  1
  Bi  Bi14  1  0.391389  0.797193  0.095581  1
  Bi  Bi15  1  0.797193  0.391389  0.095581  1
  Bi  Bi16  1  0.804502  0.804502  0.056141  1
  Bi  Bi17  1  0.603353  0.208904  0.606603  1
  Bi  Bi18  1  0.208904  0.603353  0.606603  1
  Bi  Bi19  1  0.203103  0.203103  0.630494  1
  Bi  Bi20  1  0.336939  0.336939  0.143517  1
  Bi  Bi21  1  0.652071  0.652071  0.651051  1
