# generated using pymatgen
data_Dy5Er3(ReB6)4
_symmetry_space_group_name_H-M   'P 1'
_cell_length_a   3.67325500
_cell_length_b   9.15800402
_cell_length_c   11.54433400
_cell_angle_alpha   90.00483025
_cell_angle_beta   90.00000000
_cell_angle_gamma   90.00000000
_symmetry_Int_Tables_number   1
_chemical_formula_structural   Dy5Er3(ReB6)4
_chemical_formula_sum   'Dy5 Er3 Re4 B24'
_cell_volume   388.34774698
_cell_formula_units_Z   1
loop_
 _symmetry_equiv_pos_site_id
 _symmetry_equiv_pos_as_xyz
  1  'x, y, z'
loop_
 _atom_site_type_symbol
 _atom_site_label
 _atom_site_symmetry_multiplicity
 _atom_site_fract_x
 _atom_site_fract_y
 _atom_site_fract_z
 _atom_site_occupancy
  Dy  Dy0  1  0.000000  0.323162  0.413990  1
  Dy  Dy1  1  0.000000  0.676705  0.586156  1
  Dy  Dy2  1  0.000000  0.823092  0.085898  1
  Dy  Dy3  1  0.000000  0.176970  0.913889  1
  Dy  Dy4  1  0.000000  0.942782  0.370310  1
  Er  Er5  1  0.000000  0.057418  0.630320  1
  Er  Er6  1  0.000000  0.442720  0.129762  1
  Er  Er7  1  0.000000  0.557329  0.870054  1
  Re  Re8  1  0.000000  0.637623  0.320459  1
  Re  Re9  1  0.000000  0.361765  0.679644  1
  Re  Re10  1  0.000000  0.138642  0.179036  1
  Re  Re11  1  0.000000  0.861736  0.820664  1
  B  B12  1  0.500000  0.552731  0.432791  1
  B  B13  1  0.500000  0.446776  0.567314  1
  B  B14  1  0.500000  0.053261  0.066986  1
  B  B15  1  0.500000  0.946892  0.932754  1
  B  B16  1  0.500000  0.748426  0.418356  1
  B  B17  1  0.500000  0.250761  0.581755  1
  B  B18  1  0.500000  0.249477  0.081469  1
  B  B19  1  0.500000  0.750696  0.918371  1
  B  B20  1  0.500000  0.791191  0.265234  1
  B  B21  1  0.500000  0.208243  0.734642  1
  B  B22  1  0.500000  0.292077  0.234369  1
  B  B23  1  0.500000  0.708190  0.765505  1
  B  B24  1  0.500000  0.629815  0.185222  1
  B  B25  1  0.500000  0.370026  0.814643  1
  B  B26  1  0.500000  0.130674  0.314242  1
  B  B27  1  0.500000  0.869921  0.685533  1
  B  B28  1  0.500000  0.981987  0.211710  1
  B  B29  1  0.500000  0.018363  0.787898  1
  B  B30  1  0.500000  0.481419  0.287690  1
  B  B31  1  0.500000  0.518412  0.712205  1
  B  B32  1  0.500000  0.598987  0.027665  1
  B  B33  1  0.500000  0.401111  0.972200  1
  B  B34  1  0.500000  0.099948  0.472740  1
  B  B35  1  0.500000  0.900669  0.528523  1
