# generated using pymatgen
data_NdHo2Rh9
_symmetry_space_group_name_H-M   'P 1'
_cell_length_a   5.28776400
_cell_length_b   5.28776454
_cell_length_c   17.50113600
_cell_angle_alpha   90.00000000
_cell_angle_beta   90.00000000
_cell_angle_gamma   120.00000913
_symmetry_Int_Tables_number   1
_chemical_formula_structural   NdHo2Rh9
_chemical_formula_sum   'Nd2 Ho4 Rh18'
_cell_volume   423.78053348
_cell_formula_units_Z   2
loop_
 _symmetry_equiv_pos_site_id
 _symmetry_equiv_pos_as_xyz
  1  'x, y, z'
loop_
 _atom_site_type_symbol
 _atom_site_label
 _atom_site_symmetry_multiplicity
 _atom_site_fract_x
 _atom_site_fract_y
 _atom_site_fract_z
 _atom_site_occupancy
  Nd  Nd0  1  0.333333  0.666667  0.750000  1
  Nd  Nd1  1  0.666667  0.333333  0.250000  1
  Ho  Ho2  1  0.333333  0.666667  0.541600  1
  Ho  Ho3  1  0.666667  0.333333  0.041600  1
  Ho  Ho4  1  0.666667  0.333333  0.458400  1
  Ho  Ho5  1  0.333333  0.666667  0.958400  1
  Rh  Rh6  1  0.167333  0.334667  0.125191  1
  Rh  Rh7  1  0.832667  0.665333  0.625191  1
  Rh  Rh8  1  0.665333  0.832667  0.125191  1
  Rh  Rh9  1  0.167333  0.832667  0.125191  1
  Rh  Rh10  1  0.832667  0.167333  0.625191  1
  Rh  Rh11  1  0.334667  0.167333  0.625191  1
  Rh  Rh12  1  0.832667  0.665333  0.874809  1
  Rh  Rh13  1  0.832667  0.167333  0.874809  1
  Rh  Rh14  1  0.334667  0.167333  0.874809  1
  Rh  Rh15  1  0.665333  0.832667  0.374809  1
  Rh  Rh16  1  0.167333  0.832667  0.374809  1
  Rh  Rh17  1  0.167333  0.334667  0.374809  1
  Rh  Rh18  1  0.000000  0.000000  0.250000  1
  Rh  Rh19  1  0.000000  0.000000  0.750000  1
  Rh  Rh20  1  0.333333  0.666667  0.250000  1
  Rh  Rh21  1  0.666667  0.333333  0.750000  1
  Rh  Rh22  1  0.000000  0.000000  0.000000  1
  Rh  Rh23  1  0.000000  0.000000  0.500000  1
