# generated using pymatgen
data_Ba2InReN4
_symmetry_space_group_name_H-M   'P 1'
_cell_length_a   5.99580800
_cell_length_b   6.85079932
_cell_length_c   8.30141410
_cell_angle_alpha   88.99581864
_cell_angle_beta   90.00000000
_cell_angle_gamma   90.00000000
_symmetry_Int_Tables_number   1
_chemical_formula_structural   Ba2InReN4
_chemical_formula_sum   'Ba4 In2 Re2 N8'
_cell_volume   340.93715805
_cell_formula_units_Z   2
loop_
 _symmetry_equiv_pos_site_id
 _symmetry_equiv_pos_as_xyz
  1  'x, y, z'
loop_
 _atom_site_type_symbol
 _atom_site_label
 _atom_site_symmetry_multiplicity
 _atom_site_fract_x
 _atom_site_fract_y
 _atom_site_fract_z
 _atom_site_occupancy
  Ba  Ba0  1  0.250000  0.249377  0.071594  1
  Ba  Ba1  1  0.750000  0.750623  0.928406  1
  Ba  Ba2  1  0.750000  0.872063  0.382529  1
  Ba  Ba3  1  0.250000  0.127937  0.617471  1
  In  In4  1  0.750000  0.370026  0.279866  1
  In  In5  1  0.250000  0.629974  0.720134  1
  Re  Re6  1  0.250000  0.750624  0.170121  1
  Re  Re7  1  0.750000  0.249376  0.829879  1
  N  N8  1  0.496632  0.395990  0.801221  1
  N  N9  1  0.996632  0.604010  0.198779  1
  N  N10  1  0.503368  0.604010  0.198779  1
  N  N11  1  0.003368  0.395990  0.801221  1
  N  N12  1  0.750000  0.043668  0.692333  1
  N  N13  1  0.250000  0.956332  0.307667  1
  N  N14  1  0.750000  0.152433  0.039671  1
  N  N15  1  0.250000  0.847567  0.960329  1
