# generated using pymatgen
data_CoSe29
_symmetry_space_group_name_H-M   'P 1'
_cell_length_a   7.50130961
_cell_length_b   9.74897756
_cell_length_c   11.62228060
_cell_angle_alpha   74.47618058
_cell_angle_beta   80.54322573
_cell_angle_gamma   67.50213416
_symmetry_Int_Tables_number   1
_chemical_formula_structural   CoSe29
_chemical_formula_sum   'Co1 Se29'
_cell_volume   754.77542478
_cell_formula_units_Z   1
loop_
 _symmetry_equiv_pos_site_id
 _symmetry_equiv_pos_as_xyz
  1  'x, y, z'
loop_
 _atom_site_type_symbol
 _atom_site_label
 _atom_site_symmetry_multiplicity
 _atom_site_fract_x
 _atom_site_fract_y
 _atom_site_fract_z
 _atom_site_occupancy
  Co  Co0  1  0.000000  0.000000  0.000000  1
  Se  Se1  1  0.500000  0.000000  0.000000  1
  Se  Se2  1  0.100432  0.197304  0.199179  1
  Se  Se3  1  0.699334  0.403202  0.397597  1
  Se  Se4  1  0.300666  0.596798  0.602403  1
  Se  Se5  1  0.602972  0.197399  0.199089  1
  Se  Se6  1  0.899568  0.802696  0.800821  1
  Se  Se7  1  0.200819  0.397936  0.399628  1
  Se  Se8  1  0.799181  0.602064  0.600372  1
  Se  Se9  1  0.397028  0.802601  0.800911  1
  Se  Se10  1  0.225222  0.076128  0.848503  1
  Se  Se11  1  0.648083  0.715881  0.968866  1
  Se  Se12  1  0.866077  0.255573  0.029008  1
  Se  Se13  1  0.223919  0.923559  0.151287  1
  Se  Se14  1  0.451657  0.486673  0.231217  1
  Se  Se15  1  0.776081  0.076441  0.848713  1
  Se  Se16  1  0.851927  0.112808  0.366872  1
  Se  Se17  1  0.133923  0.744427  0.970992  1
  Se  Se18  1  0.051468  0.682572  0.431644  1
  Se  Se19  1  0.351917  0.284119  0.031134  1
  Se  Se20  1  0.774778  0.923872  0.151497  1
  Se  Se21  1  0.449636  0.315482  0.568072  1
  Se  Se22  1  0.647536  0.891165  0.630079  1
  Se  Se23  1  0.949544  0.485883  0.230906  1
  Se  Se24  1  0.050456  0.514117  0.769094  1
  Se  Se25  1  0.352464  0.108835  0.369921  1
  Se  Se26  1  0.550364  0.684518  0.431928  1
  Se  Se27  1  0.948532  0.317428  0.568356  1
  Se  Se28  1  0.148073  0.887192  0.633128  1
  Se  Se29  1  0.548343  0.513327  0.768783  1
