# generated using pymatgen
data_Li(DyP)2
_symmetry_space_group_name_H-M   'P 1'
_cell_length_a   4.05203100
_cell_length_b   4.05203144
_cell_length_c   13.87547200
_cell_angle_alpha   90.00000000
_cell_angle_beta   90.00000000
_cell_angle_gamma   120.00000459
_symmetry_Int_Tables_number   1
_chemical_formula_structural   Li(DyP)2
_chemical_formula_sum   'Li2 Dy4 P4'
_cell_volume   197.29857224
_cell_formula_units_Z   2
loop_
 _symmetry_equiv_pos_site_id
 _symmetry_equiv_pos_as_xyz
  1  'x, y, z'
loop_
 _atom_site_type_symbol
 _atom_site_label
 _atom_site_symmetry_multiplicity
 _atom_site_fract_x
 _atom_site_fract_y
 _atom_site_fract_z
 _atom_site_occupancy
  Li  Li0  1  0.000000  0.000000  0.250000  1
  Li  Li1  1  0.000000  0.000000  0.750000  1
  Dy  Dy2  1  0.333333  0.666667  0.389890  1
  Dy  Dy3  1  0.666667  0.333333  0.610110  1
  Dy  Dy4  1  0.666667  0.333333  0.889890  1
  Dy  Dy5  1  0.333333  0.666667  0.110110  1
  P  P6  1  0.000000  0.000000  0.500000  1
  P  P7  1  0.000000  0.000000  0.000000  1
  P  P8  1  0.333333  0.666667  0.750000  1
  P  P9  1  0.666667  0.333333  0.250000  1
