# generated using pymatgen
data_Gd10Os2I15
_symmetry_space_group_name_H-M   'P 1'
_cell_length_a   9.80489763
_cell_length_b   10.72220720
_cell_length_c   11.41012200
_cell_angle_alpha   92.50687257
_cell_angle_beta   113.99390324
_cell_angle_gamma   110.53438582
_symmetry_Int_Tables_number   1
_chemical_formula_structural   Gd10Os2I15
_chemical_formula_sum   'Gd10 Os2 I15'
_cell_volume   1001.61477629
_cell_formula_units_Z   1
loop_
 _symmetry_equiv_pos_site_id
 _symmetry_equiv_pos_as_xyz
  1  'x, y, z'
loop_
 _atom_site_type_symbol
 _atom_site_label
 _atom_site_symmetry_multiplicity
 _atom_site_fract_x
 _atom_site_fract_y
 _atom_site_fract_z
 _atom_site_occupancy
  Gd  Gd0  1  0.236094  0.579920  0.051580  1
  Gd  Gd1  1  0.763906  0.420080  0.948420  1
  Gd  Gd2  1  0.292669  0.900024  0.273654  1
  Gd  Gd3  1  0.707331  0.099976  0.726346  1
  Gd  Gd4  1  0.085790  0.549206  0.325111  1
  Gd  Gd5  1  0.914210  0.450794  0.674889  1
  Gd  Gd6  1  0.832949  0.752001  0.181659  1
  Gd  Gd7  1  0.167051  0.247999  0.818341  1
  Gd  Gd8  1  0.974535  0.791193  0.908102  1
  Gd  Gd9  1  0.025465  0.208807  0.091898  1
  Os  Os10  1  0.029770  0.668537  0.113859  1
  Os  Os11  1  0.970230  0.331463  0.886141  1
  I  I12  1  0.340847  0.444911  0.303954  1
  I  I13  1  0.659153  0.555089  0.696046  1
  I  I14  1  0.211989  0.738689  0.815325  1
  I  I15  1  0.788011  0.261311  0.184675  1
  I  I16  1  0.144710  0.386444  0.580112  1
  I  I17  1  0.855290  0.613556  0.419888  1
  I  I18  1  0.390897  0.802360  0.535366  1
  I  I19  1  0.609103  0.197640  0.464634  1
  I  I20  1  0.266633  0.088822  0.056143  1
  I  I21  1  0.733367  0.911178  0.943857  1
  I  I22  1  0.567545  0.847778  0.229705  1
  I  I23  1  0.432455  0.152222  0.770295  1
  I  I24  1  0.093267  0.044138  0.341692  1
  I  I25  1  0.906733  0.955862  0.658308  1
  I  I26  1  0.500000  0.500000  0.000000  1
