# generated using pymatgen
data_TbNdEr2(Ir2O7)2
_symmetry_space_group_name_H-M   'P 1'
_cell_length_a   7.30784359
_cell_length_b   7.24180392
_cell_length_c   7.24180312
_cell_angle_alpha   59.88676542
_cell_angle_beta   60.18904800
_cell_angle_gamma   60.18905242
_symmetry_Int_Tables_number   1
_chemical_formula_structural   TbNdEr2(Ir2O7)2
_chemical_formula_sum   'Tb1 Nd1 Er2 Ir4 O14'
_cell_volume   271.53616791
_cell_formula_units_Z   1
loop_
 _symmetry_equiv_pos_site_id
 _symmetry_equiv_pos_as_xyz
  1  'x, y, z'
loop_
 _atom_site_type_symbol
 _atom_site_label
 _atom_site_symmetry_multiplicity
 _atom_site_fract_x
 _atom_site_fract_y
 _atom_site_fract_z
 _atom_site_occupancy
  Tb  Tb0  1  0.125000  0.125000  0.125000  1
  Nd  Nd1  1  0.625000  0.125000  0.125000  1
  Er  Er2  1  0.125000  0.625000  0.125000  1
  Er  Er3  1  0.125000  0.125000  0.625000  1
  Ir  Ir4  1  0.125000  0.625000  0.625000  1
  Ir  Ir5  1  0.625000  0.125000  0.625000  1
  Ir  Ir6  1  0.625000  0.625000  0.125000  1
  Ir  Ir7  1  0.625000  0.625000  0.625000  1
  O  O8  1  0.722565  0.701113  0.288124  1
  O  O9  1  0.288054  0.288781  0.708783  1
  O  O10  1  0.722565  0.288124  0.701113  1
  O  O11  1  0.288054  0.708783  0.288781  1
  O  O12  1  0.288032  0.711488  0.711488  1
  O  O13  1  0.719664  0.288124  0.288124  1
  O  O14  1  0.527435  0.548887  0.961876  1
  O  O15  1  0.961946  0.961219  0.541217  1
  O  O16  1  0.527435  0.961876  0.548887  1
  O  O17  1  0.961946  0.541217  0.961219  1
  O  O18  1  0.961968  0.538512  0.538512  1
  O  O19  1  0.530336  0.961876  0.961876  1
  O  O20  1  0.239606  0.255183  0.255183  1
  O  O21  1  0.010394  0.994817  0.994817  1
