# generated using pymatgen
data_DyHo3Mg3ZnIr4
_symmetry_space_group_name_H-M   'P 1'
_cell_length_a   4.07556400
_cell_length_b   7.02947074
_cell_length_c   8.43288500
_cell_angle_alpha   89.85247355
_cell_angle_beta   90.00000000
_cell_angle_gamma   90.00000000
_symmetry_Int_Tables_number   1
_chemical_formula_structural   DyHo3Mg3ZnIr4
_chemical_formula_sum   'Dy1 Ho3 Mg3 Zn1 Ir4'
_cell_volume   241.59340964
_cell_formula_units_Z   1
loop_
 _symmetry_equiv_pos_site_id
 _symmetry_equiv_pos_as_xyz
  1  'x, y, z'
loop_
 _atom_site_type_symbol
 _atom_site_label
 _atom_site_symmetry_multiplicity
 _atom_site_fract_x
 _atom_site_fract_y
 _atom_site_fract_z
 _atom_site_occupancy
  Dy  Dy0  1  0.250000  0.535824  0.180948  1
  Ho  Ho1  1  0.750000  0.458378  0.821992  1
  Ho  Ho2  1  0.250000  0.047032  0.328637  1
  Ho  Ho3  1  0.750000  0.962481  0.673635  1
  Mg  Mg4  1  0.250000  0.135792  0.938514  1
  Mg  Mg5  1  0.750000  0.863822  0.060947  1
  Mg  Mg6  1  0.250000  0.631365  0.557108  1
  Zn  Zn7  1  0.750000  0.365773  0.438230  1
  Ir  Ir8  1  0.750000  0.747827  0.372478  1
  Ir  Ir9  1  0.250000  0.254454  0.625549  1
  Ir  Ir10  1  0.750000  0.248166  0.132351  1
  Ir  Ir11  1  0.250000  0.749086  0.869612  1
