# generated using pymatgen
data_Er4(CuPd3)3
_symmetry_space_group_name_H-M   'P 1'
_cell_length_a   7.05000747
_cell_length_b   7.05103195
_cell_length_c   7.05000689
_cell_angle_alpha   108.20038297
_cell_angle_beta   108.39726995
_cell_angle_gamma   111.83627501
_symmetry_Int_Tables_number   1
_chemical_formula_structural   Er4(CuPd3)3
_chemical_formula_sum   'Er4 Cu3 Pd9'
_cell_volume   269.45251154
_cell_formula_units_Z   1
loop_
 _symmetry_equiv_pos_site_id
 _symmetry_equiv_pos_as_xyz
  1  'x, y, z'
loop_
 _atom_site_type_symbol
 _atom_site_label
 _atom_site_symmetry_multiplicity
 _atom_site_fract_x
 _atom_site_fract_y
 _atom_site_fract_z
 _atom_site_occupancy
  Er  Er0  1  0.244682  0.244619  0.489324  1
  Er  Er1  1  0.755318  0.755381  0.510676  1
  Er  Er2  1  0.244704  0.755381  0.000064  1
  Er  Er3  1  0.755296  0.244619  0.999936  1
  Cu  Cu4  1  0.500000  0.000000  0.500000  1
  Cu  Cu5  1  0.000000  0.500000  0.500000  1
  Cu  Cu6  1  0.500000  0.500000  0.000000  1
  Pd  Pd7  1  0.510092  0.258165  0.251925  1
  Pd  Pd8  1  0.489908  0.741835  0.748075  1
  Pd  Pd9  1  0.006241  0.258165  0.748074  1
  Pd  Pd10  1  0.258153  0.006243  0.748089  1
  Pd  Pd11  1  0.993759  0.741835  0.251926  1
  Pd  Pd12  1  0.741847  0.993757  0.251911  1
  Pd  Pd13  1  0.258160  0.510074  0.251913  1
  Pd  Pd14  1  0.741840  0.489926  0.748087  1
  Pd  Pd15  1  0.000000  0.000000  0.000000  1
