# generated using pymatgen
data_Tm10AlSnSb4
_symmetry_space_group_name_H-M   'P 1'
_cell_length_a   8.78752600
_cell_length_b   8.82737513
_cell_length_c   6.31926400
_cell_angle_alpha   90.00000000
_cell_angle_beta   90.00000000
_cell_angle_gamma   119.85078125
_symmetry_Int_Tables_number   1
_chemical_formula_structural   Tm10AlSnSb4
_chemical_formula_sum   'Tm10 Al1 Sn1 Sb4'
_cell_volume   425.15412008
_cell_formula_units_Z   1
loop_
 _symmetry_equiv_pos_site_id
 _symmetry_equiv_pos_as_xyz
  1  'x, y, z'
loop_
 _atom_site_type_symbol
 _atom_site_label
 _atom_site_symmetry_multiplicity
 _atom_site_fract_x
 _atom_site_fract_y
 _atom_site_fract_z
 _atom_site_occupancy
  Tm  Tm0  1  0.339190  0.674528  0.001686  1
  Tm  Tm1  1  0.664663  0.325472  0.498314  1
  Tm  Tm2  1  0.664663  0.325472  0.001686  1
  Tm  Tm3  1  0.339190  0.674528  0.498314  1
  Tm  Tm4  1  0.244043  0.000000  0.250000  1
  Tm  Tm5  1  0.760667  0.000000  0.750000  1
  Tm  Tm6  1  0.987379  0.233702  0.250000  1
  Tm  Tm7  1  0.753677  0.766298  0.250000  1
  Tm  Tm8  1  0.244329  0.240243  0.750000  1
  Tm  Tm9  1  0.004086  0.759757  0.750000  1
  Al  Al10  1  0.601285  0.000000  0.250000  1
  Sn  Sn11  1  0.397394  0.000000  0.750000  1
  Sb  Sb12  1  0.997508  0.610118  0.250000  1
  Sb  Sb13  1  0.387390  0.389882  0.250000  1
  Sb  Sb14  1  0.611140  0.607748  0.750000  1
  Sb  Sb15  1  0.003393  0.392252  0.750000  1
