# generated using pymatgen
data_Nd2Lu4(CuIr5)3
_symmetry_space_group_name_H-M   'P 1'
_cell_length_a   5.29661900
_cell_length_b   5.29661822
_cell_length_c   16.98863800
_cell_angle_alpha   90.00000000
_cell_angle_beta   90.00000000
_cell_angle_gamma   119.99999861
_symmetry_Int_Tables_number   1
_chemical_formula_structural   Nd2Lu4(CuIr5)3
_chemical_formula_sum   'Nd2 Lu4 Cu3 Ir15'
_cell_volume   412.74954639
_cell_formula_units_Z   1
loop_
 _symmetry_equiv_pos_site_id
 _symmetry_equiv_pos_as_xyz
  1  'x, y, z'
loop_
 _atom_site_type_symbol
 _atom_site_label
 _atom_site_symmetry_multiplicity
 _atom_site_fract_x
 _atom_site_fract_y
 _atom_site_fract_z
 _atom_site_occupancy
  Nd  Nd0  1  0.333333  0.666667  0.750000  1
  Nd  Nd1  1  0.666667  0.333333  0.250000  1
  Lu  Lu2  1  0.333333  0.666667  0.537609  1
  Lu  Lu3  1  0.666667  0.333333  0.037911  1
  Lu  Lu4  1  0.666667  0.333333  0.462089  1
  Lu  Lu5  1  0.333333  0.666667  0.962391  1
  Cu  Cu6  1  0.000000  0.000000  0.250000  1
  Cu  Cu7  1  0.000000  0.000000  0.750000  1
  Cu  Cu8  1  0.333333  0.666667  0.250000  1
  Ir  Ir9  1  0.169643  0.339286  0.126096  1
  Ir  Ir10  1  0.832564  0.665129  0.623180  1
  Ir  Ir11  1  0.660714  0.830357  0.126096  1
  Ir  Ir12  1  0.169643  0.830357  0.126096  1
  Ir  Ir13  1  0.832564  0.167436  0.623180  1
  Ir  Ir14  1  0.334871  0.167436  0.623180  1
  Ir  Ir15  1  0.832564  0.665129  0.876820  1
  Ir  Ir16  1  0.832564  0.167436  0.876820  1
  Ir  Ir17  1  0.334871  0.167436  0.876820  1
  Ir  Ir18  1  0.660714  0.830357  0.373904  1
  Ir  Ir19  1  0.169643  0.830357  0.373904  1
  Ir  Ir20  1  0.169643  0.339286  0.373904  1
  Ir  Ir21  1  0.666667  0.333333  0.750000  1
  Ir  Ir22  1  0.000000  0.000000  0.003593  1
  Ir  Ir23  1  0.000000  0.000000  0.496407  1
