# generated using pymatgen
data_Ho2Tm4FeBi2
_symmetry_space_group_name_H-M   'P 1'
_cell_length_a   8.24811920
_cell_length_b   8.23554149
_cell_length_c   4.15698500
_cell_angle_alpha   90.00000000
_cell_angle_beta   90.00000000
_cell_angle_gamma   119.94957025
_symmetry_Int_Tables_number   1
_chemical_formula_structural   Ho2Tm4FeBi2
_chemical_formula_sum   'Ho2 Tm4 Fe1 Bi2'
_cell_volume   244.66770346
_cell_formula_units_Z   1
loop_
 _symmetry_equiv_pos_site_id
 _symmetry_equiv_pos_as_xyz
  1  'x, y, z'
loop_
 _atom_site_type_symbol
 _atom_site_label
 _atom_site_symmetry_multiplicity
 _atom_site_fract_x
 _atom_site_fract_y
 _atom_site_fract_z
 _atom_site_occupancy
  Ho  Ho0  1  0.388945  0.389036  0.500000  1
  Ho  Ho1  1  0.611055  0.000091  0.500000  1
  Tm  Tm2  1  0.228858  0.999324  0.000000  1
  Tm  Tm3  1  0.000000  0.611803  0.500000  1
  Tm  Tm4  1  0.771142  0.770466  0.000000  1
  Tm  Tm5  1  0.000000  0.229284  0.000000  1
  Fe  Fe6  1  0.000000  0.999287  0.500000  1
  Bi  Bi7  1  0.332690  0.666700  0.000000  1
  Bi  Bi8  1  0.667310  0.334009  0.000000  1
