# generated using pymatgen
data_Tb8Tm12Sn13Sb3
_symmetry_space_group_name_H-M   'P 1'
_cell_length_a   8.04168046
_cell_length_b   8.09923042
_cell_length_c   15.27529172
_cell_angle_alpha   90.05759915
_cell_angle_beta   89.75621769
_cell_angle_gamma   90.06738453
_symmetry_Int_Tables_number   1
_chemical_formula_structural   Tb8Tm12Sn13Sb3
_chemical_formula_sum   'Tb8 Tm12 Sn13 Sb3'
_cell_volume   994.89129519
_cell_formula_units_Z   1
loop_
 _symmetry_equiv_pos_site_id
 _symmetry_equiv_pos_as_xyz
  1  'x, y, z'
loop_
 _atom_site_type_symbol
 _atom_site_label
 _atom_site_symmetry_multiplicity
 _atom_site_fract_x
 _atom_site_fract_y
 _atom_site_fract_z
 _atom_site_occupancy
  Tb  Tb0  1  0.524380  0.323577  0.901660  1
  Tb  Tb1  1  0.028644  0.176692  0.599617  1
  Tb  Tb2  1  0.471391  0.676675  0.400371  1
  Tb  Tb3  1  0.974041  0.821546  0.098636  1
  Tb  Tb4  1  0.477987  0.677473  0.097377  1
  Tb  Tb5  1  0.978184  0.822589  0.401502  1
  Tb  Tb6  1  0.521889  0.322130  0.598484  1
  Tb  Tb7  1  0.021471  0.179329  0.901656  1
  Tm  Tm8  1  0.367664  0.837785  0.877029  1
  Tm  Tm9  1  0.870240  0.661078  0.623025  1
  Tm  Tm10  1  0.630121  0.160909  0.376853  1
  Tm  Tm11  1  0.132069  0.338846  0.123923  1
  Tm  Tm12  1  0.634328  0.162363  0.122978  1
  Tm  Tm13  1  0.133275  0.337485  0.377078  1
  Tm  Tm14  1  0.366979  0.837621  0.622481  1
  Tm  Tm15  1  0.866673  0.662453  0.876067  1
  Tm  Tm16  1  0.196916  0.502695  0.749851  1
  Tm  Tm17  1  0.696531  0.997434  0.752128  1
  Tm  Tm18  1  0.803104  0.497898  0.248621  1
  Tm  Tm19  1  0.303474  0.002572  0.251352  1
  Sn  Sn20  1  0.206427  0.537321  0.958309  1
  Sn  Sn21  1  0.709025  0.962605  0.958145  1
  Sn  Sn22  1  0.209266  0.536693  0.542077  1
  Sn  Sn23  1  0.290905  0.036897  0.457859  1
  Sn  Sn24  1  0.794550  0.462740  0.041750  1
  Sn  Sn25  1  0.563876  0.622339  0.748497  1
  Sn  Sn26  1  0.064324  0.878710  0.749752  1
  Sn  Sn27  1  0.436776  0.377961  0.250003  1
  Sn  Sn28  1  0.935768  0.121610  0.250773  1
  Sn  Sn29  1  0.332817  0.147811  0.750174  1
  Sn  Sn30  1  0.831987  0.352177  0.749320  1
  Sn  Sn31  1  0.667155  0.851657  0.250212  1
  Sn  Sn32  1  0.166945  0.647816  0.249727  1
  Sb  Sb33  1  0.290485  0.036808  0.042996  1
  Sb  Sb34  1  0.788861  0.464077  0.457059  1
  Sb  Sb35  1  0.711472  0.963625  0.542658  1
