# generated using pymatgen
data_Tb3GaS6
_symmetry_space_group_name_H-M   'P 1'
_cell_length_a   8.58230410
_cell_length_b   8.58230412
_cell_length_c   6.50046200
_cell_angle_alpha   90.00000000
_cell_angle_beta   90.00000000
_cell_angle_gamma   102.42342035
_symmetry_Int_Tables_number   1
_chemical_formula_structural   Tb3GaS6
_chemical_formula_sum   'Tb6 Ga2 S12'
_cell_volume   467.58633960
_cell_formula_units_Z   2
loop_
 _symmetry_equiv_pos_site_id
 _symmetry_equiv_pos_as_xyz
  1  'x, y, z'
loop_
 _atom_site_type_symbol
 _atom_site_label
 _atom_site_symmetry_multiplicity
 _atom_site_fract_x
 _atom_site_fract_y
 _atom_site_fract_z
 _atom_site_occupancy
  Tb  Tb0  1  0.284222  0.085109  0.224263  1
  Tb  Tb1  1  0.914891  0.715778  0.224263  1
  Tb  Tb2  1  0.715778  0.914891  0.724263  1
  Tb  Tb3  1  0.085109  0.284222  0.724263  1
  Tb  Tb4  1  0.401320  0.598680  0.141036  1
  Tb  Tb5  1  0.598680  0.401320  0.641036  1
  Ga  Ga6  1  0.201405  0.798595  0.762117  1
  Ga  Ga7  1  0.798595  0.201405  0.262117  1
  S  S8  1  0.568155  0.101432  0.440965  1
  S  S9  1  0.898568  0.431845  0.440965  1
  S  S10  1  0.431845  0.898568  0.940965  1
  S  S11  1  0.101432  0.568155  0.940965  1
  S  S12  1  0.634563  0.689875  0.432462  1
  S  S13  1  0.310125  0.365437  0.432462  1
  S  S14  1  0.365437  0.310125  0.932462  1
  S  S15  1  0.689876  0.634563  0.932462  1
  S  S16  1  0.217873  0.782127  0.412179  1
  S  S17  1  0.782127  0.217873  0.912179  1
  S  S18  1  0.959361  0.040639  0.404287  1
  S  S19  1  0.040639  0.959361  0.904287  1
