# generated using pymatgen
data_SmHo5Co8(P6Ru5)2
_symmetry_space_group_name_H-M   'P 1'
_cell_length_a   3.85321600
_cell_length_b   10.66754400
_cell_length_c   12.56172100
_cell_angle_alpha   90.00000000
_cell_angle_beta   90.00000000
_cell_angle_gamma   90.00000000
_symmetry_Int_Tables_number   1
_chemical_formula_structural   SmHo5Co8(P6Ru5)2
_chemical_formula_sum   'Sm1 Ho5 Co8 P12 Ru10'
_cell_volume   516.34139193
_cell_formula_units_Z   1
loop_
 _symmetry_equiv_pos_site_id
 _symmetry_equiv_pos_as_xyz
  1  'x, y, z'
loop_
 _atom_site_type_symbol
 _atom_site_label
 _atom_site_symmetry_multiplicity
 _atom_site_fract_x
 _atom_site_fract_y
 _atom_site_fract_z
 _atom_site_occupancy
  Sm  Sm0  1  0.000000  0.500000  0.526957  1
  Ho  Ho1  1  0.500000  0.000000  0.472892  1
  Ho  Ho2  1  0.500000  0.820719  0.200239  1
  Ho  Ho3  1  0.500000  0.179281  0.200239  1
  Ho  Ho4  1  0.000000  0.679789  0.799951  1
  Ho  Ho5  1  0.000000  0.320211  0.799951  1
  Co  Co6  1  0.000000  0.500000  0.983577  1
  Co  Co7  1  0.500000  0.000000  0.016450  1
  Co  Co8  1  0.500000  0.332367  0.989551  1
  Co  Co9  1  0.500000  0.667633  0.989551  1
  Co  Co10  1  0.000000  0.167482  0.010521  1
  Co  Co11  1  0.000000  0.832518  0.010521  1
  Co  Co12  1  0.500000  0.500000  0.702773  1
  Co  Co13  1  0.000000  0.000000  0.298317  1
  P  P14  1  0.500000  0.312638  0.618888  1
  P  P15  1  0.500000  0.687362  0.618888  1
  P  P16  1  0.000000  0.184964  0.381356  1
  P  P17  1  0.000000  0.815036  0.381356  1
  P  P18  1  0.500000  0.500000  0.880457  1
  P  P19  1  0.000000  0.000000  0.119933  1
  P  P20  1  0.500000  0.845980  0.901504  1
  P  P21  1  0.500000  0.154020  0.901504  1
  P  P22  1  0.000000  0.654198  0.098520  1
  P  P23  1  0.000000  0.345802  0.098520  1
  P  P24  1  0.500000  0.500000  0.335386  1
  P  P25  1  0.000000  0.000000  0.663392  1
  Ru  Ru26  1  0.500000  0.296092  0.426907  1
  Ru  Ru27  1  0.500000  0.703908  0.426907  1
  Ru  Ru28  1  0.000000  0.200488  0.572612  1
  Ru  Ru29  1  0.000000  0.799512  0.572612  1
  Ru  Ru30  1  0.500000  0.875236  0.719874  1
  Ru  Ru31  1  0.500000  0.124764  0.719874  1
  Ru  Ru32  1  0.000000  0.625335  0.280151  1
  Ru  Ru33  1  0.000000  0.374665  0.280151  1
  Ru  Ru34  1  0.500000  0.500000  0.145318  1
  Ru  Ru35  1  0.000000  0.000000  0.854397  1
