# generated using pymatgen
data_Er4CoSi4Ru3
_symmetry_space_group_name_H-M   'P 1'
_cell_length_a   4.28624300
_cell_length_b   6.91035332
_cell_length_c   7.05432243
_cell_angle_alpha   90.11263741
_cell_angle_beta   90.00000000
_cell_angle_gamma   90.00000000
_symmetry_Int_Tables_number   1
_chemical_formula_structural   Er4CoSi4Ru3
_chemical_formula_sum   'Er4 Co1 Si4 Ru3'
_cell_volume   208.94477165
_cell_formula_units_Z   1
loop_
 _symmetry_equiv_pos_site_id
 _symmetry_equiv_pos_as_xyz
  1  'x, y, z'
loop_
 _atom_site_type_symbol
 _atom_site_label
 _atom_site_symmetry_multiplicity
 _atom_site_fract_x
 _atom_site_fract_y
 _atom_site_fract_z
 _atom_site_occupancy
  Er  Er0  1  0.250000  0.984106  0.809617  1
  Er  Er1  1  0.750000  0.009595  0.190634  1
  Er  Er2  1  0.250000  0.483448  0.686568  1
  Er  Er3  1  0.750000  0.512469  0.316187  1
  Co  Co4  1  0.750000  0.851016  0.566006  1
  Si  Si5  1  0.250000  0.303509  0.105519  1
  Si  Si6  1  0.750000  0.701667  0.888342  1
  Si  Si7  1  0.250000  0.801105  0.398701  1
  Si  Si8  1  0.750000  0.191638  0.607788  1
  Ru  Ru9  1  0.250000  0.153646  0.434354  1
  Ru  Ru10  1  0.750000  0.349339  0.930977  1
  Ru  Ru11  1  0.250000  0.658462  0.065305  1
