# generated using pymatgen
data_Ac4Zn3In5
_symmetry_space_group_name_H-M   'P 1'
_cell_length_a   4.98336800
_cell_length_b   8.23622383
_cell_length_c   8.59333267
_cell_angle_alpha   90.04831677
_cell_angle_beta   90.00000000
_cell_angle_gamma   90.00000000
_symmetry_Int_Tables_number   1
_chemical_formula_structural   Ac4Zn3In5
_chemical_formula_sum   'Ac4 Zn3 In5'
_cell_volume   352.70577451
_cell_formula_units_Z   1
loop_
 _symmetry_equiv_pos_site_id
 _symmetry_equiv_pos_as_xyz
  1  'x, y, z'
loop_
 _atom_site_type_symbol
 _atom_site_label
 _atom_site_symmetry_multiplicity
 _atom_site_fract_x
 _atom_site_fract_y
 _atom_site_fract_z
 _atom_site_occupancy
  Ac  Ac0  1  0.500000  0.495109  0.744474  1
  Ac  Ac1  1  0.500000  0.984113  0.747895  1
  Ac  Ac2  1  0.000000  0.503183  0.254710  1
  Ac  Ac3  1  0.000000  0.992106  0.253810  1
  Zn  Zn4  1  0.500000  0.783267  0.416252  1
  Zn  Zn5  1  0.000000  0.786434  0.917615  1
  Zn  Zn6  1  0.000000  0.295076  0.580575  1
  In  In7  1  0.500000  0.731744  0.082249  1
  In  In8  1  0.500000  0.219347  0.426285  1
  In  In9  1  0.000000  0.210368  0.904917  1
  In  In10  1  0.000000  0.721614  0.586660  1
  In  In11  1  0.500000  0.277639  0.084557  1
