# generated using pymatgen
data_Er5Hf3(Ta3Ge4)4
_symmetry_space_group_name_H-M   'P 1'
_cell_length_a   6.91826067
_cell_length_b   7.05548491
_cell_length_c   13.42692563
_cell_angle_alpha   90.12042691
_cell_angle_beta   89.92076290
_cell_angle_gamma   90.00802884
_symmetry_Int_Tables_number   1
_chemical_formula_structural   Er5Hf3(Ta3Ge4)4
_chemical_formula_sum   'Er5 Hf3 Ta12 Ge16'
_cell_volume   655.38876720
_cell_formula_units_Z   1
loop_
 _symmetry_equiv_pos_site_id
 _symmetry_equiv_pos_as_xyz
  1  'x, y, z'
loop_
 _atom_site_type_symbol
 _atom_site_label
 _atom_site_symmetry_multiplicity
 _atom_site_fract_x
 _atom_site_fract_y
 _atom_site_fract_z
 _atom_site_occupancy
  Er  Er0  1  0.490288  0.675587  0.592002  1
  Er  Er1  1  0.989959  0.825522  0.908795  1
  Er  Er2  1  0.509607  0.325631  0.091402  1
  Er  Er3  1  0.008572  0.173631  0.408623  1
  Er  Er4  1  0.508622  0.324383  0.407384  1
  Hf  Hf5  1  0.011873  0.176389  0.092595  1
  Hf  Hf6  1  0.487811  0.677371  0.906910  1
  Hf  Hf7  1  0.987692  0.822384  0.593812  1
  Ta  Ta8  1  0.661567  0.163007  0.626513  1
  Ta  Ta9  1  0.159729  0.334525  0.875079  1
  Ta  Ta10  1  0.340464  0.834338  0.123724  1
  Ta  Ta11  1  0.843039  0.667950  0.374435  1
  Ta  Ta12  1  0.339976  0.835014  0.373103  1
  Ta  Ta13  1  0.841011  0.666418  0.125646  1
  Ta  Ta14  1  0.659974  0.165095  0.874134  1
  Ta  Ta15  1  0.160186  0.335324  0.626504  1
  Ta  Ta16  1  0.836493  0.488642  0.750171  1
  Ta  Ta17  1  0.335927  0.010935  0.751240  1
  Ta  Ta18  1  0.163618  0.512019  0.248067  1
  Ta  Ta19  1  0.665358  0.987152  0.248893  1
  Ge  Ge20  1  0.681233  0.959066  0.459747  1
  Ge  Ge21  1  0.179692  0.538306  0.040944  1
  Ge  Ge22  1  0.320607  0.039080  0.958781  1
  Ge  Ge23  1  0.823419  0.461871  0.542567  1
  Ge  Ge24  1  0.315126  0.037313  0.542765  1
  Ge  Ge25  1  0.816366  0.460293  0.958828  1
  Ge  Ge26  1  0.683008  0.960423  0.041039  1
  Ge  Ge27  1  0.177852  0.543030  0.459571  1
  Ge  Ge28  1  0.460988  0.384941  0.750733  1
  Ge  Ge29  1  0.961224  0.114638  0.749441  1
  Ge  Ge30  1  0.539587  0.617013  0.249976  1
  Ge  Ge31  1  0.039776  0.885099  0.248681  1
  Ge  Ge32  1  0.692203  0.849220  0.751040  1
  Ge  Ge33  1  0.192447  0.650185  0.749442  1
  Ge  Ge34  1  0.305411  0.148346  0.248956  1
  Ge  Ge35  1  0.809296  0.349860  0.248458  1
