# generated using pymatgen
data_DyHo3Tm4(B6Ru)4
_symmetry_space_group_name_H-M   'P 1'
_cell_length_a   3.63062400
_cell_length_b   9.09346900
_cell_length_c   11.47018700
_cell_angle_alpha   90.00266318
_cell_angle_beta   90.00000000
_cell_angle_gamma   90.00000000
_symmetry_Int_Tables_number   1
_chemical_formula_structural   DyHo3Tm4(B6Ru)4
_chemical_formula_sum   'Dy1 Ho3 Tm4 B24 Ru4'
_cell_volume   378.68784273
_cell_formula_units_Z   1
loop_
 _symmetry_equiv_pos_site_id
 _symmetry_equiv_pos_as_xyz
  1  'x, y, z'
loop_
 _atom_site_type_symbol
 _atom_site_label
 _atom_site_symmetry_multiplicity
 _atom_site_fract_x
 _atom_site_fract_y
 _atom_site_fract_z
 _atom_site_occupancy
  Dy  Dy0  1  0.000000  0.322088  0.414128  1
  Ho  Ho1  1  0.000000  0.678013  0.585847  1
  Ho  Ho2  1  0.000000  0.822031  0.085816  1
  Ho  Ho3  1  0.000000  0.177973  0.914173  1
  Tm  Tm4  1  0.000000  0.943816  0.372449  1
  Tm  Tm5  1  0.000000  0.056069  0.627603  1
  Tm  Tm6  1  0.000000  0.443877  0.127485  1
  Tm  Tm7  1  0.000000  0.556154  0.872471  1
  B  B8  1  0.500000  0.554479  0.433057  1
  B  B9  1  0.500000  0.445782  0.567089  1
  B  B10  1  0.500000  0.054269  0.066892  1
  B  B11  1  0.500000  0.945711  0.933087  1
  B  B12  1  0.500000  0.748963  0.419683  1
  B  B13  1  0.500000  0.251012  0.580542  1
  B  B14  1  0.500000  0.248921  0.080296  1
  B  B15  1  0.500000  0.751084  0.919669  1
  B  B16  1  0.500000  0.791713  0.265899  1
  B  B17  1  0.500000  0.208296  0.734133  1
  B  B18  1  0.500000  0.291600  0.233912  1
  B  B19  1  0.500000  0.708316  0.765917  1
  B  B20  1  0.500000  0.631365  0.184533  1
  B  B21  1  0.500000  0.368671  0.815454  1
  B  B22  1  0.500000  0.131171  0.315321  1
  B  B23  1  0.500000  0.868647  0.684574  1
  B  B24  1  0.500000  0.982963  0.213116  1
  B  B25  1  0.500000  0.016983  0.786868  1
  B  B26  1  0.500000  0.483227  0.286745  1
  B  B27  1  0.500000  0.517020  0.713178  1
  B  B28  1  0.500000  0.606025  0.029150  1
  B  B29  1  0.500000  0.393987  0.970834  1
  B  B30  1  0.500000  0.105697  0.470929  1
  B  B31  1  0.500000  0.894002  0.529155  1
  Ru  Ru32  1  0.000000  0.638387  0.320580  1
  Ru  Ru33  1  0.000000  0.361780  0.679484  1
  Ru  Ru34  1  0.000000  0.138134  0.179266  1
  Ru  Ru35  1  0.000000  0.861776  0.820664  1
