# generated using pymatgen
data_AcPaF8
_symmetry_space_group_name_H-M   'P 1'
_cell_length_a   8.77664767
_cell_length_b   8.70464577
_cell_length_c   8.79646983
_cell_angle_alpha   63.46215711
_cell_angle_beta   63.12209160
_cell_angle_gamma   80.27257932
_symmetry_Int_Tables_number   1
_chemical_formula_structural   AcPaF8
_chemical_formula_sum   'Ac3 Pa3 F24'
_cell_volume   535.81530085
_cell_formula_units_Z   3
loop_
 _symmetry_equiv_pos_site_id
 _symmetry_equiv_pos_as_xyz
  1  'x, y, z'
loop_
 _atom_site_type_symbol
 _atom_site_label
 _atom_site_symmetry_multiplicity
 _atom_site_fract_x
 _atom_site_fract_y
 _atom_site_fract_z
 _atom_site_occupancy
  Ac  Ac0  1  0.370660  0.224100  0.332893  1
  Ac  Ac1  1  0.223393  0.365624  0.836918  1
  Ac  Ac2  1  0.773675  0.634761  0.170724  1
  Pa  Pa3  1  0.633044  0.776635  0.671443  1
  Pa  Pa4  1  0.784778  0.216010  0.750157  1
  Pa  Pa5  1  0.203054  0.783321  0.269194  1
  F  F6  1  0.316868  0.255321  0.608027  1
  F  F7  1  0.687311  0.750400  0.411915  1
  F  F8  1  0.726651  0.681118  0.881839  1
  F  F9  1  0.260962  0.320691  0.105127  1
  F  F10  1  0.818264  0.951099  0.928675  1
  F  F11  1  0.192041  0.033400  0.058189  1
  F  F12  1  0.037100  0.173031  0.564707  1
  F  F13  1  0.933065  0.820113  0.463532  1
  F  F14  1  0.427128  0.610556  0.742258  1
  F  F15  1  0.605527  0.402224  0.245664  1
  F  F16  1  0.511508  0.980424  0.516913  1
  F  F17  1  0.001391  0.521086  0.984620  1
  F  F18  1  0.523235  0.236081  0.787194  1
  F  F19  1  0.475629  0.766678  0.198143  1
  F  F20  1  0.736669  0.497075  0.715035  1
  F  F21  1  0.251204  0.526218  0.284322  1
  F  F22  1  0.418740  0.804492  0.906574  1
  F  F23  1  0.622285  0.182322  0.042279  1
  F  F24  1  0.178568  0.617636  0.552336  1
  F  F25  1  0.812293  0.384885  0.461486  1
  F  F26  1  0.725456  0.014529  0.649994  1
  F  F27  1  0.255343  0.957612  0.356248  1
  F  F28  1  0.958059  0.278094  0.831933  1
  F  F29  1  0.036100  0.734464  0.171661  1
