# generated using pymatgen
data_Y6ErSc3(Si3H)2
_symmetry_space_group_name_H-M   'P 1'
_cell_length_a   8.33829400
_cell_length_b   8.33829500
_cell_length_c   6.01673800
_cell_angle_alpha   90.00000000
_cell_angle_beta   90.00000000
_cell_angle_gamma   120.00000399
_symmetry_Int_Tables_number   1
_chemical_formula_structural   Y6ErSc3(Si3H)2
_chemical_formula_sum   'Y6 Er1 Sc3 Si6 H2'
_cell_volume   362.28151420
_cell_formula_units_Z   1
loop_
 _symmetry_equiv_pos_site_id
 _symmetry_equiv_pos_as_xyz
  1  'x, y, z'
loop_
 _atom_site_type_symbol
 _atom_site_label
 _atom_site_symmetry_multiplicity
 _atom_site_fract_x
 _atom_site_fract_y
 _atom_site_fract_z
 _atom_site_occupancy
  Y  Y0  1  0.746669  0.747113  0.751669  1
  Y  Y1  1  0.252887  0.999557  0.751669  1
  Y  Y2  1  0.000443  0.253331  0.751669  1
  Y  Y3  1  0.252887  0.253331  0.248331  1
  Y  Y4  1  0.746669  0.999557  0.248331  1
  Y  Y5  1  0.000443  0.747113  0.248331  1
  Er  Er6  1  0.666667  0.333333  0.500000  1
  Sc  Sc7  1  0.666667  0.333333  0.000000  1
  Sc  Sc8  1  0.333333  0.666667  0.000000  1
  Sc  Sc9  1  0.333333  0.666667  0.500000  1
  Si  Si10  1  0.391248  0.394443  0.755189  1
  Si  Si11  1  0.605557  0.996805  0.755189  1
  Si  Si12  1  0.003195  0.608752  0.755189  1
  Si  Si13  1  0.605557  0.608752  0.244811  1
  Si  Si14  1  0.391248  0.996805  0.244811  1
  Si  Si15  1  0.003195  0.394443  0.244811  1
  H  H16  1  0.000000  0.000000  0.500000  1
  H  H17  1  0.000000  0.000000  0.000000  1
