# generated using pymatgen
data_Tb3Al3GeAu2
_symmetry_space_group_name_H-M   'P 1'
_cell_length_a   7.08442000
_cell_length_b   7.08442077
_cell_length_c   4.33086400
_cell_angle_alpha   90.00000000
_cell_angle_beta   90.00000000
_cell_angle_gamma   120.00000575
_symmetry_Int_Tables_number   1
_chemical_formula_structural   Tb3Al3GeAu2
_chemical_formula_sum   'Tb3 Al3 Ge1 Au2'
_cell_volume   188.24081759
_cell_formula_units_Z   1
loop_
 _symmetry_equiv_pos_site_id
 _symmetry_equiv_pos_as_xyz
  1  'x, y, z'
loop_
 _atom_site_type_symbol
 _atom_site_label
 _atom_site_symmetry_multiplicity
 _atom_site_fract_x
 _atom_site_fract_y
 _atom_site_fract_z
 _atom_site_occupancy
  Tb  Tb0  1  0.001580  0.579691  0.500000  1
  Tb  Tb1  1  0.420309  0.421888  0.500000  1
  Tb  Tb2  1  0.578112  0.998420  0.500000  1
  Al  Al3  1  0.765106  0.751969  0.000000  1
  Al  Al4  1  0.248031  0.013136  0.000000  1
  Al  Al5  1  0.986864  0.234894  0.000000  1
  Ge  Ge6  1  0.333333  0.666667  0.000000  1
  Au  Au7  1  0.666667  0.333333  0.000000  1
  Au  Au8  1  0.000000  0.000000  0.500000  1
