# generated using pymatgen
data_Mo2Ir3Os2Rh
_symmetry_space_group_name_H-M   'P 1'
_cell_length_a   5.53236770
_cell_length_b   5.53218978
_cell_length_c   4.40946400
_cell_angle_alpha   90.00000000
_cell_angle_beta   90.00000000
_cell_angle_gamma   119.76534831
_symmetry_Int_Tables_number   1
_chemical_formula_structural   Mo2Ir3Os2Rh
_chemical_formula_sum   'Mo2 Ir3 Os2 Rh1'
_cell_volume   117.15115751
_cell_formula_units_Z   1
loop_
 _symmetry_equiv_pos_site_id
 _symmetry_equiv_pos_as_xyz
  1  'x, y, z'
loop_
 _atom_site_type_symbol
 _atom_site_label
 _atom_site_symmetry_multiplicity
 _atom_site_fract_x
 _atom_site_fract_y
 _atom_site_fract_z
 _atom_site_occupancy
  Mo  Mo0  1  0.334441  0.663389  0.250000  1
  Mo  Mo1  1  0.664172  0.333232  0.750000  1
  Ir  Ir2  1  0.833886  0.667898  0.250000  1
  Ir  Ir3  1  0.165464  0.832136  0.750000  1
  Ir  Ir4  1  0.669584  0.835901  0.750000  1
  Os  Os5  1  0.333511  0.169346  0.250000  1
  Os  Os6  1  0.166787  0.332416  0.750000  1
  Rh  Rh7  1  0.832155  0.165683  0.250000  1
