# generated using pymatgen
data_Tb7Co2Sn23Rh4
_symmetry_space_group_name_H-M   'P 1'
_cell_length_a   9.82721592
_cell_length_b   9.83605928
_cell_length_c   10.06492932
_cell_angle_alpha   89.99999725
_cell_angle_beta   90.11097096
_cell_angle_gamma   120.02977989
_symmetry_Int_Tables_number   1
_chemical_formula_structural   Tb7Co2Sn23Rh4
_chemical_formula_sum   'Tb7 Co2 Sn23 Rh4'
_cell_volume   842.28973500
_cell_formula_units_Z   1
loop_
 _symmetry_equiv_pos_site_id
 _symmetry_equiv_pos_as_xyz
  1  'x, y, z'
loop_
 _atom_site_type_symbol
 _atom_site_label
 _atom_site_symmetry_multiplicity
 _atom_site_fract_x
 _atom_site_fract_y
 _atom_site_fract_z
 _atom_site_occupancy
  Tb  Tb0  1  0.000000  0.000000  0.000000  1
  Tb  Tb1  1  0.478804  0.521333  0.306729  1
  Tb  Tb2  1  0.521196  0.478667  0.693271  1
  Tb  Tb3  1  0.478804  0.957471  0.306729  1
  Tb  Tb4  1  0.521196  0.042529  0.693271  1
  Tb  Tb5  1  0.043514  0.521757  0.306988  1
  Tb  Tb6  1  0.956486  0.478243  0.693012  1
  Co  Co7  1  0.336482  0.168241  0.198422  1
  Co  Co8  1  0.663518  0.831759  0.801578  1
  Sn  Sn9  1  0.350490  0.004445  0.004572  1
  Sn  Sn10  1  0.649510  0.995555  0.995428  1
  Sn  Sn11  1  0.000000  0.351384  0.000000  1
  Sn  Sn12  1  0.000000  0.648616  0.000000  1
  Sn  Sn13  1  0.649510  0.653955  0.995428  1
  Sn  Sn14  1  0.350490  0.346045  0.004572  1
  Sn  Sn15  1  0.338229  0.669115  0.818613  1
  Sn  Sn16  1  0.661771  0.330885  0.181387  1
  Sn  Sn17  1  0.000000  0.000000  0.500000  1
  Sn  Sn18  1  0.779088  0.221038  0.456080  1
  Sn  Sn19  1  0.220912  0.778962  0.543920  1
  Sn  Sn20  1  0.779088  0.558050  0.456080  1
  Sn  Sn21  1  0.220912  0.441950  0.543920  1
  Sn  Sn22  1  0.438422  0.219211  0.450826  1
  Sn  Sn23  1  0.561578  0.780789  0.549174  1
  Sn  Sn24  1  0.333395  0.666698  0.117442  1
  Sn  Sn25  1  0.666605  0.333302  0.882558  1
  Sn  Sn26  1  0.123246  0.887191  0.276563  1
  Sn  Sn27  1  0.876754  0.112809  0.723437  1
  Sn  Sn28  1  0.123246  0.236056  0.276563  1
  Sn  Sn29  1  0.876754  0.763944  0.723437  1
  Sn  Sn30  1  0.759511  0.879756  0.281213  1
  Sn  Sn31  1  0.240489  0.120244  0.718787  1
  Rh  Rh32  1  0.831507  0.167465  0.197393  1
  Rh  Rh33  1  0.168493  0.832535  0.802607  1
  Rh  Rh34  1  0.831507  0.664042  0.197393  1
  Rh  Rh35  1  0.168493  0.335958  0.802607  1
