# generated using pymatgen
data_Y3Tm2Lu3(CdIr)2
_symmetry_space_group_name_H-M   'P 1'
_cell_length_a   9.55121850
_cell_length_b   9.55121838
_cell_length_c   9.55121800
_cell_angle_alpha   60.00000131
_cell_angle_beta   60.00000172
_cell_angle_gamma   59.99999673
_symmetry_Int_Tables_number   1
_chemical_formula_structural   Y3Tm2Lu3(CdIr)2
_chemical_formula_sum   'Y6 Tm4 Lu6 Cd4 Ir4'
_cell_volume   616.11433590
_cell_formula_units_Z   2
loop_
 _symmetry_equiv_pos_site_id
 _symmetry_equiv_pos_as_xyz
  1  'x, y, z'
loop_
 _atom_site_type_symbol
 _atom_site_label
 _atom_site_symmetry_multiplicity
 _atom_site_fract_x
 _atom_site_fract_y
 _atom_site_fract_z
 _atom_site_occupancy
  Y  Y0  1  0.939842  0.560158  0.560158  1
  Y  Y1  1  0.560158  0.939842  0.939842  1
  Y  Y2  1  0.560158  0.939842  0.560158  1
  Y  Y3  1  0.939842  0.560158  0.939842  1
  Y  Y4  1  0.560158  0.560158  0.939842  1
  Y  Y5  1  0.939842  0.939842  0.560158  1
  Tm  Tm6  1  0.348645  0.348645  0.348645  1
  Tm  Tm7  1  0.348645  0.348645  0.954065  1
  Tm  Tm8  1  0.348645  0.954065  0.348645  1
  Tm  Tm9  1  0.954065  0.348645  0.348645  1
  Lu  Lu10  1  0.812110  0.187890  0.187890  1
  Lu  Lu11  1  0.187890  0.812110  0.812110  1
  Lu  Lu12  1  0.187890  0.812110  0.187890  1
  Lu  Lu13  1  0.812110  0.187890  0.812110  1
  Lu  Lu14  1  0.187890  0.187890  0.812110  1
  Lu  Lu15  1  0.812110  0.812110  0.187890  1
  Cd  Cd16  1  0.580302  0.580302  0.580302  1
  Cd  Cd17  1  0.580302  0.580302  0.259097  1
  Cd  Cd18  1  0.580302  0.259097  0.580302  1
  Cd  Cd19  1  0.259097  0.580302  0.580302  1
  Ir  Ir20  1  0.141256  0.141256  0.141256  1
  Ir  Ir21  1  0.141256  0.141256  0.576231  1
  Ir  Ir22  1  0.141256  0.576231  0.141256  1
  Ir  Ir23  1  0.576231  0.141256  0.141256  1
