# generated using pymatgen
data_Y3ScIn2(B2Rh5)2
_symmetry_space_group_name_H-M   'P 1'
_cell_length_a   9.63574746
_cell_length_b   9.63574746
_cell_length_c   3.22651900
_cell_angle_alpha   90.00000000
_cell_angle_beta   90.00000000
_cell_angle_gamma   90.75376556
_symmetry_Int_Tables_number   1
_chemical_formula_structural   Y3ScIn2(B2Rh5)2
_chemical_formula_sum   'Y3 Sc1 In2 B4 Rh10'
_cell_volume   299.54871574
_cell_formula_units_Z   1
loop_
 _symmetry_equiv_pos_site_id
 _symmetry_equiv_pos_as_xyz
  1  'x, y, z'
loop_
 _atom_site_type_symbol
 _atom_site_label
 _atom_site_symmetry_multiplicity
 _atom_site_fract_x
 _atom_site_fract_y
 _atom_site_fract_z
 _atom_site_occupancy
  Y  Y0  1  0.826207  0.326207  0.000000  1
  Y  Y1  1  0.322344  0.174969  0.000000  1
  Y  Y2  1  0.674969  0.822344  0.000000  1
  Sc  Sc3  1  0.174123  0.674123  0.000000  1
  In  In4  1  0.999336  0.003120  0.000000  1
  In  In5  1  0.503120  0.499336  0.000000  1
  B  B6  1  0.619346  0.119346  0.000000  1
  B  B7  1  0.124031  0.385331  0.000000  1
  B  B8  1  0.885331  0.624031  0.000000  1
  B  B9  1  0.372731  0.872731  0.000000  1
  Rh  Rh10  1  0.070990  0.230213  0.500000  1
  Rh  Rh11  1  0.221384  0.920521  0.500000  1
  Rh  Rh12  1  0.771953  0.070470  0.500000  1
  Rh  Rh13  1  0.936073  0.774781  0.500000  1
  Rh  Rh14  1  0.420521  0.721384  0.500000  1
  Rh  Rh15  1  0.570470  0.271953  0.500000  1
  Rh  Rh16  1  0.730213  0.570990  0.500000  1
  Rh  Rh17  1  0.274781  0.436073  0.500000  1
  Rh  Rh18  1  0.496693  0.996693  0.500000  1
  Rh  Rh19  1  0.005385  0.505385  0.500000  1
