# generated using pymatgen
data_Ti12Nb8Si15Ge
_symmetry_space_group_name_H-M   'P 1'
_cell_length_a   6.71025636
_cell_length_b   6.70684447
_cell_length_c   12.27652242
_cell_angle_alpha   90.02106739
_cell_angle_beta   89.92085036
_cell_angle_gamma   89.99417731
_symmetry_Int_Tables_number   1
_chemical_formula_structural   Ti12Nb8Si15Ge
_chemical_formula_sum   'Ti12 Nb8 Si15 Ge1'
_cell_volume   552.49997473
_cell_formula_units_Z   1
loop_
 _symmetry_equiv_pos_site_id
 _symmetry_equiv_pos_as_xyz
  1  'x, y, z'
loop_
 _atom_site_type_symbol
 _atom_site_label
 _atom_site_symmetry_multiplicity
 _atom_site_fract_x
 _atom_site_fract_y
 _atom_site_fract_z
 _atom_site_occupancy
  Ti  Ti0  1  0.330167  0.330246  0.000292  1
  Ti  Ti1  1  0.169974  0.830226  0.249845  1
  Ti  Ti2  1  0.827796  0.169330  0.750592  1
  Ti  Ti3  1  0.669744  0.669580  0.499889  1
  Ti  Ti4  1  0.152357  0.002642  0.873402  1
  Ti  Ti5  1  0.497385  0.651643  0.122022  1
  Ti  Ti6  1  0.504400  0.349680  0.622406  1
  Ti  Ti7  1  0.652329  0.497467  0.878491  1
  Ti  Ti8  1  0.347590  0.502916  0.377956  1
  Ti  Ti9  1  0.847556  0.997584  0.371704  1
  Ti  Ti10  1  0.002921  0.151989  0.127983  1
  Ti  Ti11  1  0.994041  0.845142  0.627241  1
  Nb  Nb12  1  0.343735  0.994397  0.469876  1
  Nb  Nb13  1  0.506805  0.839186  0.722956  1
  Nb  Nb14  1  0.496584  0.157990  0.221914  1
  Nb  Nb15  1  0.841307  0.503648  0.277691  1
  Nb  Nb16  1  0.158205  0.500402  0.778726  1
  Nb  Nb17  1  0.659029  0.003150  0.972701  1
  Nb  Nb18  1  0.992381  0.345211  0.525884  1
  Nb  Nb19  1  0.003870  0.658012  0.028093  1
  Si  Si20  1  0.363286  0.707355  0.923746  1
  Si  Si21  1  0.636445  0.293053  0.422985  1
  Si  Si22  1  0.707347  0.362431  0.076952  1
  Si  Si23  1  0.292706  0.637794  0.576871  1
  Si  Si24  1  0.793194  0.862520  0.173058  1
  Si  Si25  1  0.137313  0.207163  0.326738  1
  Si  Si26  1  0.863466  0.793175  0.827076  1
  Si  Si27  1  0.298730  0.955712  0.064165  1
  Si  Si28  1  0.544850  0.797336  0.313287  1
  Si  Si29  1  0.458234  0.201158  0.815549  1
  Si  Si30  1  0.798515  0.543470  0.686712  1
  Si  Si31  1  0.201697  0.455757  0.186303  1
  Si  Si32  1  0.701009  0.044665  0.563796  1
  Si  Si33  1  0.956122  0.298407  0.936126  1
  Si  Si34  1  0.044387  0.702642  0.435577  1
  Ge  Ge35  1  0.204521  0.136923  0.671397  1
