# generated using pymatgen
data_Rb6Li4TiSnBi6
_symmetry_space_group_name_H-M   'P 1'
_cell_length_a   14.16058798
_cell_length_b   14.16058826
_cell_length_c   14.16094946
_cell_angle_alpha   150.97768320
_cell_angle_beta   104.46808215
_cell_angle_gamma   82.85965272
_symmetry_Int_Tables_number   1
_chemical_formula_structural   Rb6Li4TiSnBi6
_chemical_formula_sum   'Rb12 Li8 Ti2 Sn2 Bi12'
_cell_volume   1306.86107330
_cell_formula_units_Z   2
loop_
 _symmetry_equiv_pos_site_id
 _symmetry_equiv_pos_as_xyz
  1  'x, y, z'
loop_
 _atom_site_type_symbol
 _atom_site_label
 _atom_site_symmetry_multiplicity
 _atom_site_fract_x
 _atom_site_fract_y
 _atom_site_fract_z
 _atom_site_occupancy
  Rb  Rb0  1  0.584461  0.932394  0.182827  1
  Rb  Rb1  1  0.079036  0.740260  0.813522  1
  Rb  Rb2  1  0.908749  0.117229  0.365433  1
  Rb  Rb3  1  0.408800  0.043194  0.791423  1
  Rb  Rb4  1  0.751773  0.617379  0.708577  1
  Rb  Rb5  1  0.249566  0.401632  0.317173  1
  Rb  Rb6  1  0.084407  0.901641  0.652102  1
  Rb  Rb7  1  0.426737  0.265513  0.686478  1
  Rb  Rb8  1  0.749539  0.432305  0.847898  1
  Rb  Rb9  1  0.251796  0.543316  0.134567  1
  Rb  Rb10  1  0.926713  0.240228  0.161155  1
  Rb  Rb11  1  0.579073  0.765558  0.338845  1
  Li  Li12  1  0.999841  0.249841  0.750000  1
  Li  Li13  1  0.665068  0.915068  0.750000  1
  Li  Li14  1  0.998615  0.748615  0.250000  1
  Li  Li15  1  0.498632  0.248632  0.250000  1
  Li  Li16  1  0.499801  0.749801  0.750000  1
  Li  Li17  1  0.164995  0.414995  0.750000  1
  Li  Li18  1  0.336032  0.086032  0.250000  1
  Li  Li19  1  0.836033  0.586033  0.250000  1
  Ti  Ti20  1  0.665552  0.415552  0.250000  1
  Ti  Ti21  1  0.165509  0.915509  0.250000  1
  Sn  Sn22  1  0.832217  0.082217  0.750000  1
  Sn  Sn23  1  0.332248  0.582248  0.750000  1
  Bi  Bi24  1  0.338208  0.761933  0.109295  1
  Bi  Bi25  1  0.496410  0.555142  0.371621  1
  Bi  Bi26  1  0.996506  0.625027  0.941520  1
  Bi  Bi27  1  0.512996  0.429411  0.610912  1
  Bi  Bi28  1  0.318499  0.902082  0.889088  1
  Bi  Bi29  1  0.683521  0.124790  0.128379  1
  Bi  Bi30  1  0.012979  0.402048  0.083558  1
  Bi  Bi31  1  0.652631  0.261813  0.923391  1
  Bi  Bi32  1  0.818490  0.929420  0.416442  1
  Bi  Bi33  1  0.152638  0.228913  0.390705  1
  Bi  Bi34  1  0.183507  0.054987  0.558480  1
  Bi  Bi35  1  0.838422  0.729241  0.576609  1
