# generated using pymatgen
data_Tb2VIr3
_symmetry_space_group_name_H-M   'P 1'
_cell_length_a   5.15350769
_cell_length_b   5.15350826
_cell_length_c   5.15350729
_cell_angle_alpha   65.56246725
_cell_angle_beta   65.56246688
_cell_angle_gamma   65.56246721
_symmetry_Int_Tables_number   1
_chemical_formula_structural   Tb2VIr3
_chemical_formula_sum   'Tb2 V1 Ir3'
_cell_volume   108.47884424
_cell_formula_units_Z   1
loop_
 _symmetry_equiv_pos_site_id
 _symmetry_equiv_pos_as_xyz
  1  'x, y, z'
loop_
 _atom_site_type_symbol
 _atom_site_label
 _atom_site_symmetry_multiplicity
 _atom_site_fract_x
 _atom_site_fract_y
 _atom_site_fract_z
 _atom_site_occupancy
  Tb  Tb0  1  0.251429  0.251429  0.251429  1
  Tb  Tb1  1  0.998570  0.998570  0.998570  1
  V  V2  1  0.625000  0.625000  0.625000  1
  Ir  Ir3  1  0.625000  0.125001  0.625000  1
  Ir  Ir4  1  0.125001  0.625000  0.625000  1
  Ir  Ir5  1  0.625000  0.625000  0.125001  1
