# generated using pymatgen
data_Dy5HoSi10
_symmetry_space_group_name_H-M   'P 1'
_cell_length_a   6.64454800
_cell_length_b   6.66192628
_cell_length_c   8.27019600
_cell_angle_alpha   89.92973404
_cell_angle_beta   90.00000000
_cell_angle_gamma   119.91375569
_symmetry_Int_Tables_number   1
_chemical_formula_structural   Dy5HoSi10
_chemical_formula_sum   'Dy5 Ho1 Si10'
_cell_volume   317.31312405
_cell_formula_units_Z   1
loop_
 _symmetry_equiv_pos_site_id
 _symmetry_equiv_pos_as_xyz
  1  'x, y, z'
loop_
 _atom_site_type_symbol
 _atom_site_label
 _atom_site_symmetry_multiplicity
 _atom_site_fract_x
 _atom_site_fract_y
 _atom_site_fract_z
 _atom_site_occupancy
  Dy  Dy0  1  0.330413  0.000000  0.500000  1
  Dy  Dy1  1  0.668828  0.669109  0.499750  1
  Dy  Dy2  1  0.999721  0.330891  0.500250  1
  Dy  Dy3  1  0.000187  0.331141  0.999657  1
  Dy  Dy4  1  0.669045  0.668859  0.000343  1
  Ho  Ho5  1  0.330567  0.000000  0.000000  1
  Si  Si6  1  0.999783  0.000317  0.750934  1
  Si  Si7  1  0.668025  0.050875  0.750870  1
  Si  Si8  1  0.382687  0.330915  0.751011  1
  Si  Si9  1  0.949936  0.619219  0.750110  1
  Si  Si10  1  0.333895  0.666088  0.750775  1
  Si  Si11  1  0.999466  0.999683  0.249066  1
  Si  Si12  1  0.667808  0.333912  0.249225  1
  Si  Si13  1  0.330716  0.380781  0.249890  1
  Si  Si14  1  0.051771  0.669085  0.248989  1
  Si  Si15  1  0.617150  0.949125  0.249130  1
