# generated using pymatgen
data_ThFe3P3Ir2
_symmetry_space_group_name_H-M   'P 1'
_cell_length_a   3.85526900
_cell_length_b   10.40409600
_cell_length_c   12.29344700
_cell_angle_alpha   90.00000000
_cell_angle_beta   90.00000000
_cell_angle_gamma   90.00000000
_symmetry_Int_Tables_number   1
_chemical_formula_structural   ThFe3P3Ir2
_chemical_formula_sum   'Th4 Fe12 P12 Ir8'
_cell_volume   493.09739733
_cell_formula_units_Z   4
loop_
 _symmetry_equiv_pos_site_id
 _symmetry_equiv_pos_as_xyz
  1  'x, y, z'
loop_
 _atom_site_type_symbol
 _atom_site_label
 _atom_site_symmetry_multiplicity
 _atom_site_fract_x
 _atom_site_fract_y
 _atom_site_fract_z
 _atom_site_occupancy
  Th  Th0  1  0.250000  0.582092  0.713258  1
  Th  Th1  1  0.250000  0.917908  0.213258  1
  Th  Th2  1  0.750000  0.417908  0.286742  1
  Th  Th3  1  0.750000  0.082092  0.786742  1
  Fe  Fe4  1  0.250000  0.224298  0.169776  1
  Fe  Fe5  1  0.250000  0.275702  0.669776  1
  Fe  Fe6  1  0.750000  0.775702  0.830224  1
  Fe  Fe7  1  0.750000  0.724298  0.330224  1
  Fe  Fe8  1  0.250000  0.878373  0.695299  1
  Fe  Fe9  1  0.250000  0.621627  0.195299  1
  Fe  Fe10  1  0.750000  0.121627  0.304701  1
  Fe  Fe11  1  0.750000  0.378373  0.804701  1
  Fe  Fe12  1  0.250000  0.459370  0.935863  1
  Fe  Fe13  1  0.250000  0.040630  0.435863  1
  Fe  Fe14  1  0.750000  0.540630  0.064137  1
  Fe  Fe15  1  0.750000  0.959370  0.564137  1
  P  P16  1  0.250000  0.429110  0.108939  1
  P  P17  1  0.250000  0.070890  0.608939  1
  P  P18  1  0.750000  0.570890  0.891061  1
  P  P19  1  0.750000  0.929110  0.391061  1
  P  P20  1  0.250000  0.278832  0.853149  1
  P  P21  1  0.250000  0.221168  0.353149  1
  P  P22  1  0.750000  0.721168  0.146851  1
  P  P23  1  0.750000  0.778832  0.646851  1
  P  P24  1  0.250000  0.608371  0.376197  1
  P  P25  1  0.250000  0.891629  0.876197  1
  P  P26  1  0.750000  0.391629  0.623803  1
  P  P27  1  0.750000  0.108371  0.123803  1
  Ir  Ir28  1  0.250000  0.711109  0.983894  1
  Ir  Ir29  1  0.250000  0.788891  0.483894  1
  Ir  Ir30  1  0.750000  0.288891  0.016106  1
  Ir  Ir31  1  0.750000  0.211109  0.516106  1
  Ir  Ir32  1  0.250000  0.405183  0.477826  1
  Ir  Ir33  1  0.250000  0.094817  0.977826  1
  Ir  Ir34  1  0.750000  0.594817  0.522174  1
  Ir  Ir35  1  0.750000  0.905183  0.022174  1
