# generated using pymatgen
data_LaY2Er7(Si3Pt)2
_symmetry_space_group_name_H-M   'P 1'
_cell_length_a   7.26502300
_cell_length_b   7.90386874
_cell_length_c   14.57936365
_cell_angle_alpha   89.85840555
_cell_angle_beta   90.00000000
_cell_angle_gamma   90.00000000
_symmetry_Int_Tables_number   1
_chemical_formula_structural   LaY2Er7(Si3Pt)2
_chemical_formula_sum   'La2 Y4 Er14 Si12 Pt4'
_cell_volume   837.17057460
_cell_formula_units_Z   2
loop_
 _symmetry_equiv_pos_site_id
 _symmetry_equiv_pos_as_xyz
  1  'x, y, z'
loop_
 _atom_site_type_symbol
 _atom_site_label
 _atom_site_symmetry_multiplicity
 _atom_site_fract_x
 _atom_site_fract_y
 _atom_site_fract_z
 _atom_site_occupancy
  La  La0  1  0.510552  0.573996  0.337666  1
  La  La1  1  0.010552  0.426004  0.662334  1
  Y  Y2  1  0.484385  0.936729  0.155264  1
  Y  Y3  1  0.984385  0.063271  0.844736  1
  Y  Y4  1  0.513232  0.568376  0.659457  1
  Y  Y5  1  0.013232  0.431624  0.340543  1
  Er  Er6  1  0.815212  0.577919  0.877717  1
  Er  Er7  1  0.315212  0.422081  0.122283  1
  Er  Er8  1  0.182085  0.926519  0.376171  1
  Er  Er9  1  0.682085  0.073481  0.623829  1
  Er  Er10  1  0.183293  0.924128  0.624663  1
  Er  Er11  1  0.683293  0.075872  0.375337  1
  Er  Er12  1  0.817968  0.575940  0.122251  1
  Er  Er13  1  0.317968  0.424060  0.877749  1
  Er  Er14  1  0.665827  0.234293  0.999704  1
  Er  Er15  1  0.165827  0.765707  0.000296  1
  Er  Er16  1  0.336054  0.266004  0.499591  1
  Er  Er17  1  0.836054  0.733996  0.500409  1
  Er  Er18  1  0.486672  0.933488  0.844213  1
  Er  Er19  1  0.986672  0.066512  0.155787  1
  Si  Si20  1  0.651479  0.274800  0.791206  1
  Si  Si21  1  0.151479  0.725200  0.208794  1
  Si  Si22  1  0.346108  0.216653  0.286364  1
  Si  Si23  1  0.846108  0.783347  0.713636  1
  Si  Si24  1  0.354575  0.217806  0.713252  1
  Si  Si25  1  0.854575  0.782194  0.286748  1
  Si  Si26  1  0.654733  0.273934  0.208530  1
  Si  Si27  1  0.154733  0.726066  0.791470  1
  Si  Si28  1  0.771506  0.881970  0.000084  1
  Si  Si29  1  0.271506  0.118030  0.999916  1
  Si  Si30  1  0.226852  0.620508  0.502274  1
  Si  Si31  1  0.726852  0.379492  0.497726  1
  Pt  Pt32  1  0.521772  0.651553  0.000464  1
  Pt  Pt33  1  0.021772  0.348447  0.999536  1
  Pt  Pt34  1  0.477698  0.850171  0.501622  1
  Pt  Pt35  1  0.977698  0.149829  0.498378  1
