# generated using pymatgen
data_YbThB8
_symmetry_space_group_name_H-M   'P 1'
_cell_length_a   7.18019544
_cell_length_b   7.18019569
_cell_length_c   4.08659600
_cell_angle_alpha   90.00000000
_cell_angle_beta   90.00000000
_cell_angle_gamma   91.18228218
_symmetry_Int_Tables_number   1
_chemical_formula_structural   YbThB8
_chemical_formula_sum   'Yb2 Th2 B16'
_cell_volume   210.64045561
_cell_formula_units_Z   2
loop_
 _symmetry_equiv_pos_site_id
 _symmetry_equiv_pos_as_xyz
  1  'x, y, z'
loop_
 _atom_site_type_symbol
 _atom_site_label
 _atom_site_symmetry_multiplicity
 _atom_site_fract_x
 _atom_site_fract_y
 _atom_site_fract_z
 _atom_site_occupancy
  Yb  Yb0  1  0.683133  0.316867  0.000000  1
  Yb  Yb1  1  0.316867  0.683133  0.000000  1
  Th  Th2  1  0.814135  0.814135  0.000000  1
  Th  Th3  1  0.185865  0.185865  0.000000  1
  B  B4  1  0.000000  0.500000  0.796486  1
  B  B5  1  0.500000  0.000000  0.796486  1
  B  B6  1  0.000000  0.500000  0.203514  1
  B  B7  1  0.500000  0.000000  0.203514  1
  B  B8  1  0.040290  0.674820  0.500000  1
  B  B9  1  0.959710  0.325180  0.500000  1
  B  B10  1  0.463746  0.176186  0.500000  1
  B  B11  1  0.536254  0.823814  0.500000  1
  B  B12  1  0.176186  0.463746  0.500000  1
  B  B13  1  0.823814  0.536254  0.500000  1
  B  B14  1  0.674820  0.040290  0.500000  1
  B  B15  1  0.325180  0.959710  0.500000  1
  B  B16  1  0.588213  0.588213  0.500000  1
  B  B17  1  0.411787  0.411787  0.500000  1
  B  B18  1  0.913188  0.086812  0.500000  1
  B  B19  1  0.086812  0.913188  0.500000  1
