# generated using pymatgen
data_Tm5Nb3(P3Ir4)4
_symmetry_space_group_name_H-M   'P 1'
_cell_length_a   12.74945300
_cell_length_b   12.74945259
_cell_length_c   3.98060400
_cell_angle_alpha   90.00000000
_cell_angle_beta   90.00000000
_cell_angle_gamma   119.99999846
_symmetry_Int_Tables_number   1
_chemical_formula_structural   Tm5Nb3(P3Ir4)4
_chemical_formula_sum   'Tm5 Nb3 P12 Ir16'
_cell_volume   560.35429386
_cell_formula_units_Z   1
loop_
 _symmetry_equiv_pos_site_id
 _symmetry_equiv_pos_as_xyz
  1  'x, y, z'
loop_
 _atom_site_type_symbol
 _atom_site_label
 _atom_site_symmetry_multiplicity
 _atom_site_fract_x
 _atom_site_fract_y
 _atom_site_fract_z
 _atom_site_occupancy
  Tm  Tm0  1  0.333333  0.666667  0.000000  1
  Tm  Tm1  1  0.666667  0.333333  0.000000  1
  Tm  Tm2  1  0.814843  0.000000  0.500000  1
  Tm  Tm3  1  0.000000  0.814843  0.500000  1
  Tm  Tm4  1  0.185157  0.185157  0.500000  1
  Nb  Nb5  1  0.452345  0.000000  0.000000  1
  Nb  Nb6  1  0.000000  0.452345  0.000000  1
  Nb  Nb7  1  0.547655  0.547655  0.000000  1
  P  P8  1  0.176148  0.000000  0.000000  1
  P  P9  1  0.000000  0.176148  0.000000  1
  P  P10  1  0.823852  0.823852  0.000000  1
  P  P11  1  0.167208  0.482961  0.500000  1
  P  P12  1  0.517039  0.684245  0.500000  1
  P  P13  1  0.315755  0.832792  0.500000  1
  P  P14  1  0.684245  0.517039  0.500000  1
  P  P15  1  0.832792  0.315755  0.500000  1
  P  P16  1  0.482961  0.167208  0.500000  1
  P  P17  1  0.643175  0.000000  0.000000  1
  P  P18  1  0.000000  0.643175  0.000000  1
  P  P19  1  0.356825  0.356825  0.000000  1
  Ir  Ir20  1  0.355442  0.493061  0.500000  1
  Ir  Ir21  1  0.506939  0.862381  0.500000  1
  Ir  Ir22  1  0.137619  0.644558  0.500000  1
  Ir  Ir23  1  0.862381  0.506939  0.500000  1
  Ir  Ir24  1  0.644558  0.137619  0.500000  1
  Ir  Ir25  1  0.493061  0.355442  0.500000  1
  Ir  Ir26  1  0.178309  0.371077  0.000000  1
  Ir  Ir27  1  0.628923  0.807232  0.000000  1
  Ir  Ir28  1  0.192768  0.821691  0.000000  1
  Ir  Ir29  1  0.807232  0.628923  0.000000  1
  Ir  Ir30  1  0.821691  0.192768  0.000000  1
  Ir  Ir31  1  0.371077  0.178309  0.000000  1
  Ir  Ir32  1  0.282065  0.000000  0.500000  1
  Ir  Ir33  1  0.000000  0.282065  0.500000  1
  Ir  Ir34  1  0.717935  0.717935  0.500000  1
  Ir  Ir35  1  0.000000  0.000000  0.000000  1
