# generated using pymatgen
data_K8Li4Er3TmAs8
_symmetry_space_group_name_H-M   'P 1'
_cell_length_a   10.28597414
_cell_length_b   10.28597433
_cell_length_c   6.70978701
_cell_angle_alpha   90.00523349
_cell_angle_beta   89.99476864
_cell_angle_gamma   98.50045388
_symmetry_Int_Tables_number   1
_chemical_formula_structural   K8Li4Er3TmAs8
_chemical_formula_sum   'K8 Li4 Er3 Tm1 As8'
_cell_volume   702.10544145
_cell_formula_units_Z   1
loop_
 _symmetry_equiv_pos_site_id
 _symmetry_equiv_pos_as_xyz
  1  'x, y, z'
loop_
 _atom_site_type_symbol
 _atom_site_label
 _atom_site_symmetry_multiplicity
 _atom_site_fract_x
 _atom_site_fract_y
 _atom_site_fract_z
 _atom_site_occupancy
  K  K0  1  0.567368  0.932856  0.750138  1
  K  K1  1  0.932856  0.567368  0.249862  1
  K  K2  1  0.432895  0.067107  0.249898  1
  K  K3  1  0.067107  0.432895  0.750102  1
  K  K4  1  0.678729  0.321246  0.787118  1
  K  K5  1  0.821267  0.178528  0.286987  1
  K  K6  1  0.321246  0.678729  0.212882  1
  K  K7  1  0.178528  0.821267  0.713013  1
  Li  Li8  1  0.617679  0.617679  0.000000  1
  Li  Li9  1  0.882522  0.882522  0.500000  1
  Li  Li10  1  0.382541  0.382541  0.000000  1
  Li  Li11  1  0.117362  0.117362  0.500000  1
  Er  Er12  1  0.632432  0.632432  0.500000  1
  Er  Er13  1  0.132011  0.132011  0.000000  1
  Er  Er14  1  0.367786  0.367786  0.500000  1
  Tm  Tm15  1  0.867892  0.867892  0.000000  1
  As  As16  1  0.348119  0.151833  0.749970  1
  As  As17  1  0.151833  0.348119  0.250030  1
  As  As18  1  0.652589  0.848125  0.249244  1
  As  As19  1  0.848125  0.652589  0.750756  1
  As  As20  1  0.905059  0.093940  0.763883  1
  As  As21  1  0.594735  0.405380  0.263302  1
  As  As22  1  0.093940  0.905059  0.236117  1
  As  As23  1  0.405380  0.594735  0.736698  1
