# generated using pymatgen
data_Ca4Ga9GeIr6
_symmetry_space_group_name_H-M   'P 1'
_cell_length_a   8.61500152
_cell_length_b   8.65991452
_cell_length_c   8.65991289
_cell_angle_alpha   140.69975048
_cell_angle_beta   110.46229314
_cell_angle_gamma   82.97807606
_symmetry_Int_Tables_number   1
_chemical_formula_structural   Ca4Ga9GeIr6
_chemical_formula_sum   'Ca4 Ga9 Ge1 Ir6'
_cell_volume   371.23153984
_cell_formula_units_Z   1
loop_
 _symmetry_equiv_pos_site_id
 _symmetry_equiv_pos_as_xyz
  1  'x, y, z'
loop_
 _atom_site_type_symbol
 _atom_site_label
 _atom_site_symmetry_multiplicity
 _atom_site_fract_x
 _atom_site_fract_y
 _atom_site_fract_z
 _atom_site_occupancy
  Ca  Ca0  1  0.870798  0.642977  0.227822  1
  Ca  Ca1  1  0.127213  0.354483  0.772729  1
  Ca  Ca2  1  0.586817  0.856735  0.730082  1
  Ca  Ca3  1  0.416421  0.144864  0.271557  1
  Ga  Ga4  1  0.497707  0.750272  0.248138  1
  Ga  Ga5  1  0.497707  0.249569  0.747434  1
  Ga  Ga6  1  0.204372  0.954655  0.750197  1
  Ga  Ga7  1  0.795554  0.544216  0.748598  1
  Ga  Ga8  1  0.795554  0.046956  0.251338  1
  Ga  Ga9  1  0.204372  0.454175  0.249717  1
  Ga  Ga10  1  0.097239  0.917138  0.180101  1
  Ga  Ga11  1  0.902114  0.084424  0.817690  1
  Ga  Ga12  1  0.265906  0.583627  0.682279  1
  Ge  Ge13  1  0.735863  0.413781  0.322082  1
  Ir  Ir14  1  0.565467  0.649320  0.916147  1
  Ir  Ir15  1  0.440475  0.351754  0.088723  1
  Ir  Ir16  1  0.998853  0.749581  0.746434  1
  Ir  Ir17  1  0.998853  0.252419  0.249272  1
  Ir  Ir18  1  0.265720  0.850519  0.415201  1
  Ir  Ir19  1  0.732993  0.148535  0.584458  1
