# generated using pymatgen
data_Hf8ReOs4Ru3
_symmetry_space_group_name_H-M   'P 1'
_cell_length_a   6.50019200
_cell_length_b   4.61963600
_cell_length_c   9.22583700
_cell_angle_alpha   90.00000000
_cell_angle_beta   90.00045636
_cell_angle_gamma   90.00000000
_symmetry_Int_Tables_number   1
_chemical_formula_structural   Hf8ReOs4Ru3
_chemical_formula_sum   'Hf8 Re1 Os4 Ru3'
_cell_volume   277.03823982
_cell_formula_units_Z   1
loop_
 _symmetry_equiv_pos_site_id
 _symmetry_equiv_pos_as_xyz
  1  'x, y, z'
loop_
 _atom_site_type_symbol
 _atom_site_label
 _atom_site_symmetry_multiplicity
 _atom_site_fract_x
 _atom_site_fract_y
 _atom_site_fract_z
 _atom_site_occupancy
  Hf  Hf0  1  0.499117  0.750000  0.125001  1
  Hf  Hf1  1  0.000963  0.750000  0.125010  1
  Hf  Hf2  1  0.499550  0.250001  0.374151  1
  Hf  Hf3  1  0.000570  0.250001  0.374154  1
  Hf  Hf4  1  0.000103  0.750000  0.625006  1
  Hf  Hf5  1  0.499774  0.750000  0.625010  1
  Hf  Hf6  1  0.000475  0.250001  0.875828  1
  Hf  Hf7  1  0.499446  0.250001  0.875827  1
  Re  Re8  1  0.250023  0.250001  0.124993  1
  Os  Os9  1  0.750040  0.250001  0.125008  1
  Os  Os10  1  0.250044  0.750000  0.376382  1
  Os  Os11  1  0.749961  0.250001  0.625011  1
  Os  Os12  1  0.249961  0.750000  0.873609  1
  Ru  Ru13  1  0.750048  0.750000  0.375914  1
  Ru  Ru14  1  0.249965  0.250001  0.624992  1
  Ru  Ru15  1  0.749960  0.750000  0.874106  1
