# generated using pymatgen
data_Sc6Nb4Ga12Ir6Ru
_symmetry_space_group_name_H-M   'P 1'
_cell_length_a   8.85630788
_cell_length_b   8.85630755
_cell_length_c   8.85630800
_cell_angle_alpha   59.99999084
_cell_angle_beta   59.99999209
_cell_angle_gamma   59.99999131
_symmetry_Int_Tables_number   1
_chemical_formula_structural   Sc6Nb4Ga12Ir6Ru
_chemical_formula_sum   'Sc6 Nb4 Ga12 Ir6 Ru1'
_cell_volume   491.18265818
_cell_formula_units_Z   1
loop_
 _symmetry_equiv_pos_site_id
 _symmetry_equiv_pos_as_xyz
  1  'x, y, z'
loop_
 _atom_site_type_symbol
 _atom_site_label
 _atom_site_symmetry_multiplicity
 _atom_site_fract_x
 _atom_site_fract_y
 _atom_site_fract_z
 _atom_site_occupancy
  Sc  Sc0  1  0.702158  0.702158  0.297842  1
  Sc  Sc1  1  0.297842  0.702158  0.297842  1
  Sc  Sc2  1  0.702158  0.297842  0.297842  1
  Sc  Sc3  1  0.297842  0.297842  0.702158  1
  Sc  Sc4  1  0.702158  0.297842  0.702158  1
  Sc  Sc5  1  0.297842  0.702158  0.702158  1
  Nb  Nb6  1  0.877700  0.877700  0.366898  1
  Nb  Nb7  1  0.877700  0.366898  0.877700  1
  Nb  Nb8  1  0.366898  0.877700  0.877700  1
  Nb  Nb9  1  0.877700  0.877700  0.877700  1
  Ga  Ga10  1  0.118810  0.118810  0.643569  1
  Ga  Ga11  1  0.118810  0.643569  0.118810  1
  Ga  Ga12  1  0.643569  0.118810  0.118810  1
  Ga  Ga13  1  0.118810  0.118810  0.118810  1
  Ga  Ga14  1  0.651255  0.651255  0.046233  1
  Ga  Ga15  1  0.651255  0.046233  0.651255  1
  Ga  Ga16  1  0.046233  0.651255  0.651255  1
  Ga  Ga17  1  0.651255  0.651255  0.651255  1
  Ga  Ga18  1  0.337032  0.337032  0.988904  1
  Ga  Ga19  1  0.337032  0.988904  0.337032  1
  Ga  Ga20  1  0.988904  0.337032  0.337032  1
  Ga  Ga21  1  0.337032  0.337032  0.337032  1
  Ir  Ir22  1  0.997378  0.997378  0.502622  1
  Ir  Ir23  1  0.502622  0.997378  0.502622  1
  Ir  Ir24  1  0.997378  0.502622  0.502622  1
  Ir  Ir25  1  0.502622  0.502622  0.997378  1
  Ir  Ir26  1  0.997378  0.502622  0.997378  1
  Ir  Ir27  1  0.502622  0.997378  0.997378  1
  Ru  Ru28  1  0.000000  0.000000  0.000000  1
