# generated using pymatgen
data_CeTh(Al3Rh)3
_symmetry_space_group_name_H-M   'P 1'
_cell_length_a   7.65026220
_cell_length_b   7.65769491
_cell_length_c   9.50738700
_cell_angle_alpha   90.00000000
_cell_angle_beta   90.00000000
_cell_angle_gamma   119.45746677
_symmetry_Int_Tables_number   1
_chemical_formula_structural   CeTh(Al3Rh)3
_chemical_formula_sum   'Ce2 Th2 Al18 Rh6'
_cell_volume   484.96966352
_cell_formula_units_Z   2
loop_
 _symmetry_equiv_pos_site_id
 _symmetry_equiv_pos_as_xyz
  1  'x, y, z'
loop_
 _atom_site_type_symbol
 _atom_site_label
 _atom_site_symmetry_multiplicity
 _atom_site_fract_x
 _atom_site_fract_y
 _atom_site_fract_z
 _atom_site_occupancy
  Ce  Ce0  1  0.671038  0.995770  0.250000  1
  Ce  Ce1  1  0.328962  0.004230  0.750000  1
  Th  Th2  1  0.995000  0.671931  0.250000  1
  Th  Th3  1  0.005000  0.328069  0.750000  1
  Al  Al4  1  0.001756  0.332917  0.076293  1
  Al  Al5  1  0.998244  0.667083  0.923707  1
  Al  Al6  1  0.998244  0.667083  0.576293  1
  Al  Al7  1  0.338365  0.004480  0.426679  1
  Al  Al8  1  0.001756  0.332917  0.423707  1
  Al  Al9  1  0.661635  0.995520  0.573321  1
  Al  Al10  1  0.661635  0.995520  0.926679  1
  Al  Al11  1  0.338365  0.004480  0.073321  1
  Al  Al12  1  0.336155  0.334040  0.546908  1
  Al  Al13  1  0.663845  0.665960  0.453092  1
  Al  Al14  1  0.663845  0.665960  0.046908  1
  Al  Al15  1  0.336155  0.334040  0.953092  1
  Al  Al16  1  0.131086  0.132591  0.250000  1
  Al  Al17  1  0.868914  0.867409  0.750000  1
  Al  Al18  1  0.343383  0.548883  0.250000  1
  Al  Al19  1  0.656617  0.451117  0.750000  1
  Al  Al20  1  0.546362  0.339764  0.250000  1
  Al  Al21  1  0.453638  0.660236  0.750000  1
  Rh  Rh22  1  0.673172  0.329276  0.999946  1
  Rh  Rh23  1  0.326828  0.670724  0.000054  1
  Rh  Rh24  1  0.326828  0.670724  0.499946  1
  Rh  Rh25  1  0.673172  0.329276  0.500054  1
  Rh  Rh26  1  0.000000  0.000000  0.000000  1
  Rh  Rh27  1  0.000000  0.000000  0.500000  1
