# generated using pymatgen
data_Tb2NdY(CCl)2
_symmetry_space_group_name_H-M   'P 1'
_cell_length_a   3.68830300
_cell_length_b   3.68826720
_cell_length_c   13.88954200
_cell_angle_alpha   90.00528882
_cell_angle_beta   89.99746227
_cell_angle_gamma   120.00129177
_symmetry_Int_Tables_number   1
_chemical_formula_structural   Tb2NdY(CCl)2
_chemical_formula_sum   'Tb2 Nd1 Y1 C2 Cl2'
_cell_volume   163.62960069
_cell_formula_units_Z   1
loop_
 _symmetry_equiv_pos_site_id
 _symmetry_equiv_pos_as_xyz
  1  'x, y, z'
loop_
 _atom_site_type_symbol
 _atom_site_label
 _atom_site_symmetry_multiplicity
 _atom_site_fract_x
 _atom_site_fract_y
 _atom_site_fract_z
 _atom_site_occupancy
  Tb  Tb0  1  0.666704  0.333115  0.902723  1
  Tb  Tb1  1  0.333293  0.666836  0.408792  1
  Nd  Nd2  1  0.333376  0.666543  0.095424  1
  Y  Y3  1  0.666627  0.333565  0.594027  1
  C  C4  1  0.000044  0.999821  0.990873  1
  C  C5  1  0.999971  0.000133  0.502149  1
  Cl  Cl6  1  0.333329  0.666615  0.746358  1
  Cl  Cl7  1  0.666657  0.333371  0.259653  1
