# generated using pymatgen
data_Tb4Eu2NbO12
_symmetry_space_group_name_H-M   'P 1'
_cell_length_a   6.54812764
_cell_length_b   6.53860002
_cell_length_c   6.59931145
_cell_angle_alpha   98.61072966
_cell_angle_beta   98.93409675
_cell_angle_gamma   98.61607074
_symmetry_Int_Tables_number   1
_chemical_formula_structural   Tb4Eu2NbO12
_chemical_formula_sum   'Tb4 Eu2 Nb1 O12'
_cell_volume   271.61240674
_cell_formula_units_Z   1
loop_
 _symmetry_equiv_pos_site_id
 _symmetry_equiv_pos_as_xyz
  1  'x, y, z'
loop_
 _atom_site_type_symbol
 _atom_site_label
 _atom_site_symmetry_multiplicity
 _atom_site_fract_x
 _atom_site_fract_y
 _atom_site_fract_z
 _atom_site_occupancy
  Tb  Tb0  1  0.141730  0.302086  0.616022  1
  Tb  Tb1  1  0.385363  0.859710  0.702249  1
  Tb  Tb2  1  0.694476  0.389051  0.859190  1
  Tb  Tb3  1  0.297081  0.609938  0.133716  1
  Eu  Eu4  1  0.599657  0.141127  0.306120  1
  Eu  Eu5  1  0.862509  0.696817  0.398749  1
  Nb  Nb6  1  0.994636  0.002370  0.003324  1
  O  O7  1  0.072753  0.304492  0.958189  1
  O  O8  1  0.049172  0.936717  0.695926  1
  O  O9  1  0.411835  0.561604  0.823858  1
  O  O10  1  0.176919  0.589967  0.435922  1
  O  O11  1  0.698909  0.039602  0.920879  1
  O  O12  1  0.437365  0.175744  0.592601  1
  O  O13  1  0.563729  0.821376  0.409157  1
  O  O14  1  0.305217  0.950099  0.063363  1
  O  O15  1  0.823666  0.410081  0.567852  1
  O  O16  1  0.587641  0.433611  0.179261  1
  O  O17  1  0.969195  0.078022  0.298819  1
  O  O18  1  0.928148  0.697585  0.034803  1
