# generated using pymatgen
data_Ba7Tc2Ir2O19
_symmetry_space_group_name_H-M   'P 1'
_cell_length_a   7.80070894
_cell_length_b   7.80071626
_cell_length_c   10.99745898
_cell_angle_alpha   81.54073692
_cell_angle_beta   81.54073703
_cell_angle_gamma   43.68160114
_symmetry_Int_Tables_number   1
_chemical_formula_structural   Ba7Tc2Ir2O19
_chemical_formula_sum   'Ba7 Tc2 Ir2 O19'
_cell_volume   456.34723120
_cell_formula_units_Z   1
loop_
 _symmetry_equiv_pos_site_id
 _symmetry_equiv_pos_as_xyz
  1  'x, y, z'
loop_
 _atom_site_type_symbol
 _atom_site_label
 _atom_site_symmetry_multiplicity
 _atom_site_fract_x
 _atom_site_fract_y
 _atom_site_fract_z
 _atom_site_occupancy
  Ba  Ba0  1  0.200384  0.200384  0.413799  1
  Ba  Ba1  1  0.799616  0.799616  0.586201  1
  Ba  Ba2  1  0.422073  0.422073  0.173241  1
  Ba  Ba3  1  0.577927  0.577927  0.826759  1
  Ba  Ba4  1  0.500000  0.500000  0.500000  1
  Ba  Ba5  1  0.863633  0.863633  0.952506  1
  Ba  Ba6  1  0.136367  0.136367  0.047494  1
  Tc  Tc7  1  0.670634  0.670634  0.217588  1
  Tc  Tc8  1  0.329366  0.329366  0.782412  1
  Ir  Ir9  1  0.970193  0.970194  0.323994  1
  Ir  Ir10  1  0.029807  0.029806  0.676006  1
  O  O11  1  0.000000  0.000000  0.500000  1
  O  O12  1  0.690413  0.690413  0.377430  1
  O  O13  1  0.309587  0.309587  0.622570  1
  O  O14  1  0.047758  0.047758  0.847494  1
  O  O15  1  0.952242  0.952242  0.152506  1
  O  O16  1  0.391094  0.391094  0.926019  1
  O  O17  1  0.608906  0.608906  0.073981  1
  O  O18  1  0.826438  0.314608  0.280616  1
  O  O19  1  0.685392  0.173562  0.719385  1
  O  O20  1  0.173562  0.685392  0.719384  1
  O  O21  1  0.314608  0.826438  0.280615  1
  O  O22  1  0.640846  0.117305  0.374710  1
  O  O23  1  0.882695  0.359153  0.625290  1
  O  O24  1  0.359154  0.882695  0.625290  1
  O  O25  1  0.117305  0.640847  0.374710  1
  O  O26  1  0.983080  0.521351  0.160357  1
  O  O27  1  0.478649  0.016921  0.839643  1
  O  O28  1  0.016920  0.478649  0.839643  1
  O  O29  1  0.521351  0.983079  0.160357  1
