# generated using pymatgen
data_PrNdSi3Hg
_symmetry_space_group_name_H-M   'P 1'
_cell_length_a   4.27283231
_cell_length_b   4.31932878
_cell_length_c   7.87640321
_cell_angle_alpha   74.08600683
_cell_angle_beta   74.26177683
_cell_angle_gamma   89.99999772
_symmetry_Int_Tables_number   1
_chemical_formula_structural   PrNdSi3Hg
_chemical_formula_sum   'Pr1 Nd1 Si3 Hg1'
_cell_volume   134.11808773
_cell_formula_units_Z   1
loop_
 _symmetry_equiv_pos_site_id
 _symmetry_equiv_pos_as_xyz
  1  'x, y, z'
loop_
 _atom_site_type_symbol
 _atom_site_label
 _atom_site_symmetry_multiplicity
 _atom_site_fract_x
 _atom_site_fract_y
 _atom_site_fract_z
 _atom_site_occupancy
  Pr  Pr0  1  0.867656  0.617656  0.264688  1
  Nd  Nd1  1  0.135988  0.385988  0.728023  1
  Si  Si2  1  0.290056  0.040056  0.419888  1
  Si  Si3  1  0.450722  0.200722  0.098556  1
  Si  Si4  1  0.714370  0.964370  0.571260  1
  Hg  Hg5  1  0.541207  0.791207  0.917587  1
