# generated using pymatgen
data_Ce2Hf3ScF22
_symmetry_space_group_name_H-M   'P 1'
_cell_length_a   8.35830260
_cell_length_b   8.35830385
_cell_length_c   8.40115924
_cell_angle_alpha   124.98944629
_cell_angle_beta   106.56486685
_cell_angle_gamma   97.87844242
_symmetry_Int_Tables_number   1
_chemical_formula_structural   Ce2Hf3ScF22
_chemical_formula_sum   'Ce2 Hf3 Sc1 F22'
_cell_volume   425.78430353
_cell_formula_units_Z   1
loop_
 _symmetry_equiv_pos_site_id
 _symmetry_equiv_pos_as_xyz
  1  'x, y, z'
loop_
 _atom_site_type_symbol
 _atom_site_label
 _atom_site_symmetry_multiplicity
 _atom_site_fract_x
 _atom_site_fract_y
 _atom_site_fract_z
 _atom_site_occupancy
  Ce  Ce0  1  0.748707  0.246221  0.493062  1
  Ce  Ce1  1  0.246841  0.744355  0.493062  1
  Hf  Hf2  1  0.322776  0.367985  0.690761  1
  Hf  Hf3  1  0.178693  0.867394  0.046088  1
  Hf  Hf4  1  0.814714  0.134616  0.949329  1
  Sc  Sc5  1  0.682370  0.637606  0.319976  1
  F  F6  1  0.706446  0.905691  0.345873  1
  F  F7  1  0.293433  0.100766  0.655651  1
  F  F8  1  0.554884  0.362218  0.655651  1
  F  F9  1  0.945781  0.604713  0.812422  1
  F  F10  1  0.440182  0.639427  0.345873  1
  F  F11  1  0.055993  0.391466  0.185777  1
  F  F12  1  0.794310  0.129783  0.185777  1
  F  F13  1  0.207709  0.866641  0.812422  1
  F  F14  1  0.497451  0.498581  0.996032  1
  F  F15  1  0.000508  0.002122  0.002630  1
  F  F16  1  0.780601  0.874142  0.654743  1
  F  F17  1  0.221156  0.130638  0.351793  1
  F  F18  1  0.278692  0.631231  0.909924  1
  F  F19  1  0.720585  0.368087  0.088671  1
  F  F20  1  0.961882  0.737366  0.419674  1
  F  F21  1  0.048910  0.263513  0.584693  1
  F  F22  1  0.321180  0.535783  0.584693  1
  F  F23  1  0.176219  0.760590  0.211896  1
  F  F24  1  0.682307  0.457792  0.419674  1
  F  F25  1  0.823713  0.243328  0.785980  1
  F  F26  1  0.542652  0.962267  0.785980  1
  F  F27  1  0.451307  0.035677  0.211896  1
