# generated using pymatgen
data_Lu2Th2ReB12Ru
_symmetry_space_group_name_H-M   'P 1'
_cell_length_a   3.73292700
_cell_length_b   9.19163684
_cell_length_c   11.61065433
_cell_angle_alpha   89.87105094
_cell_angle_beta   90.00000000
_cell_angle_gamma   90.00000000
_symmetry_Int_Tables_number   1
_chemical_formula_structural   Lu2Th2ReB12Ru
_chemical_formula_sum   'Lu4 Th4 Re2 B24 Ru2'
_cell_volume   398.38038747
_cell_formula_units_Z   2
loop_
 _symmetry_equiv_pos_site_id
 _symmetry_equiv_pos_as_xyz
  1  'x, y, z'
loop_
 _atom_site_type_symbol
 _atom_site_label
 _atom_site_symmetry_multiplicity
 _atom_site_fract_x
 _atom_site_fract_y
 _atom_site_fract_z
 _atom_site_occupancy
  Lu  Lu0  1  0.000000  0.944336  0.374180  1
  Lu  Lu1  1  0.000000  0.055664  0.625820  1
  Lu  Lu2  1  0.000000  0.446249  0.126098  1
  Lu  Lu3  1  0.000000  0.553751  0.873902  1
  Th  Th4  1  0.000000  0.322556  0.414760  1
  Th  Th5  1  0.000000  0.677444  0.585240  1
  Th  Th6  1  0.000000  0.820208  0.087224  1
  Th  Th7  1  0.000000  0.179792  0.912776  1
  Re  Re8  1  0.000000  0.640545  0.318648  1
  Re  Re9  1  0.000000  0.359455  0.681352  1
  B  B10  1  0.500000  0.556596  0.429590  1
  B  B11  1  0.500000  0.443404  0.570410  1
  B  B12  1  0.500000  0.056819  0.069860  1
  B  B13  1  0.500000  0.943181  0.930140  1
  B  B14  1  0.500000  0.751186  0.417256  1
  B  B15  1  0.500000  0.248814  0.582744  1
  B  B16  1  0.500000  0.252236  0.082486  1
  B  B17  1  0.500000  0.747764  0.917514  1
  B  B18  1  0.500000  0.792920  0.266356  1
  B  B19  1  0.500000  0.207080  0.733644  1
  B  B20  1  0.500000  0.292018  0.233022  1
  B  B21  1  0.500000  0.707982  0.766978  1
  B  B22  1  0.500000  0.630997  0.184730  1
  B  B23  1  0.500000  0.369003  0.815270  1
  B  B24  1  0.500000  0.129973  0.315529  1
  B  B25  1  0.500000  0.870027  0.684471  1
  B  B26  1  0.500000  0.985622  0.215332  1
  B  B27  1  0.500000  0.014378  0.784668  1
  B  B28  1  0.500000  0.484804  0.284509  1
  B  B29  1  0.500000  0.515196  0.715491  1
  B  B30  1  0.500000  0.602185  0.027119  1
  B  B31  1  0.500000  0.397815  0.972881  1
  B  B32  1  0.500000  0.102057  0.471759  1
  B  B33  1  0.500000  0.897943  0.528241  1
  Ru  Ru34  1  0.000000  0.140307  0.180662  1
  Ru  Ru35  1  0.000000  0.859693  0.819338  1
