# generated using pymatgen
data_Pr4Ga7Ge3(IrRh2)2
_symmetry_space_group_name_H-M   'P 1'
_cell_length_a   8.63561891
_cell_length_b   8.70354168
_cell_length_c   8.70354125
_cell_angle_alpha   140.75084915
_cell_angle_beta   108.19534725
_cell_angle_gamma   85.13056201
_symmetry_Int_Tables_number   1
_chemical_formula_structural   Pr4Ga7Ge3(IrRh2)2
_chemical_formula_sum   'Pr4 Ga7 Ge3 Ir2 Rh4'
_cell_volume   379.55160422
_cell_formula_units_Z   1
loop_
 _symmetry_equiv_pos_site_id
 _symmetry_equiv_pos_as_xyz
  1  'x, y, z'
loop_
 _atom_site_type_symbol
 _atom_site_label
 _atom_site_symmetry_multiplicity
 _atom_site_fract_x
 _atom_site_fract_y
 _atom_site_fract_z
 _atom_site_occupancy
  Pr  Pr0  1  0.862086  0.631686  0.230401  1
  Pr  Pr1  1  0.137429  0.365131  0.772297  1
  Pr  Pr2  1  0.409087  0.137828  0.271259  1
  Pr  Pr3  1  0.593486  0.864391  0.729095  1
  Ga  Ga4  1  0.498813  0.751669  0.249694  1
  Ga  Ga5  1  0.498813  0.249120  0.747144  1
  Ga  Ga6  1  0.214683  0.962002  0.748420  1
  Ga  Ga7  1  0.787000  0.533113  0.747067  1
  Ga  Ga8  1  0.787000  0.039932  0.253886  1
  Ga  Ga9  1  0.214683  0.466263  0.252682  1
  Ga  Ga10  1  0.073131  0.907921  0.165210  1
  Ge  Ge11  1  0.930117  0.093646  0.836471  1
  Ge  Ge12  1  0.736307  0.401999  0.334308  1
  Ge  Ge13  1  0.259057  0.593944  0.665113  1
  Ir  Ir14  1  0.455126  0.356698  0.098427  1
  Ir  Ir15  1  0.545608  0.645327  0.900281  1
  Rh  Rh16  1  0.997675  0.748867  0.746125  1
  Rh  Rh17  1  0.997675  0.251550  0.248808  1
  Rh  Rh18  1  0.254771  0.855252  0.399519  1
  Rh  Rh19  1  0.747454  0.143662  0.603792  1
