# generated using pymatgen
data_Cs3AgO2
_symmetry_space_group_name_H-M   'P 1'
_cell_length_a   6.71664800
_cell_length_b   8.29717400
_cell_length_c   13.41023000
_cell_angle_alpha   90.00000000
_cell_angle_beta   90.00000000
_cell_angle_gamma   90.00000000
_symmetry_Int_Tables_number   1
_chemical_formula_structural   Cs3AgO2
_chemical_formula_sum   'Cs12 Ag4 O8'
_cell_volume   747.34135153
_cell_formula_units_Z   4
loop_
 _symmetry_equiv_pos_site_id
 _symmetry_equiv_pos_as_xyz
  1  'x, y, z'
loop_
 _atom_site_type_symbol
 _atom_site_label
 _atom_site_symmetry_multiplicity
 _atom_site_fract_x
 _atom_site_fract_y
 _atom_site_fract_z
 _atom_site_occupancy
  Cs  Cs0  1  0.239773  0.750000  0.898133  1
  Cs  Cs1  1  0.760227  0.250000  0.101867  1
  Cs  Cs2  1  0.739773  0.250000  0.601867  1
  Cs  Cs3  1  0.260227  0.750000  0.398133  1
  Cs  Cs4  1  0.189341  0.999088  0.637632  1
  Cs  Cs5  1  0.689341  0.499088  0.862368  1
  Cs  Cs6  1  0.310659  0.999088  0.137632  1
  Cs  Cs7  1  0.689341  0.000912  0.862368  1
  Cs  Cs8  1  0.189341  0.500912  0.637632  1
  Cs  Cs9  1  0.310659  0.500912  0.137632  1
  Cs  Cs10  1  0.810659  0.000912  0.362368  1
  Cs  Cs11  1  0.810659  0.499088  0.362368  1
  Ag  Ag12  1  0.699000  0.750000  0.621967  1
  Ag  Ag13  1  0.199000  0.250000  0.878033  1
  Ag  Ag14  1  0.301000  0.250000  0.378033  1
  Ag  Ag15  1  0.801000  0.750000  0.121967  1
  O  O16  1  0.568791  0.750000  0.023197  1
  O  O17  1  0.068791  0.250000  0.476803  1
  O  O18  1  0.522211  0.250000  0.272335  1
  O  O19  1  0.431209  0.250000  0.976803  1
  O  O20  1  0.931209  0.750000  0.523197  1
  O  O21  1  0.477789  0.750000  0.727665  1
  O  O22  1  0.977789  0.250000  0.772335  1
  O  O23  1  0.022211  0.750000  0.227665  1
