# generated using pymatgen
data_Ho3Sc2(Hg2Pt)2
_symmetry_space_group_name_H-M   'P 1'
_cell_length_a   3.52769700
_cell_length_b   7.90098000
_cell_length_c   17.86248200
_cell_angle_alpha   90.00000000
_cell_angle_beta   90.00000000
_cell_angle_gamma   90.00000000
_symmetry_Int_Tables_number   1
_chemical_formula_structural   Ho3Sc2(Hg2Pt)2
_chemical_formula_sum   'Ho6 Sc4 Hg8 Pt4'
_cell_volume   497.86780405
_cell_formula_units_Z   2
loop_
 _symmetry_equiv_pos_site_id
 _symmetry_equiv_pos_as_xyz
  1  'x, y, z'
loop_
 _atom_site_type_symbol
 _atom_site_label
 _atom_site_symmetry_multiplicity
 _atom_site_fract_x
 _atom_site_fract_y
 _atom_site_fract_z
 _atom_site_occupancy
  Ho  Ho0  1  0.000000  0.239577  0.215145  1
  Ho  Ho1  1  0.000000  0.760423  0.784855  1
  Ho  Ho2  1  0.000000  0.260423  0.715145  1
  Ho  Ho3  1  0.000000  0.739577  0.284855  1
  Ho  Ho4  1  0.000000  0.000000  0.000000  1
  Ho  Ho5  1  0.000000  0.500000  0.500000  1
  Sc  Sc6  1  0.000000  0.115921  0.415567  1
  Sc  Sc7  1  0.000000  0.884079  0.584433  1
  Sc  Sc8  1  0.000000  0.384079  0.915567  1
  Sc  Sc9  1  0.000000  0.615921  0.084433  1
  Hg  Hg10  1  0.500000  0.417340  0.353064  1
  Hg  Hg11  1  0.500000  0.582660  0.646936  1
  Hg  Hg12  1  0.500000  0.082660  0.853064  1
  Hg  Hg13  1  0.500000  0.917340  0.146936  1
  Hg  Hg14  1  0.500000  0.300251  0.058902  1
  Hg  Hg15  1  0.500000  0.699749  0.941098  1
  Hg  Hg16  1  0.500000  0.199749  0.558902  1
  Hg  Hg17  1  0.500000  0.800251  0.441098  1
  Pt  Pt18  1  0.500000  0.032325  0.307496  1
  Pt  Pt19  1  0.500000  0.967675  0.692504  1
  Pt  Pt20  1  0.500000  0.467675  0.807496  1
  Pt  Pt21  1  0.500000  0.532325  0.192504  1
