# generated using pymatgen
data_Pr4Nd6Os3Ru
_symmetry_space_group_name_H-M   'P 1'
_cell_length_a   8.85193672
_cell_length_b   8.85841039
_cell_length_c   7.47746893
_cell_angle_alpha   83.59639474
_cell_angle_beta   83.63754812
_cell_angle_gamma   44.30203906
_symmetry_Int_Tables_number   1
_chemical_formula_structural   Pr4Nd6Os3Ru
_chemical_formula_sum   'Pr4 Nd6 Os3 Ru1'
_cell_volume   406.56187118
_cell_formula_units_Z   1
loop_
 _symmetry_equiv_pos_site_id
 _symmetry_equiv_pos_as_xyz
  1  'x, y, z'
loop_
 _atom_site_type_symbol
 _atom_site_label
 _atom_site_symmetry_multiplicity
 _atom_site_fract_x
 _atom_site_fract_y
 _atom_site_fract_z
 _atom_site_occupancy
  Pr  Pr0  1  0.020755  0.795259  0.914924  1
  Pr  Pr1  1  0.205839  0.978665  0.584804  1
  Pr  Pr2  1  0.979710  0.206186  0.084016  1
  Pr  Pr3  1  0.794445  0.021588  0.414088  1
  Nd  Nd4  1  0.360412  0.206476  0.815606  1
  Nd  Nd5  1  0.792841  0.641288  0.684591  1
  Nd  Nd6  1  0.640515  0.791707  0.185518  1
  Nd  Nd7  1  0.205075  0.360493  0.316433  1
  Nd  Nd8  1  0.573262  0.427378  0.748761  1
  Nd  Nd9  1  0.426384  0.573897  0.250495  1
  Os  Os10  1  0.177048  0.601340  0.574733  1
  Os  Os11  1  0.400070  0.820816  0.926290  1
  Os  Os12  1  0.821861  0.399415  0.425259  1
  Ru  Ru13  1  0.601783  0.175491  0.074481  1
