# generated using pymatgen
data_YMgB6Os
_symmetry_space_group_name_H-M   'P 1'
_cell_length_a   3.57934100
_cell_length_b   8.91469500
_cell_length_c   11.28514500
_cell_angle_alpha   90.00000000
_cell_angle_beta   90.00000000
_cell_angle_gamma   90.00000000
_symmetry_Int_Tables_number   1
_chemical_formula_structural   YMgB6Os
_chemical_formula_sum   'Y4 Mg4 B24 Os4'
_cell_volume   360.09468224
_cell_formula_units_Z   4
loop_
 _symmetry_equiv_pos_site_id
 _symmetry_equiv_pos_as_xyz
  1  'x, y, z'
loop_
 _atom_site_type_symbol
 _atom_site_label
 _atom_site_symmetry_multiplicity
 _atom_site_fract_x
 _atom_site_fract_y
 _atom_site_fract_z
 _atom_site_occupancy
  Y  Y0  1  0.000000  0.323448  0.413852  1
  Y  Y1  1  0.000000  0.676552  0.586148  1
  Y  Y2  1  0.000000  0.823448  0.086148  1
  Y  Y3  1  0.000000  0.176552  0.913852  1
  Mg  Mg4  1  0.000000  0.943883  0.371344  1
  Mg  Mg5  1  0.000000  0.056117  0.628656  1
  Mg  Mg6  1  0.000000  0.443883  0.128656  1
  Mg  Mg7  1  0.000000  0.556117  0.871344  1
  B  B8  1  0.500000  0.556155  0.432003  1
  B  B9  1  0.500000  0.443845  0.567997  1
  B  B10  1  0.500000  0.056155  0.067997  1
  B  B11  1  0.500000  0.943845  0.932003  1
  B  B12  1  0.500000  0.755485  0.417752  1
  B  B13  1  0.500000  0.244515  0.582248  1
  B  B14  1  0.500000  0.255485  0.082248  1
  B  B15  1  0.500000  0.744515  0.917752  1
  B  B16  1  0.500000  0.793663  0.263116  1
  B  B17  1  0.500000  0.206337  0.736883  1
  B  B18  1  0.500000  0.293663  0.236884  1
  B  B19  1  0.500000  0.706337  0.763117  1
  B  B20  1  0.500000  0.627642  0.182332  1
  B  B21  1  0.500000  0.372358  0.817668  1
  B  B22  1  0.500000  0.127642  0.317668  1
  B  B23  1  0.500000  0.872358  0.682332  1
  B  B24  1  0.500000  0.981306  0.213307  1
  B  B25  1  0.500000  0.018694  0.786693  1
  B  B26  1  0.500000  0.481306  0.286693  1
  B  B27  1  0.500000  0.518694  0.713307  1
  B  B28  1  0.500000  0.592245  0.025217  1
  B  B29  1  0.500000  0.407755  0.974783  1
  B  B30  1  0.500000  0.092245  0.474783  1
  B  B31  1  0.500000  0.907755  0.525217  1
  Os  Os32  1  0.000000  0.641105  0.317885  1
  Os  Os33  1  0.000000  0.358895  0.682115  1
  Os  Os34  1  0.000000  0.141105  0.182115  1
  Os  Os35  1  0.000000  0.858895  0.817885  1
