# generated using pymatgen
data_NaCaPd4
_symmetry_space_group_name_H-M   'P 1'
_cell_length_a   5.43251475
_cell_length_b   5.43251400
_cell_length_c   5.43251500
_cell_angle_alpha   59.99999998
_cell_angle_beta   60.00000459
_cell_angle_gamma   59.99999845
_symmetry_Int_Tables_number   1
_chemical_formula_structural   NaCaPd4
_chemical_formula_sum   'Na1 Ca1 Pd4'
_cell_volume   113.36727679
_cell_formula_units_Z   1
loop_
 _symmetry_equiv_pos_site_id
 _symmetry_equiv_pos_as_xyz
  1  'x, y, z'
loop_
 _atom_site_type_symbol
 _atom_site_label
 _atom_site_symmetry_multiplicity
 _atom_site_fract_x
 _atom_site_fract_y
 _atom_site_fract_z
 _atom_site_occupancy
  Na  Na0  1  0.750000  0.750000  0.750000  1
  Ca  Ca1  1  0.500000  0.500000  0.500000  1
  Pd  Pd2  1  0.124944  0.625167  0.124944  1
  Pd  Pd3  1  0.124944  0.124944  0.625167  1
  Pd  Pd4  1  0.625167  0.124944  0.124944  1
  Pd  Pd5  1  0.124944  0.124944  0.124944  1
