# generated using pymatgen
data_PaBe12Co
_symmetry_space_group_name_H-M   'P 1'
_cell_length_a   7.24557685
_cell_length_b   7.34834482
_cell_length_c   7.21234440
_cell_angle_alpha   59.67558278
_cell_angle_beta   59.69883479
_cell_angle_gamma   59.22927676
_symmetry_Int_Tables_number   1
_chemical_formula_structural   PaBe12Co
_chemical_formula_sum   'Pa2 Be24 Co2'
_cell_volume   268.64859544
_cell_formula_units_Z   2
loop_
 _symmetry_equiv_pos_site_id
 _symmetry_equiv_pos_as_xyz
  1  'x, y, z'
loop_
 _atom_site_type_symbol
 _atom_site_label
 _atom_site_symmetry_multiplicity
 _atom_site_fract_x
 _atom_site_fract_y
 _atom_site_fract_z
 _atom_site_occupancy
  Pa  Pa0  1  0.241483  0.258517  0.241483  1
  Pa  Pa1  1  0.758517  0.741483  0.758517  1
  Be  Be2  1  0.500000  0.500000  0.500000  1
  Be  Be3  1  0.000000  0.000000  0.000000  1
  Be  Be4  1  0.567986  0.787151  0.432014  1
  Be  Be5  1  0.432014  0.212849  0.567986  1
  Be  Be6  1  0.297234  0.938246  0.702766  1
  Be  Be7  1  0.702766  0.061754  0.297234  1
  Be  Be8  1  0.933217  0.280304  0.066783  1
  Be  Be9  1  0.066783  0.719696  0.933217  1
  Be  Be10  1  0.205970  0.798780  0.558505  1
  Be  Be11  1  0.794030  0.201220  0.441495  1
  Be  Be12  1  0.441495  0.563255  0.794030  1
  Be  Be13  1  0.558505  0.436745  0.205970  1
  Be  Be14  1  0.709535  0.283647  0.937894  1
  Be  Be15  1  0.290465  0.716353  0.062106  1
  Be  Be16  1  0.062106  0.931076  0.290465  1
  Be  Be17  1  0.937894  0.068924  0.709535  1
  Be  Be18  1  0.558856  0.206724  0.794668  1
  Be  Be19  1  0.441144  0.793276  0.205332  1
  Be  Be20  1  0.794668  0.439753  0.558856  1
  Be  Be21  1  0.205332  0.560247  0.441144  1
  Be  Be22  1  0.937698  0.711187  0.289594  1
  Be  Be23  1  0.062302  0.288813  0.710406  1
  Be  Be24  1  0.289594  0.061521  0.937698  1
  Be  Be25  1  0.710406  0.938479  0.062302  1
  Co  Co26  1  0.807017  0.554288  0.192983  1
  Co  Co27  1  0.192983  0.445712  0.807017  1
