# generated using pymatgen
data_Dy2Er2ScOs7
_symmetry_space_group_name_H-M   'P 1'
_cell_length_a   5.38294802
_cell_length_b   5.38282926
_cell_length_c   8.88122201
_cell_angle_alpha   89.99541725
_cell_angle_beta   89.99616491
_cell_angle_gamma   60.00314281
_symmetry_Int_Tables_number   1
_chemical_formula_structural   Dy2Er2ScOs7
_chemical_formula_sum   'Dy2 Er2 Sc1 Os7'
_cell_volume   222.86809455
_cell_formula_units_Z   1
loop_
 _symmetry_equiv_pos_site_id
 _symmetry_equiv_pos_as_xyz
  1  'x, y, z'
loop_
 _atom_site_type_symbol
 _atom_site_label
 _atom_site_symmetry_multiplicity
 _atom_site_fract_x
 _atom_site_fract_y
 _atom_site_fract_z
 _atom_site_occupancy
  Dy  Dy0  1  0.333340  0.333335  0.577197  1
  Dy  Dy1  1  0.666660  0.666665  0.422803  1
  Er  Er2  1  0.666643  0.666714  0.060097  1
  Er  Er3  1  0.333357  0.333286  0.939903  1
  Sc  Sc4  1  0.000000  0.000000  0.500000  1
  Os  Os5  1  0.000000  0.000000  0.000000  1
  Os  Os6  1  0.827390  0.345218  0.755869  1
  Os  Os7  1  0.345202  0.827404  0.755896  1
  Os  Os8  1  0.827409  0.827360  0.755900  1
  Os  Os9  1  0.172610  0.654782  0.244131  1
  Os  Os10  1  0.654798  0.172596  0.244104  1
  Os  Os11  1  0.172591  0.172640  0.244100  1
