# generated using pymatgen
data_Cs2NaHoBi2
_symmetry_space_group_name_H-M   'P 1'
_cell_length_a   10.54132443
_cell_length_b   10.54132457
_cell_length_c   10.54132433
_cell_angle_alpha   136.61991008
_cell_angle_beta   62.61724524
_cell_angle_gamma   137.14853112
_symmetry_Int_Tables_number   1
_chemical_formula_structural   Cs2NaHoBi2
_chemical_formula_sum   'Cs4 Na2 Ho2 Bi4'
_cell_volume   540.44970620
_cell_formula_units_Z   2
loop_
 _symmetry_equiv_pos_site_id
 _symmetry_equiv_pos_as_xyz
  1  'x, y, z'
loop_
 _atom_site_type_symbol
 _atom_site_label
 _atom_site_symmetry_multiplicity
 _atom_site_fract_x
 _atom_site_fract_y
 _atom_site_fract_z
 _atom_site_occupancy
  Cs  Cs0  1  0.823307  0.277230  0.100538  1
  Cs  Cs1  1  0.676692  0.777230  0.453923  1
  Cs  Cs2  1  0.323307  0.222770  0.546077  1
  Cs  Cs3  1  0.176693  0.722769  0.899461  1
  Na  Na4  1  0.750000  0.250000  0.500000  1
  Na  Na5  1  0.250000  0.750000  0.500000  1
  Ho  Ho6  1  0.250000  0.250000  0.000000  1
  Ho  Ho7  1  0.750001  0.750001  0.000000  1
  Bi  Bi8  1  0.404977  0.725180  0.130159  1
  Bi  Bi9  1  0.095022  0.225181  0.320203  1
  Bi  Bi10  1  0.904977  0.774819  0.679797  1
  Bi  Bi11  1  0.595022  0.274819  0.869841  1
