# generated using pymatgen
data_Ho15ErIn4(PtRh)2
_symmetry_space_group_name_H-M   'P 1'
_cell_length_a   9.61784937
_cell_length_b   9.63464316
_cell_length_c   9.63419590
_cell_angle_alpha   60.09110631
_cell_angle_beta   60.03449296
_cell_angle_gamma   60.04871135
_symmetry_Int_Tables_number   1
_chemical_formula_structural   Ho15ErIn4(PtRh)2
_chemical_formula_sum   'Ho15 Er1 In4 Pt2 Rh2'
_cell_volume   632.09940824
_cell_formula_units_Z   1
loop_
 _symmetry_equiv_pos_site_id
 _symmetry_equiv_pos_as_xyz
  1  'x, y, z'
loop_
 _atom_site_type_symbol
 _atom_site_label
 _atom_site_symmetry_multiplicity
 _atom_site_fract_x
 _atom_site_fract_y
 _atom_site_fract_z
 _atom_site_occupancy
  Ho  Ho0  1  0.192529  0.186952  0.810178  1
  Ho  Ho1  1  0.437843  0.061923  0.062094  1
  Ho  Ho2  1  0.437306  0.062582  0.438102  1
  Ho  Ho3  1  0.061971  0.438142  0.062587  1
  Ho  Ho4  1  0.649009  0.050207  0.651721  1
  Ho  Ho5  1  0.189141  0.810884  0.811065  1
  Ho  Ho6  1  0.062065  0.062527  0.437983  1
  Ho  Ho7  1  0.809534  0.190452  0.190613  1
  Ho  Ho8  1  0.810477  0.809988  0.187156  1
  Ho  Ho9  1  0.648792  0.651778  0.050352  1
  Ho  Ho10  1  0.646884  0.650784  0.650741  1
  Ho  Ho11  1  0.062560  0.437604  0.437407  1
  Ho  Ho12  1  0.051696  0.650796  0.650536  1
  Ho  Ho13  1  0.810345  0.187113  0.810036  1
  Ho  Ho14  1  0.437177  0.438261  0.062670  1
  Er  Er15  1  0.192488  0.810082  0.187050  1
  In  In16  1  0.417106  0.748844  0.416822  1
  In  In17  1  0.417137  0.416892  0.748824  1
  In  In18  1  0.749919  0.416697  0.416650  1
  In  In19  1  0.416683  0.416739  0.416637  1
  Pt  Pt20  1  0.857308  0.427835  0.857553  1
  Pt  Pt21  1  0.857759  0.857502  0.427460  1
  Rh  Rh22  1  0.426675  0.857663  0.858019  1
  Rh  Rh23  1  0.857596  0.857749  0.857743  1
