# generated using pymatgen
data_Dy5Ho11(In3Os)2
_symmetry_space_group_name_H-M   'P 1'
_cell_length_a   10.37725516
_cell_length_b   10.37725491
_cell_length_c   7.06969811
_cell_angle_alpha   90.01717270
_cell_angle_beta   89.98282845
_cell_angle_gamma   120.01020672
_symmetry_Int_Tables_number   1
_chemical_formula_structural   Dy5Ho11(In3Os)2
_chemical_formula_sum   'Dy5 Ho11 In6 Os2'
_cell_volume   659.25248977
_cell_formula_units_Z   1
loop_
 _symmetry_equiv_pos_site_id
 _symmetry_equiv_pos_as_xyz
  1  'x, y, z'
loop_
 _atom_site_type_symbol
 _atom_site_label
 _atom_site_symmetry_multiplicity
 _atom_site_fract_x
 _atom_site_fract_y
 _atom_site_fract_z
 _atom_site_occupancy
  Dy  Dy0  1  0.533057  0.066090  0.507513  1
  Dy  Dy1  1  0.933910  0.466943  0.507513  1
  Dy  Dy2  1  0.532983  0.467017  0.507585  1
  Dy  Dy3  1  0.466926  0.933788  0.007457  1
  Dy  Dy4  1  0.066212  0.533074  0.007457  1
  Ho  Ho5  1  0.466802  0.533198  0.007638  1
  Ho  Ho6  1  0.177319  0.354436  0.712920  1
  Ho  Ho7  1  0.645564  0.822681  0.712920  1
  Ho  Ho8  1  0.177092  0.822908  0.712898  1
  Ho  Ho9  1  0.822695  0.645691  0.212673  1
  Ho  Ho10  1  0.354309  0.177305  0.212673  1
  Ho  Ho11  1  0.822890  0.177110  0.212791  1
  Ho  Ho12  1  0.666575  0.333425  0.883998  1
  Ho  Ho13  1  0.333443  0.666557  0.383926  1
  Ho  Ho14  1  0.999986  0.000014  0.492919  1
  Ho  Ho15  1  0.999981  0.000019  0.992906  1
  In  In16  1  0.837170  0.674420  0.753043  1
  In  In17  1  0.325580  0.162830  0.753043  1
  In  In18  1  0.837222  0.162778  0.753057  1
  In  In19  1  0.162996  0.325727  0.252851  1
  In  In20  1  0.674273  0.837004  0.252851  1
  In  In21  1  0.162784  0.837216  0.252995  1
  Os  Os22  1  0.666690  0.333310  0.282062  1
  Os  Os23  1  0.333541  0.666459  0.782358  1
