# generated using pymatgen
data_EuAlGa(SiO4)2
_symmetry_space_group_name_H-M   'P 1'
_cell_length_a   5.26883900
_cell_length_b   5.26897529
_cell_length_c   15.53633102
_cell_angle_alpha   90.00387186
_cell_angle_beta   90.00491724
_cell_angle_gamma   60.00053385
_symmetry_Int_Tables_number   1
_chemical_formula_structural   EuAlGa(SiO4)2
_chemical_formula_sum   'Eu2 Al2 Ga2 Si4 O16'
_cell_volume   373.52744934
_cell_formula_units_Z   2
loop_
 _symmetry_equiv_pos_site_id
 _symmetry_equiv_pos_as_xyz
  1  'x, y, z'
loop_
 _atom_site_type_symbol
 _atom_site_label
 _atom_site_symmetry_multiplicity
 _atom_site_fract_x
 _atom_site_fract_y
 _atom_site_fract_z
 _atom_site_occupancy
  Eu  Eu0  1  0.000000  0.000000  0.500000  1
  Eu  Eu1  1  0.000000  0.000000  0.000000  1
  Al  Al2  1  0.666677  0.666700  0.145205  1
  Al  Al3  1  0.333323  0.333300  0.854795  1
  Ga  Ga4  1  0.666632  0.666685  0.645479  1
  Ga  Ga5  1  0.333368  0.333315  0.354521  1
  Si  Si6  1  0.333314  0.333339  0.640405  1
  Si  Si7  1  0.666686  0.666661  0.359595  1
  Si  Si8  1  0.333360  0.333338  0.137397  1
  Si  Si9  1  0.666640  0.666662  0.862603  1
  O  O10  1  0.377423  0.022512  0.600043  1
  O  O11  1  0.022504  0.600049  0.600044  1
  O  O12  1  0.600027  0.377426  0.600045  1
  O  O13  1  0.622577  0.977488  0.399957  1
  O  O14  1  0.977496  0.399951  0.399956  1
  O  O15  1  0.399973  0.622574  0.399955  1
  O  O16  1  0.588508  0.010931  0.100057  1
  O  O17  1  0.010970  0.400580  0.100056  1
  O  O18  1  0.400598  0.588454  0.100060  1
  O  O19  1  0.411492  0.989069  0.899943  1
  O  O20  1  0.989030  0.599420  0.899944  1
  O  O21  1  0.599402  0.411546  0.899940  1
  O  O22  1  0.666631  0.666672  0.760120  1
  O  O23  1  0.333311  0.333335  0.743588  1
  O  O24  1  0.333369  0.333328  0.239880  1
  O  O25  1  0.666689  0.666665  0.256412  1
