# generated using pymatgen
data_Li8Nd8ZnBi7
_symmetry_space_group_name_H-M   'P 1'
_cell_length_a   9.73388500
_cell_length_b   9.73388552
_cell_length_c   7.49861800
_cell_angle_alpha   90.00000000
_cell_angle_beta   90.00000000
_cell_angle_gamma   120.00000163
_symmetry_Int_Tables_number   1
_chemical_formula_structural   Li8Nd8ZnBi7
_chemical_formula_sum   'Li8 Nd8 Zn1 Bi7'
_cell_volume   615.29629477
_cell_formula_units_Z   1
loop_
 _symmetry_equiv_pos_site_id
 _symmetry_equiv_pos_as_xyz
  1  'x, y, z'
loop_
 _atom_site_type_symbol
 _atom_site_label
 _atom_site_symmetry_multiplicity
 _atom_site_fract_x
 _atom_site_fract_y
 _atom_site_fract_z
 _atom_site_occupancy
  Li  Li0  1  0.167639  0.335277  0.277699  1
  Li  Li1  1  0.167639  0.832361  0.277699  1
  Li  Li2  1  0.664723  0.832361  0.277699  1
  Li  Li3  1  0.829482  0.658965  0.776326  1
  Li  Li4  1  0.829482  0.170518  0.776326  1
  Li  Li5  1  0.341035  0.170518  0.776326  1
  Li  Li6  1  0.333333  0.666667  0.681507  1
  Li  Li7  1  0.666667  0.333333  0.185102  1
  Nd  Nd8  1  0.516049  0.032099  0.501412  1
  Nd  Nd9  1  0.516049  0.483951  0.501412  1
  Nd  Nd10  1  0.967901  0.483951  0.501412  1
  Nd  Nd11  1  0.494812  0.989622  0.990078  1
  Nd  Nd12  1  0.494812  0.505188  0.990078  1
  Nd  Nd13  1  0.010378  0.505188  0.990078  1
  Nd  Nd14  1  0.000000  0.000000  0.503191  1
  Nd  Nd15  1  0.000000  0.000000  0.000539  1
  Zn  Zn16  1  0.666667  0.333333  0.757370  1
  Bi  Bi17  1  0.165727  0.331455  0.736904  1
  Bi  Bi18  1  0.165727  0.834273  0.736904  1
  Bi  Bi19  1  0.668545  0.834273  0.736904  1
  Bi  Bi20  1  0.833375  0.666750  0.235509  1
  Bi  Bi21  1  0.833375  0.166625  0.235509  1
  Bi  Bi22  1  0.333250  0.166625  0.235509  1
  Bi  Bi23  1  0.333333  0.666667  0.260484  1
