# generated using pymatgen
data_Tb4DyCo7(PRu)12
_symmetry_space_group_name_H-M   'P 1'
_cell_length_a   12.38440749
_cell_length_b   12.38738416
_cell_length_c   3.81511100
_cell_angle_alpha   90.00000000
_cell_angle_beta   90.00000000
_cell_angle_gamma   119.93583284
_symmetry_Int_Tables_number   1
_chemical_formula_structural   Tb4DyCo7(PRu)12
_chemical_formula_sum   'Tb4 Dy1 Co7 P12 Ru12'
_cell_volume   507.19282034
_cell_formula_units_Z   1
loop_
 _symmetry_equiv_pos_site_id
 _symmetry_equiv_pos_as_xyz
  1  'x, y, z'
loop_
 _atom_site_type_symbol
 _atom_site_label
 _atom_site_symmetry_multiplicity
 _atom_site_fract_x
 _atom_site_fract_y
 _atom_site_fract_z
 _atom_site_occupancy
  Tb  Tb0  1  0.666671  0.333342  0.000000  1
  Tb  Tb1  1  0.333339  0.666637  0.000000  1
  Tb  Tb2  1  0.181941  0.181560  0.500000  1
  Tb  Tb3  1  0.818351  0.000222  0.500000  1
  Dy  Dy4  1  0.999646  0.817998  0.500000  1
  Co  Co5  1  0.194250  0.823906  0.000000  1
  Co  Co6  1  0.629632  0.805436  0.000000  1
  Co  Co7  1  0.176023  0.370520  0.000000  1
  Co  Co8  1  0.716002  0.722546  0.500000  1
  Co  Co9  1  0.277452  0.993429  0.500000  1
  Co  Co10  1  0.006521  0.284112  0.500000  1
  Co  Co11  1  0.999952  0.999745  0.000000  1
  P  P12  1  0.364254  0.367582  0.000000  1
  P  P13  1  0.632387  0.996721  0.000000  1
  P  P14  1  0.003380  0.635954  0.000000  1
  P  P15  1  0.837693  0.312679  0.500000  1
  P  P16  1  0.687337  0.524986  0.500000  1
  P  P17  1  0.474934  0.162277  0.500000  1
  P  P18  1  0.316352  0.839375  0.500000  1
  P  P19  1  0.523063  0.683573  0.500000  1
  P  P20  1  0.160608  0.477035  0.500000  1
  P  P21  1  0.818330  0.824190  0.000000  1
  P  P22  1  0.175568  0.993747  0.000000  1
  P  P23  1  0.006038  0.181823  0.000000  1
  Ru  Ru24  1  0.550022  0.561745  0.000000  1
  Ru  Ru25  1  0.438303  0.988332  0.000000  1
  Ru  Ru26  1  0.011648  0.450000  0.000000  1
  Ru  Ru27  1  0.826636  0.197779  0.000000  1
  Ru  Ru28  1  0.802471  0.629200  0.000000  1
  Ru  Ru29  1  0.371090  0.173248  0.000000  1
  Ru  Ru30  1  0.638398  0.123306  0.500000  1
  Ru  Ru31  1  0.876734  0.515226  0.500000  1
  Ru  Ru32  1  0.484929  0.361643  0.500000  1
  Ru  Ru33  1  0.130977  0.649049  0.500000  1
  Ru  Ru34  1  0.518004  0.869019  0.500000  1
  Ru  Ru35  1  0.351066  0.482056  0.500000  1
