# generated using pymatgen
data_MgMnGePd5
_symmetry_space_group_name_H-M   'P 1'
_cell_length_a   4.11939000
_cell_length_b   5.53428119
_cell_length_c   10.79080939
_cell_angle_alpha   90.03059054
_cell_angle_beta   90.00000000
_cell_angle_gamma   90.00000000
_symmetry_Int_Tables_number   1
_chemical_formula_structural   MgMnGePd5
_chemical_formula_sum   'Mg2 Mn2 Ge2 Pd10'
_cell_volume   246.00735485
_cell_formula_units_Z   2
loop_
 _symmetry_equiv_pos_site_id
 _symmetry_equiv_pos_as_xyz
  1  'x, y, z'
loop_
 _atom_site_type_symbol
 _atom_site_label
 _atom_site_symmetry_multiplicity
 _atom_site_fract_x
 _atom_site_fract_y
 _atom_site_fract_z
 _atom_site_occupancy
  Mg  Mg0  1  0.500000  0.336706  0.643255  1
  Mg  Mg1  1  0.500000  0.663294  0.356745  1
  Mn  Mn2  1  0.500000  0.166957  0.141827  1
  Mn  Mn3  1  0.500000  0.833043  0.858173  1
  Ge  Ge4  1  0.000000  0.000000  0.500000  1
  Ge  Ge5  1  0.000000  0.500000  0.000000  1
  Pd  Pd6  1  0.500000  0.178784  0.393241  1
  Pd  Pd7  1  0.500000  0.821216  0.606759  1
  Pd  Pd8  1  0.500000  0.314275  0.896583  1
  Pd  Pd9  1  0.500000  0.685725  0.103417  1
  Pd  Pd10  1  0.000000  0.417040  0.235847  1
  Pd  Pd11  1  0.000000  0.582960  0.764153  1
  Pd  Pd12  1  0.000000  0.079933  0.739913  1
  Pd  Pd13  1  0.000000  0.920067  0.260087  1
  Pd  Pd14  1  0.000000  0.000000  0.000000  1
  Pd  Pd15  1  0.000000  0.500000  0.500000  1
