# generated using pymatgen
data_Er4Lu4Re(B8Os)3
_symmetry_space_group_name_H-M   'P 1'
_cell_length_a   3.61846000
_cell_length_b   9.06579211
_cell_length_c   11.44952800
_cell_angle_alpha   90.07559781
_cell_angle_beta   90.00000000
_cell_angle_gamma   90.00000000
_symmetry_Int_Tables_number   1
_chemical_formula_structural   Er4Lu4Re(B8Os)3
_chemical_formula_sum   'Er4 Lu4 Re1 B24 Os3'
_cell_volume   375.59234947
_cell_formula_units_Z   1
loop_
 _symmetry_equiv_pos_site_id
 _symmetry_equiv_pos_as_xyz
  1  'x, y, z'
loop_
 _atom_site_type_symbol
 _atom_site_label
 _atom_site_symmetry_multiplicity
 _atom_site_fract_x
 _atom_site_fract_y
 _atom_site_fract_z
 _atom_site_occupancy
  Er  Er0  1  0.000000  0.321586  0.414900  1
  Er  Er1  1  0.000000  0.681016  0.588068  1
  Er  Er2  1  0.000000  0.821596  0.083620  1
  Er  Er3  1  0.000000  0.177166  0.913115  1
  Lu  Lu4  1  0.000000  0.943446  0.372408  1
  Lu  Lu5  1  0.000000  0.055759  0.627457  1
  Lu  Lu6  1  0.000000  0.443121  0.127254  1
  Lu  Lu7  1  0.000000  0.556439  0.873179  1
  Re  Re8  1  0.000000  0.862180  0.820917  1
  B  B9  1  0.500000  0.553920  0.433417  1
  B  B10  1  0.500000  0.446296  0.566888  1
  B  B11  1  0.500000  0.053647  0.067203  1
  B  B12  1  0.500000  0.947112  0.933303  1
  B  B13  1  0.500000  0.749605  0.419622  1
  B  B14  1  0.500000  0.250553  0.580254  1
  B  B15  1  0.500000  0.249319  0.080528  1
  B  B16  1  0.500000  0.750177  0.919499  1
  B  B17  1  0.500000  0.791362  0.265793  1
  B  B18  1  0.500000  0.208328  0.733397  1
  B  B19  1  0.500000  0.291772  0.234232  1
  B  B20  1  0.500000  0.707667  0.765805  1
  B  B21  1  0.500000  0.630270  0.184669  1
  B  B22  1  0.500000  0.369292  0.814957  1
  B  B23  1  0.500000  0.130857  0.315486  1
  B  B24  1  0.500000  0.869500  0.684832  1
  B  B25  1  0.500000  0.982144  0.213190  1
  B  B26  1  0.500000  0.018878  0.786745  1
  B  B27  1  0.500000  0.481975  0.287309  1
  B  B28  1  0.500000  0.517970  0.713169  1
  B  B29  1  0.500000  0.603276  0.029175  1
  B  B30  1  0.500000  0.395059  0.971378  1
  B  B31  1  0.500000  0.104650  0.470826  1
  B  B32  1  0.500000  0.895955  0.528224  1
  Os  Os33  1  0.000000  0.637817  0.320878  1
  Os  Os34  1  0.000000  0.362215  0.678562  1
  Os  Os35  1  0.000000  0.138078  0.179737  1
