# generated using pymatgen
data_Dy2Tm3Bi3C
_symmetry_space_group_name_H-M   'P 1'
_cell_length_a   9.13250800
_cell_length_b   9.13250583
_cell_length_c   6.43455500
_cell_angle_alpha   90.00000000
_cell_angle_beta   90.00000000
_cell_angle_gamma   120.00000062
_symmetry_Int_Tables_number   1
_chemical_formula_structural   Dy2Tm3Bi3C
_chemical_formula_sum   'Dy4 Tm6 Bi6 C2'
_cell_volume   464.76045249
_cell_formula_units_Z   2
loop_
 _symmetry_equiv_pos_site_id
 _symmetry_equiv_pos_as_xyz
  1  'x, y, z'
loop_
 _atom_site_type_symbol
 _atom_site_label
 _atom_site_symmetry_multiplicity
 _atom_site_fract_x
 _atom_site_fract_y
 _atom_site_fract_z
 _atom_site_occupancy
  Dy  Dy0  1  0.666667  0.333333  0.000000  1
  Dy  Dy1  1  0.333333  0.666667  0.000000  1
  Dy  Dy2  1  0.333333  0.666667  0.500000  1
  Dy  Dy3  1  0.666667  0.333333  0.500000  1
  Tm  Tm4  1  0.795859  0.795859  0.750000  1
  Tm  Tm5  1  0.204141  0.000000  0.750000  1
  Tm  Tm6  1  0.000000  0.204141  0.750000  1
  Tm  Tm7  1  0.204141  0.204141  0.250000  1
  Tm  Tm8  1  0.795859  0.000000  0.250000  1
  Tm  Tm9  1  0.000000  0.795859  0.250000  1
  Bi  Bi10  1  0.398552  0.398552  0.750000  1
  Bi  Bi11  1  0.601448  0.000000  0.750000  1
  Bi  Bi12  1  0.000000  0.601448  0.750000  1
  Bi  Bi13  1  0.601448  0.601448  0.250000  1
  Bi  Bi14  1  0.398552  0.000000  0.250000  1
  Bi  Bi15  1  0.000000  0.398552  0.250000  1
  C  C16  1  0.000000  0.000000  0.000000  1
  C  C17  1  0.000000  0.000000  0.500000  1
