# generated using pymatgen
data_Y2(S2O7)3
_symmetry_space_group_name_H-M   'P 1'
_cell_length_a   6.54354987
_cell_length_b   10.10193273
_cell_length_c   11.50951500
_cell_angle_alpha   91.01991078
_cell_angle_beta   96.78929255
_cell_angle_gamma   94.87733394
_symmetry_Int_Tables_number   1
_chemical_formula_structural   Y2(S2O7)3
_chemical_formula_sum   'Y4 S12 O42'
_cell_volume   752.43879188
_cell_formula_units_Z   2
loop_
 _symmetry_equiv_pos_site_id
 _symmetry_equiv_pos_as_xyz
  1  'x, y, z'
loop_
 _atom_site_type_symbol
 _atom_site_label
 _atom_site_symmetry_multiplicity
 _atom_site_fract_x
 _atom_site_fract_y
 _atom_site_fract_z
 _atom_site_occupancy
  Y  Y0  1  0.832099  0.411837  0.721406  1
  Y  Y1  1  0.167901  0.588163  0.278594  1
  Y  Y2  1  0.408902  0.905162  0.736823  1
  Y  Y3  1  0.591098  0.094838  0.263177  1
  S  S4  1  0.360842  0.554572  0.763966  1
  S  S5  1  0.639158  0.445428  0.236034  1
  S  S6  1  0.422483  0.187135  0.550262  1
  S  S7  1  0.577517  0.812865  0.449738  1
  S  S8  1  0.712267  0.671191  0.908666  1
  S  S9  1  0.287733  0.328809  0.091334  1
  S  S10  1  0.930702  0.070452  0.773324  1
  S  S11  1  0.069298  0.929548  0.226676  1
  S  S12  1  0.675704  0.167003  0.931853  1
  S  S13  1  0.324296  0.832997  0.068147  1
  S  S14  1  0.036287  0.299239  0.459856  1
  S  S15  1  0.963712  0.700761  0.540144  1
  O  O16  1  0.678129  0.780499  0.828603  1
  O  O17  1  0.321871  0.219501  0.171397  1
  O  O18  1  0.294354  0.683357  0.726828  1
  O  O19  1  0.705646  0.316643  0.273172  1
  O  O20  1  0.343658  0.056661  0.586394  1
  O  O21  1  0.656342  0.943339  0.413606  1
  O  O22  1  0.880201  0.087075  0.909872  1
  O  O23  1  0.119799  0.912925  0.090128  1
  O  O24  1  0.477218  0.576446  0.893991  1
  O  O25  1  0.522782  0.423554  0.106009  1
  O  O26  1  0.743182  0.006229  0.708238  1
  O  O27  1  0.256818  0.993771  0.291762  1
  O  O28  1  0.851934  0.578794  0.869019  1
  O  O29  1  0.148066  0.421206  0.130981  1
  O  O30  1  0.985258  0.204457  0.735805  1
  O  O31  1  0.014742  0.795543  0.264195  1
  O  O32  1  0.239006  0.282960  0.558873  1
  O  O33  1  0.760994  0.717040  0.441127  1
  O  O34  1  0.711713  0.298538  0.883204  1
  O  O35  1  0.288287  0.701462  0.116796  1
  O  O36  1  0.471491  0.190900  0.430737  1
  O  O37  1  0.528509  0.809100  0.569263  1
  O  O38  1  0.185920  0.459469  0.775675  1
  O  O39  1  0.814080  0.540531  0.224325  1
  O  O40  1  0.581489  0.251457  0.635941  1
  O  O41  1  0.418511  0.748543  0.364059  1
  O  O42  1  0.509904  0.504672  0.692920  1
  O  O43  1  0.490096  0.495328  0.307080  1
  O  O44  1  0.101697  0.988287  0.787092  1
  O  O45  1  0.898303  0.011713  0.212908  1
  O  O46  1  0.684210  0.168037  0.057292  1
  O  O47  1  0.315790  0.831963  0.942708  1
  O  O48  1  0.742566  0.705299  0.030374  1
  O  O49  1  0.257434  0.294701  0.969626  1
  O  O50  1  0.914445  0.372746  0.532998  1
  O  O51  1  0.085555  0.627254  0.467002  1
  O  O52  1  0.947954  0.167683  0.421931  1
  O  O53  1  0.052046  0.832317  0.578069  1
  O  O54  1  0.121285  0.379628  0.370601  1
  O  O55  1  0.878715  0.620372  0.629399  1
  O  O56  1  0.499936  0.086008  0.869225  1
  O  O57  1  0.500064  0.913992  0.130775  1
