# generated using pymatgen
data_Ho2(GaNi)5
_symmetry_space_group_name_H-M   'P 1'
_cell_length_a   4.04913800
_cell_length_b   8.86084194
_cell_length_c   15.52186600
_cell_angle_alpha   89.70816720
_cell_angle_beta   90.00000000
_cell_angle_gamma   90.00000000
_symmetry_Int_Tables_number   1
_chemical_formula_structural   Ho2(GaNi)5
_chemical_formula_sum   'Ho6 Ga15 Ni15'
_cell_volume   556.89826430
_cell_formula_units_Z   3
loop_
 _symmetry_equiv_pos_site_id
 _symmetry_equiv_pos_as_xyz
  1  'x, y, z'
loop_
 _atom_site_type_symbol
 _atom_site_label
 _atom_site_symmetry_multiplicity
 _atom_site_fract_x
 _atom_site_fract_y
 _atom_site_fract_z
 _atom_site_occupancy
  Ho  Ho0  1  0.000000  0.000254  0.337077  1
  Ho  Ho1  1  0.000000  0.504484  0.833932  1
  Ho  Ho2  1  0.000000  0.504009  0.170245  1
  Ho  Ho3  1  0.000000  0.005712  0.663727  1
  Ho  Ho4  1  0.500000  0.989717  0.001521  1
  Ho  Ho5  1  0.500000  0.497743  0.495415  1
  Ga  Ga6  1  0.500000  0.015687  0.501472  1
  Ga  Ga7  1  0.500000  0.512485  0.001248  1
  Ga  Ga8  1  0.500000  0.743736  0.259599  1
  Ga  Ga9  1  0.500000  0.252001  0.753265  1
  Ga  Ga10  1  0.500000  0.244965  0.246090  1
  Ga  Ga11  1  0.500000  0.751883  0.745368  1
  Ga  Ga12  1  0.000000  0.146869  0.854038  1
  Ga  Ga13  1  0.000000  0.143968  0.146797  1
  Ga  Ga14  1  0.000000  0.650121  0.646145  1
  Ga  Ga15  1  0.000000  0.777278  0.493245  1
  Ga  Ga16  1  0.000000  0.295515  0.000858  1
  Ga  Ga17  1  0.000000  0.848871  0.137967  1
  Ga  Ga18  1  0.000000  0.355318  0.633882  1
  Ga  Ga19  1  0.000000  0.364123  0.364553  1
  Ga  Ga20  1  0.000000  0.852851  0.865539  1
  Ni  Ni21  1  0.500000  0.989018  0.185061  1
  Ni  Ni22  1  0.500000  0.497612  0.682088  1
  Ni  Ni23  1  0.500000  0.224387  0.401875  1
  Ni  Ni24  1  0.500000  0.723511  0.903356  1
  Ni  Ni25  1  0.500000  0.785524  0.411376  1
  Ni  Ni26  1  0.500000  0.278164  0.911405  1
  Ni  Ni27  1  0.500000  0.489816  0.314315  1
  Ni  Ni28  1  0.500000  0.996094  0.816379  1
  Ni  Ni29  1  0.500000  0.721877  0.098744  1
  Ni  Ni30  1  0.500000  0.227566  0.596018  1
  Ni  Ni31  1  0.500000  0.277278  0.089621  1
  Ni  Ni32  1  0.500000  0.780366  0.587167  1
  Ni  Ni33  1  0.000000  0.204112  0.498710  1
  Ni  Ni34  1  0.000000  0.699402  0.000958  1
  Ni  Ni35  1  0.000000  0.647883  0.350943  1
