# generated using pymatgen
data_Tm3Al8(SiOs)4
_symmetry_space_group_name_H-M   'P 1'
_cell_length_a   8.66658517
_cell_length_b   8.66658519
_cell_length_c   9.38041100
_cell_angle_alpha   90.00000000
_cell_angle_beta   90.00000000
_cell_angle_gamma   120.05949907
_symmetry_Int_Tables_number   1
_chemical_formula_structural   Tm3Al8(SiOs)4
_chemical_formula_sum   'Tm6 Al16 Si8 Os8'
_cell_volume   609.80056744
_cell_formula_units_Z   2
loop_
 _symmetry_equiv_pos_site_id
 _symmetry_equiv_pos_as_xyz
  1  'x, y, z'
loop_
 _atom_site_type_symbol
 _atom_site_label
 _atom_site_symmetry_multiplicity
 _atom_site_fract_x
 _atom_site_fract_y
 _atom_site_fract_z
 _atom_site_occupancy
  Tm  Tm0  1  0.192808  0.388928  0.250000  1
  Tm  Tm1  1  0.807192  0.611072  0.750000  1
  Tm  Tm2  1  0.611072  0.807192  0.250000  1
  Tm  Tm3  1  0.388928  0.192808  0.750000  1
  Tm  Tm4  1  0.195439  0.804561  0.250000  1
  Tm  Tm5  1  0.804561  0.195439  0.750000  1
  Al  Al6  1  0.165308  0.328781  0.578918  1
  Al  Al7  1  0.834692  0.671219  0.421082  1
  Al  Al8  1  0.671219  0.834692  0.578918  1
  Al  Al9  1  0.834692  0.671219  0.078918  1
  Al  Al10  1  0.328781  0.165308  0.421082  1
  Al  Al11  1  0.165308  0.328781  0.921082  1
  Al  Al12  1  0.164472  0.835528  0.578979  1
  Al  Al13  1  0.328781  0.165308  0.078918  1
  Al  Al14  1  0.835528  0.164472  0.421021  1
  Al  Al15  1  0.671219  0.834692  0.921082  1
  Al  Al16  1  0.835528  0.164472  0.078979  1
  Al  Al17  1  0.164472  0.835528  0.921021  1
  Al  Al18  1  0.564862  0.435138  0.250000  1
  Al  Al19  1  0.435138  0.564862  0.750000  1
  Al  Al20  1  0.000152  0.999848  0.250000  1
  Al  Al21  1  0.999848  0.000152  0.750000  1
  Si  Si22  1  0.334926  0.665074  0.041668  1
  Si  Si23  1  0.665074  0.334926  0.958332  1
  Si  Si24  1  0.665074  0.334926  0.541668  1
  Si  Si25  1  0.334926  0.665074  0.458332  1
  Si  Si26  1  0.563447  0.123981  0.250000  1
  Si  Si27  1  0.436553  0.876019  0.750000  1
  Si  Si28  1  0.876019  0.436553  0.250000  1
  Si  Si29  1  0.123981  0.563447  0.750000  1
  Os  Os30  1  0.500000  0.000000  0.000000  1
  Os  Os31  1  0.000000  0.500000  0.000000  1
  Os  Os32  1  0.500000  0.000000  0.500000  1
  Os  Os33  1  0.500000  0.500000  0.000000  1
  Os  Os34  1  0.000000  0.500000  0.500000  1
  Os  Os35  1  0.500000  0.500000  0.500000  1
  Os  Os36  1  0.000000  0.000000  0.000000  1
  Os  Os37  1  0.000000  0.000000  0.500000  1
