# generated using pymatgen
data_LaTl(PO3)4
_symmetry_space_group_name_H-M   'P 1'
_cell_length_a   8.61801900
_cell_length_b   7.50820517
_cell_length_c   8.20392800
_cell_angle_alpha   88.45369268
_cell_angle_beta   90.00000000
_cell_angle_gamma   90.00000000
_symmetry_Int_Tables_number   1
_chemical_formula_structural   LaTl(PO3)4
_chemical_formula_sum   'La2 Tl2 P8 O24'
_cell_volume   530.64886383
_cell_formula_units_Z   2
loop_
 _symmetry_equiv_pos_site_id
 _symmetry_equiv_pos_as_xyz
  1  'x, y, z'
loop_
 _atom_site_type_symbol
 _atom_site_label
 _atom_site_symmetry_multiplicity
 _atom_site_fract_x
 _atom_site_fract_y
 _atom_site_fract_z
 _atom_site_occupancy
  La  La0  1  0.738764  0.763682  0.240407  1
  La  La1  1  0.238764  0.236318  0.759593  1
  Tl  Tl2  1  0.044840  0.732162  0.715330  1
  Tl  Tl3  1  0.544840  0.267838  0.284670  1
  P  P4  1  0.994387  0.382667  0.391790  1
  P  P5  1  0.494387  0.617333  0.608210  1
  P  P6  1  0.092746  0.006575  0.376376  1
  P  P7  1  0.592746  0.993425  0.623624  1
  P  P8  1  0.317452  0.897630  0.102908  1
  P  P9  1  0.817452  0.102370  0.897092  1
  P  P10  1  0.116388  0.567738  0.097938  1
  P  P11  1  0.616388  0.432262  0.902062  1
  O  O12  1  0.053485  0.389176  0.563440  1
  O  O13  1  0.553485  0.610824  0.436560  1
  O  O14  1  0.840787  0.465800  0.350595  1
  O  O15  1  0.340787  0.534200  0.649405  1
  O  O16  1  0.987092  0.178968  0.334206  1
  O  O17  1  0.487092  0.821032  0.665794  1
  O  O18  1  0.188440  0.034743  0.526667  1
  O  O19  1  0.688440  0.965257  0.473333  1
  O  O20  1  0.989075  0.845847  0.378902  1
  O  O21  1  0.489075  0.154153  0.621098  1
  O  O22  1  0.201886  0.008679  0.217986  1
  O  O23  1  0.701886  0.991321  0.782014  1
  O  O24  1  0.472730  0.321642  0.923425  1
  O  O25  1  0.972730  0.678358  0.076575  1
  O  O26  1  0.648508  0.563341  0.032894  1
  O  O27  1  0.148508  0.436659  0.967106  1
  O  O28  1  0.767063  0.308064  0.880570  1
  O  O29  1  0.267063  0.691936  0.119430  1
  O  O30  1  0.627998  0.534227  0.726454  1
  O  O31  1  0.127998  0.465773  0.273546  1
  O  O32  1  0.787416  0.032328  0.067285  1
  O  O33  1  0.287416  0.967672  0.932715  1
  O  O34  1  0.977775  0.093541  0.827187  1
  O  O35  1  0.477775  0.906459  0.172813  1
