# generated using pymatgen
data_LiI3Br10
_symmetry_space_group_name_H-M   'P 1'
_cell_length_a   12.01436820
_cell_length_b   12.01436752
_cell_length_c   9.98993133
_cell_angle_alpha   74.80711815
_cell_angle_beta   74.80711721
_cell_angle_gamma   85.99480384
_symmetry_Int_Tables_number   1
_chemical_formula_structural   LiI3Br10
_chemical_formula_sum   'Li2 I6 Br20'
_cell_volume   1342.95912623
_cell_formula_units_Z   2
loop_
 _symmetry_equiv_pos_site_id
 _symmetry_equiv_pos_as_xyz
  1  'x, y, z'
loop_
 _atom_site_type_symbol
 _atom_site_label
 _atom_site_symmetry_multiplicity
 _atom_site_fract_x
 _atom_site_fract_y
 _atom_site_fract_z
 _atom_site_occupancy
  Li  Li0  1  0.711044  0.288956  0.000000  1
  Li  Li1  1  0.288956  0.711044  0.000000  1
  I  I2  1  0.469376  0.198595  0.314094  1
  I  I3  1  0.801405  0.530624  0.685906  1
  I  I4  1  0.198595  0.469376  0.314094  1
  I  I5  1  0.530624  0.801405  0.685906  1
  I  I6  1  0.162896  0.162896  0.082384  1
  I  I7  1  0.837104  0.837104  0.917616  1
  Br  Br8  1  0.369323  0.634810  0.215448  1
  Br  Br9  1  0.011030  0.011030  0.711196  1
  Br  Br10  1  0.988970  0.988970  0.288804  1
  Br  Br11  1  0.096068  0.096068  0.871041  1
  Br  Br12  1  0.391668  0.912994  0.861272  1
  Br  Br13  1  0.968249  0.685046  0.591857  1
  Br  Br14  1  0.630677  0.365190  0.784552  1
  Br  Br15  1  0.331345  0.331345  0.491309  1
  Br  Br16  1  0.314954  0.031751  0.408143  1
  Br  Br17  1  0.608332  0.087006  0.138728  1
  Br  Br18  1  0.365190  0.630677  0.784552  1
  Br  Br19  1  0.634810  0.369323  0.215448  1
  Br  Br20  1  0.682328  0.682328  0.060773  1
  Br  Br21  1  0.912994  0.391668  0.861272  1
  Br  Br22  1  0.903932  0.903932  0.128959  1
  Br  Br23  1  0.685045  0.968249  0.591857  1
  Br  Br24  1  0.317672  0.317672  0.939227  1
  Br  Br25  1  0.087006  0.608332  0.138728  1
  Br  Br26  1  0.668655  0.668655  0.508691  1
  Br  Br27  1  0.031751  0.314955  0.408143  1
