# generated using pymatgen
data_Sc5Al4CuRh
_symmetry_space_group_name_H-M   'P 1'
_cell_length_a   3.27690700
_cell_length_b   7.41673159
_cell_length_c   16.86330444
_cell_angle_alpha   89.92952476
_cell_angle_beta   90.00000000
_cell_angle_gamma   90.00000000
_symmetry_Int_Tables_number   1
_chemical_formula_structural   Sc5Al4CuRh
_chemical_formula_sum   'Sc10 Al8 Cu2 Rh2'
_cell_volume   409.84442349
_cell_formula_units_Z   2
loop_
 _symmetry_equiv_pos_site_id
 _symmetry_equiv_pos_as_xyz
  1  'x, y, z'
loop_
 _atom_site_type_symbol
 _atom_site_label
 _atom_site_symmetry_multiplicity
 _atom_site_fract_x
 _atom_site_fract_y
 _atom_site_fract_z
 _atom_site_occupancy
  Sc  Sc0  1  0.000000  0.000000  0.000000  1
  Sc  Sc1  1  0.000000  0.500000  0.500000  1
  Sc  Sc2  1  0.000000  0.747049  0.779855  1
  Sc  Sc3  1  0.000000  0.252951  0.220145  1
  Sc  Sc4  1  0.000000  0.262612  0.716909  1
  Sc  Sc5  1  0.000000  0.737388  0.283091  1
  Sc  Sc6  1  0.000000  0.875795  0.577388  1
  Sc  Sc7  1  0.000000  0.124205  0.422612  1
  Sc  Sc8  1  0.000000  0.374096  0.921227  1
  Sc  Sc9  1  0.000000  0.625904  0.078773  1
  Al  Al10  1  0.500000  0.792135  0.430386  1
  Al  Al11  1  0.500000  0.207865  0.569614  1
  Al  Al12  1  0.500000  0.290808  0.071911  1
  Al  Al13  1  0.500000  0.709192  0.928089  1
  Al  Al14  1  0.500000  0.928359  0.151956  1
  Al  Al15  1  0.500000  0.071641  0.848044  1
  Al  Al16  1  0.500000  0.426203  0.351802  1
  Al  Al17  1  0.500000  0.573797  0.648198  1
  Cu  Cu18  1  0.500000  0.970203  0.694793  1
  Cu  Cu19  1  0.500000  0.029797  0.305207  1
  Rh  Rh20  1  0.500000  0.466174  0.805089  1
  Rh  Rh21  1  0.500000  0.533826  0.194911  1
