# generated using pymatgen
data_Tm16MgCo4Hg3
_symmetry_space_group_name_H-M   'P 1'
_cell_length_a   9.35219521
_cell_length_b   9.31355711
_cell_length_c   9.31355700
_cell_angle_alpha   60.00000394
_cell_angle_beta   60.13657726
_cell_angle_gamma   60.13658088
_symmetry_Int_Tables_number   1
_chemical_formula_structural   Tm16MgCo4Hg3
_chemical_formula_sum   'Tm16 Mg1 Co4 Hg3'
_cell_volume   574.80854211
_cell_formula_units_Z   1
loop_
 _symmetry_equiv_pos_site_id
 _symmetry_equiv_pos_as_xyz
  1  'x, y, z'
loop_
 _atom_site_type_symbol
 _atom_site_label
 _atom_site_symmetry_multiplicity
 _atom_site_fract_x
 _atom_site_fract_y
 _atom_site_fract_z
 _atom_site_occupancy
  Tm  Tm0  1  0.346833  0.345074  0.345074  1
  Tm  Tm1  1  0.346833  0.345074  0.963019  1
  Tm  Tm2  1  0.346833  0.963019  0.345074  1
  Tm  Tm3  1  0.952417  0.349195  0.349195  1
  Tm  Tm4  1  0.809629  0.189675  0.189675  1
  Tm  Tm5  1  0.185351  0.813588  0.813588  1
  Tm  Tm6  1  0.185351  0.813588  0.187474  1
  Tm  Tm7  1  0.809629  0.189675  0.811020  1
  Tm  Tm8  1  0.185351  0.187474  0.813588  1
  Tm  Tm9  1  0.809629  0.811020  0.189675  1
  Tm  Tm10  1  0.937554  0.561561  0.561561  1
  Tm  Tm11  1  0.560797  0.938291  0.938291  1
  Tm  Tm12  1  0.560797  0.938291  0.562620  1
  Tm  Tm13  1  0.937554  0.561561  0.939322  1
  Tm  Tm14  1  0.560797  0.562620  0.938291  1
  Tm  Tm15  1  0.937554  0.939322  0.561561  1
  Mg  Mg16  1  0.284934  0.571688  0.571688  1
  Co  Co17  1  0.138198  0.142673  0.142673  1
  Co  Co18  1  0.138198  0.142673  0.576456  1
  Co  Co19  1  0.138198  0.576456  0.142673  1
  Co  Co20  1  0.577186  0.140938  0.140938  1
  Hg  Hg21  1  0.583459  0.585637  0.585637  1
  Hg  Hg22  1  0.583459  0.585637  0.245266  1
  Hg  Hg23  1  0.583459  0.245266  0.585637  1
