# generated using pymatgen
data_Ho2Er4TcBi2
_symmetry_space_group_name_H-M   'P 1'
_cell_length_a   8.25135800
_cell_length_b   8.25299465
_cell_length_c   4.28434200
_cell_angle_alpha   90.00000000
_cell_angle_beta   90.00000000
_cell_angle_gamma   119.99343216
_symmetry_Int_Tables_number   1
_chemical_formula_structural   Ho2Er4TcBi2
_chemical_formula_sum   'Ho2 Er4 Tc1 Bi2'
_cell_volume   252.68560135
_cell_formula_units_Z   1
loop_
 _symmetry_equiv_pos_site_id
 _symmetry_equiv_pos_as_xyz
  1  'x, y, z'
loop_
 _atom_site_type_symbol
 _atom_site_label
 _atom_site_symmetry_multiplicity
 _atom_site_fract_x
 _atom_site_fract_y
 _atom_site_fract_z
 _atom_site_occupancy
  Ho  Ho0  1  0.000026  0.610981  0.500000  1
  Ho  Ho1  1  0.389046  0.389019  0.500000  1
  Er  Er2  1  0.232091  0.000000  0.000000  1
  Er  Er3  1  0.767879  0.768007  0.000000  1
  Er  Er4  1  0.999871  0.231993  0.000000  1
  Er  Er5  1  0.611135  0.000000  0.500000  1
  Tc  Tc6  1  0.999821  0.000000  0.500000  1
  Bi  Bi7  1  0.333452  0.666774  0.000000  1
  Bi  Bi8  1  0.666679  0.333226  0.000000  1
