# generated using pymatgen
data_Mn2InSnRh4
_symmetry_space_group_name_H-M   'P 1'
_cell_length_a   7.70671954
_cell_length_b   7.70671969
_cell_length_c   7.70672055
_cell_angle_alpha   33.66189069
_cell_angle_beta   33.66189390
_cell_angle_gamma   33.66188820
_symmetry_Int_Tables_number   1
_chemical_formula_structural   Mn2InSnRh4
_chemical_formula_sum   'Mn2 In1 Sn1 Rh4'
_cell_volume   125.28585214
_cell_formula_units_Z   1
loop_
 _symmetry_equiv_pos_site_id
 _symmetry_equiv_pos_as_xyz
  1  'x, y, z'
loop_
 _atom_site_type_symbol
 _atom_site_label
 _atom_site_symmetry_multiplicity
 _atom_site_fract_x
 _atom_site_fract_y
 _atom_site_fract_z
 _atom_site_occupancy
  Mn  Mn0  1  0.251184  0.251184  0.251184  1
  Mn  Mn1  1  0.748816  0.748816  0.748816  1
  In  In2  1  0.000000  0.000000  0.000000  1
  Sn  Sn3  1  0.500000  0.500000  0.500000  1
  Rh  Rh4  1  0.623736  0.623736  0.623736  1
  Rh  Rh5  1  0.126080  0.126080  0.126080  1
  Rh  Rh6  1  0.873920  0.873920  0.873920  1
  Rh  Rh7  1  0.376264  0.376264  0.376264  1
