# generated using pymatgen
data_HfZr2NbSb2
_symmetry_space_group_name_H-M   'P 1'
_cell_length_a   7.42679300
_cell_length_b   3.83853900
_cell_length_c   9.16642600
_cell_angle_alpha   90.00000000
_cell_angle_beta   90.00000000
_cell_angle_gamma   90.00000000
_symmetry_Int_Tables_number   1
_chemical_formula_structural   HfZr2NbSb2
_chemical_formula_sum   'Hf2 Zr4 Nb2 Sb4'
_cell_volume   261.31678934
_cell_formula_units_Z   2
loop_
 _symmetry_equiv_pos_site_id
 _symmetry_equiv_pos_as_xyz
  1  'x, y, z'
loop_
 _atom_site_type_symbol
 _atom_site_label
 _atom_site_symmetry_multiplicity
 _atom_site_fract_x
 _atom_site_fract_y
 _atom_site_fract_z
 _atom_site_occupancy
  Hf  Hf0  1  0.625651  0.750000  0.062504  1
  Hf  Hf1  1  0.125651  0.750000  0.437496  1
  Zr  Zr2  1  0.945600  0.250000  0.169771  1
  Zr  Zr3  1  0.445599  0.250000  0.330229  1
  Zr  Zr4  1  0.560626  0.750000  0.667390  1
  Zr  Zr5  1  0.060625  0.750000  0.832610  1
  Nb  Nb6  1  0.868258  0.250000  0.563382  1
  Nb  Nb7  1  0.368258  0.250000  0.936618  1
  Sb  Sb8  1  0.242558  0.750000  0.136073  1
  Sb  Sb9  1  0.742557  0.750000  0.363927  1
  Sb  Sb10  1  0.257308  0.250000  0.640261  1
  Sb  Sb11  1  0.757309  0.250000  0.859739  1
