# generated using pymatgen
data_Sm2Ho2LuSn4
_symmetry_space_group_name_H-M   'P 1'
_cell_length_a   8.02865800
_cell_length_b   8.18455000
_cell_length_c   15.48035900
_cell_angle_alpha   90.00000000
_cell_angle_beta   90.00000000
_cell_angle_gamma   90.00000000
_symmetry_Int_Tables_number   1
_chemical_formula_structural   Sm2Ho2LuSn4
_chemical_formula_sum   'Sm8 Ho8 Lu4 Sn16'
_cell_volume   1017.22914010
_cell_formula_units_Z   4
loop_
 _symmetry_equiv_pos_site_id
 _symmetry_equiv_pos_as_xyz
  1  'x, y, z'
loop_
 _atom_site_type_symbol
 _atom_site_label
 _atom_site_symmetry_multiplicity
 _atom_site_fract_x
 _atom_site_fract_y
 _atom_site_fract_z
 _atom_site_occupancy
  Sm  Sm0  1  0.518287  0.321417  0.903190  1
  Sm  Sm1  1  0.018287  0.178583  0.596810  1
  Sm  Sm2  1  0.481713  0.678583  0.403190  1
  Sm  Sm3  1  0.981713  0.821417  0.096810  1
  Sm  Sm4  1  0.481713  0.678583  0.096810  1
  Sm  Sm5  1  0.981713  0.821417  0.403190  1
  Sm  Sm6  1  0.518287  0.321417  0.596810  1
  Sm  Sm7  1  0.018287  0.178583  0.903190  1
  Ho  Ho8  1  0.364291  0.836498  0.877138  1
  Ho  Ho9  1  0.864291  0.663502  0.622862  1
  Ho  Ho10  1  0.635709  0.163502  0.377138  1
  Ho  Ho11  1  0.135709  0.336498  0.122862  1
  Ho  Ho12  1  0.635709  0.163502  0.122862  1
  Ho  Ho13  1  0.135709  0.336498  0.377138  1
  Ho  Ho14  1  0.364291  0.836498  0.622862  1
  Ho  Ho15  1  0.864291  0.663502  0.877138  1
  Lu  Lu16  1  0.196514  0.504062  0.750000  1
  Lu  Lu17  1  0.696514  0.995938  0.750000  1
  Lu  Lu18  1  0.803486  0.495938  0.250000  1
  Lu  Lu19  1  0.303486  0.004062  0.250000  1
  Sn  Sn20  1  0.298858  0.039087  0.042148  1
  Sn  Sn21  1  0.798858  0.460913  0.457852  1
  Sn  Sn22  1  0.701142  0.960913  0.542148  1
  Sn  Sn23  1  0.201142  0.539087  0.957852  1
  Sn  Sn24  1  0.701142  0.960913  0.957852  1
  Sn  Sn25  1  0.201142  0.539087  0.542148  1
  Sn  Sn26  1  0.298858  0.039087  0.457852  1
  Sn  Sn27  1  0.798858  0.460913  0.042148  1
  Sn  Sn28  1  0.561982  0.621724  0.750000  1
  Sn  Sn29  1  0.061982  0.878276  0.750000  1
  Sn  Sn30  1  0.438018  0.378276  0.250000  1
  Sn  Sn31  1  0.938018  0.121724  0.250000  1
  Sn  Sn32  1  0.327182  0.146463  0.750000  1
  Sn  Sn33  1  0.827182  0.353537  0.750000  1
  Sn  Sn34  1  0.672818  0.853537  0.250000  1
  Sn  Sn35  1  0.172818  0.646463  0.250000  1
