# generated using pymatgen
data_TaMn3NbSi
_symmetry_space_group_name_H-M   'P 1'
_cell_length_a   4.87424700
_cell_length_b   4.87424749
_cell_length_c   7.87692800
_cell_angle_alpha   90.00000000
_cell_angle_beta   90.00000000
_cell_angle_gamma   120.00000348
_symmetry_Int_Tables_number   1
_chemical_formula_structural   TaMn3NbSi
_chemical_formula_sum   'Ta2 Mn6 Nb2 Si2'
_cell_volume   162.06998866
_cell_formula_units_Z   2
loop_
 _symmetry_equiv_pos_site_id
 _symmetry_equiv_pos_as_xyz
  1  'x, y, z'
loop_
 _atom_site_type_symbol
 _atom_site_label
 _atom_site_symmetry_multiplicity
 _atom_site_fract_x
 _atom_site_fract_y
 _atom_site_fract_z
 _atom_site_occupancy
  Ta  Ta0  1  0.666667  0.333333  0.937006  1
  Ta  Ta1  1  0.333333  0.666667  0.062994  1
  Mn  Mn2  1  0.828875  0.171125  0.248738  1
  Mn  Mn3  1  0.828875  0.657749  0.248738  1
  Mn  Mn4  1  0.342251  0.171125  0.248738  1
  Mn  Mn5  1  0.171125  0.828875  0.751262  1
  Mn  Mn6  1  0.171125  0.342251  0.751262  1
  Mn  Mn7  1  0.657749  0.828875  0.751262  1
  Nb  Nb8  1  0.333333  0.666667  0.437242  1
  Nb  Nb9  1  0.666667  0.333333  0.562758  1
  Si  Si10  1  0.000000  0.000000  0.500000  1
  Si  Si11  1  0.000000  0.000000  0.000000  1
