# generated using pymatgen
data_Nd2YZnGa7Ag3
_symmetry_space_group_name_H-M   'P 1'
_cell_length_a   4.37413432
_cell_length_b   8.42172443
_cell_length_c   8.41938416
_cell_angle_alpha   69.83058586
_cell_angle_beta   74.94382723
_cell_angle_gamma   74.94812511
_symmetry_Int_Tables_number   1
_chemical_formula_structural   Nd2YZnGa7Ag3
_chemical_formula_sum   'Nd2 Y1 Zn1 Ga7 Ag3'
_cell_volume   276.14180934
_cell_formula_units_Z   1
loop_
 _symmetry_equiv_pos_site_id
 _symmetry_equiv_pos_as_xyz
  1  'x, y, z'
loop_
 _atom_site_type_symbol
 _atom_site_label
 _atom_site_symmetry_multiplicity
 _atom_site_fract_x
 _atom_site_fract_y
 _atom_site_fract_z
 _atom_site_occupancy
  Nd  Nd0  1  0.998479  0.001218  0.001824  1
  Nd  Nd1  1  0.300833  0.697382  0.700954  1
  Y  Y2  1  0.699611  0.301167  0.299609  1
  Zn  Zn3  1  0.338089  0.295750  0.028071  1
  Ga  Ga4  1  0.659843  0.706914  0.973400  1
  Ga  Ga5  1  0.340210  0.033122  0.286458  1
  Ga  Ga6  1  0.659047  0.973294  0.708612  1
  Ga  Ga7  1  0.145120  0.571804  0.137956  1
  Ga  Ga8  1  0.857304  0.417508  0.867883  1
  Ga  Ga9  1  0.144015  0.138711  0.573261  1
  Ga  Ga10  1  0.856104  0.864117  0.423673  1
  Ag  Ag11  1  0.500393  0.302951  0.696262  1
  Ag  Ag12  1  0.500249  0.696749  0.302754  1
  Ag  Ag13  1  0.000702  0.499314  0.499283  1
