# generated using pymatgen
data_Cs2NaGa3F12
_symmetry_space_group_name_H-M   'P 1'
_cell_length_a   7.53640422
_cell_length_b   7.53640466
_cell_length_c   7.53640492
_cell_angle_alpha   59.52145965
_cell_angle_beta   59.52146263
_cell_angle_gamma   59.52145746
_symmetry_Int_Tables_number   1
_chemical_formula_structural   Cs2NaGa3F12
_chemical_formula_sum   'Cs2 Na1 Ga3 F12'
_cell_volume   299.38206779
_cell_formula_units_Z   1
loop_
 _symmetry_equiv_pos_site_id
 _symmetry_equiv_pos_as_xyz
  1  'x, y, z'
loop_
 _atom_site_type_symbol
 _atom_site_label
 _atom_site_symmetry_multiplicity
 _atom_site_fract_x
 _atom_site_fract_y
 _atom_site_fract_z
 _atom_site_occupancy
  Cs  Cs0  1  0.626124  0.626124  0.626124  1
  Cs  Cs1  1  0.373876  0.373876  0.373876  1
  Na  Na2  1  0.000000  0.000000  0.000000  1
  Ga  Ga3  1  0.500000  0.000000  0.000000  1
  Ga  Ga4  1  0.000000  0.500000  0.000000  1
  Ga  Ga5  1  0.000000  0.000000  0.500000  1
  F  F6  1  0.921465  0.305715  0.305715  1
  F  F7  1  0.081910  0.081910  0.633721  1
  F  F8  1  0.081910  0.633721  0.081910  1
  F  F9  1  0.918090  0.366279  0.918090  1
  F  F10  1  0.918090  0.918090  0.366279  1
  F  F11  1  0.633721  0.081910  0.081910  1
  F  F12  1  0.305715  0.305715  0.921465  1
  F  F13  1  0.305715  0.921465  0.305715  1
  F  F14  1  0.694285  0.078535  0.694285  1
  F  F15  1  0.078535  0.694285  0.694285  1
  F  F16  1  0.694285  0.694285  0.078535  1
  F  F17  1  0.366279  0.918090  0.918090  1
