# generated using pymatgen
data_Ho2LuSi2Ag3Ge
_symmetry_space_group_name_H-M   'P 1'
_cell_length_a   7.03256010
_cell_length_b   7.05322552
_cell_length_c   4.19578400
_cell_angle_alpha   90.00000000
_cell_angle_beta   90.00000000
_cell_angle_gamma   120.09725545
_symmetry_Int_Tables_number   1
_chemical_formula_structural   Ho2LuSi2Ag3Ge
_chemical_formula_sum   'Ho2 Lu1 Si2 Ag3 Ge1'
_cell_volume   180.06053180
_cell_formula_units_Z   1
loop_
 _symmetry_equiv_pos_site_id
 _symmetry_equiv_pos_as_xyz
  1  'x, y, z'
loop_
 _atom_site_type_symbol
 _atom_site_label
 _atom_site_symmetry_multiplicity
 _atom_site_fract_x
 _atom_site_fract_y
 _atom_site_fract_z
 _atom_site_occupancy
  Ho  Ho0  1  0.419804  0.420339  0.500000  1
  Ho  Ho1  1  0.580196  0.000535  0.500000  1
  Lu  Lu2  1  0.000000  0.580602  0.500000  1
  Si  Si3  1  0.669220  0.334908  0.000000  1
  Si  Si4  1  0.330780  0.665689  0.000000  1
  Ag  Ag5  1  0.744551  0.743893  0.000000  1
  Ag  Ag6  1  0.255449  0.999342  0.000000  1
  Ag  Ag7  1  0.000000  0.257077  0.000000  1
  Ge  Ge8  1  0.000000  0.997615  0.500000  1
