# generated using pymatgen
data_Ce2Zn4Tc
_symmetry_space_group_name_H-M   'P 1'
_cell_length_a   7.25554800
_cell_length_b   7.25554800
_cell_length_c   5.14626400
_cell_angle_alpha   90.00000000
_cell_angle_beta   90.00000000
_cell_angle_gamma   90.00000000
_symmetry_Int_Tables_number   1
_chemical_formula_structural   Ce2Zn4Tc
_chemical_formula_sum   'Ce4 Zn8 Tc2'
_cell_volume   270.91465626
_cell_formula_units_Z   2
loop_
 _symmetry_equiv_pos_site_id
 _symmetry_equiv_pos_as_xyz
  1  'x, y, z'
loop_
 _atom_site_type_symbol
 _atom_site_label
 _atom_site_symmetry_multiplicity
 _atom_site_fract_x
 _atom_site_fract_y
 _atom_site_fract_z
 _atom_site_occupancy
  Ce  Ce0  1  0.000000  0.500000  0.763584  1
  Ce  Ce1  1  0.000000  0.000000  0.000000  1
  Ce  Ce2  1  0.500000  0.000000  0.236416  1
  Ce  Ce3  1  0.500000  0.500000  0.000000  1
  Zn  Zn4  1  0.186567  0.686567  0.286475  1
  Zn  Zn5  1  0.813433  0.686567  0.286475  1
  Zn  Zn6  1  0.813433  0.313433  0.286475  1
  Zn  Zn7  1  0.313433  0.186567  0.713525  1
  Zn  Zn8  1  0.186567  0.313433  0.286475  1
  Zn  Zn9  1  0.686567  0.186567  0.713525  1
  Zn  Zn10  1  0.686567  0.813433  0.713525  1
  Zn  Zn11  1  0.313433  0.813433  0.713525  1
  Tc  Tc12  1  0.500000  0.500000  0.500000  1
  Tc  Tc13  1  0.000000  0.000000  0.500000  1
