# generated using pymatgen
data_CsK12Rb7(SiP3)4
_symmetry_space_group_name_H-M   'P 1'
_cell_length_a   5.25797200
_cell_length_b   14.53189128
_cell_length_c   15.44270469
_cell_angle_alpha   90.18237884
_cell_angle_beta   90.00000000
_cell_angle_gamma   90.00000000
_symmetry_Int_Tables_number   1
_chemical_formula_structural   CsK12Rb7(SiP3)4
_chemical_formula_sum   'Cs1 K12 Rb7 Si4 P12'
_cell_volume   1179.94448704
_cell_formula_units_Z   1
loop_
 _symmetry_equiv_pos_site_id
 _symmetry_equiv_pos_as_xyz
  1  'x, y, z'
loop_
 _atom_site_type_symbol
 _atom_site_label
 _atom_site_symmetry_multiplicity
 _atom_site_fract_x
 _atom_site_fract_y
 _atom_site_fract_z
 _atom_site_occupancy
  Cs  Cs0  1  0.250000  0.942152  0.311411  1
  K  K1  1  0.250000  0.427212  0.565179  1
  K  K2  1  0.750000  0.571937  0.434772  1
  K  K3  1  0.750000  0.927642  0.934077  1
  K  K4  1  0.250000  0.073472  0.064922  1
  K  K5  1  0.250000  0.821337  0.086163  1
  K  K6  1  0.750000  0.179376  0.912684  1
  K  K7  1  0.750000  0.321762  0.412735  1
  K  K8  1  0.250000  0.678497  0.587938  1
  K  K9  1  0.250000  0.234716  0.257965  1
  K  K10  1  0.750000  0.765811  0.741282  1
  K  K11  1  0.750000  0.732776  0.241037  1
  K  K12  1  0.250000  0.266148  0.758730  1
  Rb  Rb13  1  0.750000  0.054740  0.695401  1
  Rb  Rb14  1  0.750000  0.444866  0.195078  1
  Rb  Rb15  1  0.250000  0.554539  0.804718  1
  Rb  Rb16  1  0.250000  0.131764  0.513853  1
  Rb  Rb17  1  0.750000  0.868948  0.488507  1
  Rb  Rb18  1  0.750000  0.629819  0.986075  1
  Rb  Rb19  1  0.250000  0.369673  0.014078  1
  Si  Si20  1  0.250000  0.583627  0.288721  1
  Si  Si21  1  0.750000  0.414085  0.711725  1
  Si  Si22  1  0.750000  0.088123  0.210273  1
  Si  Si23  1  0.250000  0.914378  0.787960  1
  P  P24  1  0.250000  0.599940  0.145909  1
  P  P25  1  0.750000  0.400318  0.854616  1
  P  P26  1  0.750000  0.104502  0.353132  1
  P  P27  1  0.250000  0.899763  0.644820  1
  P  P28  1  0.250000  0.446025  0.347789  1
  P  P29  1  0.750000  0.551676  0.651697  1
  P  P30  1  0.750000  0.950177  0.149560  1
  P  P31  1  0.250000  0.052119  0.848143  1
  P  P32  1  0.250000  0.705838  0.374078  1
  P  P33  1  0.750000  0.290248  0.627344  1
  P  P34  1  0.750000  0.211222  0.125774  1
  P  P35  1  0.250000  0.790773  0.871854  1
