# generated using pymatgen
data_Lu6ZnNi2
_symmetry_space_group_name_H-M   'P 1'
_cell_length_a   8.11349886
_cell_length_b   8.11349802
_cell_length_c   8.11349715
_cell_angle_alpha   112.52538802
_cell_angle_beta   109.71180743
_cell_angle_gamma   106.23739421
_symmetry_Int_Tables_number   1
_chemical_formula_structural   Lu6ZnNi2
_chemical_formula_sum   'Lu12 Zn2 Ni4'
_cell_volume   409.91406751
_cell_formula_units_Z   2
loop_
 _symmetry_equiv_pos_site_id
 _symmetry_equiv_pos_as_xyz
  1  'x, y, z'
loop_
 _atom_site_type_symbol
 _atom_site_label
 _atom_site_symmetry_multiplicity
 _atom_site_fract_x
 _atom_site_fract_y
 _atom_site_fract_z
 _atom_site_occupancy
  Lu  Lu0  1  0.431304  0.237473  0.193831  1
  Lu  Lu1  1  0.568696  0.762527  0.806169  1
  Lu  Lu2  1  0.043641  0.237473  0.806169  1
  Lu  Lu3  1  0.956359  0.762527  0.193831  1
  Lu  Lu4  1  0.180598  0.284177  0.464775  1
  Lu  Lu5  1  0.819402  0.715823  0.535225  1
  Lu  Lu6  1  0.180598  0.715823  0.896421  1
  Lu  Lu7  1  0.819402  0.284177  0.103579  1
  Lu  Lu8  1  0.326738  0.631739  0.305001  1
  Lu  Lu9  1  0.673262  0.368261  0.694999  1
  Lu  Lu10  1  0.326738  0.021737  0.694999  1
  Lu  Lu11  1  0.673262  0.978263  0.305001  1
  Zn  Zn12  1  0.500000  0.500000  0.000000  1
  Zn  Zn13  1  0.000000  0.000000  0.000000  1
  Ni  Ni14  1  0.345791  0.000000  0.345791  1
  Ni  Ni15  1  0.654209  0.000000  0.654209  1
  Ni  Ni16  1  0.122789  0.622789  0.500000  1
  Ni  Ni17  1  0.877211  0.377211  0.500000  1
