# generated using pymatgen
data_TaBe8MoRuW
_symmetry_space_group_name_H-M   'P 1'
_cell_length_a   4.44848200
_cell_length_b   4.44848300
_cell_length_c   7.32934900
_cell_angle_alpha   90.00000000
_cell_angle_beta   90.00000000
_cell_angle_gamma   120.00000742
_symmetry_Int_Tables_number   1
_chemical_formula_structural   TaBe8MoRuW
_chemical_formula_sum   'Ta1 Be8 Mo1 Ru1 W1'
_cell_volume   125.60871542
_cell_formula_units_Z   1
loop_
 _symmetry_equiv_pos_site_id
 _symmetry_equiv_pos_as_xyz
  1  'x, y, z'
loop_
 _atom_site_type_symbol
 _atom_site_label
 _atom_site_symmetry_multiplicity
 _atom_site_fract_x
 _atom_site_fract_y
 _atom_site_fract_z
 _atom_site_occupancy
  Ta  Ta0  1  0.666667  0.333333  0.058543  1
  Be  Be1  1  0.000000  0.000000  0.504248  1
  Be  Be2  1  0.000000  0.000000  0.998847  1
  Be  Be3  1  0.662577  0.831288  0.252611  1
  Be  Be4  1  0.168712  0.831288  0.252611  1
  Be  Be5  1  0.168712  0.337423  0.252611  1
  Be  Be6  1  0.338019  0.169010  0.747909  1
  Be  Be7  1  0.830990  0.169010  0.747909  1
  Be  Be8  1  0.830990  0.661981  0.747909  1
  Mo  Mo9  1  0.333333  0.666667  0.562614  1
  Ru  Ru10  1  0.333333  0.666667  0.934369  1
  W  W11  1  0.666667  0.333333  0.439822  1
