# generated using pymatgen
data_Y20FeCoHg6
_symmetry_space_group_name_H-M   'P 1'
_cell_length_a   9.63944700
_cell_length_b   9.63944763
_cell_length_c   9.63157400
_cell_angle_alpha   90.00000000
_cell_angle_beta   90.00000000
_cell_angle_gamma   119.99999440
_symmetry_Int_Tables_number   1
_chemical_formula_structural   Y20FeCoHg6
_chemical_formula_sum   'Y20 Fe1 Co1 Hg6'
_cell_volume   775.05440709
_cell_formula_units_Z   1
loop_
 _symmetry_equiv_pos_site_id
 _symmetry_equiv_pos_as_xyz
  1  'x, y, z'
loop_
 _atom_site_type_symbol
 _atom_site_label
 _atom_site_symmetry_multiplicity
 _atom_site_fract_x
 _atom_site_fract_y
 _atom_site_fract_z
 _atom_site_occupancy
  Y  Y0  1  0.000000  0.000000  0.499943  1
  Y  Y1  1  0.000000  0.000000  0.000057  1
  Y  Y2  1  0.541441  0.458559  0.250000  1
  Y  Y3  1  0.541441  0.082881  0.250000  1
  Y  Y4  1  0.917119  0.458559  0.250000  1
  Y  Y5  1  0.457597  0.542403  0.750000  1
  Y  Y6  1  0.457597  0.915193  0.750000  1
  Y  Y7  1  0.084807  0.542403  0.750000  1
  Y  Y8  1  0.211604  0.788396  0.435796  1
  Y  Y9  1  0.211604  0.423211  0.435796  1
  Y  Y10  1  0.576789  0.788396  0.435796  1
  Y  Y11  1  0.788605  0.211395  0.564254  1
  Y  Y12  1  0.788605  0.577209  0.564254  1
  Y  Y13  1  0.422791  0.211395  0.564254  1
  Y  Y14  1  0.788605  0.211395  0.935746  1
  Y  Y15  1  0.788605  0.577209  0.935746  1
  Y  Y16  1  0.422791  0.211395  0.935746  1
  Y  Y17  1  0.211604  0.788396  0.064204  1
  Y  Y18  1  0.211604  0.423211  0.064204  1
  Y  Y19  1  0.576789  0.788396  0.064204  1
  Fe  Fe20  1  0.333333  0.666667  0.250000  1
  Co  Co21  1  0.666667  0.333333  0.750000  1
  Hg  Hg22  1  0.880958  0.119042  0.250000  1
  Hg  Hg23  1  0.880958  0.761915  0.250000  1
  Hg  Hg24  1  0.238085  0.119042  0.250000  1
  Hg  Hg25  1  0.119193  0.880807  0.750000  1
  Hg  Hg26  1  0.119193  0.238386  0.750000  1
  Hg  Hg27  1  0.761614  0.880807  0.750000  1
