# generated using pymatgen
data_Cs4Zr6RuI18
_symmetry_space_group_name_H-M   'P 1'
_cell_length_a   11.68428315
_cell_length_b   12.07409725
_cell_length_c   12.16613641
_cell_angle_alpha   118.33294262
_cell_angle_beta   100.73079757
_cell_angle_gamma   104.16892857
_symmetry_Int_Tables_number   1
_chemical_formula_structural   Cs4Zr6RuI18
_chemical_formula_sum   'Cs4 Zr6 Ru1 I18'
_cell_volume   1369.77515807
_cell_formula_units_Z   1
loop_
 _symmetry_equiv_pos_site_id
 _symmetry_equiv_pos_as_xyz
  1  'x, y, z'
loop_
 _atom_site_type_symbol
 _atom_site_label
 _atom_site_symmetry_multiplicity
 _atom_site_fract_x
 _atom_site_fract_y
 _atom_site_fract_z
 _atom_site_occupancy
  Cs  Cs0  1  0.661656  0.537908  0.228656  1
  Cs  Cs1  1  0.338344  0.462092  0.771344  1
  Cs  Cs2  1  0.697046  0.229813  0.566826  1
  Cs  Cs3  1  0.302954  0.770187  0.433174  1
  Zr  Zr4  1  0.149322  0.055432  0.223768  1
  Zr  Zr5  1  0.850678  0.944568  0.776232  1
  Zr  Zr6  1  0.863767  0.119305  0.125518  1
  Zr  Zr7  1  0.136233  0.880695  0.874482  1
  Zr  Zr8  1  0.143028  0.230467  0.044277  1
  Zr  Zr9  1  0.856972  0.769533  0.955723  1
  Ru  Ru10  1  0.000000  0.000000  0.000000  1
  I  I11  1  0.008002  0.393077  0.187839  1
  I  I12  1  0.991998  0.606923  0.812161  1
  I  I13  1  0.324944  0.323579  0.302352  1
  I  I14  1  0.675056  0.676421  0.697648  1
  I  I15  1  0.316485  0.503653  0.099819  1
  I  I16  1  0.683515  0.496347  0.900181  1
  I  I17  1  0.004759  0.802980  0.202427  1
  I  I18  1  0.995241  0.197020  0.797573  1
  I  I19  1  0.708015  0.259900  0.273345  1
  I  I20  1  0.291985  0.740100  0.726655  1
  I  I21  1  0.311421  0.126277  0.909750  1
  I  I22  1  0.688579  0.873723  0.090250  1
  I  I23  1  0.016056  0.196490  0.393010  1
  I  I24  1  0.983944  0.803510  0.606990  1
  I  I25  1  0.317206  0.929704  0.110424  1
  I  I26  1  0.682794  0.070296  0.889576  1
  I  I27  1  0.330782  0.121808  0.487534  1
  I  I28  1  0.669218  0.878192  0.512466  1
