# generated using pymatgen
data_PuNp4Ga15
_symmetry_space_group_name_H-M   'P 1'
_cell_length_a   12.53241085
_cell_length_b   12.53241214
_cell_length_c   12.53241123
_cell_angle_alpha   28.29095472
_cell_angle_beta   28.29094205
_cell_angle_gamma   28.29094764
_symmetry_Int_Tables_number   1
_chemical_formula_structural   PuNp4Ga15
_chemical_formula_sum   'Pu1 Np4 Ga15'
_cell_volume   390.68195810
_cell_formula_units_Z   1
loop_
 _symmetry_equiv_pos_site_id
 _symmetry_equiv_pos_as_xyz
  1  'x, y, z'
loop_
 _atom_site_type_symbol
 _atom_site_label
 _atom_site_symmetry_multiplicity
 _atom_site_fract_x
 _atom_site_fract_y
 _atom_site_fract_z
 _atom_site_occupancy
  Pu  Pu0  1  0.000000  0.000000  0.000000  1
  Np  Np1  1  0.130679  0.130679  0.130679  1
  Np  Np2  1  0.869321  0.869321  0.869321  1
  Np  Np3  1  0.400138  0.400138  0.400138  1
  Np  Np4  1  0.599862  0.599862  0.599862  1
  Ga  Ga5  1  0.428095  0.885806  0.885806  1
  Ga  Ga6  1  0.885806  0.885806  0.428095  1
  Ga  Ga7  1  0.885806  0.428095  0.885806  1
  Ga  Ga8  1  0.114194  0.571905  0.114194  1
  Ga  Ga9  1  0.114194  0.114194  0.571905  1
  Ga  Ga10  1  0.571905  0.114194  0.114194  1
  Ga  Ga11  1  0.130183  0.635762  0.635762  1
  Ga  Ga12  1  0.635762  0.635762  0.130183  1
  Ga  Ga13  1  0.635762  0.130183  0.635762  1
  Ga  Ga14  1  0.364238  0.869817  0.364238  1
  Ga  Ga15  1  0.364238  0.364238  0.869817  1
  Ga  Ga16  1  0.869817  0.364238  0.364238  1
  Ga  Ga17  1  0.500000  0.500000  0.000000  1
  Ga  Ga18  1  0.500000  0.000000  0.500000  1
  Ga  Ga19  1  0.000000  0.500000  0.500000  1
