# generated using pymatgen
data_Si4Pd11Pt
_symmetry_space_group_name_H-M   'P 1'
_cell_length_a   5.32371070
_cell_length_b   5.90116914
_cell_length_c   7.61971826
_cell_angle_alpha   90.05172049
_cell_angle_beta   89.71511264
_cell_angle_gamma   89.84159116
_symmetry_Int_Tables_number   1
_chemical_formula_structural   Si4Pd11Pt
_chemical_formula_sum   'Si4 Pd11 Pt1'
_cell_volume   239.37798804
_cell_formula_units_Z   1
loop_
 _symmetry_equiv_pos_site_id
 _symmetry_equiv_pos_as_xyz
  1  'x, y, z'
loop_
 _atom_site_type_symbol
 _atom_site_label
 _atom_site_symmetry_multiplicity
 _atom_site_fract_x
 _atom_site_fract_y
 _atom_site_fract_z
 _atom_site_occupancy
  Si  Si0  1  0.531199  0.103478  0.750428  1
  Si  Si1  1  0.032537  0.394865  0.251033  1
  Si  Si2  1  0.966290  0.606038  0.750355  1
  Si  Si3  1  0.470438  0.894047  0.249078  1
  Pd  Pd4  1  0.177422  0.679283  0.052150  1
  Pd  Pd5  1  0.822847  0.320931  0.552212  1
  Pd  Pd6  1  0.323550  0.178925  0.448346  1
  Pd  Pd7  1  0.903643  0.008267  0.249393  1
  Pd  Pd8  1  0.401599  0.492086  0.750359  1
  Pd  Pd9  1  0.597786  0.505799  0.250001  1
  Pd  Pd10  1  0.097101  0.993410  0.749480  1
  Pd  Pd11  1  0.675601  0.820249  0.549494  1
  Pd  Pd12  1  0.176486  0.679343  0.448360  1
  Pd  Pd13  1  0.823540  0.321257  0.948465  1
  Pd  Pd14  1  0.322480  0.180221  0.052550  1
  Pt  Pt15  1  0.677483  0.821802  0.948296  1
