# generated using pymatgen
data_Li8Nd8AlSb7
_symmetry_space_group_name_H-M   'P 1'
_cell_length_a   9.57188000
_cell_length_b   9.57188016
_cell_length_c   7.43069800
_cell_angle_alpha   90.00000000
_cell_angle_beta   90.00000000
_cell_angle_gamma   119.99999255
_symmetry_Int_Tables_number   1
_chemical_formula_structural   Li8Nd8AlSb7
_chemical_formula_sum   'Li8 Nd8 Al1 Sb7'
_cell_volume   589.59633207
_cell_formula_units_Z   1
loop_
 _symmetry_equiv_pos_site_id
 _symmetry_equiv_pos_as_xyz
  1  'x, y, z'
loop_
 _atom_site_type_symbol
 _atom_site_label
 _atom_site_symmetry_multiplicity
 _atom_site_fract_x
 _atom_site_fract_y
 _atom_site_fract_z
 _atom_site_occupancy
  Li  Li0  1  0.167223  0.334448  0.268467  1
  Li  Li1  1  0.167223  0.832777  0.268467  1
  Li  Li2  1  0.665552  0.832777  0.268467  1
  Li  Li3  1  0.831801  0.663602  0.769120  1
  Li  Li4  1  0.831801  0.168199  0.769120  1
  Li  Li5  1  0.336398  0.168199  0.769120  1
  Li  Li6  1  0.333333  0.666667  0.692340  1
  Li  Li7  1  0.666667  0.333333  0.197706  1
  Nd  Nd8  1  0.511400  0.022801  0.498826  1
  Nd  Nd9  1  0.511400  0.488600  0.498826  1
  Nd  Nd10  1  0.977199  0.488600  0.498826  1
  Nd  Nd11  1  0.496013  0.992024  0.993013  1
  Nd  Nd12  1  0.496013  0.503987  0.993013  1
  Nd  Nd13  1  0.007976  0.503987  0.993013  1
  Nd  Nd14  1  0.000000  0.000000  0.501841  1
  Nd  Nd15  1  0.000000  0.000000  0.000437  1
  Al  Al16  1  0.666667  0.333333  0.759187  1
  Sb  Sb17  1  0.166107  0.332213  0.740842  1
  Sb  Sb18  1  0.166107  0.833893  0.740842  1
  Sb  Sb19  1  0.667787  0.833893  0.740842  1
  Sb  Sb20  1  0.833219  0.666439  0.239736  1
  Sb  Sb21  1  0.833219  0.166781  0.239736  1
  Sb  Sb22  1  0.333561  0.166781  0.239736  1
  Sb  Sb23  1  0.333333  0.666667  0.260448  1
