# generated using pymatgen
data_Sr4Yb3Pr3Pt8
_symmetry_space_group_name_H-M   'P 1'
_cell_length_a   7.86567800
_cell_length_b   8.01492681
_cell_length_c   15.20909200
_cell_angle_alpha   90.06276502
_cell_angle_beta   90.00000000
_cell_angle_gamma   90.00000000
_symmetry_Int_Tables_number   1
_chemical_formula_structural   Sr4Yb3Pr3Pt8
_chemical_formula_sum   'Sr8 Yb6 Pr6 Pt16'
_cell_volume   958.82367893
_cell_formula_units_Z   2
loop_
 _symmetry_equiv_pos_site_id
 _symmetry_equiv_pos_as_xyz
  1  'x, y, z'
loop_
 _atom_site_type_symbol
 _atom_site_label
 _atom_site_symmetry_multiplicity
 _atom_site_fract_x
 _atom_site_fract_y
 _atom_site_fract_z
 _atom_site_occupancy
  Sr  Sr0  1  0.494349  0.324757  0.899273  1
  Sr  Sr1  1  0.994349  0.175243  0.600727  1
  Sr  Sr2  1  0.505561  0.680882  0.405035  1
  Sr  Sr3  1  0.005561  0.819118  0.094965  1
  Sr  Sr4  1  0.508735  0.680839  0.096886  1
  Sr  Sr5  1  0.008735  0.819161  0.403114  1
  Sr  Sr6  1  0.492518  0.318607  0.601752  1
  Sr  Sr7  1  0.992518  0.181393  0.898248  1
  Yb  Yb8  1  0.336769  0.830764  0.625178  1
  Yb  Yb9  1  0.836769  0.669236  0.874822  1
  Yb  Yb10  1  0.173689  0.495192  0.749657  1
  Yb  Yb11  1  0.673689  0.004808  0.750343  1
  Yb  Yb12  1  0.825071  0.513961  0.250103  1
  Yb  Yb13  1  0.325071  0.986039  0.249897  1
  Pr  Pr14  1  0.335106  0.833542  0.876470  1
  Pr  Pr15  1  0.835106  0.666458  0.623530  1
  Pr  Pr16  1  0.663747  0.168857  0.377019  1
  Pr  Pr17  1  0.163747  0.331143  0.122981  1
  Pr  Pr18  1  0.665389  0.169911  0.121452  1
  Pr  Pr19  1  0.165389  0.330089  0.378548  1
  Pt  Pt20  1  0.335151  0.038508  0.044516  1
  Pt  Pt21  1  0.835151  0.461492  0.455484  1
  Pt  Pt22  1  0.659045  0.960561  0.545683  1
  Pt  Pt23  1  0.159045  0.539439  0.954317  1
  Pt  Pt24  1  0.663078  0.963877  0.954062  1
  Pt  Pt25  1  0.163078  0.536123  0.545938  1
  Pt  Pt26  1  0.340760  0.037942  0.457241  1
  Pt  Pt27  1  0.840760  0.462058  0.042759  1
  Pt  Pt28  1  0.542212  0.629882  0.752772  1
  Pt  Pt29  1  0.042212  0.870118  0.747228  1
  Pt  Pt30  1  0.460935  0.374969  0.249441  1
  Pt  Pt31  1  0.960935  0.125031  0.250559  1
  Pt  Pt32  1  0.297573  0.122865  0.750746  1
  Pt  Pt33  1  0.797573  0.377135  0.749254  1
  Pt  Pt34  1  0.700315  0.877085  0.249591  1
  Pt  Pt35  1  0.200315  0.622915  0.250409  1
