# generated using pymatgen
data_Zr10Hg3Sb5
_symmetry_space_group_name_H-M   'P 1'
_cell_length_a   8.83034434
_cell_length_b   8.83034455
_cell_length_c   5.95294000
_cell_angle_alpha   90.00000000
_cell_angle_beta   90.00000000
_cell_angle_gamma   120.60072359
_symmetry_Int_Tables_number   1
_chemical_formula_structural   Zr10Hg3Sb5
_chemical_formula_sum   'Zr10 Hg3 Sb5'
_cell_volume   399.53659008
_cell_formula_units_Z   1
loop_
 _symmetry_equiv_pos_site_id
 _symmetry_equiv_pos_as_xyz
  1  'x, y, z'
loop_
 _atom_site_type_symbol
 _atom_site_label
 _atom_site_symmetry_multiplicity
 _atom_site_fract_x
 _atom_site_fract_y
 _atom_site_fract_z
 _atom_site_occupancy
  Zr  Zr0  1  0.288984  0.288984  0.750000  1
  Zr  Zr1  1  0.716385  0.716385  0.250000  1
  Zr  Zr2  1  0.715710  0.001653  0.750000  1
  Zr  Zr3  1  0.000158  0.283025  0.250000  1
  Zr  Zr4  1  0.330570  0.667788  0.500544  1
  Zr  Zr5  1  0.667788  0.330570  0.500544  1
  Zr  Zr6  1  0.001653  0.715710  0.750000  1
  Zr  Zr7  1  0.330570  0.667788  0.999456  1
  Zr  Zr8  1  0.283025  0.000158  0.250000  1
  Zr  Zr9  1  0.667788  0.330570  0.999456  1
  Hg  Hg10  1  0.997208  0.997208  0.503516  1
  Hg  Hg11  1  0.623562  0.623562  0.750000  1
  Hg  Hg12  1  0.997208  0.997208  0.996484  1
  Sb  Sb13  1  0.380827  0.000749  0.750000  1
  Sb  Sb14  1  0.617761  0.997059  0.250000  1
  Sb  Sb15  1  0.382996  0.382996  0.250000  1
  Sb  Sb16  1  0.000749  0.380827  0.750000  1
  Sb  Sb17  1  0.997059  0.617761  0.250000  1
