# generated using pymatgen
data_TbYAlRh2
_symmetry_space_group_name_H-M   'P 1'
_cell_length_a   5.56681083
_cell_length_b   5.56681130
_cell_length_c   5.56681124
_cell_angle_alpha   136.97989323
_cell_angle_beta   116.41643845
_cell_angle_gamma   79.86276260
_symmetry_Int_Tables_number   1
_chemical_formula_structural   TbYAlRh2
_chemical_formula_sum   'Tb1 Y1 Al1 Rh2'
_cell_volume   102.21434369
_cell_formula_units_Z   1
loop_
 _symmetry_equiv_pos_site_id
 _symmetry_equiv_pos_as_xyz
  1  'x, y, z'
loop_
 _atom_site_type_symbol
 _atom_site_label
 _atom_site_symmetry_multiplicity
 _atom_site_fract_x
 _atom_site_fract_y
 _atom_site_fract_z
 _atom_site_occupancy
  Tb  Tb0  1  0.300091  0.800091  0.500000  1
  Y  Y1  1  0.699882  0.199882  0.500000  1
  Al  Al2  1  0.000086  0.000086  0.000000  1
  Rh  Rh3  1  0.256584  0.499970  0.756614  1
  Rh  Rh4  1  0.743357  0.499970  0.243386  1
