# generated using pymatgen
data_Dy9Lu(SiBi2)2
_symmetry_space_group_name_H-M   'P 1'
_cell_length_a   11.89054200
_cell_length_b   9.12932700
_cell_length_c   7.98181300
_cell_angle_alpha   90.00000000
_cell_angle_beta   90.00000000
_cell_angle_gamma   90.00000000
_symmetry_Int_Tables_number   1
_chemical_formula_structural   Dy9Lu(SiBi2)2
_chemical_formula_sum   'Dy18 Lu2 Si4 Bi8'
_cell_volume   866.44692203
_cell_formula_units_Z   2
loop_
 _symmetry_equiv_pos_site_id
 _symmetry_equiv_pos_as_xyz
  1  'x, y, z'
loop_
 _atom_site_type_symbol
 _atom_site_label
 _atom_site_symmetry_multiplicity
 _atom_site_fract_x
 _atom_site_fract_y
 _atom_site_fract_z
 _atom_site_occupancy
  Dy  Dy0  1  0.061535  0.554056  0.820232  1
  Dy  Dy1  1  0.561535  0.945944  0.679768  1
  Dy  Dy2  1  0.938369  0.053147  0.179767  1
  Dy  Dy3  1  0.438369  0.446853  0.320233  1
  Dy  Dy4  1  0.938369  0.446853  0.179767  1
  Dy  Dy5  1  0.438369  0.053147  0.320233  1
  Dy  Dy6  1  0.061535  0.945944  0.820232  1
  Dy  Dy7  1  0.561535  0.554056  0.679768  1
  Dy  Dy8  1  0.999034  0.250000  0.539040  1
  Dy  Dy9  1  0.499034  0.250000  0.960960  1
  Dy  Dy10  1  0.211696  0.750000  0.166609  1
  Dy  Dy11  1  0.711696  0.750000  0.333391  1
  Dy  Dy12  1  0.788146  0.250000  0.833421  1
  Dy  Dy13  1  0.288146  0.250000  0.666579  1
  Dy  Dy14  1  0.293900  0.750000  0.638361  1
  Dy  Dy15  1  0.793900  0.750000  0.861639  1
  Dy  Dy16  1  0.706012  0.250000  0.361616  1
  Dy  Dy17  1  0.206012  0.250000  0.138384  1
  Lu  Lu18  1  0.001158  0.750000  0.460871  1
  Lu  Lu19  1  0.501158  0.750000  0.039129  1
  Si  Si20  1  0.476931  0.750000  0.408543  1
  Si  Si21  1  0.976931  0.750000  0.091457  1
  Si  Si22  1  0.523127  0.250000  0.589449  1
  Si  Si23  1  0.023127  0.250000  0.910551  1
  Bi  Bi24  1  0.325796  0.511432  0.933794  1
  Bi  Bi25  1  0.825796  0.988568  0.566206  1
  Bi  Bi26  1  0.674299  0.009688  0.066867  1
  Bi  Bi27  1  0.174299  0.490312  0.433133  1
  Bi  Bi28  1  0.674299  0.490312  0.066867  1
  Bi  Bi29  1  0.174299  0.009688  0.433133  1
  Bi  Bi30  1  0.325796  0.988568  0.933794  1
  Bi  Bi31  1  0.825796  0.511432  0.566206  1
