# generated using pymatgen
data_LaThAlGa3
_symmetry_space_group_name_H-M   'P 1'
_cell_length_a   4.31857300
_cell_length_b   4.31857281
_cell_length_c   8.73153100
_cell_angle_alpha   90.00000000
_cell_angle_beta   90.00000000
_cell_angle_gamma   119.99999376
_symmetry_Int_Tables_number   1
_chemical_formula_structural   LaThAlGa3
_chemical_formula_sum   'La1 Th1 Al1 Ga3'
_cell_volume   141.02677381
_cell_formula_units_Z   1
loop_
 _symmetry_equiv_pos_site_id
 _symmetry_equiv_pos_as_xyz
  1  'x, y, z'
loop_
 _atom_site_type_symbol
 _atom_site_label
 _atom_site_symmetry_multiplicity
 _atom_site_fract_x
 _atom_site_fract_y
 _atom_site_fract_z
 _atom_site_occupancy
  La  La0  1  0.000000  0.000000  0.750468  1
  Th  Th1  1  0.000000  0.000000  0.249998  1
  Al  Al2  1  0.333333  0.666667  0.495387  1
  Ga  Ga3  1  0.333333  0.666667  0.004284  1
  Ga  Ga4  1  0.666667  0.333333  0.494730  1
  Ga  Ga5  1  0.666667  0.333333  0.005134  1
