# generated using pymatgen
data_Li4Nd2ErPb4
_symmetry_space_group_name_H-M   'P 1'
_cell_length_a   4.76316881
_cell_length_b   7.14798386
_cell_length_c   8.87558489
_cell_angle_alpha   113.74561856
_cell_angle_beta   105.56489793
_cell_angle_gamma   90.00000974
_symmetry_Int_Tables_number   1
_chemical_formula_structural   Li4Nd2ErPb4
_chemical_formula_sum   'Li4 Nd2 Er1 Pb4'
_cell_volume   264.45303315
_cell_formula_units_Z   1
loop_
 _symmetry_equiv_pos_site_id
 _symmetry_equiv_pos_as_xyz
  1  'x, y, z'
loop_
 _atom_site_type_symbol
 _atom_site_label
 _atom_site_symmetry_multiplicity
 _atom_site_fract_x
 _atom_site_fract_y
 _atom_site_fract_z
 _atom_site_occupancy
  Li  Li0  1  0.672540  0.982499  0.345080  1
  Li  Li1  1  0.327460  0.017501  0.654920  1
  Li  Li2  1  0.327460  0.637419  0.654920  1
  Li  Li3  1  0.672540  0.362581  0.345080  1
  Nd  Nd4  1  0.129482  0.629482  0.258964  1
  Nd  Nd5  1  0.870518  0.370518  0.741036  1
  Er  Er6  1  0.000000  0.000000  0.000000  1
  Pb  Pb7  1  0.500000  0.711487  0.000000  1
  Pb  Pb8  1  0.500000  0.288513  0.000000  1
  Pb  Pb9  1  0.788884  0.788884  0.577769  1
  Pb  Pb10  1  0.211116  0.211116  0.422231  1
