# generated using pymatgen
data_Tb4Ge3PtF28
_symmetry_space_group_name_H-M   'P 1'
_cell_length_a   5.51398752
_cell_length_b   8.81996029
_cell_length_c   11.80717393
_cell_angle_alpha   62.23895542
_cell_angle_beta   90.11875406
_cell_angle_gamma   90.11446989
_symmetry_Int_Tables_number   1
_chemical_formula_structural   Tb4Ge3PtF28
_chemical_formula_sum   'Tb4 Ge3 Pt1 F28'
_cell_volume   508.12467934
_cell_formula_units_Z   1
loop_
 _symmetry_equiv_pos_site_id
 _symmetry_equiv_pos_as_xyz
  1  'x, y, z'
loop_
 _atom_site_type_symbol
 _atom_site_label
 _atom_site_symmetry_multiplicity
 _atom_site_fract_x
 _atom_site_fract_y
 _atom_site_fract_z
 _atom_site_occupancy
  Tb  Tb0  1  0.258349  0.811710  0.262127  1
  Tb  Tb1  1  0.740678  0.187290  0.735181  1
  Tb  Tb2  1  0.760454  0.192392  0.233557  1
  Tb  Tb3  1  0.238100  0.810280  0.768145  1
  Ge  Ge4  1  0.754300  0.725157  0.043366  1
  Ge  Ge5  1  0.245078  0.273096  0.956615  1
  Ge  Ge6  1  0.257772  0.275541  0.455278  1
  Pt  Pt7  1  0.742680  0.728631  0.542932  1
  F  F8  1  0.931038  0.698976  0.413512  1
  F  F9  1  0.058090  0.293677  0.572035  1
  F  F10  1  0.444389  0.292146  0.073390  1
  F  F11  1  0.552943  0.705680  0.928032  1
  F  F12  1  0.491360  0.731119  0.135738  1
  F  F13  1  0.509225  0.265872  0.865586  1
  F  F14  1  0.994435  0.274869  0.359887  1
  F  F15  1  0.043116  0.729046  0.632501  1
  F  F16  1  0.952975  0.741804  0.162775  1
  F  F17  1  0.048315  0.254073  0.836816  1
  F  F18  1  0.452824  0.260668  0.333236  1
  F  F19  1  0.559525  0.748046  0.678572  1
  F  F20  1  0.763719  0.492867  0.137057  1
  F  F21  1  0.235213  0.505716  0.862394  1
  F  F22  1  0.271106  0.508603  0.361870  1
  F  F23  1  0.733399  0.478154  0.645557  1
  F  F24  1  0.972172  0.285334  0.042148  1
  F  F25  1  0.027188  0.712175  0.957839  1
  F  F26  1  0.436550  0.717001  0.460831  1
  F  F27  1  0.532164  0.284925  0.541810  1
  F  F28  1  0.741560  0.979779  0.449998  1
  F  F29  1  0.258542  0.042769  0.545949  1
  F  F30  1  0.241249  0.039857  0.048212  1
  F  F31  1  0.759611  0.957943  0.952144  1
  F  F32  1  0.586729  0.968865  0.233707  1
  F  F33  1  0.410478  0.029998  0.771048  1
  F  F34  1  0.083120  0.026710  0.271201  1
  F  F35  1  0.911557  0.969232  0.728951  1
