# generated using pymatgen
data_Ac8Ho2(TlPb)3
_symmetry_space_group_name_H-M   'P 1'
_cell_length_a   6.65413985
_cell_length_b   9.86736946
_cell_length_c   9.89203600
_cell_angle_alpha   83.49038004
_cell_angle_beta   70.35161992
_cell_angle_gamma   70.29752477
_symmetry_Int_Tables_number   1
_chemical_formula_structural   Ac8Ho2(TlPb)3
_chemical_formula_sum   'Ac8 Ho2 Tl3 Pb3'
_cell_volume   575.87159185
_cell_formula_units_Z   1
loop_
 _symmetry_equiv_pos_site_id
 _symmetry_equiv_pos_as_xyz
  1  'x, y, z'
loop_
 _atom_site_type_symbol
 _atom_site_label
 _atom_site_symmetry_multiplicity
 _atom_site_fract_x
 _atom_site_fract_y
 _atom_site_fract_z
 _atom_site_occupancy
  Ac  Ac0  1  0.717702  0.869885  0.693461  1
  Ac  Ac1  1  0.279524  0.133631  0.307513  1
  Ac  Ac2  1  0.780263  0.304832  0.134515  1
  Ac  Ac3  1  0.219066  0.694436  0.866150  1
  Ac  Ac4  1  0.586438  0.694190  0.133800  1
  Ac  Ac5  1  0.414866  0.305034  0.865456  1
  Ac  Ac6  1  0.087406  0.133580  0.692326  1
  Ac  Ac7  1  0.911841  0.870010  0.306648  1
  Ho  Ho8  1  0.752281  0.495423  0.500743  1
  Ho  Ho9  1  0.251692  0.496920  0.499117  1
  Tl  Tl10  1  0.651484  0.196012  0.499803  1
  Tl  Tl11  1  0.249864  0.999919  0.000231  1
  Tl  Tl12  1  0.749939  0.000265  0.999806  1
  Pb  Pb13  1  0.151560  0.501310  0.194382  1
  Pb  Pb14  1  0.846995  0.501953  0.805737  1
  Pb  Pb15  1  0.349081  0.802598  0.500310  1
