# generated using pymatgen
data_Li3Tb4HfPt4
_symmetry_space_group_name_H-M   'P 1'
_cell_length_a   4.11185300
_cell_length_b   7.11448302
_cell_length_c   8.61787497
_cell_angle_alpha   87.50595121
_cell_angle_beta   90.00000000
_cell_angle_gamma   90.00000000
_symmetry_Int_Tables_number   1
_chemical_formula_structural   Li3Tb4HfPt4
_chemical_formula_sum   'Li3 Tb4 Hf1 Pt4'
_cell_volume   251.86599378
_cell_formula_units_Z   1
loop_
 _symmetry_equiv_pos_site_id
 _symmetry_equiv_pos_as_xyz
  1  'x, y, z'
loop_
 _atom_site_type_symbol
 _atom_site_label
 _atom_site_symmetry_multiplicity
 _atom_site_fract_x
 _atom_site_fract_y
 _atom_site_fract_z
 _atom_site_occupancy
  Li  Li0  1  0.750000  0.629246  0.439796  1
  Li  Li1  1  0.250000  0.373609  0.555428  1
  Li  Li2  1  0.750000  0.141745  0.070305  1
  Tb  Tb3  1  0.750000  0.524617  0.808719  1
  Tb  Tb4  1  0.250000  0.963357  0.325881  1
  Tb  Tb5  1  0.250000  0.453150  0.182210  1
  Tb  Tb6  1  0.750000  0.050179  0.668598  1
  Hf  Hf7  1  0.250000  0.872585  0.944541  1
  Pt  Pt8  1  0.250000  0.757240  0.640905  1
  Pt  Pt9  1  0.250000  0.239498  0.879432  1
  Pt  Pt10  1  0.750000  0.742946  0.109089  1
  Pt  Pt11  1  0.750000  0.251825  0.375095  1
