# generated using pymatgen
data_CsRbNa2SnSe4
_symmetry_space_group_name_H-M   'P 1'
_cell_length_a   7.13261100
_cell_length_b   8.07253852
_cell_length_c   12.03446914
_cell_angle_alpha   68.82628085
_cell_angle_beta   90.00000000
_cell_angle_gamma   90.00000000
_symmetry_Int_Tables_number   1
_chemical_formula_structural   CsRbNa2SnSe4
_chemical_formula_sum   'Cs2 Rb2 Na4 Sn2 Se8'
_cell_volume   646.14440523
_cell_formula_units_Z   2
loop_
 _symmetry_equiv_pos_site_id
 _symmetry_equiv_pos_as_xyz
  1  'x, y, z'
loop_
 _atom_site_type_symbol
 _atom_site_label
 _atom_site_symmetry_multiplicity
 _atom_site_fract_x
 _atom_site_fract_y
 _atom_site_fract_z
 _atom_site_occupancy
  Cs  Cs0  1  0.000000  0.000000  0.000000  1
  Cs  Cs1  1  0.000000  0.000000  0.500000  1
  Rb  Rb2  1  0.465475  0.000000  0.250000  1
  Rb  Rb3  1  0.534525  0.000000  0.750000  1
  Na  Na4  1  0.748476  0.497363  0.047930  1
  Na  Na5  1  0.251524  0.497363  0.547930  1
  Na  Na6  1  0.251524  0.502637  0.952070  1
  Na  Na7  1  0.748476  0.502637  0.452070  1
  Sn  Sn8  1  0.255627  0.500000  0.250000  1
  Sn  Sn9  1  0.744373  0.500000  0.750000  1
  Se  Se10  1  0.060746  0.709002  0.322402  1
  Se  Se11  1  0.550826  0.284358  0.921958  1
  Se  Se12  1  0.449174  0.715642  0.078042  1
  Se  Se13  1  0.550826  0.715642  0.578042  1
  Se  Se14  1  0.060746  0.290998  0.177598  1
  Se  Se15  1  0.449174  0.284358  0.421958  1
  Se  Se16  1  0.939254  0.709002  0.822402  1
  Se  Se17  1  0.939254  0.290998  0.677598  1
