# generated using pymatgen
data_Tm5(HgTe)2
_symmetry_space_group_name_H-M   'P 1'
_cell_length_a   8.57694000
_cell_length_b   8.57679913
_cell_length_c   7.94082300
_cell_angle_alpha   90.00374766
_cell_angle_beta   90.00124252
_cell_angle_gamma   124.90805402
_symmetry_Int_Tables_number   1
_chemical_formula_structural   Tm5(HgTe)2
_chemical_formula_sum   'Tm10 Hg4 Te4'
_cell_volume   479.04334719
_cell_formula_units_Z   2
loop_
 _symmetry_equiv_pos_site_id
 _symmetry_equiv_pos_as_xyz
  1  'x, y, z'
loop_
 _atom_site_type_symbol
 _atom_site_label
 _atom_site_symmetry_multiplicity
 _atom_site_fract_x
 _atom_site_fract_y
 _atom_site_fract_z
 _atom_site_occupancy
  Tm  Tm0  1  0.000000  0.000000  0.000000  1
  Tm  Tm1  1  0.500000  0.500000  0.500000  1
  Tm  Tm2  1  0.793320  0.535361  0.163612  1
  Tm  Tm3  1  0.464577  0.206614  0.836437  1
  Tm  Tm4  1  0.964632  0.706661  0.663543  1
  Tm  Tm5  1  0.293346  0.035430  0.336372  1
  Tm  Tm6  1  0.206680  0.464639  0.836388  1
  Tm  Tm7  1  0.535423  0.793386  0.163563  1
  Tm  Tm8  1  0.035368  0.293339  0.336457  1
  Tm  Tm9  1  0.706654  0.964570  0.663628  1
  Hg  Hg10  1  0.865051  0.865052  0.367249  1
  Hg  Hg11  1  0.134949  0.134948  0.632751  1
  Hg  Hg12  1  0.635044  0.634885  0.867234  1
  Hg  Hg13  1  0.364956  0.365115  0.132766  1
  Te  Te14  1  0.205315  0.794674  0.000009  1
  Te  Te15  1  0.705290  0.294652  0.499995  1
  Te  Te16  1  0.794685  0.205326  0.999991  1
  Te  Te17  1  0.294710  0.705348  0.500005  1
