# generated using pymatgen
data_Nd8Tm11LuPb16
_symmetry_space_group_name_H-M   'P 1'
_cell_length_a   8.22444509
_cell_length_b   8.32877809
_cell_length_c   15.67064400
_cell_angle_alpha   90.00000000
_cell_angle_beta   90.00000000
_cell_angle_gamma   90.01655894
_symmetry_Int_Tables_number   1
_chemical_formula_structural   Nd8Tm11LuPb16
_chemical_formula_sum   'Nd8 Tm11 Lu1 Pb16'
_cell_volume   1073.43245629
_cell_formula_units_Z   1
loop_
 _symmetry_equiv_pos_site_id
 _symmetry_equiv_pos_as_xyz
  1  'x, y, z'
loop_
 _atom_site_type_symbol
 _atom_site_label
 _atom_site_symmetry_multiplicity
 _atom_site_fract_x
 _atom_site_fract_y
 _atom_site_fract_z
 _atom_site_occupancy
  Nd  Nd0  1  0.472871  0.677462  0.597574  1
  Nd  Nd1  1  0.972914  0.822508  0.902466  1
  Nd  Nd2  1  0.527173  0.322399  0.097571  1
  Nd  Nd3  1  0.026999  0.177366  0.402414  1
  Nd  Nd4  1  0.527173  0.322399  0.402429  1
  Nd  Nd5  1  0.026999  0.177366  0.097586  1
  Nd  Nd6  1  0.472871  0.677462  0.902426  1
  Nd  Nd7  1  0.972914  0.822508  0.597534  1
  Tm  Tm8  1  0.632827  0.157994  0.622675  1
  Tm  Tm9  1  0.132841  0.342079  0.877290  1
  Tm  Tm10  1  0.367324  0.842133  0.122717  1
  Tm  Tm11  1  0.867052  0.658000  0.377294  1
  Tm  Tm12  1  0.367324  0.842133  0.377283  1
  Tm  Tm13  1  0.867052  0.658000  0.122706  1
  Tm  Tm14  1  0.632827  0.157994  0.877325  1
  Tm  Tm15  1  0.132841  0.342079  0.622710  1
  Tm  Tm16  1  0.799297  0.493866  0.750000  1
  Tm  Tm17  1  0.299314  0.006133  0.750000  1
  Tm  Tm18  1  0.200651  0.506091  0.250000  1
  Lu  Lu19  1  0.700767  0.993692  0.250000  1
  Pb  Pb20  1  0.706209  0.959280  0.456344  1
  Pb  Pb21  1  0.206188  0.540742  0.043520  1
  Pb  Pb22  1  0.293830  0.040780  0.956526  1
  Pb  Pb23  1  0.793817  0.459280  0.543473  1
  Pb  Pb24  1  0.293830  0.040780  0.543474  1
  Pb  Pb25  1  0.793817  0.459280  0.956527  1
  Pb  Pb26  1  0.706209  0.959280  0.043656  1
  Pb  Pb27  1  0.206188  0.540742  0.456480  1
  Pb  Pb28  1  0.437224  0.370899  0.750000  1
  Pb  Pb29  1  0.937240  0.129038  0.750000  1
  Pb  Pb30  1  0.562863  0.629316  0.250000  1
  Pb  Pb31  1  0.062387  0.871146  0.250000  1
  Pb  Pb32  1  0.662195  0.848931  0.750000  1
  Pb  Pb33  1  0.162150  0.651152  0.750000  1
  Pb  Pb34  1  0.337877  0.151130  0.250000  1
  Pb  Pb35  1  0.837949  0.348555  0.250000  1
