# generated using pymatgen
data_Li3Pr8Mg3Ag20
_symmetry_space_group_name_H-M   'P 1'
_cell_length_a   8.77197161
_cell_length_b   8.77197183
_cell_length_c   10.47284025
_cell_angle_alpha   89.80309634
_cell_angle_beta   90.19690086
_cell_angle_gamma   108.38477758
_symmetry_Int_Tables_number   1
_chemical_formula_structural   Li3Pr8Mg3Ag20
_chemical_formula_sum   'Li3 Pr8 Mg3 Ag20'
_cell_volume   764.72072232
_cell_formula_units_Z   1
loop_
 _symmetry_equiv_pos_site_id
 _symmetry_equiv_pos_as_xyz
  1  'x, y, z'
loop_
 _atom_site_type_symbol
 _atom_site_label
 _atom_site_symmetry_multiplicity
 _atom_site_fract_x
 _atom_site_fract_y
 _atom_site_fract_z
 _atom_site_occupancy
  Li  Li0  1  0.017260  0.517260  0.250000  1
  Li  Li1  1  0.999898  0.999898  0.001059  1
  Li  Li2  1  0.499898  0.499898  0.498941  1
  Pr  Pr3  1  0.700276  0.300174  0.999420  1
  Pr  Pr4  1  0.300228  0.699359  0.998880  1
  Pr  Pr5  1  0.800174  0.200276  0.500580  1
  Pr  Pr6  1  0.199359  0.800228  0.501120  1
  Pr  Pr7  1  0.303145  0.303638  0.201120  1
  Pr  Pr8  1  0.698154  0.696880  0.799719  1
  Pr  Pr9  1  0.196880  0.198154  0.700281  1
  Pr  Pr10  1  0.803638  0.803145  0.298880  1
  Mg  Mg11  1  0.981649  0.481649  0.750000  1
  Mg  Mg12  1  0.480645  0.980645  0.750000  1
  Mg  Mg13  1  0.519544  0.019544  0.250000  1
  Ag  Ag14  1  0.097413  0.097828  0.404210  1
  Ag  Ag15  1  0.902193  0.901577  0.594892  1
  Ag  Ag16  1  0.401577  0.402193  0.905108  1
  Ag  Ag17  1  0.597828  0.597413  0.095790  1
  Ag  Ag18  1  0.894734  0.172529  0.203150  1
  Ag  Ag19  1  0.105118  0.831215  0.798935  1
  Ag  Ag20  1  0.604432  0.329706  0.702877  1
  Ag  Ag21  1  0.672529  0.394734  0.296850  1
  Ag  Ag22  1  0.394235  0.672901  0.297120  1
  Ag  Ag23  1  0.331215  0.605118  0.701065  1
  Ag  Ag24  1  0.829706  0.104432  0.797123  1
  Ag  Ag25  1  0.172901  0.894235  0.202880  1
  Ag  Ag26  1  0.934745  0.663160  0.027785  1
  Ag  Ag27  1  0.065033  0.333547  0.974301  1
  Ag  Ag28  1  0.566220  0.835604  0.525590  1
  Ag  Ag29  1  0.163160  0.434745  0.472215  1
  Ag  Ag30  1  0.433684  0.163378  0.474716  1
  Ag  Ag31  1  0.833547  0.565033  0.525699  1
  Ag  Ag32  1  0.335604  0.066220  0.974410  1
  Ag  Ag33  1  0.663378  0.933684  0.025284  1
