# generated using pymatgen
data_Tb2Er3Bi2P
_symmetry_space_group_name_H-M   'P 1'
_cell_length_a   7.97898500
_cell_length_b   8.93106400
_cell_length_c   12.14604300
_cell_angle_alpha   90.00000000
_cell_angle_beta   90.00000000
_cell_angle_gamma   90.00000000
_symmetry_Int_Tables_number   1
_chemical_formula_structural   Tb2Er3Bi2P
_chemical_formula_sum   'Tb8 Er12 Bi8 P4'
_cell_volume   865.53705305
_cell_formula_units_Z   4
loop_
 _symmetry_equiv_pos_site_id
 _symmetry_equiv_pos_as_xyz
  1  'x, y, z'
loop_
 _atom_site_type_symbol
 _atom_site_label
 _atom_site_symmetry_multiplicity
 _atom_site_fract_x
 _atom_site_fract_y
 _atom_site_fract_z
 _atom_site_occupancy
  Tb  Tb0  1  0.652651  0.750000  0.706864  1
  Tb  Tb1  1  0.347349  0.250000  0.293136  1
  Tb  Tb2  1  0.152651  0.250000  0.793136  1
  Tb  Tb3  1  0.847349  0.750000  0.206864  1
  Tb  Tb4  1  0.129273  0.750000  0.802342  1
  Tb  Tb5  1  0.870727  0.250000  0.197658  1
  Tb  Tb6  1  0.629273  0.250000  0.697658  1
  Tb  Tb7  1  0.370727  0.750000  0.302342  1
  Er  Er8  1  0.539927  0.750000  0.997762  1
  Er  Er9  1  0.460073  0.250000  0.002238  1
  Er  Er10  1  0.039927  0.250000  0.502238  1
  Er  Er11  1  0.960073  0.750000  0.497762  1
  Er  Er12  1  0.818754  0.450154  0.934977  1
  Er  Er13  1  0.181246  0.549846  0.065023  1
  Er  Er14  1  0.318754  0.549846  0.565023  1
  Er  Er15  1  0.181246  0.950154  0.065023  1
  Er  Er16  1  0.681246  0.450154  0.434977  1
  Er  Er17  1  0.818754  0.049846  0.934977  1
  Er  Er18  1  0.681246  0.049846  0.434977  1
  Er  Er19  1  0.318754  0.950154  0.565023  1
  Bi  Bi20  1  0.927388  0.008076  0.672295  1
  Bi  Bi21  1  0.072612  0.991924  0.327705  1
  Bi  Bi22  1  0.427388  0.991924  0.827705  1
  Bi  Bi23  1  0.072612  0.508076  0.327705  1
  Bi  Bi24  1  0.572612  0.008076  0.172295  1
  Bi  Bi25  1  0.927388  0.491924  0.672295  1
  Bi  Bi26  1  0.572612  0.491924  0.172295  1
  Bi  Bi27  1  0.427388  0.508076  0.827705  1
  P  P28  1  0.925441  0.750000  0.988270  1
  P  P29  1  0.074559  0.250000  0.011730  1
  P  P30  1  0.425441  0.250000  0.511730  1
  P  P31  1  0.574559  0.750000  0.488270  1
