# generated using pymatgen
data_Tb2Ge(PRh2)6
_symmetry_space_group_name_H-M   'P 1'
_cell_length_a   9.70023500
_cell_length_b   9.70023408
_cell_length_c   3.86250600
_cell_angle_alpha   90.00000000
_cell_angle_beta   90.00000000
_cell_angle_gamma   120.00001338
_symmetry_Int_Tables_number   1
_chemical_formula_structural   Tb2Ge(PRh2)6
_chemical_formula_sum   'Tb2 Ge1 P6 Rh12'
_cell_volume   314.74889222
_cell_formula_units_Z   1
loop_
 _symmetry_equiv_pos_site_id
 _symmetry_equiv_pos_as_xyz
  1  'x, y, z'
loop_
 _atom_site_type_symbol
 _atom_site_label
 _atom_site_symmetry_multiplicity
 _atom_site_fract_x
 _atom_site_fract_y
 _atom_site_fract_z
 _atom_site_occupancy
  Tb  Tb0  1  0.333333  0.666667  0.748089  1
  Tb  Tb1  1  0.666667  0.333333  0.251911  1
  Ge  Ge2  1  0.000000  0.000000  0.500000  1
  P  P3  1  0.403620  0.286420  0.751217  1
  P  P4  1  0.713580  0.117200  0.751217  1
  P  P5  1  0.882800  0.596380  0.751217  1
  P  P6  1  0.596380  0.713580  0.248783  1
  P  P7  1  0.286420  0.882800  0.248783  1
  P  P8  1  0.117200  0.403620  0.248783  1
  Rh  Rh9  1  0.451248  0.066982  0.750128  1
  Rh  Rh10  1  0.933018  0.384266  0.750128  1
  Rh  Rh11  1  0.615734  0.548752  0.750128  1
  Rh  Rh12  1  0.548752  0.933018  0.249872  1
  Rh  Rh13  1  0.066982  0.615734  0.249872  1
  Rh  Rh14  1  0.384266  0.451248  0.249872  1
  Rh  Rh15  1  0.155074  0.275075  0.751643  1
  Rh  Rh16  1  0.724925  0.880000  0.751643  1
  Rh  Rh17  1  0.120000  0.844926  0.751643  1
  Rh  Rh18  1  0.844926  0.724925  0.248357  1
  Rh  Rh19  1  0.275075  0.120000  0.248357  1
  Rh  Rh20  1  0.880000  0.155074  0.248357  1
