# generated using pymatgen
data_Li2GdDyGe4
_symmetry_space_group_name_H-M   'P 1'
_cell_length_a   3.91408300
_cell_length_b   7.81491992
_cell_length_c   10.50534900
_cell_angle_alpha   89.78519861
_cell_angle_beta   90.00000000
_cell_angle_gamma   90.00000000
_symmetry_Int_Tables_number   1
_chemical_formula_structural   Li2GdDyGe4
_chemical_formula_sum   'Li4 Gd2 Dy2 Ge8'
_cell_volume   321.33793293
_cell_formula_units_Z   2
loop_
 _symmetry_equiv_pos_site_id
 _symmetry_equiv_pos_as_xyz
  1  'x, y, z'
loop_
 _atom_site_type_symbol
 _atom_site_label
 _atom_site_symmetry_multiplicity
 _atom_site_fract_x
 _atom_site_fract_y
 _atom_site_fract_z
 _atom_site_occupancy
  Li  Li0  1  0.250000  0.988687  0.390712  1
  Li  Li1  1  0.750000  0.011313  0.609288  1
  Li  Li2  1  0.250000  0.485831  0.107653  1
  Li  Li3  1  0.750000  0.514169  0.892347  1
  Gd  Gd4  1  0.250000  0.637707  0.635411  1
  Gd  Gd5  1  0.750000  0.362293  0.364589  1
  Dy  Dy6  1  0.250000  0.134749  0.863804  1
  Dy  Dy7  1  0.750000  0.865251  0.136196  1
  Ge  Ge8  1  0.750000  0.270883  0.060466  1
  Ge  Ge9  1  0.250000  0.729117  0.939534  1
  Ge  Ge10  1  0.750000  0.775914  0.435074  1
  Ge  Ge11  1  0.250000  0.224086  0.564926  1
  Ge  Ge12  1  0.750000  0.848452  0.815694  1
  Ge  Ge13  1  0.250000  0.151548  0.184306  1
  Ge  Ge14  1  0.750000  0.346698  0.686991  1
  Ge  Ge15  1  0.250000  0.653302  0.313009  1
