# generated using pymatgen
data_Ho5(GeB4)2
_symmetry_space_group_name_H-M   'P 1'
_cell_length_a   7.23745300
_cell_length_b   7.23745300
_cell_length_c   8.10303400
_cell_angle_alpha   90.00000000
_cell_angle_beta   90.00000000
_cell_angle_gamma   90.00000000
_symmetry_Int_Tables_number   1
_chemical_formula_structural   Ho5(GeB4)2
_chemical_formula_sum   'Ho10 Ge4 B16'
_cell_volume   424.44280313
_cell_formula_units_Z   2
loop_
 _symmetry_equiv_pos_site_id
 _symmetry_equiv_pos_as_xyz
  1  'x, y, z'
loop_
 _atom_site_type_symbol
 _atom_site_label
 _atom_site_symmetry_multiplicity
 _atom_site_fract_x
 _atom_site_fract_y
 _atom_site_fract_z
 _atom_site_occupancy
  Ho  Ho0  1  0.680441  0.180441  0.220897  1
  Ho  Ho1  1  0.319559  0.819559  0.779103  1
  Ho  Ho2  1  0.319559  0.819559  0.220897  1
  Ho  Ho3  1  0.819559  0.680441  0.220897  1
  Ho  Ho4  1  0.819559  0.680441  0.779103  1
  Ho  Ho5  1  0.680441  0.180441  0.779103  1
  Ho  Ho6  1  0.180441  0.319559  0.779103  1
  Ho  Ho7  1  0.180441  0.319559  0.220897  1
  Ho  Ho8  1  0.000000  0.000000  0.500000  1
  Ho  Ho9  1  0.500000  0.500000  0.500000  1
  Ge  Ge10  1  0.120703  0.620703  0.500000  1
  Ge  Ge11  1  0.879297  0.379297  0.500000  1
  Ge  Ge12  1  0.379297  0.120703  0.500000  1
  Ge  Ge13  1  0.620703  0.879297  0.500000  1
  B  B14  1  0.172265  0.039233  0.000000  1
  B  B15  1  0.827735  0.960767  0.000000  1
  B  B16  1  0.960767  0.172265  0.000000  1
  B  B17  1  0.327735  0.539233  0.000000  1
  B  B18  1  0.039233  0.827735  0.000000  1
  B  B19  1  0.672265  0.460767  0.000000  1
  B  B20  1  0.539233  0.672265  0.000000  1
  B  B21  1  0.460767  0.327735  0.000000  1
  B  B22  1  0.090249  0.590249  0.000000  1
  B  B23  1  0.909751  0.409751  0.000000  1
  B  B24  1  0.409751  0.090249  0.000000  1
  B  B25  1  0.590249  0.909751  0.000000  1
  B  B26  1  0.000000  0.000000  0.163079  1
  B  B27  1  0.000000  0.000000  0.836921  1
  B  B28  1  0.500000  0.500000  0.836921  1
  B  B29  1  0.500000  0.500000  0.163079  1
