# generated using pymatgen
data_Cs3SnPS7
_symmetry_space_group_name_H-M   'P 1'
_cell_length_a   7.48773858
_cell_length_b   9.81378269
_cell_length_c   12.37953719
_cell_angle_alpha   77.80641329
_cell_angle_beta   87.81575904
_cell_angle_gamma   69.33213623
_symmetry_Int_Tables_number   1
_chemical_formula_structural   Cs3SnPS7
_chemical_formula_sum   'Cs6 Sn2 P2 S14'
_cell_volume   831.27793550
_cell_formula_units_Z   2
loop_
 _symmetry_equiv_pos_site_id
 _symmetry_equiv_pos_as_xyz
  1  'x, y, z'
loop_
 _atom_site_type_symbol
 _atom_site_label
 _atom_site_symmetry_multiplicity
 _atom_site_fract_x
 _atom_site_fract_y
 _atom_site_fract_z
 _atom_site_occupancy
  Cs  Cs0  1  0.671756  0.613412  0.398665  1
  Cs  Cs1  1  0.328243  0.386588  0.601335  1
  Cs  Cs2  1  0.632314  0.680732  0.019846  1
  Cs  Cs3  1  0.367686  0.319269  0.980153  1
  Cs  Cs4  1  0.050306  0.975035  0.795464  1
  Cs  Cs5  1  0.949697  0.024963  0.204536  1
  Sn  Sn6  1  0.590558  0.918595  0.633771  1
  Sn  Sn7  1  0.409442  0.081405  0.366229  1
  P  P8  1  0.219678  0.557892  0.221599  1
  P  P9  1  0.780322  0.442108  0.778401  1
  S  S10  1  0.333461  0.904515  0.524439  1
  S  S11  1  0.666537  0.095487  0.475561  1
  S  S12  1  0.523355  0.010543  0.796305  1
  S  S13  1  0.476645  0.989457  0.203695  1
  S  S14  1  0.915025  0.722617  0.635351  1
  S  S15  1  0.084974  0.277383  0.364649  1
  S  S16  1  0.044116  0.422680  0.213888  1
  S  S17  1  0.955883  0.577320  0.786112  1
  S  S18  1  0.145968  0.658156  0.350494  1
  S  S19  1  0.854031  0.341844  0.649506  1
  S  S20  1  0.134502  0.691803  0.069415  1
  S  S21  1  0.865498  0.308198  0.930585  1
  S  S22  1  0.491950  0.412473  0.234928  1
  S  S23  1  0.508050  0.587526  0.765072  1
