# generated using pymatgen
data_Zr10ZnSnBi4
_symmetry_space_group_name_H-M   'P 1'
_cell_length_a   5.63461719
_cell_length_b   8.54212842
_cell_length_c   8.54212738
_cell_angle_alpha   96.24481609
_cell_angle_beta   109.25745933
_cell_angle_gamma   70.74254199
_symmetry_Int_Tables_number   1
_chemical_formula_structural   Zr10ZnSnBi4
_chemical_formula_sum   'Zr10 Zn1 Sn1 Bi4'
_cell_volume   366.42319314
_cell_formula_units_Z   1
loop_
 _symmetry_equiv_pos_site_id
 _symmetry_equiv_pos_as_xyz
  1  'x, y, z'
loop_
 _atom_site_type_symbol
 _atom_site_label
 _atom_site_symmetry_multiplicity
 _atom_site_fract_x
 _atom_site_fract_y
 _atom_site_fract_z
 _atom_site_occupancy
  Zr  Zr0  1  0.431438  0.859314  0.709115  1
  Zr  Zr1  1  0.581637  0.140686  0.290885  1
  Zr  Zr2  1  0.918363  0.290885  0.140686  1
  Zr  Zr3  1  0.068562  0.709115  0.859314  1
  Zr  Zr4  1  0.722322  0.709115  0.140686  1
  Zr  Zr5  1  0.290752  0.290885  0.859314  1
  Zr  Zr6  1  0.777678  0.140686  0.709115  1
  Zr  Zr7  1  0.209248  0.859314  0.290885  1
  Zr  Zr8  1  0.250000  0.500000  0.500000  1
  Zr  Zr9  1  0.750000  0.500000  0.500000  1
  Zn  Zn10  1  0.750000  0.000000  0.000000  1
  Sn  Sn11  1  0.250000  0.000000  0.000000  1
  Bi  Bi12  1  0.335198  0.500000  0.170397  1
  Bi  Bi13  1  0.664802  0.500000  0.829603  1
  Bi  Bi14  1  0.835198  0.829603  0.500000  1
  Bi  Bi15  1  0.164802  0.170397  0.500000  1
