# generated using pymatgen
data_Tb7Ho8Th(CdNi)4
_symmetry_space_group_name_H-M   'P 1'
_cell_length_a   9.55994998
_cell_length_b   9.55995026
_cell_length_c   9.53765061
_cell_angle_alpha   59.95988504
_cell_angle_beta   59.95988358
_cell_angle_gamma   59.93187935
_symmetry_Int_Tables_number   1
_chemical_formula_structural   Tb7Ho8Th(CdNi)4
_chemical_formula_sum   'Tb7 Ho8 Th1 Cd4 Ni4'
_cell_volume   615.67320362
_cell_formula_units_Z   1
loop_
 _symmetry_equiv_pos_site_id
 _symmetry_equiv_pos_as_xyz
  1  'x, y, z'
loop_
 _atom_site_type_symbol
 _atom_site_label
 _atom_site_symmetry_multiplicity
 _atom_site_fract_x
 _atom_site_fract_y
 _atom_site_fract_z
 _atom_site_occupancy
  Tb  Tb0  1  0.812674  0.812674  0.189797  1
  Tb  Tb1  1  0.938526  0.563302  0.564241  1
  Tb  Tb2  1  0.563749  0.937226  0.934990  1
  Tb  Tb3  1  0.563302  0.938526  0.564241  1
  Tb  Tb4  1  0.937226  0.563749  0.934990  1
  Tb  Tb5  1  0.564523  0.564523  0.937140  1
  Tb  Tb6  1  0.937187  0.937187  0.562867  1
  Ho  Ho7  1  0.346982  0.346982  0.955093  1
  Ho  Ho8  1  0.348113  0.951079  0.348299  1
  Ho  Ho9  1  0.951079  0.348113  0.348299  1
  Ho  Ho10  1  0.813138  0.189439  0.187548  1
  Ho  Ho11  1  0.190672  0.812042  0.810804  1
  Ho  Ho12  1  0.189439  0.813138  0.187548  1
  Ho  Ho13  1  0.812042  0.190672  0.810804  1
  Ho  Ho14  1  0.189050  0.189050  0.811339  1
  Th  Th15  1  0.344610  0.344610  0.344415  1
  Cd  Cd16  1  0.580512  0.580512  0.581974  1
  Cd  Cd17  1  0.581179  0.581179  0.258516  1
  Cd  Cd18  1  0.581226  0.256615  0.582841  1
  Cd  Cd19  1  0.256615  0.581226  0.582841  1
  Ni  Ni20  1  0.141064  0.141064  0.144113  1
  Ni  Ni21  1  0.142733  0.142733  0.570939  1
  Ni  Ni22  1  0.142633  0.571724  0.143181  1
  Ni  Ni23  1  0.571724  0.142633  0.143181  1
