# generated using pymatgen
data_Mn2Cr19(TcC3)2
_symmetry_space_group_name_H-M   'P 1'
_cell_length_a   7.48757957
_cell_length_b   7.48757875
_cell_length_c   7.49617046
_cell_angle_alpha   60.03790473
_cell_angle_beta   60.03790506
_cell_angle_gamma   59.99999512
_symmetry_Int_Tables_number   1
_chemical_formula_structural   Mn2Cr19(TcC3)2
_chemical_formula_sum   'Mn2 Cr19 Tc2 C6'
_cell_volume   297.34173949
_cell_formula_units_Z   1
loop_
 _symmetry_equiv_pos_site_id
 _symmetry_equiv_pos_as_xyz
  1  'x, y, z'
loop_
 _atom_site_type_symbol
 _atom_site_label
 _atom_site_symmetry_multiplicity
 _atom_site_fract_x
 _atom_site_fract_y
 _atom_site_fract_z
 _atom_site_occupancy
  Mn  Mn0  1  0.000490  0.000490  0.998531  1
  Mn  Mn1  1  0.616838  0.616838  0.149485  1
  Cr  Cr2  1  0.617398  0.148449  0.616754  1
  Cr  Cr3  1  0.148449  0.617398  0.616754  1
  Cr  Cr4  1  0.617398  0.617398  0.616754  1
  Cr  Cr5  1  0.383150  0.383150  0.850550  1
  Cr  Cr6  1  0.383165  0.850027  0.383643  1
  Cr  Cr7  1  0.850027  0.383165  0.383643  1
  Cr  Cr8  1  0.383165  0.383165  0.383643  1
  Cr  Cr9  1  0.999811  0.999811  0.335731  1
  Cr  Cr10  1  0.664648  0.999811  0.335731  1
  Cr  Cr11  1  0.999811  0.664648  0.335731  1
  Cr  Cr12  1  0.663372  0.337682  0.999887  1
  Cr  Cr13  1  0.999059  0.337682  0.999887  1
  Cr  Cr14  1  0.000396  0.336838  0.662369  1
  Cr  Cr15  1  0.337682  0.663372  0.999887  1
  Cr  Cr16  1  0.336838  0.000396  0.662369  1
  Cr  Cr17  1  0.337682  0.999059  0.999887  1
  Cr  Cr18  1  0.000396  0.000396  0.662369  1
  Cr  Cr19  1  0.999059  0.663372  0.999887  1
  Cr  Cr20  1  0.663372  0.999059  0.999887  1
  Tc  Tc21  1  0.749117  0.749117  0.752649  1
  Tc  Tc22  1  0.249644  0.249644  0.251067  1
  C  C23  1  0.722477  0.722477  0.276305  1
  C  C24  1  0.278741  0.722477  0.276305  1
  C  C25  1  0.722477  0.278741  0.276305  1
  C  C26  1  0.275949  0.275949  0.724663  1
  C  C27  1  0.723439  0.275949  0.724663  1
  C  C28  1  0.275949  0.723439  0.724663  1
