# generated using pymatgen
data_BaLiCuF6
_symmetry_space_group_name_H-M   'P 1'
_cell_length_a   10.45020100
_cell_length_b   5.43498444
_cell_length_c   8.77963310
_cell_angle_alpha   89.27778743
_cell_angle_beta   90.00000000
_cell_angle_gamma   90.00000000
_symmetry_Int_Tables_number   1
_chemical_formula_structural   BaLiCuF6
_chemical_formula_sum   'Ba4 Li4 Cu4 F24'
_cell_volume   498.61439574
_cell_formula_units_Z   4
loop_
 _symmetry_equiv_pos_site_id
 _symmetry_equiv_pos_as_xyz
  1  'x, y, z'
loop_
 _atom_site_type_symbol
 _atom_site_label
 _atom_site_symmetry_multiplicity
 _atom_site_fract_x
 _atom_site_fract_y
 _atom_site_fract_z
 _atom_site_occupancy
  Ba  Ba0  1  0.685899  0.303659  0.496395  1
  Ba  Ba1  1  0.814101  0.303659  0.996395  1
  Ba  Ba2  1  0.314101  0.696341  0.503605  1
  Ba  Ba3  1  0.185899  0.696341  0.003605  1
  Li  Li4  1  0.914352  0.761061  0.675072  1
  Li  Li5  1  0.085648  0.238939  0.324928  1
  Li  Li6  1  0.414352  0.238939  0.824928  1
  Li  Li7  1  0.585648  0.761061  0.175072  1
  Cu  Cu8  1  0.911526  0.760006  0.268414  1
  Cu  Cu9  1  0.411526  0.239994  0.231586  1
  Cu  Cu10  1  0.088474  0.239994  0.731586  1
  Cu  Cu11  1  0.588474  0.760006  0.768414  1
  F  F12  1  0.246216  0.397456  0.259209  1
  F  F13  1  0.004715  0.538227  0.800354  1
  F  F14  1  0.082211  0.895682  0.292039  1
  F  F15  1  0.753784  0.602544  0.740791  1
  F  F16  1  0.495285  0.538227  0.300354  1
  F  F17  1  0.605411  0.657548  0.975946  1
  F  F18  1  0.917789  0.104318  0.707961  1
  F  F19  1  0.582211  0.104318  0.207961  1
  F  F20  1  0.841219  0.075905  0.306148  1
  F  F21  1  0.894589  0.657548  0.475946  1
  F  F22  1  0.158781  0.924095  0.693852  1
  F  F23  1  0.407597  0.164636  0.447676  1
  F  F24  1  0.592403  0.835364  0.552324  1
  F  F25  1  0.504715  0.461773  0.699646  1
  F  F26  1  0.253784  0.397456  0.759209  1
  F  F27  1  0.746216  0.602544  0.240791  1
  F  F28  1  0.341219  0.924095  0.193852  1
  F  F29  1  0.995285  0.461773  0.199646  1
  F  F30  1  0.394589  0.342452  0.024054  1
  F  F31  1  0.658781  0.075905  0.806148  1
  F  F32  1  0.105411  0.342452  0.524054  1
  F  F33  1  0.092403  0.164636  0.947676  1
  F  F34  1  0.907597  0.835364  0.052324  1
  F  F35  1  0.417789  0.895682  0.792039  1
