# generated using pymatgen
data_LiMn20(MoC3)2
_symmetry_space_group_name_H-M   'P 1'
_cell_length_a   7.38930567
_cell_length_b   7.38620747
_cell_length_c   7.38489730
_cell_angle_alpha   59.97392894
_cell_angle_beta   60.00360623
_cell_angle_gamma   60.00059063
_symmetry_Int_Tables_number   1
_chemical_formula_structural   LiMn20(MoC3)2
_chemical_formula_sum   'Li1 Mn20 Mo2 C6'
_cell_volume   284.95922523
_cell_formula_units_Z   1
loop_
 _symmetry_equiv_pos_site_id
 _symmetry_equiv_pos_as_xyz
  1  'x, y, z'
loop_
 _atom_site_type_symbol
 _atom_site_label
 _atom_site_symmetry_multiplicity
 _atom_site_fract_x
 _atom_site_fract_y
 _atom_site_fract_z
 _atom_site_occupancy
  Li  Li0  1  0.000000  0.000000  0.000000  1
  Mn  Mn1  1  0.847753  0.384216  0.383993  1
  Mn  Mn2  1  0.384202  0.847839  0.383972  1
  Mn  Mn3  1  0.384012  0.384023  0.847810  1
  Mn  Mn4  1  0.384033  0.383997  0.384120  1
  Mn  Mn5  1  0.152247  0.615784  0.616007  1
  Mn  Mn6  1  0.615798  0.152161  0.616028  1
  Mn  Mn7  1  0.615988  0.615977  0.152190  1
  Mn  Mn8  1  0.615967  0.616003  0.615880  1
  Mn  Mn9  1  0.659568  0.000017  0.999978  1
  Mn  Mn10  1  0.659535  0.999956  0.340444  1
  Mn  Mn11  1  0.659749  0.340281  0.999946  1
  Mn  Mn12  1  0.000046  0.659712  0.340266  1
  Mn  Mn13  1  0.000024  0.659605  0.999990  1
  Mn  Mn14  1  0.340251  0.659719  0.000054  1
  Mn  Mn15  1  0.999954  0.340288  0.659734  1
  Mn  Mn16  1  0.340465  0.000044  0.659556  1
  Mn  Mn17  1  0.999947  0.000039  0.659863  1
  Mn  Mn18  1  0.340432  0.999983  0.000022  1
  Mn  Mn19  1  0.999976  0.340395  0.000010  1
  Mn  Mn20  1  0.000053  0.999961  0.340137  1
  Mo  Mo21  1  0.250077  0.249985  0.249985  1
  Mo  Mo22  1  0.749923  0.750015  0.750015  1
  C  C23  1  0.727681  0.272315  0.272296  1
  C  C24  1  0.727722  0.272320  0.727697  1
  C  C25  1  0.727709  0.727705  0.272324  1
  C  C26  1  0.272319  0.727685  0.727704  1
  C  C27  1  0.272278  0.727680  0.272303  1
  C  C28  1  0.272291  0.272295  0.727676  1
