# generated using pymatgen
data_Ho4NbSi8Tc5
_symmetry_space_group_name_H-M   'P 1'
_cell_length_a   6.82857056
_cell_length_b   6.85790433
_cell_length_c   6.75836048
_cell_angle_alpha   70.14395175
_cell_angle_beta   90.47197896
_cell_angle_gamma   89.31693173
_symmetry_Int_Tables_number   1
_chemical_formula_structural   Ho4NbSi8Tc5
_chemical_formula_sum   'Ho4 Nb1 Si8 Tc5'
_cell_volume   297.62955391
_cell_formula_units_Z   1
loop_
 _symmetry_equiv_pos_site_id
 _symmetry_equiv_pos_as_xyz
  1  'x, y, z'
loop_
 _atom_site_type_symbol
 _atom_site_label
 _atom_site_symmetry_multiplicity
 _atom_site_fract_x
 _atom_site_fract_y
 _atom_site_fract_z
 _atom_site_occupancy
  Ho  Ho0  1  0.671559  0.440689  0.189243  1
  Ho  Ho1  1  0.167919  0.063144  0.811815  1
  Ho  Ho2  1  0.328441  0.559311  0.810757  1
  Ho  Ho3  1  0.832081  0.936856  0.188185  1
  Nb  Nb4  1  0.500000  0.000000  0.500000  1
  Si  Si5  1  0.458355  0.140067  0.082824  1
  Si  Si6  1  0.937536  0.381935  0.889451  1
  Si  Si7  1  0.541645  0.859933  0.917176  1
  Si  Si8  1  0.062464  0.618065  0.110549  1
  Si  Si9  1  0.873392  0.132419  0.498209  1
  Si  Si10  1  0.349295  0.385486  0.470856  1
  Si  Si11  1  0.126608  0.867581  0.501791  1
  Si  Si12  1  0.650705  0.614514  0.529144  1
  Tc  Tc13  1  0.000000  0.500000  0.500000  1
  Tc  Tc14  1  0.149918  0.233190  0.233349  1
  Tc  Tc15  1  0.646305  0.233825  0.734104  1
  Tc  Tc16  1  0.850082  0.766810  0.766651  1
  Tc  Tc17  1  0.353695  0.766175  0.265896  1
