# generated using pymatgen
data_Y3Cd2Sb3O14
_symmetry_space_group_name_H-M   'P 1'
_cell_length_a   7.33001966
_cell_length_b   7.33002177
_cell_length_c   7.33002140
_cell_angle_alpha   117.89780164
_cell_angle_beta   62.10217331
_cell_angle_gamma   117.89785577
_symmetry_Int_Tables_number   1
_chemical_formula_structural   Y3Cd2Sb3O14
_chemical_formula_sum   'Y3 Cd2 Sb3 O14'
_cell_volume   291.56898907
_cell_formula_units_Z   1
loop_
 _symmetry_equiv_pos_site_id
 _symmetry_equiv_pos_as_xyz
  1  'x, y, z'
loop_
 _atom_site_type_symbol
 _atom_site_label
 _atom_site_symmetry_multiplicity
 _atom_site_fract_x
 _atom_site_fract_y
 _atom_site_fract_z
 _atom_site_occupancy
  Y  Y0  1  0.999999  0.500002  0.000002  1
  Y  Y1  1  0.499997  0.000002  0.999999  1
  Y  Y2  1  0.500003  0.500003  0.499997  1
  Cd  Cd3  1  0.500000  0.500001  0.000000  1
  Cd  Cd4  1  0.999999  0.999997  0.500000  1
  Sb  Sb5  1  0.500004  0.999998  0.500005  1
  Sb  Sb6  1  0.999992  0.500004  0.499993  1
  Sb  Sb7  1  0.000005  0.999999  0.000002  1
  O  O8  1  0.622884  0.377117  0.122881  1
  O  O9  1  0.377117  0.622884  0.877119  1
  O  O10  1  0.081621  0.317021  0.182980  1
  O  O11  1  0.682979  0.918377  0.182978  1
  O  O12  1  0.682981  0.317022  0.581623  1
  O  O13  1  0.918380  0.682980  0.817022  1
  O  O14  1  0.317020  0.081617  0.817020  1
  O  O15  1  0.317023  0.682980  0.418381  1
  O  O16  1  0.628083  0.896837  0.603163  1
  O  O17  1  0.103167  0.371910  0.603166  1
  O  O18  1  0.103163  0.896836  0.128084  1
  O  O19  1  0.371914  0.103168  0.396833  1
  O  O20  1  0.896836  0.628079  0.396837  1
  O  O21  1  0.896835  0.103167  0.871915  1
