# generated using pymatgen
data_Lu4Zn3SiRh9
_symmetry_space_group_name_H-M   'P 1'
_cell_length_a   7.08045903
_cell_length_b   7.08045916
_cell_length_c   7.19788400
_cell_angle_alpha   109.80751697
_cell_angle_beta   109.80751736
_cell_angle_gamma   109.13284407
_symmetry_Int_Tables_number   1
_chemical_formula_structural   Lu4Zn3SiRh9
_chemical_formula_sum   'Lu4 Zn3 Si1 Rh9'
_cell_volume   276.62182395
_cell_formula_units_Z   1
loop_
 _symmetry_equiv_pos_site_id
 _symmetry_equiv_pos_as_xyz
  1  'x, y, z'
loop_
 _atom_site_type_symbol
 _atom_site_label
 _atom_site_symmetry_multiplicity
 _atom_site_fract_x
 _atom_site_fract_y
 _atom_site_fract_z
 _atom_site_occupancy
  Lu  Lu0  1  0.000000  0.000000  0.500000  1
  Lu  Lu1  1  0.034019  0.517010  0.017010  1
  Lu  Lu2  1  0.482990  0.965981  0.982990  1
  Lu  Lu3  1  0.482990  0.517010  0.500000  1
  Zn  Zn4  1  0.749679  0.250321  0.500000  1
  Zn  Zn5  1  0.749679  0.499357  0.249679  1
  Zn  Zn6  1  0.500643  0.250321  0.750321  1
  Si  Si7  1  0.000000  0.000000  0.000000  1
  Rh  Rh8  1  0.243041  0.486081  0.743041  1
  Rh  Rh9  1  0.243041  0.756959  0.500000  1
  Rh  Rh10  1  0.513919  0.756959  0.256959  1
  Rh  Rh11  1  0.730837  0.705595  0.999595  1
  Rh  Rh12  1  0.294405  0.025242  0.294000  1
  Rh  Rh13  1  0.974758  0.269163  0.268758  1
  Rh  Rh14  1  0.294405  0.269163  0.000405  1
  Rh  Rh15  1  0.730837  0.025242  0.731242  1
  Rh  Rh16  1  0.974758  0.705595  0.706000  1
