# generated using pymatgen
data_NaGa(PSe3)2
_symmetry_space_group_name_H-M   'P 1'
_cell_length_a   6.54408900
_cell_length_b   6.54408884
_cell_length_c   14.96988500
_cell_angle_alpha   90.00000000
_cell_angle_beta   90.00000000
_cell_angle_gamma   119.99998564
_symmetry_Int_Tables_number   1
_chemical_formula_structural   NaGa(PSe3)2
_chemical_formula_sum   'Na2 Ga2 P4 Se12'
_cell_volume   555.19755162
_cell_formula_units_Z   2
loop_
 _symmetry_equiv_pos_site_id
 _symmetry_equiv_pos_as_xyz
  1  'x, y, z'
loop_
 _atom_site_type_symbol
 _atom_site_label
 _atom_site_symmetry_multiplicity
 _atom_site_fract_x
 _atom_site_fract_y
 _atom_site_fract_z
 _atom_site_occupancy
  Na  Na0  1  0.333333  0.666667  0.750000  1
  Na  Na1  1  0.666667  0.333333  0.250000  1
  Ga  Ga2  1  0.000000  0.000000  0.250000  1
  Ga  Ga3  1  0.000000  0.000000  0.750000  1
  P  P4  1  0.666667  0.333333  0.674269  1
  P  P5  1  0.666667  0.333333  0.825731  1
  P  P6  1  0.333333  0.666667  0.325731  1
  P  P7  1  0.333333  0.666667  0.174269  1
  Se  Se8  1  0.681872  0.967762  0.132671  1
  Se  Se9  1  0.681872  0.714110  0.367329  1
  Se  Se10  1  0.285890  0.318128  0.132671  1
  Se  Se11  1  0.285890  0.967762  0.367329  1
  Se  Se12  1  0.714110  0.681872  0.867329  1
  Se  Se13  1  0.318128  0.032238  0.867329  1
  Se  Se14  1  0.967762  0.285890  0.867329  1
  Se  Se15  1  0.318128  0.285890  0.632671  1
  Se  Se16  1  0.967762  0.681872  0.632671  1
  Se  Se17  1  0.714110  0.032238  0.632671  1
  Se  Se18  1  0.032238  0.318128  0.367329  1
  Se  Se19  1  0.032238  0.714110  0.132671  1
