# generated using pymatgen
data_ErPaPt2Pb
_symmetry_space_group_name_H-M   'P 1'
_cell_length_a   7.94476400
_cell_length_b   7.92765400
_cell_length_c   3.61091200
_cell_angle_alpha   90.00000000
_cell_angle_beta   90.00000000
_cell_angle_gamma   90.00000000
_symmetry_Int_Tables_number   1
_chemical_formula_structural   ErPaPt2Pb
_chemical_formula_sum   'Er2 Pa2 Pt4 Pb2'
_cell_volume   227.42729858
_cell_formula_units_Z   2
loop_
 _symmetry_equiv_pos_site_id
 _symmetry_equiv_pos_as_xyz
  1  'x, y, z'
loop_
 _atom_site_type_symbol
 _atom_site_label
 _atom_site_symmetry_multiplicity
 _atom_site_fract_x
 _atom_site_fract_y
 _atom_site_fract_z
 _atom_site_occupancy
  Er  Er0  1  0.828530  0.671819  0.500000  1
  Er  Er1  1  0.328530  0.828181  0.500000  1
  Pa  Pa2  1  0.668240  0.167802  0.500000  1
  Pa  Pa3  1  0.168240  0.332198  0.500000  1
  Pt  Pt4  1  0.371126  0.137712  0.000000  1
  Pt  Pt5  1  0.128245  0.615573  0.000000  1
  Pt  Pt6  1  0.628245  0.884427  0.000000  1
  Pt  Pt7  1  0.871126  0.362288  0.000000  1
  Pb  Pb8  1  0.003860  0.988639  0.000000  1
  Pb  Pb9  1  0.503860  0.511361  0.000000  1
