# generated using pymatgen
data_Sm3Lu3TcSb2
_symmetry_space_group_name_H-M   'P 1'
_cell_length_a   8.17033100
_cell_length_b   8.17033281
_cell_length_c   4.30200800
_cell_angle_alpha   90.00000000
_cell_angle_beta   90.00000000
_cell_angle_gamma   119.99999674
_symmetry_Int_Tables_number   1
_chemical_formula_structural   Sm3Lu3TcSb2
_chemical_formula_sum   'Sm3 Lu3 Tc1 Sb2'
_cell_volume   248.70313403
_cell_formula_units_Z   1
loop_
 _symmetry_equiv_pos_site_id
 _symmetry_equiv_pos_as_xyz
  1  'x, y, z'
loop_
 _atom_site_type_symbol
 _atom_site_label
 _atom_site_symmetry_multiplicity
 _atom_site_fract_x
 _atom_site_fract_y
 _atom_site_fract_z
 _atom_site_occupancy
  Sm  Sm0  1  0.602206  0.000000  0.000000  1
  Sm  Sm1  1  0.000000  0.602206  0.000000  1
  Sm  Sm2  1  0.397794  0.397794  0.000000  1
  Lu  Lu3  1  0.230482  0.000000  0.500000  1
  Lu  Lu4  1  0.000000  0.230482  0.500000  1
  Lu  Lu5  1  0.769518  0.769518  0.500000  1
  Tc  Tc6  1  0.000000  0.000000  0.000000  1
  Sb  Sb7  1  0.333333  0.666667  0.500000  1
  Sb  Sb8  1  0.666667  0.333333  0.500000  1
