# generated using pymatgen
data_La5NdAl24Ru5Pt3
_symmetry_space_group_name_H-M   'P 1'
_cell_length_a   8.99952916
_cell_length_b   9.01283436
_cell_length_c   9.71503836
_cell_angle_alpha   90.09570348
_cell_angle_beta   90.00534245
_cell_angle_gamma   120.11282471
_symmetry_Int_Tables_number   1
_chemical_formula_structural   La5NdAl24Ru5Pt3
_chemical_formula_sum   'La5 Nd1 Al24 Ru5 Pt3'
_cell_volume   681.64868347
_cell_formula_units_Z   1
loop_
 _symmetry_equiv_pos_site_id
 _symmetry_equiv_pos_as_xyz
  1  'x, y, z'
loop_
 _atom_site_type_symbol
 _atom_site_label
 _atom_site_symmetry_multiplicity
 _atom_site_fract_x
 _atom_site_fract_y
 _atom_site_fract_z
 _atom_site_occupancy
  La  La0  1  0.193537  0.381030  0.251324  1
  La  La1  1  0.806282  0.618531  0.748655  1
  La  La2  1  0.618998  0.807772  0.250750  1
  La  La3  1  0.381265  0.192615  0.749381  1
  La  La4  1  0.191569  0.811313  0.249756  1
  Nd  Nd5  1  0.808751  0.188661  0.750468  1
  Al  Al6  1  0.336686  0.663854  0.016683  1
  Al  Al7  1  0.664145  0.335228  0.980878  1
  Al  Al8  1  0.662024  0.330017  0.517197  1
  Al  Al9  1  0.338824  0.669177  0.485244  1
  Al  Al10  1  0.166655  0.325354  0.575855  1
  Al  Al11  1  0.831891  0.674032  0.424769  1
  Al  Al12  1  0.673124  0.837190  0.576410  1
  Al  Al13  1  0.832031  0.674882  0.075709  1
  Al  Al14  1  0.327650  0.164306  0.424247  1
  Al  Al15  1  0.166605  0.324547  0.923686  1
  Al  Al16  1  0.166916  0.842632  0.576489  1
  Al  Al17  1  0.326346  0.168353  0.076820  1
  Al  Al18  1  0.833027  0.157598  0.425271  1
  Al  Al19  1  0.674201  0.832913  0.922581  1
  Al  Al20  1  0.838402  0.161692  0.077211  1
  Al  Al21  1  0.161344  0.838531  0.921193  1
  Al  Al22  1  0.564755  0.128392  0.253431  1
  Al  Al23  1  0.436928  0.873439  0.746557  1
  Al  Al24  1  0.869987  0.434759  0.249466  1
  Al  Al25  1  0.128337  0.563662  0.750478  1
  Al  Al26  1  0.563190  0.437398  0.249232  1
  Al  Al27  1  0.436850  0.562773  0.750730  1
  Al  Al28  1  0.002214  0.000655  0.250142  1
  Al  Al29  1  0.997074  0.999922  0.749790  1
  Ru  Ru30  1  0.500279  0.999929  0.499861  1
  Ru  Ru31  1  0.500239  0.499707  0.999487  1
  Ru  Ru32  1  0.500058  0.499711  0.500471  1
  Ru  Ru33  1  0.999642  0.000277  0.999849  1
  Ru  Ru34  1  0.999790  0.000312  0.500084  1
  Pt  Pt35  1  0.500394  0.999899  0.999818  1
  Pt  Pt36  1  0.000062  0.499525  0.999932  1
  Pt  Pt37  1  0.999929  0.499410  0.500097  1
