# generated using pymatgen
data_Y5CdIO12
_symmetry_space_group_name_H-M   'P 1'
_cell_length_a   6.57001833
_cell_length_b   6.46506533
_cell_length_c   6.57613203
_cell_angle_alpha   98.58849590
_cell_angle_beta   99.31392268
_cell_angle_gamma   97.34101815
_symmetry_Int_Tables_number   1
_chemical_formula_structural   Y5CdIO12
_chemical_formula_sum   'Y5 Cd1 I1 O12'
_cell_volume   269.22688903
_cell_formula_units_Z   1
loop_
 _symmetry_equiv_pos_site_id
 _symmetry_equiv_pos_as_xyz
  1  'x, y, z'
loop_
 _atom_site_type_symbol
 _atom_site_label
 _atom_site_symmetry_multiplicity
 _atom_site_fract_x
 _atom_site_fract_y
 _atom_site_fract_z
 _atom_site_occupancy
  Y  Y0  1  0.391009  0.687356  0.852764  1
  Y  Y1  1  0.856711  0.384477  0.677248  1
  Y  Y2  1  0.677096  0.850545  0.390313  1
  Y  Y3  1  0.607743  0.317263  0.138543  1
  Y  Y4  1  0.147769  0.609641  0.323307  1
  Cd  Cd5  1  0.333107  0.155457  0.595739  1
  I  I6  1  0.995222  0.995363  0.002444  1
  O  O7  1  0.180770  0.435981  0.600097  1
  O  O8  1  0.618055  0.179363  0.424415  1
  O  O9  1  0.428623  0.595765  0.176517  1
  O  O10  1  0.825411  0.564789  0.398745  1
  O  O11  1  0.402446  0.826861  0.565118  1
  O  O12  1  0.587419  0.428235  0.829980  1
  O  O13  1  0.911519  0.022768  0.717314  1
  O  O14  1  0.967205  0.289436  0.073134  1
  O  O15  1  0.283977  0.063566  0.987548  1
  O  O16  1  0.053324  0.957472  0.289031  1
  O  O17  1  0.029765  0.703851  0.927507  1
  O  O18  1  0.702830  0.931810  0.030237  1
