# generated using pymatgen
data_Tb9ScPb8
_symmetry_space_group_name_H-M   'P 1'
_cell_length_a   8.39026816
_cell_length_b   8.32185963
_cell_length_c   8.02361400
_cell_angle_alpha   90.07376562
_cell_angle_beta   112.07306058
_cell_angle_gamma   90.02260149
_symmetry_Int_Tables_number   1
_chemical_formula_structural   Tb9ScPb8
_chemical_formula_sum   'Tb9 Sc1 Pb8'
_cell_volume   519.16738850
_cell_formula_units_Z   1
loop_
 _symmetry_equiv_pos_site_id
 _symmetry_equiv_pos_as_xyz
  1  'x, y, z'
loop_
 _atom_site_type_symbol
 _atom_site_label
 _atom_site_symmetry_multiplicity
 _atom_site_fract_x
 _atom_site_fract_y
 _atom_site_fract_z
 _atom_site_occupancy
  Tb  Tb0  1  0.000000  0.000000  0.000000  1
  Tb  Tb1  1  0.693060  0.321358  0.049212  1
  Tb  Tb2  1  0.745199  0.840839  0.236787  1
  Tb  Tb3  1  0.256274  0.341755  0.266826  1
  Tb  Tb4  1  0.306496  0.819068  0.451039  1
  Tb  Tb5  1  0.693504  0.180933  0.548962  1
  Tb  Tb6  1  0.743726  0.658246  0.733174  1
  Tb  Tb7  1  0.254801  0.159161  0.763213  1
  Tb  Tb8  1  0.306940  0.678641  0.950788  1
  Sc  Sc9  1  0.000000  0.500000  0.500000  1
  Pb  Pb10  1  0.014188  0.641576  0.147584  1
  Pb  Pb11  1  0.413316  0.035382  0.177360  1
  Pb  Pb12  1  0.591409  0.534360  0.324357  1
  Pb  Pb13  1  0.983242  0.150153  0.358035  1
  Pb  Pb14  1  0.016758  0.849847  0.641964  1
  Pb  Pb15  1  0.408591  0.465640  0.675642  1
  Pb  Pb16  1  0.586685  0.964618  0.822640  1
  Pb  Pb17  1  0.985811  0.358425  0.852415  1
