# generated using pymatgen
data_Cs4MnFe2CoS8
_symmetry_space_group_name_H-M   'P 1'
_cell_length_a   5.37337997
_cell_length_b   7.30908787
_cell_length_c   12.41025844
_cell_angle_alpha   88.08974418
_cell_angle_beta   83.52873818
_cell_angle_gamma   79.53762941
_symmetry_Int_Tables_number   1
_chemical_formula_structural   Cs4MnFe2CoS8
_chemical_formula_sum   'Cs4 Mn1 Fe2 Co1 S8'
_cell_volume   476.20815727
_cell_formula_units_Z   1
loop_
 _symmetry_equiv_pos_site_id
 _symmetry_equiv_pos_as_xyz
  1  'x, y, z'
loop_
 _atom_site_type_symbol
 _atom_site_label
 _atom_site_symmetry_multiplicity
 _atom_site_fract_x
 _atom_site_fract_y
 _atom_site_fract_z
 _atom_site_occupancy
  Cs  Cs0  1  0.078960  0.026508  0.669060  1
  Cs  Cs1  1  0.568998  0.529935  0.183432  1
  Cs  Cs2  1  0.427351  0.470532  0.817038  1
  Cs  Cs3  1  0.924582  0.973841  0.330770  1
  Mn  Mn4  1  0.750422  0.998837  0.999675  1
  Fe  Fe5  1  0.749535  0.501432  0.500426  1
  Fe  Fe6  1  0.249234  0.000967  0.000331  1
  Co  Co7  1  0.250732  0.498952  0.499612  1
  S  S8  1  0.950907  0.559075  0.637119  1
  S  S9  1  0.458717  0.058534  0.133515  1
  S  S10  1  0.945063  0.229404  0.962768  1
  S  S11  1  0.450972  0.734636  0.460864  1
  S  S12  1  0.553814  0.941268  0.866384  1
  S  S13  1  0.048301  0.440437  0.362947  1
  S  S14  1  0.549870  0.265424  0.538877  1
  S  S15  1  0.042542  0.770215  0.037182  1
