# generated using pymatgen
data_Ce2Nd3AgPb3
_symmetry_space_group_name_H-M   'P 1'
_cell_length_a   9.75489400
_cell_length_b   9.75489449
_cell_length_c   6.64557000
_cell_angle_alpha   90.00000000
_cell_angle_beta   90.00000000
_cell_angle_gamma   120.00000513
_symmetry_Int_Tables_number   1
_chemical_formula_structural   Ce2Nd3AgPb3
_chemical_formula_sum   'Ce4 Nd6 Ag2 Pb6'
_cell_volume   547.65616003
_cell_formula_units_Z   2
loop_
 _symmetry_equiv_pos_site_id
 _symmetry_equiv_pos_as_xyz
  1  'x, y, z'
loop_
 _atom_site_type_symbol
 _atom_site_label
 _atom_site_symmetry_multiplicity
 _atom_site_fract_x
 _atom_site_fract_y
 _atom_site_fract_z
 _atom_site_occupancy
  Ce  Ce0  1  0.666667  0.333333  0.500000  1
  Ce  Ce1  1  0.333333  0.666667  0.500000  1
  Ce  Ce2  1  0.333333  0.666667  0.000000  1
  Ce  Ce3  1  0.666667  0.333333  0.000000  1
  Nd  Nd4  1  0.722394  0.722394  0.250000  1
  Nd  Nd5  1  0.277606  0.000000  0.250000  1
  Nd  Nd6  1  0.000000  0.277606  0.250000  1
  Nd  Nd7  1  0.277606  0.277606  0.750000  1
  Nd  Nd8  1  0.722394  0.000000  0.750000  1
  Nd  Nd9  1  0.000000  0.722394  0.750000  1
  Ag  Ag10  1  0.000000  0.000000  0.500000  1
  Ag  Ag11  1  0.000000  0.000000  0.000000  1
  Pb  Pb12  1  0.374207  0.374207  0.250000  1
  Pb  Pb13  1  0.625793  0.000000  0.250000  1
  Pb  Pb14  1  0.000000  0.625793  0.250000  1
  Pb  Pb15  1  0.625793  0.625793  0.750000  1
  Pb  Pb16  1  0.374207  0.000000  0.750000  1
  Pb  Pb17  1  0.000000  0.374207  0.750000  1
