# generated using pymatgen
data_LiZn4PdRh2
_symmetry_space_group_name_H-M   'P 1'
_cell_length_a   6.04129800
_cell_length_b   6.04334700
_cell_length_c   6.12561100
_cell_angle_alpha   90.00001807
_cell_angle_beta   90.00019969
_cell_angle_gamma   89.99987673
_symmetry_Int_Tables_number   1
_chemical_formula_structural   LiZn4PdRh2
_chemical_formula_sum   'Li2 Zn8 Pd2 Rh4'
_cell_volume   223.64397579
_cell_formula_units_Z   2
loop_
 _symmetry_equiv_pos_site_id
 _symmetry_equiv_pos_as_xyz
  1  'x, y, z'
loop_
 _atom_site_type_symbol
 _atom_site_label
 _atom_site_symmetry_multiplicity
 _atom_site_fract_x
 _atom_site_fract_y
 _atom_site_fract_z
 _atom_site_occupancy
  Li  Li0  1  0.749868  0.250002  0.000010  1
  Li  Li1  1  0.249875  0.750001  0.499995  1
  Zn  Zn2  1  0.000013  0.999990  0.249877  1
  Zn  Zn3  1  0.000013  0.500010  0.249880  1
  Zn  Zn4  1  0.499994  0.999999  0.250181  1
  Zn  Zn5  1  0.499994  0.500001  0.250184  1
  Zn  Zn6  1  0.500007  0.000000  0.749819  1
  Zn  Zn7  1  0.500007  0.500000  0.749816  1
  Zn  Zn8  1  0.000000  0.999992  0.750122  1
  Zn  Zn9  1  0.000000  0.500008  0.750120  1
  Pd  Pd10  1  0.750090  0.250001  0.500002  1
  Pd  Pd11  1  0.250087  0.749999  0.999990  1
  Rh  Rh12  1  0.250246  0.250002  0.000005  1
  Rh  Rh13  1  0.749779  0.749998  0.999994  1
  Rh  Rh14  1  0.750216  0.750000  0.499981  1
  Rh  Rh15  1  0.249808  0.249999  0.500017  1
