# generated using pymatgen
data_Tb3Y13(TmSn4)4
_symmetry_space_group_name_H-M   'P 1'
_cell_length_a   8.00596908
_cell_length_b   8.15944203
_cell_length_c   15.43709500
_cell_angle_alpha   90.00246473
_cell_angle_beta   90.00833748
_cell_angle_gamma   89.99568812
_symmetry_Int_Tables_number   1
_chemical_formula_structural   Tb3Y13(TmSn4)4
_chemical_formula_sum   'Tb3 Y13 Tm4 Sn16'
_cell_volume   1008.41649420
_cell_formula_units_Z   1
loop_
 _symmetry_equiv_pos_site_id
 _symmetry_equiv_pos_as_xyz
  1  'x, y, z'
loop_
 _atom_site_type_symbol
 _atom_site_label
 _atom_site_symmetry_multiplicity
 _atom_site_fract_x
 _atom_site_fract_y
 _atom_site_fract_z
 _atom_site_occupancy
  Tb  Tb0  1  0.980179  0.820515  0.402807  1
  Tb  Tb1  1  0.519824  0.320546  0.597169  1
  Tb  Tb2  1  0.019855  0.179418  0.902841  1
  Y  Y3  1  0.366838  0.837210  0.877761  1
  Y  Y4  1  0.866849  0.662852  0.622206  1
  Y  Y5  1  0.633206  0.162765  0.377803  1
  Y  Y6  1  0.133125  0.337203  0.122248  1
  Y  Y7  1  0.633179  0.162732  0.122234  1
  Y  Y8  1  0.133154  0.337200  0.377782  1
  Y  Y9  1  0.366785  0.837244  0.622199  1
  Y  Y10  1  0.866870  0.662817  0.877723  1
  Y  Y11  1  0.519946  0.320506  0.902658  1
  Y  Y12  1  0.019972  0.179507  0.597311  1
  Y  Y13  1  0.480103  0.679500  0.402734  1
  Y  Y14  1  0.980017  0.820482  0.097323  1
  Y  Y15  1  0.480073  0.679496  0.097249  1
  Tm  Tm16  1  0.198103  0.502920  0.750037  1
  Tm  Tm17  1  0.698086  0.997080  0.749954  1
  Tm  Tm18  1  0.801931  0.497111  0.250005  1
  Tm  Tm19  1  0.301957  0.002934  0.249928  1
  Sn  Sn20  1  0.293328  0.035941  0.042455  1
  Sn  Sn21  1  0.793331  0.463955  0.457547  1
  Sn  Sn22  1  0.706675  0.963997  0.542453  1
  Sn  Sn23  1  0.206891  0.536089  0.957614  1
  Sn  Sn24  1  0.706659  0.963808  0.957669  1
  Sn  Sn25  1  0.206623  0.536230  0.542305  1
  Sn  Sn26  1  0.293379  0.036230  0.457693  1
  Sn  Sn27  1  0.793232  0.463896  0.042349  1
  Sn  Sn28  1  0.563623  0.618257  0.749984  1
  Sn  Sn29  1  0.063640  0.881736  0.750078  1
  Sn  Sn30  1  0.436368  0.381762  0.249951  1
  Sn  Sn31  1  0.936377  0.118254  0.250039  1
  Sn  Sn32  1  0.329135  0.148548  0.750079  1
  Sn  Sn33  1  0.829192  0.351390  0.749957  1
  Sn  Sn34  1  0.670683  0.851279  0.249944  1
  Sn  Sn35  1  0.170816  0.648592  0.249910  1
