# generated using pymatgen
data_SrTa4Cd(HgO7)2
_symmetry_space_group_name_H-M   'P 1'
_cell_length_a   7.47580888
_cell_length_b   7.47580938
_cell_length_c   7.61620647
_cell_angle_alpha   59.99016659
_cell_angle_beta   59.99016497
_cell_angle_gamma   59.50169787
_symmetry_Int_Tables_number   1
_chemical_formula_structural   SrTa4Cd(HgO7)2
_chemical_formula_sum   'Sr1 Ta4 Cd1 Hg2 O14'
_cell_volume   299.78768038
_cell_formula_units_Z   1
loop_
 _symmetry_equiv_pos_site_id
 _symmetry_equiv_pos_as_xyz
  1  'x, y, z'
loop_
 _atom_site_type_symbol
 _atom_site_label
 _atom_site_symmetry_multiplicity
 _atom_site_fract_x
 _atom_site_fract_y
 _atom_site_fract_z
 _atom_site_occupancy
  Sr  Sr0  1  0.125000  0.125000  0.625000  1
  Ta  Ta1  1  0.625000  0.625000  0.625000  1
  Ta  Ta2  1  0.125000  0.625000  0.625000  1
  Ta  Ta3  1  0.625000  0.625000  0.125000  1
  Ta  Ta4  1  0.625000  0.125000  0.625000  1
  Cd  Cd5  1  0.125000  0.125000  0.125000  1
  Hg  Hg6  1  0.625000  0.125000  0.125000  1
  Hg  Hg7  1  0.125000  0.625000  0.125000  1
  O  O8  1  0.565132  0.565132  0.933751  1
  O  O9  1  0.307529  0.307529  0.689788  1
  O  O10  1  0.939636  0.558582  0.935491  1
  O  O11  1  0.940387  0.554675  0.566472  1
  O  O12  1  0.558582  0.939636  0.935491  1
  O  O13  1  0.554675  0.940387  0.566472  1
  O  O14  1  0.310364  0.691418  0.314509  1
  O  O15  1  0.695325  0.309613  0.683528  1
  O  O16  1  0.262557  0.262557  0.215040  1
  O  O17  1  0.987443  0.987443  0.034960  1
  O  O18  1  0.942471  0.942471  0.560212  1
  O  O19  1  0.691418  0.310364  0.314509  1
  O  O20  1  0.309613  0.695325  0.683528  1
  O  O21  1  0.684868  0.684868  0.316249  1
