# generated using pymatgen
data_La4Tb2Zn4IrPd12
_symmetry_space_group_name_H-M   'P 1'
_cell_length_a   8.39259241
_cell_length_b   8.39305206
_cell_length_c   8.39305209
_cell_angle_alpha   109.70249861
_cell_angle_beta   109.35679940
_cell_angle_gamma   109.35680978
_symmetry_Int_Tables_number   1
_chemical_formula_structural   La4Tb2Zn4IrPd12
_chemical_formula_sum   'La4 Tb2 Zn4 Ir1 Pd12'
_cell_volume   455.08970501
_cell_formula_units_Z   1
loop_
 _symmetry_equiv_pos_site_id
 _symmetry_equiv_pos_as_xyz
  1  'x, y, z'
loop_
 _atom_site_type_symbol
 _atom_site_label
 _atom_site_symmetry_multiplicity
 _atom_site_fract_x
 _atom_site_fract_y
 _atom_site_fract_z
 _atom_site_occupancy
  La  La0  1  0.000000  0.294379  0.296031  1
  La  La1  1  0.297788  0.297100  0.000688  1
  La  La2  1  0.702212  0.999312  0.702900  1
  La  La3  1  0.000000  0.703969  0.705621  1
  Tb  Tb4  1  0.700104  0.699200  0.000903  1
  Tb  Tb5  1  0.299896  0.999097  0.300800  1
  Zn  Zn6  1  0.000000  0.999386  0.493626  1
  Zn  Zn7  1  0.000000  0.506374  0.000614  1
  Zn  Zn8  1  0.500000  0.999269  0.000731  1
  Zn  Zn9  1  0.500000  0.499269  0.500731  1
  Ir  Ir10  1  0.000000  0.994127  0.005873  1
  Pd  Pd11  1  0.334689  0.333465  0.666026  1
  Pd  Pd12  1  0.665311  0.998776  0.331336  1
  Pd  Pd13  1  0.000000  0.671379  0.328621  1
  Pd  Pd14  1  0.666520  0.335678  0.000120  1
  Pd  Pd15  1  0.333480  0.669159  0.333600  1
  Pd  Pd16  1  0.000000  0.332350  0.667650  1
  Pd  Pd17  1  0.334689  0.668664  0.001224  1
  Pd  Pd18  1  0.333480  0.999879  0.664322  1
  Pd  Pd19  1  0.661047  0.329920  0.331126  1
  Pd  Pd20  1  0.666520  0.666400  0.330841  1
  Pd  Pd21  1  0.665311  0.333974  0.666535  1
  Pd  Pd22  1  0.338953  0.668874  0.670080  1
