# generated using pymatgen
data_Tb11YIr3Pd
_symmetry_space_group_name_H-M   'P 1'
_cell_length_a   6.41164685
_cell_length_b   7.21436593
_cell_length_c   9.48044000
_cell_angle_alpha   90.00000000
_cell_angle_beta   90.00000000
_cell_angle_gamma   89.95681543
_symmetry_Int_Tables_number   1
_chemical_formula_structural   Tb11YIr3Pd
_chemical_formula_sum   'Tb11 Y1 Ir3 Pd1'
_cell_volume   438.52679166
_cell_formula_units_Z   1
loop_
 _symmetry_equiv_pos_site_id
 _symmetry_equiv_pos_as_xyz
  1  'x, y, z'
loop_
 _atom_site_type_symbol
 _atom_site_label
 _atom_site_symmetry_multiplicity
 _atom_site_fract_x
 _atom_site_fract_y
 _atom_site_fract_z
 _atom_site_occupancy
  Tb  Tb0  1  0.333568  0.674918  0.060106  1
  Tb  Tb1  1  0.173154  0.183164  0.439968  1
  Tb  Tb2  1  0.674370  0.321203  0.563627  1
  Tb  Tb3  1  0.825395  0.822478  0.934146  1
  Tb  Tb4  1  0.674370  0.321203  0.936373  1
  Tb  Tb5  1  0.825395  0.822478  0.565854  1
  Tb  Tb6  1  0.333568  0.674918  0.439894  1
  Tb  Tb7  1  0.173154  0.183164  0.060032  1
  Tb  Tb8  1  0.625508  0.036551  0.250000  1
  Tb  Tb9  1  0.131979  0.467519  0.750000  1
  Tb  Tb10  1  0.366737  0.965798  0.750000  1
  Y  Y11  1  0.864298  0.523919  0.250000  1
  Ir  Ir12  1  0.443519  0.383633  0.250000  1
  Ir  Ir13  1  0.949533  0.117317  0.750000  1
  Ir  Ir14  1  0.549673  0.615926  0.750000  1
  Pd  Pd15  1  0.055784  0.885811  0.250000  1
