# generated using pymatgen
data_LaTiRhO5
_symmetry_space_group_name_H-M   'P 1'
_cell_length_a   6.00226800
_cell_length_b   7.73210200
_cell_length_c   8.88036000
_cell_angle_alpha   90.00000000
_cell_angle_beta   90.00000000
_cell_angle_gamma   90.00000000
_symmetry_Int_Tables_number   1
_chemical_formula_structural   LaTiRhO5
_chemical_formula_sum   'La4 Ti4 Rh4 O20'
_cell_volume   412.13882551
_cell_formula_units_Z   4
loop_
 _symmetry_equiv_pos_site_id
 _symmetry_equiv_pos_as_xyz
  1  'x, y, z'
loop_
 _atom_site_type_symbol
 _atom_site_label
 _atom_site_symmetry_multiplicity
 _atom_site_fract_x
 _atom_site_fract_y
 _atom_site_fract_z
 _atom_site_occupancy
  La  La0  1  0.000000  0.356401  0.672975  1
  La  La1  1  0.000000  0.643599  0.327025  1
  La  La2  1  0.000000  0.856401  0.827025  1
  La  La3  1  0.000000  0.143599  0.172975  1
  Ti  Ti4  1  0.500000  0.115196  0.859207  1
  Ti  Ti5  1  0.500000  0.884804  0.140793  1
  Ti  Ti6  1  0.500000  0.615196  0.640793  1
  Ti  Ti7  1  0.500000  0.384804  0.359207  1
  Rh  Rh8  1  0.251927  0.500000  0.000000  1
  Rh  Rh9  1  0.748073  0.000000  0.500000  1
  Rh  Rh10  1  0.748073  0.500000  0.000000  1
  Rh  Rh11  1  0.251927  0.000000  0.500000  1
  O  O12  1  0.256297  0.899784  0.282648  1
  O  O13  1  0.256297  0.100216  0.717352  1
  O  O14  1  0.743703  0.399784  0.217352  1
  O  O15  1  0.743703  0.600216  0.782648  1
  O  O16  1  0.743703  0.100216  0.717352  1
  O  O17  1  0.743703  0.899784  0.282648  1
  O  O18  1  0.256297  0.600216  0.782648  1
  O  O19  1  0.256297  0.399784  0.217352  1
  O  O20  1  0.500000  0.334674  0.930304  1
  O  O21  1  0.500000  0.665326  0.069696  1
  O  O22  1  0.500000  0.834674  0.569696  1
  O  O23  1  0.500000  0.165326  0.430304  1
  O  O24  1  0.287903  0.000000  0.000000  1
  O  O25  1  0.712097  0.500000  0.500000  1
  O  O26  1  0.712097  0.000000  0.000000  1
  O  O27  1  0.287903  0.500000  0.500000  1
  O  O28  1  0.000000  0.165894  0.444526  1
  O  O29  1  0.000000  0.834106  0.555474  1
  O  O30  1  0.000000  0.665894  0.055474  1
  O  O31  1  0.000000  0.334106  0.944526  1
