# generated using pymatgen
data_YbCe3(B4Ru)4
_symmetry_space_group_name_H-M   'P 1'
_cell_length_a   3.60850800
_cell_length_b   5.98724442
_cell_length_c   11.59141482
_cell_angle_alpha   90.04315121
_cell_angle_beta   90.00000000
_cell_angle_gamma   90.00000000
_symmetry_Int_Tables_number   1
_chemical_formula_structural   YbCe3(B4Ru)4
_chemical_formula_sum   'Yb1 Ce3 B16 Ru4'
_cell_volume   250.43267112
_cell_formula_units_Z   1
loop_
 _symmetry_equiv_pos_site_id
 _symmetry_equiv_pos_as_xyz
  1  'x, y, z'
loop_
 _atom_site_type_symbol
 _atom_site_label
 _atom_site_symmetry_multiplicity
 _atom_site_fract_x
 _atom_site_fract_y
 _atom_site_fract_z
 _atom_site_occupancy
  Yb  Yb0  1  0.500000  0.870983  0.649428  1
  Ce  Ce1  1  0.500000  0.628892  0.149606  1
  Ce  Ce2  1  0.500000  0.371000  0.847675  1
  Ce  Ce3  1  0.500000  0.127784  0.352119  1
  B  B4  1  0.000000  0.974896  0.190682  1
  B  B5  1  0.000000  0.024589  0.808341  1
  B  B6  1  0.000000  0.474064  0.310112  1
  B  B7  1  0.000000  0.524367  0.690390  1
  B  B8  1  0.000000  0.786679  0.316154  1
  B  B9  1  0.000000  0.213975  0.684862  1
  B  B10  1  0.000000  0.286126  0.186118  1
  B  B11  1  0.000000  0.714954  0.813841  1
  B  B12  1  0.000000  0.862706  0.469588  1
  B  B13  1  0.000000  0.137383  0.531768  1
  B  B14  1  0.000000  0.362393  0.030855  1
  B  B15  1  0.000000  0.636578  0.968050  1
  B  B16  1  0.000000  0.888409  0.045588  1
  B  B17  1  0.000000  0.110545  0.952792  1
  B  B18  1  0.000000  0.389439  0.455673  1
  B  B19  1  0.000000  0.613967  0.547454  1
  Ru  Ru20  1  0.500000  0.638408  0.406705  1
  Ru  Ru21  1  0.500000  0.360637  0.591278  1
  Ru  Ru22  1  0.500000  0.140902  0.093577  1
  Ru  Ru23  1  0.500000  0.860323  0.907344  1
