# generated using pymatgen
data_Er9Tm(In2Pt)4
_symmetry_space_group_name_H-M   'P 1'
_cell_length_a   3.59518900
_cell_length_b   8.11963335
_cell_length_c   18.17007178
_cell_angle_alpha   90.03358330
_cell_angle_beta   90.00000000
_cell_angle_gamma   90.00000000
_symmetry_Int_Tables_number   1
_chemical_formula_structural   Er9Tm(In2Pt)4
_chemical_formula_sum   'Er9 Tm1 In8 Pt4'
_cell_volume   530.41367606
_cell_formula_units_Z   1
loop_
 _symmetry_equiv_pos_site_id
 _symmetry_equiv_pos_as_xyz
  1  'x, y, z'
loop_
 _atom_site_type_symbol
 _atom_site_label
 _atom_site_symmetry_multiplicity
 _atom_site_fract_x
 _atom_site_fract_y
 _atom_site_fract_z
 _atom_site_occupancy
  Er  Er0  1  0.000000  0.116705  0.414668  1
  Er  Er1  1  0.000000  0.883176  0.585224  1
  Er  Er2  1  0.000000  0.383156  0.914754  1
  Er  Er3  1  0.000000  0.616859  0.085339  1
  Er  Er4  1  0.000000  0.243460  0.220573  1
  Er  Er5  1  0.000000  0.756552  0.779436  1
  Er  Er6  1  0.000000  0.256585  0.720540  1
  Er  Er7  1  0.000000  0.999988  0.000051  1
  Er  Er8  1  0.000000  0.499982  0.499956  1
  Tm  Tm9  1  0.000000  0.743559  0.279348  1
  In  In10  1  0.500000  0.424251  0.351409  1
  In  In11  1  0.500000  0.576255  0.648490  1
  In  In12  1  0.500000  0.076317  0.851506  1
  In  In13  1  0.500000  0.923489  0.148644  1
  In  In14  1  0.500000  0.292088  0.066635  1
  In  In15  1  0.500000  0.708039  0.933411  1
  In  In16  1  0.500000  0.208011  0.566610  1
  In  In17  1  0.500000  0.791805  0.433183  1
  Pt  Pt18  1  0.500000  0.024104  0.303465  1
  Pt  Pt19  1  0.500000  0.974828  0.696430  1
  Pt  Pt20  1  0.500000  0.474865  0.803545  1
  Pt  Pt21  1  0.500000  0.525925  0.196786  1
