# generated using pymatgen
data_HfSc7Sb16
_symmetry_space_group_name_H-M   'P 1'
_cell_length_a   4.02348900
_cell_length_b   10.29357025
_cell_length_c   14.67650893
_cell_angle_alpha   89.85138502
_cell_angle_beta   90.00000000
_cell_angle_gamma   90.00000000
_symmetry_Int_Tables_number   1
_chemical_formula_structural   HfSc7Sb16
_chemical_formula_sum   'Hf1 Sc7 Sb16'
_cell_volume   607.84122786
_cell_formula_units_Z   1
loop_
 _symmetry_equiv_pos_site_id
 _symmetry_equiv_pos_as_xyz
  1  'x, y, z'
loop_
 _atom_site_type_symbol
 _atom_site_label
 _atom_site_symmetry_multiplicity
 _atom_site_fract_x
 _atom_site_fract_y
 _atom_site_fract_z
 _atom_site_occupancy
  Hf  Hf0  1  0.500000  0.672533  0.991478  1
  Sc  Sc1  1  0.500000  0.521150  0.247255  1
  Sc  Sc2  1  0.500000  0.476992  0.753351  1
  Sc  Sc3  1  0.000000  0.020954  0.253477  1
  Sc  Sc4  1  0.000000  0.978895  0.746298  1
  Sc  Sc5  1  0.000000  0.825213  0.492726  1
  Sc  Sc6  1  0.000000  0.174183  0.507052  1
  Sc  Sc7  1  0.500000  0.327547  0.006887  1
  Sb  Sb8  1  0.000000  0.519792  0.099165  1
  Sb  Sb9  1  0.000000  0.488169  0.901457  1
  Sb  Sb10  1  0.500000  0.017354  0.401800  1
  Sb  Sb11  1  0.500000  0.983424  0.597980  1
  Sb  Sb12  1  0.000000  0.730971  0.297579  1
  Sb  Sb13  1  0.000000  0.268255  0.702272  1
  Sb  Sb14  1  0.500000  0.231639  0.202558  1
  Sb  Sb15  1  0.500000  0.767909  0.797531  1
  Sb  Sb16  1  0.000000  0.877679  0.944536  1
  Sb  Sb17  1  0.000000  0.121257  0.057848  1
  Sb  Sb18  1  0.500000  0.379314  0.557626  1
  Sb  Sb19  1  0.500000  0.619195  0.442497  1
  Sb  Sb20  1  0.000000  0.660139  0.659726  1
  Sb  Sb21  1  0.000000  0.338096  0.341144  1
  Sb  Sb22  1  0.500000  0.162862  0.840662  1
  Sb  Sb23  1  0.500000  0.836478  0.157096  1
