# generated using pymatgen
data_Ce4AlB4Ir9
_symmetry_space_group_name_H-M   'P 1'
_cell_length_a   10.80596799
_cell_length_b   10.80596775
_cell_length_c   10.80596811
_cell_angle_alpha   29.84109868
_cell_angle_beta   29.84110025
_cell_angle_gamma   29.84110204
_symmetry_Int_Tables_number   1
_chemical_formula_structural   Ce4AlB4Ir9
_chemical_formula_sum   'Ce4 Al1 B4 Ir9'
_cell_volume   276.67512777
_cell_formula_units_Z   1
loop_
 _symmetry_equiv_pos_site_id
 _symmetry_equiv_pos_as_xyz
  1  'x, y, z'
loop_
 _atom_site_type_symbol
 _atom_site_label
 _atom_site_symmetry_multiplicity
 _atom_site_fract_x
 _atom_site_fract_y
 _atom_site_fract_z
 _atom_site_occupancy
  Ce  Ce0  1  0.149436  0.149436  0.149436  1
  Ce  Ce1  1  0.947871  0.947871  0.947871  1
  Ce  Ce2  1  0.850564  0.850564  0.850564  1
  Ce  Ce3  1  0.052129  0.052129  0.052129  1
  Al  Al4  1  0.500000  0.500000  0.500000  1
  B  B5  1  0.616089  0.616089  0.616089  1
  B  B6  1  0.717583  0.717583  0.717583  1
  B  B7  1  0.383911  0.383911  0.383911  1
  B  B8  1  0.282417  0.282417  0.282417  1
  Ir  Ir9  1  0.401939  0.901610  0.401939  1
  Ir  Ir10  1  0.901610  0.401939  0.401939  1
  Ir  Ir11  1  0.500000  0.500000  0.000000  1
  Ir  Ir12  1  0.500000  0.000000  0.500000  1
  Ir  Ir13  1  0.000000  0.500000  0.500000  1
  Ir  Ir14  1  0.598061  0.098390  0.598061  1
  Ir  Ir15  1  0.598061  0.598061  0.098390  1
  Ir  Ir16  1  0.098390  0.598061  0.598061  1
  Ir  Ir17  1  0.401939  0.401939  0.901610  1
