# generated using pymatgen
data_Ga3Fe2CuRh6
_symmetry_space_group_name_H-M   'P 1'
_cell_length_a   4.28064301
_cell_length_b   6.01951500
_cell_length_c   12.84013800
_cell_angle_alpha   90.00000000
_cell_angle_beta   89.99692148
_cell_angle_gamma   90.00000000
_symmetry_Int_Tables_number   1
_chemical_formula_structural   Ga3Fe2CuRh6
_chemical_formula_sum   'Ga6 Fe4 Cu2 Rh12'
_cell_volume   330.85690447
_cell_formula_units_Z   2
loop_
 _symmetry_equiv_pos_site_id
 _symmetry_equiv_pos_as_xyz
  1  'x, y, z'
loop_
 _atom_site_type_symbol
 _atom_site_label
 _atom_site_symmetry_multiplicity
 _atom_site_fract_x
 _atom_site_fract_y
 _atom_site_fract_z
 _atom_site_occupancy
  Ga  Ga0  1  0.000053  0.000000  0.002696  1
  Ga  Ga1  1  0.499779  0.500001  0.164006  1
  Ga  Ga2  1  0.999776  0.000000  0.329372  1
  Ga  Ga3  1  0.499994  0.500001  0.499137  1
  Ga  Ga4  1  0.000229  0.000000  0.667544  1
  Ga  Ga5  1  0.500258  0.500001  0.837233  1
  Fe  Fe6  1  0.999899  0.500001  0.331369  1
  Fe  Fe7  1  0.500232  0.000000  0.499137  1
  Fe  Fe8  1  0.000367  0.500001  0.667373  1
  Fe  Fe9  1  0.500303  0.000000  0.835315  1
  Cu  Cu10  1  0.999598  0.500001  0.000355  1
  Cu  Cu11  1  0.499154  0.000000  0.166621  1
  Rh  Rh12  1  0.500048  0.246353  0.997943  1
  Rh  Rh13  1  0.500048  0.753646  0.997943  1
  Rh  Rh14  1  0.999854  0.253768  0.168713  1
  Rh  Rh15  1  0.999854  0.746234  0.168713  1
  Rh  Rh16  1  0.499761  0.250388  0.336107  1
  Rh  Rh17  1  0.499761  0.749612  0.336107  1
  Rh  Rh18  1  0.000002  0.249417  0.500686  1
  Rh  Rh19  1  0.000002  0.750585  0.500686  1
  Rh  Rh20  1  0.500245  0.250519  0.665971  1
  Rh  Rh21  1  0.500245  0.749481  0.665971  1
  Rh  Rh22  1  0.000269  0.249574  0.830500  1
  Rh  Rh23  1  0.000269  0.750428  0.830500  1
