# generated using pymatgen
data_YEr9Tl8(PdAu)2
_symmetry_space_group_name_H-M   'P 1'
_cell_length_a   3.62452900
_cell_length_b   8.25081200
_cell_length_c   18.44827407
_cell_angle_alpha   89.99490925
_cell_angle_beta   90.00000000
_cell_angle_gamma   90.00000000
_symmetry_Int_Tables_number   1
_chemical_formula_structural   YEr9Tl8(PdAu)2
_chemical_formula_sum   'Y1 Er9 Tl8 Pd2 Au2'
_cell_volume   551.70130422
_cell_formula_units_Z   1
loop_
 _symmetry_equiv_pos_site_id
 _symmetry_equiv_pos_as_xyz
  1  'x, y, z'
loop_
 _atom_site_type_symbol
 _atom_site_label
 _atom_site_symmetry_multiplicity
 _atom_site_fract_x
 _atom_site_fract_y
 _atom_site_fract_z
 _atom_site_occupancy
  Y  Y0  1  0.000000  0.500000  0.500000  1
  Er  Er1  1  0.000000  0.000000  0.000000  1
  Er  Er2  1  0.000000  0.751192  0.284306  1
  Er  Er3  1  0.000000  0.248808  0.715694  1
  Er  Er4  1  0.000000  0.763710  0.781092  1
  Er  Er5  1  0.000000  0.236290  0.218908  1
  Er  Er6  1  0.000000  0.620032  0.082961  1
  Er  Er7  1  0.000000  0.379968  0.917039  1
  Er  Er8  1  0.000000  0.884625  0.585295  1
  Er  Er9  1  0.000000  0.115375  0.414705  1
  Tl  Tl10  1  0.500000  0.708023  0.935855  1
  Tl  Tl11  1  0.500000  0.291977  0.064145  1
  Tl  Tl12  1  0.500000  0.796820  0.435995  1
  Tl  Tl13  1  0.500000  0.203180  0.564005  1
  Tl  Tl14  1  0.500000  0.583893  0.646348  1
  Tl  Tl15  1  0.500000  0.416107  0.353652  1
  Tl  Tl16  1  0.500000  0.921867  0.147535  1
  Tl  Tl17  1  0.500000  0.078133  0.852465  1
  Pd  Pd18  1  0.500000  0.971009  0.696911  1
  Pd  Pd19  1  0.500000  0.028991  0.303089  1
  Au  Au20  1  0.500000  0.530744  0.198909  1
  Au  Au21  1  0.500000  0.469256  0.801091  1
