# generated using pymatgen
data_Pr4Nd6PdRu3
_symmetry_space_group_name_H-M   'P 1'
_cell_length_a   9.05670215
_cell_length_b   9.07200876
_cell_length_c   7.39917951
_cell_angle_alpha   83.41041834
_cell_angle_beta   83.37127651
_cell_angle_gamma   42.85447162
_symmetry_Int_Tables_number   1
_chemical_formula_structural   Pr4Nd6PdRu3
_chemical_formula_sum   'Pr4 Nd6 Pd1 Ru3'
_cell_volume   410.30716061
_cell_formula_units_Z   1
loop_
 _symmetry_equiv_pos_site_id
 _symmetry_equiv_pos_as_xyz
  1  'x, y, z'
loop_
 _atom_site_type_symbol
 _atom_site_label
 _atom_site_symmetry_multiplicity
 _atom_site_fract_x
 _atom_site_fract_y
 _atom_site_fract_z
 _atom_site_occupancy
  Pr  Pr0  1  0.009889  0.803399  0.926141  1
  Pr  Pr1  1  0.202074  0.988097  0.585246  1
  Pr  Pr2  1  0.985918  0.199676  0.085717  1
  Pr  Pr3  1  0.786178  0.028234  0.411952  1
  Nd  Nd4  1  0.367365  0.196086  0.817380  1
  Nd  Nd5  1  0.787223  0.638011  0.686579  1
  Nd  Nd6  1  0.646209  0.787001  0.188976  1
  Nd  Nd7  1  0.209898  0.351436  0.308058  1
  Nd  Nd8  1  0.573826  0.427110  0.751463  1
  Nd  Nd9  1  0.427666  0.579020  0.241898  1
  Pd  Pd10  1  0.186453  0.592748  0.571071  1
  Ru  Ru11  1  0.407664  0.820810  0.923449  1
  Ru  Ru12  1  0.819105  0.402348  0.428252  1
  Ru  Ru13  1  0.590533  0.186026  0.073817  1
