# generated using pymatgen
data_ZrPa3Sn4Sb
_symmetry_space_group_name_H-M   'P 1'
_cell_length_a   9.25562201
_cell_length_b   9.25562218
_cell_length_c   6.19924300
_cell_angle_alpha   90.00000000
_cell_angle_beta   90.00000000
_cell_angle_gamma   120.00443143
_symmetry_Int_Tables_number   1
_chemical_formula_structural   ZrPa3Sn4Sb
_chemical_formula_sum   'Zr2 Pa6 Sn8 Sb2'
_cell_volume   459.89758116
_cell_formula_units_Z   2
loop_
 _symmetry_equiv_pos_site_id
 _symmetry_equiv_pos_as_xyz
  1  'x, y, z'
loop_
 _atom_site_type_symbol
 _atom_site_label
 _atom_site_symmetry_multiplicity
 _atom_site_fract_x
 _atom_site_fract_y
 _atom_site_fract_z
 _atom_site_occupancy
  Zr  Zr0  1  0.000000  0.000000  0.000000  1
  Zr  Zr1  1  0.000000  0.000000  0.500000  1
  Pa  Pa2  1  0.616094  0.997074  0.250000  1
  Pa  Pa3  1  0.383906  0.002926  0.750000  1
  Pa  Pa4  1  0.997074  0.616094  0.250000  1
  Pa  Pa5  1  0.002926  0.383906  0.750000  1
  Pa  Pa6  1  0.384497  0.384497  0.250000  1
  Pa  Pa7  1  0.615503  0.615503  0.750000  1
  Sn  Sn8  1  0.274813  0.999541  0.250000  1
  Sn  Sn9  1  0.725187  0.000459  0.750000  1
  Sn  Sn10  1  0.999541  0.274813  0.250000  1
  Sn  Sn11  1  0.000459  0.725187  0.750000  1
  Sn  Sn12  1  0.332292  0.667708  0.000000  1
  Sn  Sn13  1  0.667708  0.332292  0.000000  1
  Sn  Sn14  1  0.667708  0.332292  0.500000  1
  Sn  Sn15  1  0.332292  0.667708  0.500000  1
  Sb  Sb16  1  0.726166  0.726166  0.250000  1
  Sb  Sb17  1  0.273834  0.273834  0.750000  1
