# generated using pymatgen
data_Yb2MoH9
_symmetry_space_group_name_H-M   'P 1'
_cell_length_a   8.53357900
_cell_length_b   8.53358044
_cell_length_c   4.85186700
_cell_angle_alpha   90.00000000
_cell_angle_beta   90.00000000
_cell_angle_gamma   120.00000603
_symmetry_Int_Tables_number   1
_chemical_formula_structural   Yb2MoH9
_chemical_formula_sum   'Yb6 Mo3 H27'
_cell_volume   305.98630755
_cell_formula_units_Z   3
loop_
 _symmetry_equiv_pos_site_id
 _symmetry_equiv_pos_as_xyz
  1  'x, y, z'
loop_
 _atom_site_type_symbol
 _atom_site_label
 _atom_site_symmetry_multiplicity
 _atom_site_fract_x
 _atom_site_fract_y
 _atom_site_fract_z
 _atom_site_occupancy
  Yb  Yb0  1  0.000000  0.266932  0.500000  1
  Yb  Yb1  1  0.733068  0.733068  0.500000  1
  Yb  Yb2  1  0.266932  0.000000  0.500000  1
  Yb  Yb3  1  0.000000  0.610909  0.000000  1
  Yb  Yb4  1  0.389091  0.389091  0.000000  1
  Yb  Yb5  1  0.610909  0.000000  0.000000  1
  Mo  Mo6  1  0.666667  0.333333  0.500000  1
  Mo  Mo7  1  0.333333  0.666667  0.500000  1
  Mo  Mo8  1  0.000000  0.000000  0.000000  1
  H  H9  1  0.814160  0.334722  0.765362  1
  H  H10  1  0.665278  0.479436  0.765362  1
  H  H11  1  0.520564  0.185840  0.765362  1
  H  H12  1  0.185840  0.520564  0.234638  1
  H  H13  1  0.520564  0.185840  0.234638  1
  H  H14  1  0.814160  0.334722  0.234638  1
  H  H15  1  0.665278  0.479436  0.234638  1
  H  H16  1  0.334722  0.814160  0.765362  1
  H  H17  1  0.479436  0.665278  0.765362  1
  H  H18  1  0.212958  0.000000  0.000000  1
  H  H19  1  0.787042  0.787042  0.000000  1
  H  H20  1  0.000000  0.212958  0.000000  1
  H  H21  1  0.846291  0.000000  0.258438  1
  H  H22  1  0.153709  0.153709  0.741562  1
  H  H23  1  0.000000  0.846291  0.741562  1
  H  H24  1  0.000000  0.846291  0.258438  1
  H  H25  1  0.153709  0.153709  0.258438  1
  H  H26  1  0.846291  0.000000  0.741562  1
  H  H27  1  0.131212  0.678498  0.500000  1
  H  H28  1  0.547286  0.868788  0.500000  1
  H  H29  1  0.321502  0.452714  0.500000  1
  H  H30  1  0.452714  0.321502  0.500000  1
  H  H31  1  0.868788  0.547286  0.500000  1
  H  H32  1  0.678498  0.131212  0.500000  1
  H  H33  1  0.185840  0.520564  0.765362  1
  H  H34  1  0.334722  0.814160  0.234638  1
  H  H35  1  0.479436  0.665278  0.234638  1
