# generated using pymatgen
data_Y2Al16RePt8
_symmetry_space_group_name_H-M   'P 1'
_cell_length_a   11.15456887
_cell_length_b   11.15456858
_cell_length_c   11.15456874
_cell_angle_alpha   158.48023684
_cell_angle_beta   116.95067776
_cell_angle_gamma   67.44845697
_symmetry_Int_Tables_number   1
_chemical_formula_structural   Y2Al16RePt8
_chemical_formula_sum   'Y2 Al16 Re1 Pt8'
_cell_volume   450.72776696
_cell_formula_units_Z   1
loop_
 _symmetry_equiv_pos_site_id
 _symmetry_equiv_pos_as_xyz
  1  'x, y, z'
loop_
 _atom_site_type_symbol
 _atom_site_label
 _atom_site_symmetry_multiplicity
 _atom_site_fract_x
 _atom_site_fract_y
 _atom_site_fract_z
 _atom_site_occupancy
  Y  Y0  1  0.231595  0.231378  0.000217  1
  Y  Y1  1  0.768839  0.768622  0.000217  1
  Al  Al2  1  0.273857  0.391306  0.882551  1
  Al  Al3  1  0.088484  0.923568  0.164916  1
  Al  Al4  1  0.505765  0.200620  0.305146  1
  Al  Al5  1  0.241349  0.076432  0.164916  1
  Al  Al6  1  0.907389  0.415535  0.491854  1
  Al  Al7  1  0.725295  0.599863  0.125432  1
  Al  Al8  1  0.900737  0.209336  0.691401  1
  Al  Al9  1  0.482065  0.790664  0.691401  1
  Al  Al10  1  0.388734  0.000000  0.388734  1
  Al  Al11  1  0.628895  0.000000  0.628895  1
  Al  Al12  1  0.491244  0.608694  0.882551  1
  Al  Al13  1  0.104525  0.799380  0.305146  1
  Al  Al14  1  0.909136  0.087527  0.821610  1
  Al  Al15  1  0.734082  0.912473  0.821610  1
  Al  Al16  1  0.525569  0.400137  0.125432  1
  Al  Al17  1  0.076319  0.584465  0.491854  1
  Re  Re18  1  0.785828  0.500000  0.285828  1
  Pt  Pt19  1  0.023198  0.343263  0.679934  1
  Pt  Pt20  1  0.628886  0.125917  0.502969  1
  Pt  Pt21  1  0.252408  0.500000  0.752408  1
  Pt  Pt22  1  0.377052  0.874083  0.502969  1
  Pt  Pt23  1  0.984084  0.000000  0.984084  1
  Pt  Pt24  1  0.648081  0.334083  0.313998  1
  Pt  Pt25  1  0.336670  0.656737  0.679934  1
  Pt  Pt26  1  0.979915  0.665917  0.313998  1
