# generated using pymatgen
data_Ho2Si3Ir
_symmetry_space_group_name_H-M   'P 1'
_cell_length_a   8.14931700
_cell_length_b   8.14931678
_cell_length_c   7.88306000
_cell_angle_alpha   90.00000000
_cell_angle_beta   90.00000000
_cell_angle_gamma   120.00000496
_symmetry_Int_Tables_number   1
_chemical_formula_structural   Ho2Si3Ir
_chemical_formula_sum   'Ho8 Si12 Ir4'
_cell_volume   453.38573712
_cell_formula_units_Z   4
loop_
 _symmetry_equiv_pos_site_id
 _symmetry_equiv_pos_as_xyz
  1  'x, y, z'
loop_
 _atom_site_type_symbol
 _atom_site_label
 _atom_site_symmetry_multiplicity
 _atom_site_fract_x
 _atom_site_fract_y
 _atom_site_fract_z
 _atom_site_occupancy
  Ho  Ho0  1  0.000000  0.000000  0.250000  1
  Ho  Ho1  1  0.000000  0.000000  0.750000  1
  Ho  Ho2  1  0.509411  0.490589  0.250000  1
  Ho  Ho3  1  0.509411  0.018822  0.250000  1
  Ho  Ho4  1  0.981178  0.490589  0.250000  1
  Ho  Ho5  1  0.490589  0.509411  0.750000  1
  Ho  Ho6  1  0.490589  0.981178  0.750000  1
  Ho  Ho7  1  0.018822  0.509411  0.750000  1
  Si  Si8  1  0.166745  0.833255  0.499336  1
  Si  Si9  1  0.166745  0.333489  0.499336  1
  Si  Si10  1  0.666511  0.833255  0.499336  1
  Si  Si11  1  0.833255  0.166745  0.500664  1
  Si  Si12  1  0.833255  0.666511  0.500664  1
  Si  Si13  1  0.333489  0.166745  0.500664  1
  Si  Si14  1  0.833255  0.166745  0.999336  1
  Si  Si15  1  0.833255  0.666511  0.999336  1
  Si  Si16  1  0.333489  0.166745  0.999336  1
  Si  Si17  1  0.166745  0.833255  0.000664  1
  Si  Si18  1  0.166745  0.333489  0.000664  1
  Si  Si19  1  0.666511  0.833255  0.000664  1
  Ir  Ir20  1  0.333333  0.666667  0.466378  1
  Ir  Ir21  1  0.666667  0.333333  0.533622  1
  Ir  Ir22  1  0.666667  0.333333  0.966378  1
  Ir  Ir23  1  0.333333  0.666667  0.033622  1
