# generated using pymatgen
data_Sr2Al(CoSi)4
_symmetry_space_group_name_H-M   'P 1'
_cell_length_a   6.12716200
_cell_length_b   6.12716090
_cell_length_c   10.66797500
_cell_angle_alpha   90.00000000
_cell_angle_beta   90.00000000
_cell_angle_gamma   116.39091471
_symmetry_Int_Tables_number   1
_chemical_formula_structural   Sr2Al(CoSi)4
_chemical_formula_sum   'Sr4 Al2 Co8 Si8'
_cell_volume   358.75923715
_cell_formula_units_Z   2
loop_
 _symmetry_equiv_pos_site_id
 _symmetry_equiv_pos_as_xyz
  1  'x, y, z'
loop_
 _atom_site_type_symbol
 _atom_site_label
 _atom_site_symmetry_multiplicity
 _atom_site_fract_x
 _atom_site_fract_y
 _atom_site_fract_z
 _atom_site_occupancy
  Sr  Sr0  1  0.202746  0.797254  0.500000  1
  Sr  Sr1  1  0.202746  0.797254  0.000000  1
  Sr  Sr2  1  0.797254  0.202746  0.500000  1
  Sr  Sr3  1  0.797254  0.202746  0.000000  1
  Al  Al4  1  0.027128  0.027128  0.250000  1
  Al  Al5  1  0.972872  0.972872  0.750000  1
  Co  Co6  1  0.490991  0.247235  0.250000  1
  Co  Co7  1  0.752765  0.509009  0.750000  1
  Co  Co8  1  0.509009  0.752765  0.750000  1
  Co  Co9  1  0.247235  0.490991  0.250000  1
  Co  Co10  1  0.683644  0.683644  0.364524  1
  Co  Co11  1  0.316356  0.316356  0.635476  1
  Co  Co12  1  0.683644  0.683644  0.135476  1
  Co  Co13  1  0.316356  0.316356  0.864524  1
  Si  Si14  1  0.522377  0.899150  0.250000  1
  Si  Si15  1  0.100850  0.477623  0.750000  1
  Si  Si16  1  0.477623  0.100850  0.750000  1
  Si  Si17  1  0.899150  0.522377  0.250000  1
  Si  Si18  1  0.343860  0.343860  0.426952  1
  Si  Si19  1  0.656140  0.656140  0.573048  1
  Si  Si20  1  0.343860  0.343860  0.073048  1
  Si  Si21  1  0.656140  0.656140  0.926952  1
