# generated using pymatgen
data_Dy16Tm4Si15Hg
_symmetry_space_group_name_H-M   'P 1'
_cell_length_a   7.42479040
_cell_length_b   7.69738049
_cell_length_c   14.65720920
_cell_angle_alpha   89.97635328
_cell_angle_beta   89.39681076
_cell_angle_gamma   90.13913308
_symmetry_Int_Tables_number   1
_chemical_formula_structural   Dy16Tm4Si15Hg
_chemical_formula_sum   'Dy16 Tm4 Si15 Hg1'
_cell_volume   837.63159414
_cell_formula_units_Z   1
loop_
 _symmetry_equiv_pos_site_id
 _symmetry_equiv_pos_as_xyz
  1  'x, y, z'
loop_
 _atom_site_type_symbol
 _atom_site_label
 _atom_site_symmetry_multiplicity
 _atom_site_fract_x
 _atom_site_fract_y
 _atom_site_fract_z
 _atom_site_occupancy
  Dy  Dy0  1  0.975953  0.822401  0.101944  1
  Dy  Dy1  1  0.471153  0.684246  0.401124  1
  Dy  Dy2  1  0.518866  0.312915  0.899083  1
  Dy  Dy3  1  0.030050  0.182476  0.598156  1
  Dy  Dy4  1  0.029383  0.176588  0.899701  1
  Dy  Dy5  1  0.529389  0.316122  0.598182  1
  Dy  Dy6  1  0.474909  0.682674  0.101142  1
  Dy  Dy7  1  0.969985  0.816395  0.400585  1
  Dy  Dy8  1  0.673833  0.829585  0.873746  1
  Dy  Dy9  1  0.182396  0.679885  0.621689  1
  Dy  Dy10  1  0.821942  0.319840  0.126254  1
  Dy  Dy11  1  0.318292  0.178865  0.377593  1
  Dy  Dy12  1  0.322585  0.177187  0.124479  1
  Dy  Dy13  1  0.818686  0.320853  0.377424  1
  Dy  Dy14  1  0.182932  0.676366  0.877185  1
  Dy  Dy15  1  0.682087  0.821936  0.621810  1
  Tm  Tm16  1  0.648927  0.989419  0.250639  1
  Tm  Tm17  1  0.151090  0.511583  0.249095  1
  Tm  Tm18  1  0.849304  0.489155  0.747650  1
  Tm  Tm19  1  0.348979  0.012339  0.748967  1
  Si  Si20  1  0.767777  0.629442  0.251907  1
  Si  Si21  1  0.267653  0.871700  0.251719  1
  Si  Si22  1  0.734108  0.128231  0.748167  1
  Si  Si23  1  0.230391  0.372267  0.747744  1
  Si  Si24  1  0.021194  0.103075  0.251599  1
  Si  Si25  1  0.521898  0.396154  0.252055  1
  Si  Si26  1  0.478118  0.603234  0.747689  1
  Si  Si27  1  0.978953  0.893376  0.748102  1
  Si  Si28  1  0.354275  0.971837  0.540381  1
  Si  Si29  1  0.650207  0.028803  0.041816  1
  Si  Si30  1  0.146204  0.470864  0.459872  1
  Si  Si31  1  0.161194  0.470378  0.043307  1
  Si  Si32  1  0.645436  0.028289  0.458808  1
  Si  Si33  1  0.350543  0.969270  0.961064  1
  Si  Si34  1  0.855071  0.529557  0.539534  1
  Hg  Hg35  1  0.836236  0.532691  0.959792  1
