# generated using pymatgen
data_YCd3P6N13
_symmetry_space_group_name_H-M   'P 1'
_cell_length_a   7.30309312
_cell_length_b   7.31447715
_cell_length_c   7.31447811
_cell_angle_alpha   109.50272626
_cell_angle_beta   109.43970505
_cell_angle_gamma   109.43969818
_symmetry_Int_Tables_number   1
_chemical_formula_structural   YCd3P6N13
_chemical_formula_sum   'Y1 Cd3 P6 N13'
_cell_volume   300.89871936
_cell_formula_units_Z   1
loop_
 _symmetry_equiv_pos_site_id
 _symmetry_equiv_pos_as_xyz
  1  'x, y, z'
loop_
 _atom_site_type_symbol
 _atom_site_label
 _atom_site_symmetry_multiplicity
 _atom_site_fract_x
 _atom_site_fract_y
 _atom_site_fract_z
 _atom_site_occupancy
  Y  Y0  1  0.689358  0.000000  0.000000  1
  Cd  Cd1  1  0.002177  0.000000  0.706207  1
  Cd  Cd2  1  0.002177  0.706207  0.000000  1
  Cd  Cd3  1  0.295970  0.293793  0.293793  1
  P  P4  1  0.248339  0.748933  0.497276  1
  P  P5  1  0.751063  0.251657  0.502724  1
  P  P6  1  0.751063  0.502724  0.251657  1
  P  P7  1  0.248339  0.497276  0.748933  1
  P  P8  1  0.499406  0.748343  0.251067  1
  P  P9  1  0.499406  0.251067  0.748343  1
  N  N10  1  0.990184  0.000000  0.000000  1
  N  N11  1  0.717435  0.284853  0.284853  1
  N  N12  1  0.279348  0.712723  0.278953  1
  N  N13  1  0.300361  0.576949  0.576949  1
  N  N14  1  0.566624  0.566230  0.287277  1
  N  N15  1  0.432582  0.715147  0.000000  1
  N  N16  1  0.000394  0.721047  0.433770  1
  N  N17  1  0.566624  0.287277  0.566230  1
  N  N18  1  0.723412  0.000000  0.423051  1
  N  N19  1  0.432582  0.000000  0.715147  1
  N  N20  1  0.723412  0.423051  0.000000  1
  N  N21  1  0.279348  0.278953  0.712723  1
  N  N22  1  0.000394  0.433770  0.721047  1
