# generated using pymatgen
data_Ce(TmRu)2
_symmetry_space_group_name_H-M   'P 1'
_cell_length_a   5.76647124
_cell_length_b   5.76647146
_cell_length_c   5.76647155
_cell_angle_alpha   137.47639872
_cell_angle_beta   118.16022560
_cell_angle_gamma   77.93988069
_symmetry_Int_Tables_number   1
_chemical_formula_structural   Ce(TmRu)2
_chemical_formula_sum   'Ce1 Tm2 Ru2'
_cell_volume   111.11386350
_cell_formula_units_Z   1
loop_
 _symmetry_equiv_pos_site_id
 _symmetry_equiv_pos_as_xyz
  1  'x, y, z'
loop_
 _atom_site_type_symbol
 _atom_site_label
 _atom_site_symmetry_multiplicity
 _atom_site_fract_x
 _atom_site_fract_y
 _atom_site_fract_z
 _atom_site_occupancy
  Ce  Ce0  1  0.000000  0.000000  0.000000  1
  Tm  Tm1  1  0.691710  0.191710  0.499999  1
  Tm  Tm2  1  0.308290  0.808289  0.499999  1
  Ru  Ru3  1  0.738228  0.500001  0.238228  1
  Ru  Ru4  1  0.261772  0.499999  0.761771  1
