# generated using pymatgen
data_Th10CuSn6Ge
_symmetry_space_group_name_H-M   'P 1'
_cell_length_a   9.57552500
_cell_length_b   9.57552706
_cell_length_c   6.57337600
_cell_angle_alpha   90.00000000
_cell_angle_beta   90.00000000
_cell_angle_gamma   119.99999632
_symmetry_Int_Tables_number   1
_chemical_formula_structural   Th10CuSn6Ge
_chemical_formula_sum   'Th10 Cu1 Sn6 Ge1'
_cell_volume   521.96863273
_cell_formula_units_Z   1
loop_
 _symmetry_equiv_pos_site_id
 _symmetry_equiv_pos_as_xyz
  1  'x, y, z'
loop_
 _atom_site_type_symbol
 _atom_site_label
 _atom_site_symmetry_multiplicity
 _atom_site_fract_x
 _atom_site_fract_y
 _atom_site_fract_z
 _atom_site_occupancy
  Th  Th0  1  0.333333  0.666667  0.000000  1
  Th  Th1  1  0.666667  0.333333  0.500000  1
  Th  Th2  1  0.666667  0.333333  0.000000  1
  Th  Th3  1  0.333333  0.666667  0.500000  1
  Th  Th4  1  0.261225  0.000000  0.249892  1
  Th  Th5  1  0.261225  0.261225  0.750108  1
  Th  Th6  1  0.000000  0.738775  0.750108  1
  Th  Th7  1  0.000000  0.261225  0.249892  1
  Th  Th8  1  0.738775  0.738775  0.249892  1
  Th  Th9  1  0.738775  0.000000  0.750108  1
  Cu  Cu10  1  0.000000  0.000000  0.500000  1
  Sn  Sn11  1  0.615710  0.000000  0.251006  1
  Sn  Sn12  1  0.615710  0.615710  0.748994  1
  Sn  Sn13  1  0.000000  0.384290  0.748994  1
  Sn  Sn14  1  0.000000  0.615710  0.251006  1
  Sn  Sn15  1  0.384290  0.384290  0.251006  1
  Sn  Sn16  1  0.384290  0.000000  0.748994  1
  Ge  Ge17  1  0.000000  0.000000  0.000000  1
