# generated using pymatgen
data_LaTh3(B10Os)2
_symmetry_space_group_name_H-M   'P 1'
_cell_length_a   4.22493700
_cell_length_b   5.76419200
_cell_length_c   11.50129501
_cell_angle_alpha   90.00413989
_cell_angle_beta   90.00000000
_cell_angle_gamma   90.00000000
_symmetry_Int_Tables_number   1
_chemical_formula_structural   LaTh3(B10Os)2
_chemical_formula_sum   'La1 Th3 B20 Os2'
_cell_volume   280.09503986
_cell_formula_units_Z   1
loop_
 _symmetry_equiv_pos_site_id
 _symmetry_equiv_pos_as_xyz
  1  'x, y, z'
loop_
 _atom_site_type_symbol
 _atom_site_label
 _atom_site_symmetry_multiplicity
 _atom_site_fract_x
 _atom_site_fract_y
 _atom_site_fract_z
 _atom_site_occupancy
  La  La0  1  0.500000  0.283687  0.867931  1
  Th  Th1  1  0.500000  0.720395  0.129785  1
  Th  Th2  1  0.500000  0.782661  0.629640  1
  Th  Th3  1  0.500000  0.217652  0.369722  1
  B  B4  1  0.000000  0.118200  0.542128  1
  B  B5  1  0.000000  0.881937  0.457337  1
  B  B6  1  0.000000  0.616970  0.956762  1
  B  B7  1  0.000000  0.379959  0.043406  1
  B  B8  1  0.000000  0.132140  0.696668  1
  B  B9  1  0.000000  0.868425  0.303359  1
  B  B10  1  0.300123  0.221647  0.119532  1
  B  B11  1  0.299569  0.778149  0.881475  1
  B  B12  1  0.699327  0.721776  0.380972  1
  B  B13  1  0.699857  0.277766  0.618308  1
  B  B14  1  0.700431  0.778149  0.881475  1
  B  B15  1  0.699877  0.221647  0.119532  1
  B  B16  1  0.300143  0.277766  0.618308  1
  B  B17  1  0.300673  0.721776  0.380972  1
  B  B18  1  0.000000  0.060248  0.193969  1
  B  B19  1  0.000000  0.940531  0.807597  1
  B  B20  1  0.000000  0.560004  0.306736  1
  B  B21  1  0.000000  0.441096  0.692350  1
  B  B22  1  0.000000  0.368478  0.197226  1
  B  B23  1  0.000000  0.632934  0.802905  1
  Os  Os24  1  0.000000  0.499945  0.499826  1
  Os  Os25  1  0.000000  0.996061  0.002078  1
