# generated using pymatgen
data_TbCe6Dy3(SiB4)4
_symmetry_space_group_name_H-M   'P 1'
_cell_length_a   7.31442746
_cell_length_b   7.31442684
_cell_length_c   8.25957501
_cell_angle_alpha   89.99572204
_cell_angle_beta   90.00427429
_cell_angle_gamma   90.05817770
_symmetry_Int_Tables_number   1
_chemical_formula_structural   TbCe6Dy3(SiB4)4
_chemical_formula_sum   'Tb1 Ce6 Dy3 Si4 B16'
_cell_volume   441.89400814
_cell_formula_units_Z   1
loop_
 _symmetry_equiv_pos_site_id
 _symmetry_equiv_pos_as_xyz
  1  'x, y, z'
loop_
 _atom_site_type_symbol
 _atom_site_label
 _atom_site_symmetry_multiplicity
 _atom_site_fract_x
 _atom_site_fract_y
 _atom_site_fract_z
 _atom_site_occupancy
  Tb  Tb0  1  0.181232  0.318768  0.779743  1
  Ce  Ce1  1  0.682410  0.182681  0.227160  1
  Ce  Ce2  1  0.317331  0.817602  0.772829  1
  Ce  Ce3  1  0.317319  0.817590  0.227160  1
  Ce  Ce4  1  0.818251  0.681749  0.227201  1
  Ce  Ce5  1  0.818210  0.681790  0.772836  1
  Ce  Ce6  1  0.682398  0.182669  0.772829  1
  Dy  Dy7  1  0.181226  0.318774  0.219242  1
  Dy  Dy8  1  0.001730  0.000763  0.499912  1
  Dy  Dy9  1  0.499237  0.498270  0.499912  1
  Si  Si10  1  0.116277  0.613637  0.499836  1
  Si  Si11  1  0.886363  0.383723  0.499836  1
  Si  Si12  1  0.383149  0.116851  0.499809  1
  Si  Si13  1  0.613636  0.886364  0.499980  1
  B  B14  1  0.173444  0.039063  0.000159  1
  B  B15  1  0.827830  0.962068  0.000053  1
  B  B16  1  0.960572  0.172861  0.000209  1
  B  B17  1  0.327139  0.539428  0.000209  1
  B  B18  1  0.039850  0.827857  0.000055  1
  B  B19  1  0.672143  0.460150  0.000055  1
  B  B20  1  0.537932  0.672170  0.000053  1
  B  B21  1  0.460937  0.326556  0.000159  1
  B  B22  1  0.091577  0.591253  0.000209  1
  B  B23  1  0.908747  0.408423  0.000209  1
  B  B24  1  0.409386  0.090614  0.000039  1
  B  B25  1  0.590897  0.909103  0.000008  1
  B  B26  1  0.000664  0.000344  0.159277  1
  B  B27  1  0.000493  0.000033  0.840873  1
  B  B28  1  0.499967  0.499507  0.840873  1
  B  B29  1  0.499656  0.499336  0.159277  1
