# generated using pymatgen
data_Tb17Mg2ZrIr12
_symmetry_space_group_name_H-M   'P 1'
_cell_length_a   10.84933600
_cell_length_b   10.84933600
_cell_length_c   6.25764900
_cell_angle_alpha   90.00000000
_cell_angle_beta   90.00000000
_cell_angle_gamma   90.00000000
_symmetry_Int_Tables_number   1
_chemical_formula_structural   Tb17Mg2ZrIr12
_chemical_formula_sum   'Tb17 Mg2 Zr1 Ir12'
_cell_volume   736.57592195
_cell_formula_units_Z   1
loop_
 _symmetry_equiv_pos_site_id
 _symmetry_equiv_pos_as_xyz
  1  'x, y, z'
loop_
 _atom_site_type_symbol
 _atom_site_label
 _atom_site_symmetry_multiplicity
 _atom_site_fract_x
 _atom_site_fract_y
 _atom_site_fract_z
 _atom_site_occupancy
  Tb  Tb0  1  0.281971  0.085305  0.378973  1
  Tb  Tb1  1  0.288876  0.913235  0.878933  1
  Tb  Tb2  1  0.711124  0.086765  0.878933  1
  Tb  Tb3  1  0.718029  0.914695  0.378973  1
  Tb  Tb4  1  0.585874  0.784049  0.879582  1
  Tb  Tb5  1  0.587334  0.207361  0.377882  1
  Tb  Tb6  1  0.412666  0.792639  0.377882  1
  Tb  Tb7  1  0.414126  0.215951  0.879582  1
  Tb  Tb8  1  0.207361  0.412666  0.622118  1
  Tb  Tb9  1  0.215951  0.585874  0.120418  1
  Tb  Tb10  1  0.784049  0.414126  0.120418  1
  Tb  Tb11  1  0.792639  0.587334  0.622118  1
  Tb  Tb12  1  0.913235  0.711124  0.121067  1
  Tb  Tb13  1  0.914695  0.281971  0.621027  1
  Tb  Tb14  1  0.085305  0.718029  0.621027  1
  Tb  Tb15  1  0.086765  0.288876  0.121067  1
  Tb  Tb16  1  0.500000  0.500000  0.500000  1
  Mg  Mg17  1  0.000000  0.000000  0.500000  1
  Mg  Mg18  1  0.500000  0.500000  0.000000  1
  Zr  Zr19  1  0.000000  0.000000  0.000000  1
  Ir  Ir20  1  0.853866  0.150789  0.238137  1
  Ir  Ir21  1  0.849211  0.853866  0.761863  1
  Ir  Ir22  1  0.150789  0.146134  0.761863  1
  Ir  Ir23  1  0.146134  0.849211  0.238137  1
  Ir  Ir24  1  0.656481  0.346036  0.743907  1
  Ir  Ir25  1  0.653964  0.656481  0.256093  1
  Ir  Ir26  1  0.346036  0.343519  0.256093  1
  Ir  Ir27  1  0.343519  0.653964  0.743907  1
  Ir  Ir28  1  0.500000  0.000000  0.120786  1
  Ir  Ir29  1  0.500000  0.000000  0.621961  1
  Ir  Ir30  1  0.000000  0.500000  0.879214  1
  Ir  Ir31  1  0.000000  0.500000  0.378039  1
