# generated using pymatgen
data_BaCd2GaGe
_symmetry_space_group_name_H-M   'P 1'
_cell_length_a   6.76942980
_cell_length_b   6.76942976
_cell_length_c   6.76942983
_cell_angle_alpha   139.52205472
_cell_angle_beta   139.52205288
_cell_angle_gamma   58.57971913
_symmetry_Int_Tables_number   1
_chemical_formula_structural   BaCd2GaGe
_chemical_formula_sum   'Ba1 Cd2 Ga1 Ge1'
_cell_volume   129.50994433
_cell_formula_units_Z   1
loop_
 _symmetry_equiv_pos_site_id
 _symmetry_equiv_pos_as_xyz
  1  'x, y, z'
loop_
 _atom_site_type_symbol
 _atom_site_label
 _atom_site_symmetry_multiplicity
 _atom_site_fract_x
 _atom_site_fract_y
 _atom_site_fract_z
 _atom_site_occupancy
  Ba  Ba0  1  0.998519  0.998519  0.000000  1
  Cd  Cd1  1  0.748594  0.248594  0.500000  1
  Cd  Cd2  1  0.248594  0.748594  0.500000  1
  Ga  Ga3  1  0.613008  0.613008  0.000000  1
  Ge  Ge4  1  0.391285  0.391285  0.000000  1
