# generated using pymatgen
data_Yb3C3ICl
_symmetry_space_group_name_H-M   'P 1'
_cell_length_a   7.21913323
_cell_length_b   7.21913480
_cell_length_c   11.61567200
_cell_angle_alpha   90.00000000
_cell_angle_beta   90.00000000
_cell_angle_gamma   148.54859183
_symmetry_Int_Tables_number   1
_chemical_formula_structural   Yb3C3ICl
_chemical_formula_sum   'Yb6 C6 I2 Cl2'
_cell_volume   315.86247540
_cell_formula_units_Z   2
loop_
 _symmetry_equiv_pos_site_id
 _symmetry_equiv_pos_as_xyz
  1  'x, y, z'
loop_
 _atom_site_type_symbol
 _atom_site_label
 _atom_site_symmetry_multiplicity
 _atom_site_fract_x
 _atom_site_fract_y
 _atom_site_fract_z
 _atom_site_occupancy
  Yb  Yb0  1  0.670456  0.329544  0.570744  1
  Yb  Yb1  1  0.329544  0.670456  0.429256  1
  Yb  Yb2  1  0.329544  0.670456  0.070744  1
  Yb  Yb3  1  0.670456  0.329544  0.929256  1
  Yb  Yb4  1  0.112658  0.887342  0.250000  1
  Yb  Yb5  1  0.887342  0.112658  0.750000  1
  C  C6  1  0.276537  0.723463  0.635308  1
  C  C7  1  0.723463  0.276537  0.364692  1
  C  C8  1  0.723463  0.276537  0.135308  1
  C  C9  1  0.276537  0.723463  0.864692  1
  C  C10  1  0.731919  0.268081  0.250000  1
  C  C11  1  0.268081  0.731919  0.750000  1
  I  I12  1  0.000000  0.000000  0.000000  1
  I  I13  1  0.000000  0.000000  0.500000  1
  Cl  Cl14  1  0.537213  0.462787  0.750000  1
  Cl  Cl15  1  0.462787  0.537213  0.250000  1
