# generated using pymatgen
data_La3DyPtSe7
_symmetry_space_group_name_H-M   'P 1'
_cell_length_a   4.08632902
_cell_length_b   8.38798384
_cell_length_c   8.74342778
_cell_angle_alpha   90.02588627
_cell_angle_beta   90.00921508
_cell_angle_gamma   89.99358566
_symmetry_Int_Tables_number   1
_chemical_formula_structural   La3DyPtSe7
_chemical_formula_sum   'La3 Dy1 Pt1 Se7'
_cell_volume   299.69023465
_cell_formula_units_Z   1
loop_
 _symmetry_equiv_pos_site_id
 _symmetry_equiv_pos_as_xyz
  1  'x, y, z'
loop_
 _atom_site_type_symbol
 _atom_site_label
 _atom_site_symmetry_multiplicity
 _atom_site_fract_x
 _atom_site_fract_y
 _atom_site_fract_z
 _atom_site_occupancy
  La  La0  1  0.250876  0.625552  0.747842  1
  La  La1  1  0.749945  0.870398  0.273296  1
  La  La2  1  0.749552  0.378875  0.274379  1
  Dy  Dy3  1  0.250262  0.125332  0.699457  1
  Pt  Pt4  1  0.749617  0.125191  0.994459  1
  Se  Se5  1  0.249274  0.315055  0.992640  1
  Se  Se6  1  0.750464  0.624293  0.005662  1
  Se  Se7  1  0.750388  0.883579  0.637526  1
  Se  Se8  1  0.249991  0.624981  0.376162  1
  Se  Se9  1  0.249379  0.935189  0.991991  1
  Se  Se10  1  0.750308  0.366993  0.637828  1
  Se  Se11  1  0.249945  0.124561  0.368758  1
