# generated using pymatgen
data_Zr4Co5Ir3
_symmetry_space_group_name_H-M   'P 1'
_cell_length_a   5.01725113
_cell_length_b   4.96115877
_cell_length_c   8.37845900
_cell_angle_alpha   90.00000000
_cell_angle_beta   90.00000000
_cell_angle_gamma   119.63084584
_symmetry_Int_Tables_number   1
_chemical_formula_structural   Zr4Co5Ir3
_chemical_formula_sum   'Zr4 Co5 Ir3'
_cell_volume   181.27890283
_cell_formula_units_Z   1
loop_
 _symmetry_equiv_pos_site_id
 _symmetry_equiv_pos_as_xyz
  1  'x, y, z'
loop_
 _atom_site_type_symbol
 _atom_site_label
 _atom_site_symmetry_multiplicity
 _atom_site_fract_x
 _atom_site_fract_y
 _atom_site_fract_z
 _atom_site_occupancy
  Zr  Zr0  1  0.329833  0.664918  0.429803  1
  Zr  Zr1  1  0.666102  0.333051  0.567833  1
  Zr  Zr2  1  0.666102  0.333051  0.932167  1
  Zr  Zr3  1  0.329833  0.664918  0.070197  1
  Co  Co4  1  0.829795  0.170639  0.250000  1
  Co  Co5  1  0.829795  0.659156  0.250000  1
  Co  Co6  1  0.345980  0.172990  0.250000  1
  Co  Co7  1  0.165022  0.828997  0.750000  1
  Co  Co8  1  0.165022  0.336026  0.750000  1
  Ir  Ir9  1  0.009308  0.004654  0.495121  1
  Ir  Ir10  1  0.009308  0.004654  0.004879  1
  Ir  Ir11  1  0.653896  0.826947  0.750000  1
