# generated using pymatgen
data_Zn2SnRh3
_symmetry_space_group_name_H-M   'P 1'
_cell_length_a   4.38911700
_cell_length_b   4.38911790
_cell_length_c   10.78730400
_cell_angle_alpha   90.00000000
_cell_angle_beta   90.00000000
_cell_angle_gamma   120.00001580
_symmetry_Int_Tables_number   1
_chemical_formula_structural   Zn2SnRh3
_chemical_formula_sum   'Zn4 Sn2 Rh6'
_cell_volume   179.96907551
_cell_formula_units_Z   2
loop_
 _symmetry_equiv_pos_site_id
 _symmetry_equiv_pos_as_xyz
  1  'x, y, z'
loop_
 _atom_site_type_symbol
 _atom_site_label
 _atom_site_symmetry_multiplicity
 _atom_site_fract_x
 _atom_site_fract_y
 _atom_site_fract_z
 _atom_site_occupancy
  Zn  Zn0  1  0.000000  0.000000  0.500000  1
  Zn  Zn1  1  0.333333  0.666667  0.157752  1
  Zn  Zn2  1  0.666667  0.333333  0.842248  1
  Zn  Zn3  1  0.000000  0.000000  0.000000  1
  Sn  Sn4  1  0.333333  0.666667  0.671312  1
  Sn  Sn5  1  0.666667  0.333333  0.328688  1
  Rh  Rh6  1  0.333333  0.666667  0.417286  1
  Rh  Rh7  1  0.666667  0.333333  0.081454  1
  Rh  Rh8  1  0.000000  0.000000  0.752334  1
  Rh  Rh9  1  0.000000  0.000000  0.247666  1
  Rh  Rh10  1  0.333333  0.666667  0.918546  1
  Rh  Rh11  1  0.666667  0.333333  0.582714  1
