# generated using pymatgen
data_SrTh(PO4)2
_symmetry_space_group_name_H-M   'P 1'
_cell_length_a   7.10599927
_cell_length_b   6.51758276
_cell_length_c   8.32338749
_cell_angle_alpha   53.11023087
_cell_angle_beta   91.11823972
_cell_angle_gamma   89.81882402
_symmetry_Int_Tables_number   1
_chemical_formula_structural   SrTh(PO4)2
_chemical_formula_sum   'Sr2 Th2 P4 O16'
_cell_volume   308.19877721
_cell_formula_units_Z   2
loop_
 _symmetry_equiv_pos_site_id
 _symmetry_equiv_pos_as_xyz
  1  'x, y, z'
loop_
 _atom_site_type_symbol
 _atom_site_label
 _atom_site_symmetry_multiplicity
 _atom_site_fract_x
 _atom_site_fract_y
 _atom_site_fract_z
 _atom_site_occupancy
  Sr  Sr0  1  0.845393  0.195143  0.214845  1
  Sr  Sr1  1  0.154607  0.804857  0.785155  1
  Th  Th2  1  0.329622  0.838801  0.275706  1
  Th  Th3  1  0.670378  0.161199  0.724294  1
  P  P4  1  0.828677  0.695940  0.200798  1
  P  P5  1  0.171323  0.304060  0.799202  1
  P  P6  1  0.341412  0.310831  0.306878  1
  P  P7  1  0.658588  0.689169  0.693122  1
  O  O8  1  0.791120  0.420820  0.388062  1
  O  O9  1  0.208880  0.579180  0.611938  1
  O  O10  1  0.278734  0.592432  0.142487  1
  O  O11  1  0.721266  0.407568  0.857513  1
  O  O12  1  0.994113  0.811391  0.245527  1
  O  O13  1  0.005887  0.188609  0.754473  1
  O  O14  1  0.488489  0.204506  0.237476  1
  O  O15  1  0.511511  0.795494  0.762524  1
  O  O16  1  0.652773  0.882458  0.129880  1
  O  O17  1  0.347227  0.117542  0.870120  1
  O  O18  1  0.180453  0.113676  0.385552  1
  O  O19  1  0.819547  0.886324  0.614448  1
  O  O20  1  0.865416  0.691122  0.020837  1
  O  O21  1  0.134584  0.308878  0.979163  1
  O  O22  1  0.416748  0.331600  0.474251  1
  O  O23  1  0.583252  0.668400  0.525749  1
