# generated using pymatgen
data_DyY2HoPt4F28
_symmetry_space_group_name_H-M   'P 1'
_cell_length_a   5.55486039
_cell_length_b   8.89079739
_cell_length_c   12.00110466
_cell_angle_alpha   62.46312047
_cell_angle_beta   89.96821089
_cell_angle_gamma   89.98859853
_symmetry_Int_Tables_number   1
_chemical_formula_structural   DyY2HoPt4F28
_chemical_formula_sum   'Dy1 Y2 Ho1 Pt4 F28'
_cell_volume   525.55516254
_cell_formula_units_Z   1
loop_
 _symmetry_equiv_pos_site_id
 _symmetry_equiv_pos_as_xyz
  1  'x, y, z'
loop_
 _atom_site_type_symbol
 _atom_site_label
 _atom_site_symmetry_multiplicity
 _atom_site_fract_x
 _atom_site_fract_y
 _atom_site_fract_z
 _atom_site_occupancy
  Dy  Dy0  1  0.761033  0.813358  0.764466  1
  Y  Y1  1  0.261147  0.185886  0.735589  1
  Y  Y2  1  0.238877  0.185292  0.235672  1
  Ho  Ho3  1  0.738870  0.813520  0.264350  1
  Pt  Pt4  1  0.758806  0.272286  0.956956  1
  Pt  Pt5  1  0.259019  0.727682  0.542841  1
  Pt  Pt6  1  0.240964  0.727628  0.043609  1
  Pt  Pt7  1  0.741082  0.272977  0.456547  1
  F  F8  1  0.436117  0.703184  0.916131  1
  F  F9  1  0.935337  0.297537  0.584040  1
  F  F10  1  0.564379  0.297268  0.084294  1
  F  F11  1  0.063368  0.703342  0.415541  1
  F  F12  1  0.440130  0.278416  0.541923  1
  F  F13  1  0.940697  0.722146  0.957594  1
  F  F14  1  0.559859  0.722605  0.456775  1
  F  F15  1  0.059683  0.278042  0.042151  1
  F  F16  1  0.774637  0.521192  0.858509  1
  F  F17  1  0.274987  0.478934  0.641399  1
  F  F18  1  0.225106  0.478767  0.141709  1
  F  F19  1  0.725386  0.522135  0.358265  1
  F  F20  1  0.754210  0.023348  0.050651  1
  F  F21  1  0.253976  0.976386  0.450059  1
  F  F22  1  0.245760  0.976337  0.950382  1
  F  F23  1  0.745753  0.024085  0.550068  1
  F  F24  1  0.966318  0.725058  0.636035  1
  F  F25  1  0.465783  0.275267  0.864242  1
  F  F26  1  0.034250  0.275339  0.363957  1
  F  F27  1  0.533788  0.725422  0.136589  1
  F  F28  1  0.050684  0.746294  0.175613  1
  F  F29  1  0.552746  0.254520  0.324271  1
  F  F30  1  0.947180  0.254247  0.824446  1
  F  F31  1  0.448174  0.745960  0.675111  1
  F  F32  1  0.417210  0.968513  0.232717  1
  F  F33  1  0.913958  0.028298  0.267466  1
  F  F34  1  0.586036  0.029687  0.767579  1
  F  F35  1  0.084690  0.969043  0.732451  1
