# generated using pymatgen
data_Dy4Tm6Ir3Os
_symmetry_space_group_name_H-M   'P 1'
_cell_length_a   6.45212334
_cell_length_b   7.22318905
_cell_length_c   8.36640372
_cell_angle_alpha   96.58352635
_cell_angle_beta   112.38473246
_cell_angle_gamma   89.97681334
_symmetry_Int_Tables_number   1
_chemical_formula_structural   Dy4Tm6Ir3Os
_chemical_formula_sum   'Dy4 Tm6 Ir3 Os1'
_cell_volume   357.75955713
_cell_formula_units_Z   1
loop_
 _symmetry_equiv_pos_site_id
 _symmetry_equiv_pos_as_xyz
  1  'x, y, z'
loop_
 _atom_site_type_symbol
 _atom_site_label
 _atom_site_symmetry_multiplicity
 _atom_site_fract_x
 _atom_site_fract_y
 _atom_site_fract_z
 _atom_site_occupancy
  Dy  Dy0  1  0.969937  0.917907  0.184121  1
  Dy  Dy1  1  0.787529  0.581356  0.820177  1
  Dy  Dy2  1  0.029956  0.081185  0.817392  1
  Dy  Dy3  1  0.213360  0.419263  0.184650  1
  Tm  Tm4  1  0.654732  0.816963  0.439348  1
  Tm  Tm5  1  0.210178  0.681431  0.557530  1
  Tm  Tm6  1  0.347189  0.181673  0.559486  1
  Tm  Tm7  1  0.787367  0.319579  0.439641  1
  Tm  Tm8  1  0.427149  0.749646  0.000398  1
  Tm  Tm9  1  0.574793  0.251249  0.000880  1
  Ir  Ir10  1  0.603939  0.927414  0.779386  1
  Ir  Ir11  1  0.175452  0.425789  0.780385  1
  Ir  Ir12  1  0.394491  0.073209  0.219637  1
  Os  Os13  1  0.823928  0.573338  0.216968  1
