# generated using pymatgen
data_Y2ZrSnIr2
_symmetry_space_group_name_H-M   'P 1'
_cell_length_a   4.40598100
_cell_length_b   7.15589400
_cell_length_c   8.42273400
_cell_angle_alpha   90.00000000
_cell_angle_beta   90.00000000
_cell_angle_gamma   90.00000000
_symmetry_Int_Tables_number   1
_chemical_formula_structural   Y2ZrSnIr2
_chemical_formula_sum   'Y4 Zr2 Sn2 Ir4'
_cell_volume   265.55813143
_cell_formula_units_Z   2
loop_
 _symmetry_equiv_pos_site_id
 _symmetry_equiv_pos_as_xyz
  1  'x, y, z'
loop_
 _atom_site_type_symbol
 _atom_site_label
 _atom_site_symmetry_multiplicity
 _atom_site_fract_x
 _atom_site_fract_y
 _atom_site_fract_z
 _atom_site_occupancy
  Y  Y0  1  0.250000  0.032943  0.331334  1
  Y  Y1  1  0.250000  0.532943  0.168666  1
  Y  Y2  1  0.750000  0.971825  0.678169  1
  Y  Y3  1  0.750000  0.471825  0.821831  1
  Zr  Zr4  1  0.250000  0.130010  0.939279  1
  Zr  Zr5  1  0.250000  0.630010  0.560721  1
  Sn  Sn6  1  0.750000  0.856497  0.071837  1
  Sn  Sn7  1  0.750000  0.356497  0.428163  1
  Ir  Ir8  1  0.250000  0.260461  0.634039  1
  Ir  Ir9  1  0.250000  0.760461  0.865961  1
  Ir  Ir10  1  0.750000  0.748263  0.393990  1
  Ir  Ir11  1  0.750000  0.248263  0.106010  1
