# generated using pymatgen
data_ScGe2Rh5
_symmetry_space_group_name_H-M   'P 1'
_cell_length_a   4.11241600
_cell_length_b   5.48916900
_cell_length_c   10.50795300
_cell_angle_alpha   90.00000000
_cell_angle_beta   90.00000000
_cell_angle_gamma   90.00000000
_symmetry_Int_Tables_number   1
_chemical_formula_structural   ScGe2Rh5
_chemical_formula_sum   'Sc2 Ge4 Rh10'
_cell_volume   237.20386644
_cell_formula_units_Z   2
loop_
 _symmetry_equiv_pos_site_id
 _symmetry_equiv_pos_as_xyz
  1  'x, y, z'
loop_
 _atom_site_type_symbol
 _atom_site_label
 _atom_site_symmetry_multiplicity
 _atom_site_fract_x
 _atom_site_fract_y
 _atom_site_fract_z
 _atom_site_occupancy
  Sc  Sc0  1  0.500000  0.838667  0.358474  1
  Sc  Sc1  1  0.500000  0.338667  0.141526  1
  Ge  Ge2  1  0.000000  0.540743  0.494759  1
  Ge  Ge3  1  0.500000  0.135144  0.640646  1
  Ge  Ge4  1  0.500000  0.635144  0.859354  1
  Ge  Ge5  1  0.000000  0.040743  0.005241  1
  Rh  Rh6  1  0.000000  0.370273  0.720771  1
  Rh  Rh7  1  0.000000  0.083287  0.248358  1
  Rh  Rh8  1  0.000000  0.870273  0.779229  1
  Rh  Rh9  1  0.500000  0.830042  0.095525  1
  Rh  Rh10  1  0.500000  0.180653  0.882136  1
  Rh  Rh11  1  0.500000  0.680653  0.617864  1
  Rh  Rh12  1  0.000000  0.021192  0.516177  1
  Rh  Rh13  1  0.500000  0.330042  0.404475  1
  Rh  Rh14  1  0.000000  0.521192  0.983823  1
  Rh  Rh15  1  0.000000  0.583287  0.251642  1
