# generated using pymatgen
data_Nb6CrSi6Tc5
_symmetry_space_group_name_H-M   'P 1'
_cell_length_a   7.55660776
_cell_length_b   7.55722303
_cell_length_c   7.55722205
_cell_angle_alpha   127.17283011
_cell_angle_beta   125.73285898
_cell_angle_gamma   79.15247380
_symmetry_Int_Tables_number   1
_chemical_formula_structural   Nb6CrSi6Tc5
_chemical_formula_sum   'Nb6 Cr1 Si6 Tc5'
_cell_volume   269.94770331
_cell_formula_units_Z   1
loop_
 _symmetry_equiv_pos_site_id
 _symmetry_equiv_pos_as_xyz
  1  'x, y, z'
loop_
 _atom_site_type_symbol
 _atom_site_label
 _atom_site_symmetry_multiplicity
 _atom_site_fract_x
 _atom_site_fract_y
 _atom_site_fract_z
 _atom_site_occupancy
  Nb  Nb0  1  0.557250  0.097808  0.043626  1
  Nb  Nb1  1  0.442750  0.486376  0.540558  1
  Nb  Nb2  1  0.959682  0.496127  0.038259  1
  Nb  Nb3  1  0.040318  0.078577  0.536445  1
  Nb  Nb4  1  0.755745  0.913025  0.662672  1
  Nb  Nb5  1  0.244255  0.906927  0.157281  1
  Cr  Cr6  1  0.000000  0.244336  0.244336  1
  Si  Si7  1  0.335672  0.825557  0.496556  1
  Si  Si8  1  0.664328  0.160883  0.489884  1
  Si  Si9  1  0.829145  0.827991  0.991476  1
  Si  Si10  1  0.170855  0.162330  0.998846  1
  Si  Si11  1  0.772763  0.522857  0.256106  1
  Si  Si12  1  0.227237  0.483344  0.750095  1
  Tc  Tc13  1  0.156171  0.750027  0.652271  1
  Tc  Tc14  1  0.843829  0.496099  0.593856  1
  Tc  Tc15  1  0.598315  0.748339  0.094376  1
  Tc  Tc16  1  0.401685  0.496060  0.150024  1
  Tc  Tc17  1  0.500000  0.245333  0.745333  1
