# generated using pymatgen
data_Ac3Ge6N11
_symmetry_space_group_name_H-M   'P 1'
_cell_length_a   10.79682700
_cell_length_b   10.79682700
_cell_length_c   5.19259700
_cell_angle_alpha   90.00000000
_cell_angle_beta   90.00000000
_cell_angle_gamma   90.00000000
_symmetry_Int_Tables_number   1
_chemical_formula_structural   Ac3Ge6N11
_chemical_formula_sum   'Ac6 Ge12 N22'
_cell_volume   605.30868238
_cell_formula_units_Z   2
loop_
 _symmetry_equiv_pos_site_id
 _symmetry_equiv_pos_as_xyz
  1  'x, y, z'
loop_
 _atom_site_type_symbol
 _atom_site_label
 _atom_site_symmetry_multiplicity
 _atom_site_fract_x
 _atom_site_fract_y
 _atom_site_fract_z
 _atom_site_occupancy
  Ac  Ac0  1  0.321111  0.821111  0.999295  1
  Ac  Ac1  1  0.678889  0.178889  0.999295  1
  Ac  Ac2  1  0.178889  0.321111  0.999295  1
  Ac  Ac3  1  0.821111  0.678889  0.999295  1
  Ac  Ac4  1  0.500000  0.500000  0.988350  1
  Ac  Ac5  1  0.000000  0.000000  0.988350  1
  Ge  Ge6  1  0.420186  0.292321  0.528971  1
  Ge  Ge7  1  0.579814  0.707679  0.528971  1
  Ge  Ge8  1  0.079814  0.792321  0.528971  1
  Ge  Ge9  1  0.920186  0.207679  0.528971  1
  Ge  Ge10  1  0.292321  0.579814  0.528971  1
  Ge  Ge11  1  0.707679  0.420186  0.528971  1
  Ge  Ge12  1  0.792321  0.920186  0.528971  1
  Ge  Ge13  1  0.207679  0.079814  0.528971  1
  Ge  Ge14  1  0.881442  0.381442  0.045107  1
  Ge  Ge15  1  0.118558  0.618558  0.045107  1
  Ge  Ge16  1  0.618558  0.881442  0.045107  1
  Ge  Ge17  1  0.381442  0.118558  0.045107  1
  N  N18  1  0.318284  0.421054  0.654924  1
  N  N19  1  0.681716  0.578946  0.654924  1
  N  N20  1  0.181716  0.921054  0.654924  1
  N  N21  1  0.818284  0.078946  0.654924  1
  N  N22  1  0.421054  0.681716  0.654924  1
  N  N23  1  0.578946  0.318284  0.654924  1
  N  N24  1  0.921054  0.818284  0.654924  1
  N  N25  1  0.078946  0.181716  0.654924  1
  N  N26  1  0.423014  0.275179  0.171206  1
  N  N27  1  0.576986  0.724821  0.171206  1
  N  N28  1  0.076986  0.775179  0.171206  1
  N  N29  1  0.923014  0.224821  0.171206  1
  N  N30  1  0.275179  0.576986  0.171206  1
  N  N31  1  0.724821  0.423014  0.171206  1
  N  N32  1  0.775179  0.923014  0.171206  1
  N  N33  1  0.224821  0.076986  0.171206  1
  N  N34  1  0.844123  0.344123  0.696773  1
  N  N35  1  0.155877  0.655877  0.696773  1
  N  N36  1  0.655877  0.844123  0.696773  1
  N  N37  1  0.344123  0.155877  0.696773  1
  N  N38  1  0.500000  0.000000  0.077428  1
  N  N39  1  0.000000  0.500000  0.077428  1
