# generated using pymatgen
data_AcAl10OsRu
_symmetry_space_group_name_H-M   'P 1'
_cell_length_a   6.95435416
_cell_length_b   6.96004922
_cell_length_c   9.29134900
_cell_angle_alpha   90.00000000
_cell_angle_beta   90.00000000
_cell_angle_gamma   96.57183978
_symmetry_Int_Tables_number   1
_chemical_formula_structural   AcAl10OsRu
_chemical_formula_sum   'Ac2 Al20 Os2 Ru2'
_cell_volume   446.77080038
_cell_formula_units_Z   2
loop_
 _symmetry_equiv_pos_site_id
 _symmetry_equiv_pos_as_xyz
  1  'x, y, z'
loop_
 _atom_site_type_symbol
 _atom_site_label
 _atom_site_symmetry_multiplicity
 _atom_site_fract_x
 _atom_site_fract_y
 _atom_site_fract_z
 _atom_site_occupancy
  Ac  Ac0  1  0.879903  0.121082  0.750000  1
  Ac  Ac1  1  0.120097  0.878918  0.250000  1
  Al  Al2  1  0.620897  0.378849  0.551837  1
  Al  Al3  1  0.379103  0.621151  0.448163  1
  Al  Al4  1  0.379103  0.621151  0.051837  1
  Al  Al5  1  0.620897  0.378849  0.948163  1
  Al  Al6  1  0.231131  0.230356  0.500294  1
  Al  Al7  1  0.768869  0.769644  0.499706  1
  Al  Al8  1  0.768869  0.769644  0.000294  1
  Al  Al9  1  0.231131  0.230356  0.999706  1
  Al  Al10  1  0.833433  0.165880  0.103094  1
  Al  Al11  1  0.166567  0.834120  0.896906  1
  Al  Al12  1  0.166567  0.834120  0.603094  1
  Al  Al13  1  0.833433  0.165880  0.396906  1
  Al  Al14  1  0.860351  0.589995  0.750000  1
  Al  Al15  1  0.139649  0.410005  0.250000  1
  Al  Al16  1  0.410444  0.139915  0.750000  1
  Al  Al17  1  0.589556  0.860085  0.250000  1
  Al  Al18  1  0.221443  0.484425  0.750000  1
  Al  Al19  1  0.778557  0.515575  0.250000  1
  Al  Al20  1  0.515606  0.777969  0.750000  1
  Al  Al21  1  0.484394  0.222031  0.250000  1
  Os  Os22  1  0.000000  0.500000  0.500000  1
  Os  Os23  1  0.000000  0.500000  0.000000  1
  Ru  Ru24  1  0.500000  0.000000  0.000000  1
  Ru  Ru25  1  0.500000  0.000000  0.500000  1
