# generated using pymatgen
data_Th3Cu3Sn3Sb
_symmetry_space_group_name_H-M   'P 1'
_cell_length_a   8.45406659
_cell_length_b   8.44695047
_cell_length_c   8.45405013
_cell_angle_alpha   109.48252148
_cell_angle_beta   109.49070483
_cell_angle_gamma   109.47562049
_symmetry_Int_Tables_number   1
_chemical_formula_structural   Th3Cu3Sn3Sb
_chemical_formula_sum   'Th6 Cu6 Sn6 Sb2'
_cell_volume   464.53646158
_cell_formula_units_Z   2
loop_
 _symmetry_equiv_pos_site_id
 _symmetry_equiv_pos_as_xyz
  1  'x, y, z'
loop_
 _atom_site_type_symbol
 _atom_site_label
 _atom_site_symmetry_multiplicity
 _atom_site_fract_x
 _atom_site_fract_y
 _atom_site_fract_z
 _atom_site_occupancy
  Th  Th0  1  0.878073  0.249999  0.128071  1
  Th  Th1  1  0.624159  0.750001  0.374162  1
  Th  Th2  1  0.247886  0.125013  0.876516  1
  Th  Th3  1  0.751508  0.374981  0.622874  1
  Th  Th4  1  0.126793  0.877637  0.250400  1
  Th  Th5  1  0.372756  0.622362  0.749149  1
  Cu  Cu6  1  0.375377  0.250000  0.625375  1
  Cu  Cu7  1  0.124894  0.750001  0.874892  1
  Cu  Cu8  1  0.247254  0.623570  0.373981  1
  Cu  Cu9  1  0.750413  0.876425  0.123689  1
  Cu  Cu10  1  0.626037  0.374870  0.250580  1
  Cu  Cu11  1  0.875712  0.125135  0.751180  1
  Sn  Sn12  1  0.999916  0.667619  0.500927  1
  Sn  Sn13  1  0.833319  0.832388  0.832303  1
  Sn  Sn14  1  0.499210  0.999247  0.166310  1
  Sn  Sn15  1  0.167063  0.500758  0.999963  1
  Sn  Sn16  1  0.999287  0.165925  0.500157  1
  Sn  Sn17  1  0.334228  0.334071  0.333353  1
  Sb  Sb18  1  0.665889  0.500996  0.001221  1
  Sb  Sb19  1  0.500226  0.999004  0.664894  1
