# generated using pymatgen
data_Tb3Mg(ZnPt)4
_symmetry_space_group_name_H-M   'P 1'
_cell_length_a   4.21860800
_cell_length_b   6.85026073
_cell_length_c   8.03845347
_cell_angle_alpha   87.85599895
_cell_angle_beta   90.00000000
_cell_angle_gamma   90.00000000
_symmetry_Int_Tables_number   1
_chemical_formula_structural   Tb3Mg(ZnPt)4
_chemical_formula_sum   'Tb3 Mg1 Zn4 Pt4'
_cell_volume   232.13714833
_cell_formula_units_Z   1
loop_
 _symmetry_equiv_pos_site_id
 _symmetry_equiv_pos_as_xyz
  1  'x, y, z'
loop_
 _atom_site_type_symbol
 _atom_site_label
 _atom_site_symmetry_multiplicity
 _atom_site_fract_x
 _atom_site_fract_y
 _atom_site_fract_z
 _atom_site_occupancy
  Tb  Tb0  1  0.250000  0.535922  0.191509  1
  Tb  Tb1  1  0.750000  0.966891  0.673671  1
  Tb  Tb2  1  0.750000  0.458080  0.819287  1
  Mg  Mg3  1  0.250000  0.038900  0.317293  1
  Zn  Zn4  1  0.250000  0.645558  0.559942  1
  Zn  Zn5  1  0.250000  0.134150  0.945020  1
  Zn  Zn6  1  0.750000  0.354667  0.435348  1
  Zn  Zn7  1  0.750000  0.866894  0.060457  1
  Pt  Pt8  1  0.250000  0.258645  0.618311  1
  Pt  Pt9  1  0.250000  0.753842  0.874441  1
  Pt  Pt10  1  0.750000  0.749258  0.375981  1
  Pt  Pt11  1  0.750000  0.237192  0.128742  1
