# generated using pymatgen
data_TbMgPaZnRh2
_symmetry_space_group_name_H-M   'P 1'
_cell_length_a   3.83842200
_cell_length_b   7.27472357
_cell_length_c   8.72953320
_cell_angle_alpha   94.11868670
_cell_angle_beta   90.00000000
_cell_angle_gamma   90.00000000
_symmetry_Int_Tables_number   1
_chemical_formula_structural   TbMgPaZnRh2
_chemical_formula_sum   'Tb2 Mg2 Pa2 Zn2 Rh4'
_cell_volume   243.12923386
_cell_formula_units_Z   2
loop_
 _symmetry_equiv_pos_site_id
 _symmetry_equiv_pos_as_xyz
  1  'x, y, z'
loop_
 _atom_site_type_symbol
 _atom_site_label
 _atom_site_symmetry_multiplicity
 _atom_site_fract_x
 _atom_site_fract_y
 _atom_site_fract_z
 _atom_site_occupancy
  Tb  Tb0  1  0.250000  0.058458  0.329548  1
  Tb  Tb1  1  0.750000  0.941542  0.670452  1
  Mg  Mg2  1  0.250000  0.131345  0.936755  1
  Mg  Mg3  1  0.750000  0.868655  0.063245  1
  Pa  Pa4  1  0.250000  0.539438  0.198566  1
  Pa  Pa5  1  0.750000  0.460562  0.801434  1
  Zn  Zn6  1  0.250000  0.628319  0.555490  1
  Zn  Zn7  1  0.750000  0.371681  0.444510  1
  Rh  Rh8  1  0.750000  0.739570  0.356081  1
  Rh  Rh9  1  0.250000  0.260430  0.643919  1
  Rh  Rh10  1  0.750000  0.287667  0.130157  1
  Rh  Rh11  1  0.250000  0.712333  0.869843  1
