# generated using pymatgen
data_Pr2PtRh3
_symmetry_space_group_name_H-M   'P 1'
_cell_length_a   5.48329632
_cell_length_b   5.45954782
_cell_length_c   5.48329600
_cell_angle_alpha   59.85600373
_cell_angle_beta   60.00000192
_cell_angle_gamma   59.85599608
_symmetry_Int_Tables_number   1
_chemical_formula_structural   Pr2PtRh3
_chemical_formula_sum   'Pr2 Pt1 Rh3'
_cell_volume   115.81808619
_cell_formula_units_Z   1
loop_
 _symmetry_equiv_pos_site_id
 _symmetry_equiv_pos_as_xyz
  1  'x, y, z'
loop_
 _atom_site_type_symbol
 _atom_site_label
 _atom_site_symmetry_multiplicity
 _atom_site_fract_x
 _atom_site_fract_y
 _atom_site_fract_z
 _atom_site_occupancy
  Pr  Pr0  1  0.749461  0.751618  0.749461  1
  Pr  Pr1  1  0.500539  0.498382  0.500539  1
  Pt  Pt2  1  0.125000  0.625000  0.125000  1
  Rh  Rh3  1  0.125000  0.125000  0.625000  1
  Rh  Rh4  1  0.125000  0.125000  0.125000  1
  Rh  Rh5  1  0.625000  0.125000  0.125000  1
