# generated using pymatgen
data_Al3V6ZnN2
_symmetry_space_group_name_H-M   'P 1'
_cell_length_a   6.61899864
_cell_length_b   6.61684700
_cell_length_c   6.61660265
_cell_angle_alpha   90.00000000
_cell_angle_beta   89.89757787
_cell_angle_gamma   90.00000000
_symmetry_Int_Tables_number   1
_chemical_formula_structural   Al3V6ZnN2
_chemical_formula_sum   'Al6 V12 Zn2 N4'
_cell_volume   289.78623002
_cell_formula_units_Z   2
loop_
 _symmetry_equiv_pos_site_id
 _symmetry_equiv_pos_as_xyz
  1  'x, y, z'
loop_
 _atom_site_type_symbol
 _atom_site_label
 _atom_site_symmetry_multiplicity
 _atom_site_fract_x
 _atom_site_fract_y
 _atom_site_fract_z
 _atom_site_occupancy
  Al  Al0  1  0.172176  0.820767  0.317745  1
  Al  Al1  1  0.315642  0.177231  0.825992  1
  Al  Al2  1  0.827824  0.320767  0.182255  1
  Al  Al3  1  0.684358  0.677231  0.674008  1
  Al  Al4  1  0.572532  0.427881  0.929807  1
  Al  Al5  1  0.427468  0.927881  0.570193  1
  V  V6  1  0.789233  0.959814  0.378831  1
  V  V7  1  0.707513  0.041071  0.872212  1
  V  V8  1  0.210767  0.459814  0.121169  1
  V  V9  1  0.292487  0.541071  0.627788  1
  V  V10  1  0.956205  0.376588  0.791768  1
  V  V11  1  0.043795  0.876588  0.708232  1
  V  V12  1  0.462081  0.125979  0.209190  1
  V  V13  1  0.537919  0.625979  0.290810  1
  V  V14  1  0.377751  0.789846  0.958083  1
  V  V15  1  0.872522  0.707386  0.038906  1
  V  V16  1  0.127478  0.207386  0.461094  1
  V  V17  1  0.622249  0.289846  0.541917  1
  Zn  Zn18  1  0.931045  0.569563  0.428480  1
  Zn  Zn19  1  0.068955  0.069563  0.071520  1
  N  N20  1  0.876149  0.127512  0.625908  1
  N  N21  1  0.627260  0.876363  0.125460  1
  N  N22  1  0.123851  0.627512  0.874092  1
  N  N23  1  0.372740  0.376363  0.374540  1
