# generated using pymatgen
data_RbSb3(SeO6)2
_symmetry_space_group_name_H-M   'P 1'
_cell_length_a   7.29253000
_cell_length_b   7.29253029
_cell_length_c   12.53285000
_cell_angle_alpha   90.00000000
_cell_angle_beta   90.00000000
_cell_angle_gamma   120.00000774
_symmetry_Int_Tables_number   1
_chemical_formula_structural   RbSb3(SeO6)2
_chemical_formula_sum   'Rb2 Sb6 Se4 O24'
_cell_volume   577.21406625
_cell_formula_units_Z   2
loop_
 _symmetry_equiv_pos_site_id
 _symmetry_equiv_pos_as_xyz
  1  'x, y, z'
loop_
 _atom_site_type_symbol
 _atom_site_label
 _atom_site_symmetry_multiplicity
 _atom_site_fract_x
 _atom_site_fract_y
 _atom_site_fract_z
 _atom_site_occupancy
  Rb  Rb0  1  0.333333  0.666667  0.552088  1
  Rb  Rb1  1  0.666667  0.333333  0.052088  1
  Sb  Sb2  1  0.166210  0.332949  0.207891  1
  Sb  Sb3  1  0.166739  0.833790  0.207891  1
  Sb  Sb4  1  0.332949  0.166739  0.707891  1
  Sb  Sb5  1  0.833790  0.667051  0.707891  1
  Sb  Sb6  1  0.667051  0.833261  0.207891  1
  Sb  Sb7  1  0.833261  0.166210  0.707891  1
  Se  Se8  1  0.000000  0.000000  0.425348  1
  Se  Se9  1  0.333333  0.666667  0.987064  1
  Se  Se10  1  0.666667  0.333333  0.487064  1
  Se  Se11  1  0.000000  0.000000  0.925348  1
  O  O12  1  0.737908  0.868815  0.668352  1
  O  O13  1  0.869094  0.737908  0.168352  1
  O  O14  1  0.868815  0.130906  0.168352  1
  O  O15  1  0.131185  0.869094  0.668352  1
  O  O16  1  0.130906  0.262092  0.668352  1
  O  O17  1  0.262092  0.131185  0.168352  1
  O  O18  1  0.532609  0.065773  0.739331  1
  O  O19  1  0.466836  0.532609  0.239331  1
  O  O20  1  0.065773  0.533164  0.239331  1
  O  O21  1  0.934227  0.466836  0.739331  1
  O  O22  1  0.533164  0.467391  0.739331  1
  O  O23  1  0.467391  0.934227  0.239331  1
  O  O24  1  0.208663  0.792368  0.044570  1
  O  O25  1  0.416295  0.208663  0.544570  1
  O  O26  1  0.792368  0.583705  0.544570  1
  O  O27  1  0.207632  0.416295  0.044570  1
  O  O28  1  0.583705  0.791337  0.044570  1
  O  O29  1  0.791337  0.207632  0.544570  1
  O  O30  1  0.125855  0.874852  0.367259  1
  O  O31  1  0.251003  0.125855  0.867259  1
  O  O32  1  0.874852  0.748997  0.867259  1
  O  O33  1  0.125148  0.251003  0.367259  1
  O  O34  1  0.748997  0.874145  0.367259  1
  O  O35  1  0.874145  0.125148  0.867259  1
