# generated using pymatgen
data_Ho20Cd6CoTc
_symmetry_space_group_name_H-M   'P 1'
_cell_length_a   9.52520500
_cell_length_b   9.52520518
_cell_length_c   9.83212500
_cell_angle_alpha   90.00000000
_cell_angle_beta   90.00000000
_cell_angle_gamma   119.99999591
_symmetry_Int_Tables_number   1
_chemical_formula_structural   Ho20Cd6CoTc
_chemical_formula_sum   'Ho20 Cd6 Co1 Tc1'
_cell_volume   772.55020394
_cell_formula_units_Z   1
loop_
 _symmetry_equiv_pos_site_id
 _symmetry_equiv_pos_as_xyz
  1  'x, y, z'
loop_
 _atom_site_type_symbol
 _atom_site_label
 _atom_site_symmetry_multiplicity
 _atom_site_fract_x
 _atom_site_fract_y
 _atom_site_fract_z
 _atom_site_occupancy
  Ho  Ho0  1  0.000000  0.000000  0.500564  1
  Ho  Ho1  1  0.000000  0.000000  0.999436  1
  Ho  Ho2  1  0.541177  0.458823  0.250000  1
  Ho  Ho3  1  0.541177  0.082354  0.250000  1
  Ho  Ho4  1  0.917646  0.458823  0.250000  1
  Ho  Ho5  1  0.458243  0.541757  0.750000  1
  Ho  Ho6  1  0.458243  0.916486  0.750000  1
  Ho  Ho7  1  0.083514  0.541757  0.750000  1
  Ho  Ho8  1  0.209208  0.790792  0.440813  1
  Ho  Ho9  1  0.209208  0.418417  0.440813  1
  Ho  Ho10  1  0.581583  0.790792  0.440813  1
  Ho  Ho11  1  0.787410  0.212590  0.563922  1
  Ho  Ho12  1  0.787410  0.574818  0.563922  1
  Ho  Ho13  1  0.425182  0.212590  0.563922  1
  Ho  Ho14  1  0.787410  0.212590  0.936078  1
  Ho  Ho15  1  0.787410  0.574818  0.936078  1
  Ho  Ho16  1  0.425182  0.212590  0.936078  1
  Ho  Ho17  1  0.209208  0.790792  0.059187  1
  Ho  Ho18  1  0.209208  0.418417  0.059187  1
  Ho  Ho19  1  0.581583  0.790792  0.059187  1
  Cd  Cd20  1  0.885230  0.114770  0.250000  1
  Cd  Cd21  1  0.885230  0.770459  0.250000  1
  Cd  Cd22  1  0.229541  0.114770  0.250000  1
  Cd  Cd23  1  0.114467  0.885533  0.750000  1
  Cd  Cd24  1  0.114467  0.228935  0.750000  1
  Cd  Cd25  1  0.771065  0.885533  0.750000  1
  Co  Co26  1  0.666667  0.333333  0.750000  1
  Tc  Tc27  1  0.333333  0.666667  0.250000  1
