# generated using pymatgen
data_LuF18
_symmetry_space_group_name_H-M   'P 1'
_cell_length_a   6.21700677
_cell_length_b   9.14781817
_cell_length_c   12.67338124
_cell_angle_alpha   102.66417943
_cell_angle_beta   87.29213023
_cell_angle_gamma   109.97098101
_symmetry_Int_Tables_number   1
_chemical_formula_structural   LuF18
_chemical_formula_sum   'Lu2 F36'
_cell_volume   660.63810842
_cell_formula_units_Z   2
loop_
 _symmetry_equiv_pos_site_id
 _symmetry_equiv_pos_as_xyz
  1  'x, y, z'
loop_
 _atom_site_type_symbol
 _atom_site_label
 _atom_site_symmetry_multiplicity
 _atom_site_fract_x
 _atom_site_fract_y
 _atom_site_fract_z
 _atom_site_occupancy
  Lu  Lu0  1  0.124051  0.947966  0.234771  1
  Lu  Lu1  1  0.875949  0.052034  0.765229  1
  F  F2  1  0.692209  0.634659  0.365609  1
  F  F3  1  0.307791  0.365341  0.634391  1
  F  F4  1  0.045486  0.327012  0.365212  1
  F  F5  1  0.954514  0.672988  0.634788  1
  F  F6  1  0.160128  0.912940  0.962962  1
  F  F7  1  0.839872  0.087060  0.037038  1
  F  F8  1  0.838265  0.906261  0.339145  1
  F  F9  1  0.161735  0.093739  0.660855  1
  F  F10  1  0.074895  0.704842  0.238772  1
  F  F11  1  0.925105  0.295158  0.761228  1
  F  F12  1  0.539574  0.484186  0.380870  1
  F  F13  1  0.460426  0.515814  0.619130  1
  F  F14  1  0.991846  0.073783  0.159455  1
  F  F15  1  0.008154  0.926217  0.840545  1
  F  F16  1  0.128998  0.080969  0.395441  1
  F  F17  1  0.871002  0.919031  0.604559  1
  F  F18  1  0.038169  0.453620  0.318070  1
  F  F19  1  0.961831  0.546380  0.681930  1
  F  F20  1  0.769525  0.734119  0.078012  1
  F  F21  1  0.230475  0.265881  0.921988  1
  F  F22  1  0.835420  0.605735  0.017569  1
  F  F23  1  0.164580  0.394265  0.982431  1
  F  F24  1  0.516760  0.596726  0.858622  1
  F  F25  1  0.483240  0.403274  0.141378  1
  F  F26  1  0.486387  0.053543  0.269506  1
  F  F27  1  0.513613  0.946457  0.730494  1
  F  F28  1  0.268124  0.877091  0.467172  1
  F  F29  1  0.731876  0.122909  0.532828  1
  F  F30  1  0.281140  0.893408  0.061644  1
  F  F31  1  0.718860  0.106592  0.938356  1
  F  F32  1  0.414093  0.818136  0.220524  1
  F  F33  1  0.585907  0.181864  0.779476  1
  F  F34  1  0.616794  0.306277  0.148671  1
  F  F35  1  0.383206  0.693723  0.851329  1
  F  F36  1  0.345874  0.748788  0.471581  1
  F  F37  1  0.654126  0.251212  0.528419  1
