# generated using pymatgen
data_PrSm11(SiI3)4
_symmetry_space_group_name_H-M   'P 1'
_cell_length_a   10.70245568
_cell_length_b   10.70245684
_cell_length_c   10.71470750
_cell_angle_alpha   109.40667202
_cell_angle_beta   109.40666924
_cell_angle_gamma   109.57393724
_symmetry_Int_Tables_number   1
_chemical_formula_structural   PrSm11(SiI3)4
_chemical_formula_sum   'Pr1 Sm11 Si4 I12'
_cell_volume   945.07386826
_cell_formula_units_Z   1
loop_
 _symmetry_equiv_pos_site_id
 _symmetry_equiv_pos_as_xyz
  1  'x, y, z'
loop_
 _atom_site_type_symbol
 _atom_site_label
 _atom_site_symmetry_multiplicity
 _atom_site_fract_x
 _atom_site_fract_y
 _atom_site_fract_z
 _atom_site_occupancy
  Pr  Pr0  1  0.233967  0.266033  0.750000  1
  Sm  Sm1  1  0.463355  0.481972  0.232289  1
  Sm  Sm2  1  0.749397  0.231493  0.268074  1
  Sm  Sm3  1  0.749386  0.018153  0.480963  1
  Sm  Sm4  1  0.231328  0.463092  0.480801  1
  Sm  Sm5  1  0.268507  0.750603  0.231926  1
  Sm  Sm6  1  0.036908  0.268672  0.019199  1
  Sm  Sm7  1  0.018028  0.036645  0.267711  1
  Sm  Sm8  1  0.481847  0.750614  0.019037  1
  Sm  Sm9  1  0.481512  0.232034  0.463333  1
  Sm  Sm10  1  0.018497  0.481503  0.750000  1
  Sm  Sm11  1  0.267966  0.018488  0.036667  1
  Si  Si12  1  0.249984  0.250016  0.250000  1
  Si  Si13  1  0.499640  0.000360  0.250000  1
  Si  Si14  1  0.998608  0.249804  0.498329  1
  Si  Si15  1  0.250196  0.501392  0.001671  1
  I  I16  1  0.250062  0.757250  0.743178  1
  I  I17  1  0.517600  0.511683  0.756428  1
  I  I18  1  0.985681  0.742708  0.993003  1
  I  I19  1  0.742750  0.249938  0.756822  1
  I  I20  1  0.988317  0.982400  0.743572  1
  I  I21  1  0.249401  0.989374  0.503622  1
  I  I22  1  0.757292  0.514319  0.506997  1
  I  I23  1  0.510626  0.250599  0.996378  1
  I  I24  1  0.757086  0.742914  0.250000  1
  I  I25  1  0.742534  0.993081  0.985689  1
  I  I26  1  0.992605  0.507395  0.250000  1
  I  I27  1  0.506919  0.757466  0.514311  1
