# generated using pymatgen
data_Li8Y5Ho3(Sn3Sb)2
_symmetry_space_group_name_H-M   'P 1'
_cell_length_a   9.37864250
_cell_length_b   9.38313517
_cell_length_c   7.24466539
_cell_angle_alpha   90.00000080
_cell_angle_beta   90.06946743
_cell_angle_gamma   120.01585188
_symmetry_Int_Tables_number   1
_chemical_formula_structural   Li8Y5Ho3(Sn3Sb)2
_chemical_formula_sum   'Li8 Y5 Ho3 Sn6 Sb2'
_cell_volume   552.03561601
_cell_formula_units_Z   1
loop_
 _symmetry_equiv_pos_site_id
 _symmetry_equiv_pos_as_xyz
  1  'x, y, z'
loop_
 _atom_site_type_symbol
 _atom_site_label
 _atom_site_symmetry_multiplicity
 _atom_site_fract_x
 _atom_site_fract_y
 _atom_site_fract_z
 _atom_site_occupancy
  Li  Li0  1  0.167111  0.333814  0.285126  1
  Li  Li1  1  0.167111  0.833298  0.285126  1
  Li  Li2  1  0.666266  0.833133  0.285370  1
  Li  Li3  1  0.832379  0.666113  0.785908  1
  Li  Li4  1  0.832379  0.166265  0.785908  1
  Li  Li5  1  0.334138  0.167069  0.786943  1
  Li  Li6  1  0.334223  0.667112  0.674308  1
  Li  Li7  1  0.666709  0.333355  0.176207  1
  Y  Y8  1  0.513768  0.023906  0.492060  1
  Y  Y9  1  0.513768  0.489861  0.492060  1
  Y  Y10  1  0.975561  0.487780  0.490927  1
  Y  Y11  1  0.490358  0.978255  0.995188  1
  Y  Y12  1  0.490358  0.512104  0.995188  1
  Ho  Ho13  1  0.019917  0.509960  0.996542  1
  Ho  Ho14  1  0.998054  0.999027  0.496920  1
  Ho  Ho15  1  0.997966  0.998983  0.002838  1
  Sn  Sn16  1  0.667385  0.833693  0.731958  1
  Sn  Sn17  1  0.834528  0.667367  0.231734  1
  Sn  Sn18  1  0.834528  0.167161  0.231734  1
  Sn  Sn19  1  0.332573  0.166286  0.231921  1
  Sn  Sn20  1  0.332175  0.666089  0.259635  1
  Sn  Sn21  1  0.667474  0.333736  0.760850  1
  Sb  Sb22  1  0.165634  0.332830  0.733758  1
  Sb  Sb23  1  0.165634  0.832805  0.733758  1
