# generated using pymatgen
data_Tb2Dy3GaSiB8
_symmetry_space_group_name_H-M   'P 1'
_cell_length_a   7.25813702
_cell_length_b   7.25813725
_cell_length_c   8.18681300
_cell_angle_alpha   90.00000000
_cell_angle_beta   90.00000000
_cell_angle_gamma   89.69030090
_symmetry_Int_Tables_number   1
_chemical_formula_structural   Tb2Dy3GaSiB8
_chemical_formula_sum   'Tb4 Dy6 Ga2 Si2 B16'
_cell_volume   431.27954924
_cell_formula_units_Z   2
loop_
 _symmetry_equiv_pos_site_id
 _symmetry_equiv_pos_as_xyz
  1  'x, y, z'
loop_
 _atom_site_type_symbol
 _atom_site_label
 _atom_site_symmetry_multiplicity
 _atom_site_fract_x
 _atom_site_fract_y
 _atom_site_fract_z
 _atom_site_occupancy
  Tb  Tb0  1  0.679386  0.179386  0.223909  1
  Tb  Tb1  1  0.320614  0.820614  0.776091  1
  Tb  Tb2  1  0.320614  0.820614  0.223909  1
  Tb  Tb3  1  0.679386  0.179386  0.776091  1
  Dy  Dy4  1  0.815673  0.684327  0.218376  1
  Dy  Dy5  1  0.815673  0.684327  0.781624  1
  Dy  Dy6  1  0.184327  0.315673  0.781624  1
  Dy  Dy7  1  0.184327  0.315673  0.218376  1
  Dy  Dy8  1  0.000000  0.000000  0.500000  1
  Dy  Dy9  1  0.500000  0.500000  0.500000  1
  Ga  Ga10  1  0.116964  0.616964  0.500000  1
  Ga  Ga11  1  0.883036  0.383036  0.500000  1
  Si  Si12  1  0.384265  0.115735  0.500000  1
  Si  Si13  1  0.615735  0.884265  0.500000  1
  B  B14  1  0.171484  0.039490  0.000000  1
  B  B15  1  0.828516  0.960510  0.000000  1
  B  B16  1  0.959746  0.171890  0.000000  1
  B  B17  1  0.328110  0.540254  0.000000  1
  B  B18  1  0.040254  0.828110  0.000000  1
  B  B19  1  0.671890  0.459746  0.000000  1
  B  B20  1  0.539490  0.671484  0.000000  1
  B  B21  1  0.460510  0.328516  0.000000  1
  B  B22  1  0.090724  0.590724  0.000000  1
  B  B23  1  0.909276  0.409276  0.000000  1
  B  B24  1  0.408359  0.091641  0.000000  1
  B  B25  1  0.591641  0.908359  0.000000  1
  B  B26  1  0.000000  0.000000  0.161025  1
  B  B27  1  0.000000  0.000000  0.838975  1
  B  B28  1  0.500000  0.500000  0.838975  1
  B  B29  1  0.500000  0.500000  0.161025  1
