# generated using pymatgen
data_Y13Ho7Si15Ag
_symmetry_space_group_name_H-M   'P 1'
_cell_length_a   7.45527428
_cell_length_b   7.68023188
_cell_length_c   14.64422622
_cell_angle_alpha   90.21802940
_cell_angle_beta   90.63505130
_cell_angle_gamma   90.15941190
_symmetry_Int_Tables_number   1
_chemical_formula_structural   Y13Ho7Si15Ag
_chemical_formula_sum   'Y13 Ho7 Si15 Ag1'
_cell_volume   838.44163038
_cell_formula_units_Z   1
loop_
 _symmetry_equiv_pos_site_id
 _symmetry_equiv_pos_as_xyz
  1  'x, y, z'
loop_
 _atom_site_type_symbol
 _atom_site_label
 _atom_site_symmetry_multiplicity
 _atom_site_fract_x
 _atom_site_fract_y
 _atom_site_fract_z
 _atom_site_occupancy
  Y  Y0  1  0.176268  0.321008  0.623147  1
  Y  Y1  1  0.523779  0.675352  0.602009  1
  Y  Y2  1  0.028462  0.816738  0.901484  1
  Y  Y3  1  0.469930  0.318892  0.098321  1
  Y  Y4  1  0.979707  0.184620  0.398469  1
  Y  Y5  1  0.472036  0.326045  0.399893  1
  Y  Y6  1  0.970350  0.182875  0.098109  1
  Y  Y7  1  0.530961  0.682518  0.899823  1
  Y  Y8  1  0.025593  0.817339  0.601098  1
  Y  Y9  1  0.851152  0.506880  0.750278  1
  Y  Y10  1  0.350075  0.990049  0.748470  1
  Y  Y11  1  0.150759  0.490323  0.249544  1
  Y  Y12  1  0.651290  0.010296  0.249180  1
  Ho  Ho13  1  0.679260  0.174916  0.624705  1
  Ho  Ho14  1  0.182499  0.322102  0.877676  1
  Ho  Ho15  1  0.317904  0.820360  0.121257  1
  Ho  Ho16  1  0.825938  0.675520  0.376042  1
  Ho  Ho17  1  0.318364  0.825269  0.377486  1
  Ho  Ho18  1  0.817290  0.678600  0.121778  1
  Ho  Ho19  1  0.681082  0.178800  0.877729  1
  Si  Si20  1  0.144590  0.528769  0.040466  1
  Si  Si21  1  0.353922  0.029896  0.959880  1
  Si  Si22  1  0.846841  0.469807  0.540543  1
  Si  Si23  1  0.342808  0.028417  0.542208  1
  Si  Si24  1  0.854830  0.470759  0.959035  1
  Si  Si25  1  0.643991  0.970087  0.039201  1
  Si  Si26  1  0.149693  0.532389  0.460823  1
  Si  Si27  1  0.477371  0.392420  0.751214  1
  Si  Si28  1  0.976076  0.105107  0.752975  1
  Si  Si29  1  0.523899  0.610826  0.248563  1
  Si  Si30  1  0.024627  0.893547  0.247598  1
  Si  Si31  1  0.733900  0.871580  0.752004  1
  Si  Si32  1  0.232887  0.626096  0.751730  1
  Si  Si33  1  0.269039  0.126190  0.247188  1
  Si  Si34  1  0.766078  0.375981  0.248568  1
  Ag  Ag35  1  0.656751  0.969628  0.461507  1
