# generated using pymatgen
data_TiNb9(AlAs2)2
_symmetry_space_group_name_H-M   'P 1'
_cell_length_a   5.15484563
_cell_length_b   7.64990692
_cell_length_c   7.64990700
_cell_angle_alpha   83.48113946
_cell_angle_beta   70.29507707
_cell_angle_gamma   70.29506979
_symmetry_Int_Tables_number   1
_chemical_formula_structural   TiNb9(AlAs2)2
_chemical_formula_sum   'Ti1 Nb9 Al2 As4'
_cell_volume   267.37124161
_cell_formula_units_Z   1
loop_
 _symmetry_equiv_pos_site_id
 _symmetry_equiv_pos_as_xyz
  1  'x, y, z'
loop_
 _atom_site_type_symbol
 _atom_site_label
 _atom_site_symmetry_multiplicity
 _atom_site_fract_x
 _atom_site_fract_y
 _atom_site_fract_z
 _atom_site_occupancy
  Ti  Ti0  1  0.250000  0.499674  0.500326  1
  Nb  Nb1  1  0.723873  0.854222  0.699272  1
  Nb  Nb2  1  0.276903  0.145921  0.300833  1
  Nb  Nb3  1  0.776127  0.300728  0.145778  1
  Nb  Nb4  1  0.223097  0.699167  0.854079  1
  Nb  Nb5  1  0.578117  0.699317  0.145306  1
  Nb  Nb6  1  0.421045  0.300854  0.854783  1
  Nb  Nb7  1  0.078955  0.145217  0.699146  1
  Nb  Nb8  1  0.921883  0.854694  0.300683  1
  Nb  Nb9  1  0.750000  0.500034  0.499966  1
  Al  Al10  1  0.250000  0.999843  0.000157  1
  Al  Al11  1  0.750000  0.000289  0.999711  1
  As  As12  1  0.172213  0.500460  0.173319  1
  As  As13  1  0.844862  0.499621  0.826722  1
  As  As14  1  0.327787  0.826681  0.499540  1
  As  As15  1  0.655138  0.173278  0.500379  1
