# generated using pymatgen
data_SrY3MgAl17Pd6
_symmetry_space_group_name_H-M   'P 1'
_cell_length_a   7.68938100
_cell_length_b   7.71037186
_cell_length_c   9.56992505
_cell_angle_alpha   90.20472781
_cell_angle_beta   89.87043925
_cell_angle_gamma   119.48792302
_symmetry_Int_Tables_number   1
_chemical_formula_structural   SrY3MgAl17Pd6
_chemical_formula_sum   'Sr1 Y3 Mg1 Al17 Pd6'
_cell_volume   493.87944479
_cell_formula_units_Z   1
loop_
 _symmetry_equiv_pos_site_id
 _symmetry_equiv_pos_as_xyz
  1  'x, y, z'
loop_
 _atom_site_type_symbol
 _atom_site_label
 _atom_site_symmetry_multiplicity
 _atom_site_fract_x
 _atom_site_fract_y
 _atom_site_fract_z
 _atom_site_occupancy
  Sr  Sr0  1  0.996027  0.674185  0.250929  1
  Y  Y1  1  0.003703  0.330823  0.748028  1
  Y  Y2  1  0.664513  0.987680  0.252096  1
  Y  Y3  1  0.330392  0.005317  0.749797  1
  Mg  Mg4  1  0.996415  0.333559  0.076734  1
  Al  Al5  1  0.132561  0.134919  0.251117  1
  Al  Al6  1  0.869985  0.872461  0.751106  1
  Al  Al7  1  0.999895  0.663771  0.917983  1
  Al  Al8  1  0.999465  0.664876  0.581975  1
  Al  Al9  1  0.338078  0.004120  0.429570  1
  Al  Al10  1  0.000968  0.331157  0.423990  1
  Al  Al11  1  0.665517  0.000346  0.577346  1
  Al  Al12  1  0.667308  0.002965  0.923920  1
  Al  Al13  1  0.337426  0.003911  0.070072  1
  Al  Al14  1  0.332100  0.332503  0.560737  1
  Al  Al15  1  0.664187  0.665567  0.450766  1
  Al  Al16  1  0.664553  0.666074  0.047116  1
  Al  Al17  1  0.329299  0.332561  0.938386  1
  Al  Al18  1  0.351014  0.547464  0.250679  1
  Al  Al19  1  0.657897  0.452193  0.749099  1
  Al  Al20  1  0.545004  0.329519  0.249251  1
  Al  Al21  1  0.453833  0.663539  0.750704  1
  Pd  Pd22  1  0.660691  0.326752  0.993422  1
  Pd  Pd23  1  0.335103  0.678782  0.997732  1
  Pd  Pd24  1  0.328559  0.671591  0.503230  1
  Pd  Pd25  1  0.671848  0.327729  0.502705  1
  Pd  Pd26  1  0.002067  0.995394  0.997406  1
  Pd  Pd27  1  0.001592  0.000243  0.504101  1
