# generated using pymatgen
data_La19Pr(CoBi2)4
_symmetry_space_group_name_H-M   'P 1'
_cell_length_a   8.47828125
_cell_length_b   9.27526733
_cell_length_c   12.98619170
_cell_angle_alpha   89.97260082
_cell_angle_beta   89.91777013
_cell_angle_gamma   89.98668684
_symmetry_Int_Tables_number   1
_chemical_formula_structural   La19Pr(CoBi2)4
_chemical_formula_sum   'La19 Pr1 Co4 Bi8'
_cell_volume   1021.21116839
_cell_formula_units_Z   1
loop_
 _symmetry_equiv_pos_site_id
 _symmetry_equiv_pos_as_xyz
  1  'x, y, z'
loop_
 _atom_site_type_symbol
 _atom_site_label
 _atom_site_symmetry_multiplicity
 _atom_site_fract_x
 _atom_site_fract_y
 _atom_site_fract_z
 _atom_site_occupancy
  La  La0  1  0.355118  0.749617  0.696799  1
  La  La1  1  0.644768  0.249943  0.303867  1
  La  La2  1  0.855274  0.250072  0.802872  1
  La  La3  1  0.144754  0.749957  0.197133  1
  La  La4  1  0.883603  0.749906  0.809971  1
  La  La5  1  0.116642  0.249960  0.189663  1
  La  La6  1  0.384237  0.250636  0.688962  1
  La  La7  1  0.616533  0.749393  0.310708  1
  La  La8  1  0.319312  0.463341  0.438341  1
  La  La9  1  0.181342  0.462962  0.938043  1
  La  La10  1  0.318668  0.036861  0.437977  1
  La  La11  1  0.818478  0.537641  0.062193  1
  La  La12  1  0.680985  0.963089  0.562188  1
  La  La13  1  0.818928  0.962798  0.062169  1
  La  La14  1  0.180974  0.036983  0.937921  1
  La  La15  1  0.054550  0.749910  0.495447  1
  La  La16  1  0.945049  0.250212  0.504445  1
  La  La17  1  0.555419  0.249949  0.004568  1
  La  La18  1  0.445086  0.750157  0.995181  1
  Pr  Pr19  1  0.682044  0.539270  0.563126  1
  Co  Co20  1  0.072832  0.750006  0.992275  1
  Co  Co21  1  0.927175  0.250094  0.007777  1
  Co  Co22  1  0.571519  0.247794  0.506668  1
  Co  Co23  1  0.427210  0.749262  0.492334  1
  Bi  Bi24  1  0.575997  0.505976  0.825478  1
  Bi  Bi25  1  0.424372  0.494105  0.173926  1
  Bi  Bi26  1  0.074899  0.494057  0.673793  1
  Bi  Bi27  1  0.424471  0.005906  0.174057  1
  Bi  Bi28  1  0.924523  0.506035  0.326270  1
  Bi  Bi29  1  0.575516  0.994137  0.825983  1
  Bi  Bi30  1  0.924107  0.993875  0.326071  1
  Bi  Bi31  1  0.075615  0.006097  0.673792  1
