# generated using pymatgen
data_Cs3Dy(NpTe3)2
_symmetry_space_group_name_H-M   'P 1'
_cell_length_a   8.01754988
_cell_length_b   8.01755156
_cell_length_c   9.33509500
_cell_angle_alpha   81.76507356
_cell_angle_beta   81.76508626
_cell_angle_gamma   120.02592745
_symmetry_Int_Tables_number   1
_chemical_formula_structural   Cs3Dy(NpTe3)2
_chemical_formula_sum   'Cs3 Dy1 Np2 Te6'
_cell_volume   497.74943938
_cell_formula_units_Z   1
loop_
 _symmetry_equiv_pos_site_id
 _symmetry_equiv_pos_as_xyz
  1  'x, y, z'
loop_
 _atom_site_type_symbol
 _atom_site_label
 _atom_site_symmetry_multiplicity
 _atom_site_fract_x
 _atom_site_fract_y
 _atom_site_fract_z
 _atom_site_occupancy
  Cs  Cs0  1  0.668154  0.331846  0.500000  1
  Cs  Cs1  1  0.331846  0.668154  0.500000  1
  Cs  Cs2  1  0.000000  0.000000  0.500000  1
  Dy  Dy3  1  0.500000  0.500000  0.000000  1
  Np  Np4  1  0.833309  0.166691  0.000000  1
  Np  Np5  1  0.166691  0.833309  0.000000  1
  Te  Te6  1  0.764366  0.764366  0.190986  1
  Te  Te7  1  0.235634  0.235634  0.809014  1
  Te  Te8  1  0.436246  0.107937  0.190748  1
  Te  Te9  1  0.563754  0.892063  0.809252  1
  Te  Te10  1  0.892063  0.563754  0.809252  1
  Te  Te11  1  0.107937  0.436246  0.190748  1
