# generated using pymatgen
data_ZrSc5Ta4Mn(Al2Ir)6
_symmetry_space_group_name_H-M   'P 1'
_cell_length_a   8.81584189
_cell_length_b   8.81584283
_cell_length_c   8.81584300
_cell_angle_alpha   60.00000311
_cell_angle_beta   59.99999958
_cell_angle_gamma   60.00000542
_symmetry_Int_Tables_number   1
_chemical_formula_structural   ZrSc5Ta4Mn(Al2Ir)6
_chemical_formula_sum   'Zr1 Sc5 Ta4 Mn1 Al12 Ir6'
_cell_volume   484.48072968
_cell_formula_units_Z   1
loop_
 _symmetry_equiv_pos_site_id
 _symmetry_equiv_pos_as_xyz
  1  'x, y, z'
loop_
 _atom_site_type_symbol
 _atom_site_label
 _atom_site_symmetry_multiplicity
 _atom_site_fract_x
 _atom_site_fract_y
 _atom_site_fract_z
 _atom_site_occupancy
  Zr  Zr0  1  0.301006  0.698994  0.698994  1
  Sc  Sc1  1  0.696565  0.700227  0.302368  1
  Sc  Sc2  1  0.300839  0.700227  0.302368  1
  Sc  Sc3  1  0.701042  0.298958  0.298958  1
  Sc  Sc4  1  0.300839  0.302368  0.700227  1
  Sc  Sc5  1  0.696565  0.302368  0.700227  1
  Ta  Ta6  1  0.882618  0.881821  0.352946  1
  Ta  Ta7  1  0.882618  0.352946  0.881821  1
  Ta  Ta8  1  0.353201  0.881975  0.881975  1
  Ta  Ta9  1  0.882851  0.881975  0.881975  1
  Mn  Mn10  1  0.000587  0.999413  0.999413  1
  Al  Al11  1  0.118021  0.118219  0.645736  1
  Al  Al12  1  0.118021  0.645736  0.118219  1
  Al  Al13  1  0.646120  0.117585  0.117585  1
  Al  Al14  1  0.118706  0.117585  0.117585  1
  Al  Al15  1  0.661118  0.661371  0.016395  1
  Al  Al16  1  0.661118  0.016395  0.661371  1
  Al  Al17  1  0.019658  0.660292  0.660292  1
  Al  Al18  1  0.659759  0.660292  0.660292  1
  Al  Al19  1  0.333530  0.333505  0.999435  1
  Al  Al20  1  0.333530  0.999435  0.333505  1
  Al  Al21  1  0.002126  0.332618  0.332618  1
  Al  Al22  1  0.332638  0.332618  0.332618  1
  Ir  Ir23  1  0.996186  0.000817  0.500685  1
  Ir  Ir24  1  0.502311  0.000817  0.500685  1
  Ir  Ir25  1  0.998074  0.501926  0.501926  1
  Ir  Ir26  1  0.502311  0.500685  0.000817  1
  Ir  Ir27  1  0.996186  0.500685  0.000817  1
  Ir  Ir28  1  0.501853  0.998147  0.998147  1
