# generated using pymatgen
data_ScReMoO8
_symmetry_space_group_name_H-M   'P 1'
_cell_length_a   5.92614220
_cell_length_b   5.92563717
_cell_length_c   6.51619533
_cell_angle_alpha   90.03750267
_cell_angle_beta   89.97318214
_cell_angle_gamma   120.01815852
_symmetry_Int_Tables_number   1
_chemical_formula_structural   ScReMoO8
_chemical_formula_sum   'Sc1 Re1 Mo1 O8'
_cell_volume   198.13091986
_cell_formula_units_Z   1
loop_
 _symmetry_equiv_pos_site_id
 _symmetry_equiv_pos_as_xyz
  1  'x, y, z'
loop_
 _atom_site_type_symbol
 _atom_site_label
 _atom_site_symmetry_multiplicity
 _atom_site_fract_x
 _atom_site_fract_y
 _atom_site_fract_z
 _atom_site_occupancy
  Sc  Sc0  1  0.000152  0.999953  0.020367  1
  Re  Re1  1  0.666493  0.333147  0.722018  1
  Mo  Mo2  1  0.333387  0.666823  0.276410  1
  O  O3  1  0.333328  0.666890  0.542878  1
  O  O4  1  0.666721  0.333169  0.456788  1
  O  O5  1  0.665631  0.832868  0.182444  1
  O  O6  1  0.167095  0.833065  0.182408  1
  O  O7  1  0.167233  0.334423  0.182406  1
  O  O8  1  0.342709  0.171184  0.811445  1
  O  O9  1  0.828566  0.171337  0.811339  1
  O  O10  1  0.828684  0.657142  0.811499  1
