# generated using pymatgen
data_Er4AlCdGa4
_symmetry_space_group_name_H-M   'P 1'
_cell_length_a   7.07488200
_cell_length_b   7.07488200
_cell_length_c   4.39065000
_cell_angle_alpha   90.00000000
_cell_angle_beta   90.00000000
_cell_angle_gamma   90.00000000
_symmetry_Int_Tables_number   1
_chemical_formula_structural   Er4AlCdGa4
_chemical_formula_sum   'Er4 Al1 Cd1 Ga4'
_cell_volume   219.76939890
_cell_formula_units_Z   1
loop_
 _symmetry_equiv_pos_site_id
 _symmetry_equiv_pos_as_xyz
  1  'x, y, z'
loop_
 _atom_site_type_symbol
 _atom_site_label
 _atom_site_symmetry_multiplicity
 _atom_site_fract_x
 _atom_site_fract_y
 _atom_site_fract_z
 _atom_site_occupancy
  Er  Er0  1  0.678296  0.167090  0.500000  1
  Er  Er1  1  0.167090  0.321704  0.500000  1
  Er  Er2  1  0.832910  0.678296  0.500000  1
  Er  Er3  1  0.321704  0.832910  0.500000  1
  Al  Al4  1  0.000000  0.000000  0.000000  1
  Cd  Cd5  1  0.499999  0.499999  0.000000  1
  Ga  Ga6  1  0.367242  0.124534  0.000000  1
  Ga  Ga7  1  0.875466  0.367242  0.000000  1
  Ga  Ga8  1  0.124534  0.632758  0.000000  1
  Ga  Ga9  1  0.632758  0.875466  0.000000  1
