# generated using pymatgen
data_Rb5Ag6
_symmetry_space_group_name_H-M   'P 1'
_cell_length_a   16.40860512
_cell_length_b   16.40860476
_cell_length_c   5.31428700
_cell_angle_alpha   90.00000000
_cell_angle_beta   90.00000000
_cell_angle_gamma   162.21061379
_symmetry_Int_Tables_number   1
_chemical_formula_structural   Rb5Ag6
_chemical_formula_sum   'Rb5 Ag6'
_cell_volume   437.14592620
_cell_formula_units_Z   1
loop_
 _symmetry_equiv_pos_site_id
 _symmetry_equiv_pos_as_xyz
  1  'x, y, z'
loop_
 _atom_site_type_symbol
 _atom_site_label
 _atom_site_symmetry_multiplicity
 _atom_site_fract_x
 _atom_site_fract_y
 _atom_site_fract_z
 _atom_site_occupancy
  Rb  Rb0  1  0.000000  0.000000  0.000000  1
  Rb  Rb1  1  0.615980  0.384018  0.000000  1
  Rb  Rb2  1  0.384018  0.615980  0.000000  1
  Rb  Rb3  1  0.806164  0.193834  0.500001  1
  Rb  Rb4  1  0.193834  0.806164  0.500001  1
  Ag  Ag5  1  0.734224  0.265774  0.000000  1
  Ag  Ag6  1  0.265774  0.734224  0.000000  1
  Ag  Ag7  1  0.922419  0.077580  0.500001  1
  Ag  Ag8  1  0.545102  0.454896  0.500001  1
  Ag  Ag9  1  0.454896  0.545102  0.500001  1
  Ag  Ag10  1  0.077580  0.922419  0.500001  1
