# generated using pymatgen
data_HoCo2GeC
_symmetry_space_group_name_H-M   'P 1'
_cell_length_a   5.63070839
_cell_length_b   5.63070909
_cell_length_c   6.82339300
_cell_angle_alpha   90.00000000
_cell_angle_beta   90.00000000
_cell_angle_gamma   141.10128569
_symmetry_Int_Tables_number   1
_chemical_formula_structural   HoCo2GeC
_chemical_formula_sum   'Ho2 Co4 Ge2 C2'
_cell_volume   135.84652370
_cell_formula_units_Z   2
loop_
 _symmetry_equiv_pos_site_id
 _symmetry_equiv_pos_as_xyz
  1  'x, y, z'
loop_
 _atom_site_type_symbol
 _atom_site_label
 _atom_site_symmetry_multiplicity
 _atom_site_fract_x
 _atom_site_fract_y
 _atom_site_fract_z
 _atom_site_occupancy
  Ho  Ho0  1  0.549577  0.450423  0.250000  1
  Ho  Ho1  1  0.450423  0.549577  0.750000  1
  Co  Co2  1  0.839441  0.160559  0.055422  1
  Co  Co3  1  0.160559  0.839441  0.944578  1
  Co  Co4  1  0.160559  0.839441  0.555422  1
  Co  Co5  1  0.839441  0.160559  0.444578  1
  Ge  Ge6  1  0.271077  0.728923  0.250000  1
  Ge  Ge7  1  0.728923  0.271077  0.750000  1
  C  C8  1  0.000000  0.000000  0.000000  1
  C  C9  1  0.000000  0.000000  0.500000  1
