# generated using pymatgen
data_Ac5Bi3O14
_symmetry_space_group_name_H-M   'P 1'
_cell_length_a   7.00296653
_cell_length_b   7.08611734
_cell_length_c   8.25571799
_cell_angle_alpha   106.60013913
_cell_angle_beta   89.71803445
_cell_angle_gamma   96.80847653
_symmetry_Int_Tables_number   1
_chemical_formula_structural   Ac5Bi3O14
_chemical_formula_sum   'Ac5 Bi3 O14'
_cell_volume   389.65664736
_cell_formula_units_Z   1
loop_
 _symmetry_equiv_pos_site_id
 _symmetry_equiv_pos_as_xyz
  1  'x, y, z'
loop_
 _atom_site_type_symbol
 _atom_site_label
 _atom_site_symmetry_multiplicity
 _atom_site_fract_x
 _atom_site_fract_y
 _atom_site_fract_z
 _atom_site_occupancy
  Ac  Ac0  1  0.454892  0.011652  0.256282  1
  Ac  Ac1  1  0.533028  0.005706  0.750425  1
  Ac  Ac2  1  0.263077  0.523964  0.880080  1
  Ac  Ac3  1  0.753068  0.470272  0.119338  1
  Ac  Ac4  1  0.764991  0.492278  0.619313  1
  Bi  Bi5  1  0.991086  0.996549  0.499138  1
  Bi  Bi6  1  0.995968  0.993109  0.995886  1
  Bi  Bi7  1  0.301978  0.548324  0.394149  1
  O  O8  1  0.437595  0.645204  0.180202  1
  O  O9  1  0.568976  0.369164  0.839353  1
  O  O10  1  0.286654  0.923199  0.954848  1
  O  O11  1  0.707503  0.067214  0.046851  1
  O  O12  1  0.281053  0.921425  0.509598  1
  O  O13  1  0.709501  0.087288  0.494920  1
  O  O14  1  0.545017  0.371388  0.347063  1
  O  O15  1  0.454289  0.640573  0.645681  1
  O  O16  1  0.925029  0.674190  0.942528  1
  O  O17  1  0.070044  0.300658  0.022226  1
  O  O18  1  0.076500  0.309739  0.619341  1
  O  O19  1  0.900645  0.685313  0.393042  1
  O  O20  1  0.893959  0.915200  0.728943  1
  O  O21  1  0.085149  0.047591  0.260795  1
