# generated using pymatgen
data_Sc4CrOs6W
_symmetry_space_group_name_H-M   'P 1'
_cell_length_a   5.23611788
_cell_length_b   5.24096169
_cell_length_c   8.63811500
_cell_angle_alpha   90.00000000
_cell_angle_beta   90.00000000
_cell_angle_gamma   121.79658123
_symmetry_Int_Tables_number   1
_chemical_formula_structural   Sc4CrOs6W
_chemical_formula_sum   'Sc4 Cr1 Os6 W1'
_cell_volume   201.47424820
_cell_formula_units_Z   1
loop_
 _symmetry_equiv_pos_site_id
 _symmetry_equiv_pos_as_xyz
  1  'x, y, z'
loop_
 _atom_site_type_symbol
 _atom_site_label
 _atom_site_symmetry_multiplicity
 _atom_site_fract_x
 _atom_site_fract_y
 _atom_site_fract_z
 _atom_site_occupancy
  Sc  Sc0  1  0.338416  0.665168  0.437127  1
  Sc  Sc1  1  0.665634  0.336014  0.567571  1
  Sc  Sc2  1  0.665634  0.336014  0.932429  1
  Sc  Sc3  1  0.338416  0.665168  0.062873  1
  Cr  Cr4  1  0.170007  0.341380  0.750000  1
  Os  Os5  1  0.169153  0.819587  0.750000  1
  Os  Os6  1  0.827419  0.655404  0.250000  1
  Os  Os7  1  0.643934  0.816166  0.750000  1
  Os  Os8  1  0.010240  0.014158  0.992754  1
  Os  Os9  1  0.825507  0.171553  0.250000  1
  Os  Os10  1  0.010240  0.014158  0.507246  1
  W  W11  1  0.335401  0.165231  0.250000  1
