# generated using pymatgen
data_Ca4H12RhAu
_symmetry_space_group_name_H-M   'P 1'
_cell_length_a   7.04189358
_cell_length_b   7.04189419
_cell_length_c   5.43070500
_cell_angle_alpha   90.07834557
_cell_angle_beta   90.07833744
_cell_angle_gamma   134.65338585
_symmetry_Int_Tables_number   1
_chemical_formula_structural   Ca4H12RhAu
_chemical_formula_sum   'Ca4 H12 Rh1 Au1'
_cell_volume   191.57061555
_cell_formula_units_Z   1
loop_
 _symmetry_equiv_pos_site_id
 _symmetry_equiv_pos_as_xyz
  1  'x, y, z'
loop_
 _atom_site_type_symbol
 _atom_site_label
 _atom_site_symmetry_multiplicity
 _atom_site_fract_x
 _atom_site_fract_y
 _atom_site_fract_z
 _atom_site_occupancy
  Ca  Ca0  1  0.650835  0.349165  0.000000  1
  Ca  Ca1  1  0.349165  0.650835  0.000000  1
  Ca  Ca2  1  0.848195  0.151805  0.500000  1
  Ca  Ca3  1  0.151805  0.848195  0.500000  1
  H  H4  1  0.870097  0.129903  0.000000  1
  H  H5  1  0.129903  0.870097  0.000000  1
  H  H6  1  0.628569  0.371431  0.500000  1
  H  H7  1  0.371431  0.628569  0.500000  1
  H  H8  1  0.000273  0.500030  0.247987  1
  H  H9  1  0.999727  0.499970  0.752013  1
  H  H10  1  0.499970  0.999727  0.752013  1
  H  H11  1  0.500030  0.000273  0.247987  1
  H  H12  1  0.276261  0.276261  0.281985  1
  H  H13  1  0.723739  0.723739  0.718015  1
  H  H14  1  0.283763  0.283763  0.724011  1
  H  H15  1  0.716237  0.716237  0.275989  1
  Rh  Rh16  1  0.500000  0.500000  0.500000  1
  Au  Au17  1  0.000000  0.000000  0.000000  1
