# generated using pymatgen
data_Ho2Er3Fe3(P3Ru4)4
_symmetry_space_group_name_H-M   'P 1'
_cell_length_a   12.47523900
_cell_length_b   12.47523934
_cell_length_c   3.88703800
_cell_angle_alpha   90.00000000
_cell_angle_beta   90.00000000
_cell_angle_gamma   120.00000174
_symmetry_Int_Tables_number   1
_chemical_formula_structural   Ho2Er3Fe3(P3Ru4)4
_chemical_formula_sum   'Ho2 Er3 Fe3 P12 Ru16'
_cell_volume   523.89851992
_cell_formula_units_Z   1
loop_
 _symmetry_equiv_pos_site_id
 _symmetry_equiv_pos_as_xyz
  1  'x, y, z'
loop_
 _atom_site_type_symbol
 _atom_site_label
 _atom_site_symmetry_multiplicity
 _atom_site_fract_x
 _atom_site_fract_y
 _atom_site_fract_z
 _atom_site_occupancy
  Ho  Ho0  1  0.666667  0.333333  0.000000  1
  Ho  Ho1  1  0.333333  0.666667  0.000000  1
  Er  Er2  1  0.000000  0.181655  0.500000  1
  Er  Er3  1  0.818345  0.818345  0.500000  1
  Er  Er4  1  0.181655  0.000000  0.500000  1
  Fe  Fe5  1  0.000000  0.716788  0.500000  1
  Fe  Fe6  1  0.283212  0.283212  0.500000  1
  Fe  Fe7  1  0.716788  0.000000  0.500000  1
  P  P8  1  0.000000  0.813680  0.000000  1
  P  P9  1  0.186320  0.186320  0.000000  1
  P  P10  1  0.813680  0.000000  0.000000  1
  P  P11  1  0.689938  0.162967  0.500000  1
  P  P12  1  0.837033  0.526972  0.500000  1
  P  P13  1  0.473028  0.310062  0.500000  1
  P  P14  1  0.162967  0.689938  0.500000  1
  P  P15  1  0.526972  0.837033  0.500000  1
  P  P16  1  0.310062  0.473028  0.500000  1
  P  P17  1  0.000000  0.373117  0.000000  1
  P  P18  1  0.626883  0.626883  0.000000  1
  P  P19  1  0.373117  0.000000  0.000000  1
  Ru  Ru20  1  0.000000  0.557988  0.000000  1
  Ru  Ru21  1  0.442012  0.442012  0.000000  1
  Ru  Ru22  1  0.557988  0.000000  0.000000  1
  Ru  Ru23  1  0.807115  0.181715  0.000000  1
  Ru  Ru24  1  0.818285  0.625401  0.000000  1
  Ru  Ru25  1  0.374599  0.192885  0.000000  1
  Ru  Ru26  1  0.181715  0.807115  0.000000  1
  Ru  Ru27  1  0.625401  0.818285  0.000000  1
  Ru  Ru28  1  0.192885  0.374599  0.000000  1
  Ru  Ru29  1  0.873596  0.363293  0.500000  1
  Ru  Ru30  1  0.636707  0.510303  0.500000  1
  Ru  Ru31  1  0.489697  0.126404  0.500000  1
  Ru  Ru32  1  0.363293  0.873596  0.500000  1
  Ru  Ru33  1  0.510303  0.636707  0.500000  1
  Ru  Ru34  1  0.126404  0.489697  0.500000  1
  Ru  Ru35  1  0.000000  0.000000  0.000000  1
