# generated using pymatgen
data_La2Y2TmRu2
_symmetry_space_group_name_H-M   'P 1'
_cell_length_a   6.50136922
_cell_length_b   7.22893967
_cell_length_c   8.83561205
_cell_angle_alpha   96.24459257
_cell_angle_beta   111.58660326
_cell_angle_gamma   90.00000223
_symmetry_Int_Tables_number   1
_chemical_formula_structural   La2Y2TmRu2
_chemical_formula_sum   'La4 Y4 Tm2 Ru4'
_cell_volume   383.48017079
_cell_formula_units_Z   2
loop_
 _symmetry_equiv_pos_site_id
 _symmetry_equiv_pos_as_xyz
  1  'x, y, z'
loop_
 _atom_site_type_symbol
 _atom_site_label
 _atom_site_symmetry_multiplicity
 _atom_site_fract_x
 _atom_site_fract_y
 _atom_site_fract_z
 _atom_site_occupancy
  La  La0  1  0.785209  0.090363  0.806275  1
  La  La1  1  0.978935  0.409637  0.193725  1
  La  La2  1  0.214791  0.909637  0.193725  1
  La  La3  1  0.021065  0.590363  0.806275  1
  Y  Y4  1  0.204795  0.185950  0.570603  1
  Y  Y5  1  0.634191  0.314050  0.429397  1
  Y  Y6  1  0.795205  0.814050  0.429397  1
  Y  Y7  1  0.365809  0.685950  0.570603  1
  Tm  Tm8  1  0.427692  0.250000  0.000000  1
  Tm  Tm9  1  0.572308  0.750000  0.000000  1
  Ru  Ru10  1  0.602684  0.418055  0.779551  1
  Ru  Ru11  1  0.823131  0.081945  0.220449  1
  Ru  Ru12  1  0.397316  0.581945  0.220449  1
  Ru  Ru13  1  0.176869  0.918055  0.779551  1
