# generated using pymatgen
data_KLa3CBr6
_symmetry_space_group_name_H-M   'P 1'
_cell_length_a   9.20364222
_cell_length_b   9.23674489
_cell_length_c   9.89795900
_cell_angle_alpha   69.09562352
_cell_angle_beta   86.79447672
_cell_angle_gamma   89.65757461
_symmetry_Int_Tables_number   1
_chemical_formula_structural   KLa3CBr6
_chemical_formula_sum   'K2 La6 C2 Br12'
_cell_volume   784.73821912
_cell_formula_units_Z   2
loop_
 _symmetry_equiv_pos_site_id
 _symmetry_equiv_pos_as_xyz
  1  'x, y, z'
loop_
 _atom_site_type_symbol
 _atom_site_label
 _atom_site_symmetry_multiplicity
 _atom_site_fract_x
 _atom_site_fract_y
 _atom_site_fract_z
 _atom_site_occupancy
  K  K0  1  0.486349  0.305659  0.352535  1
  K  K1  1  0.513652  0.694341  0.647465  1
  La  La2  1  0.913774  0.734138  0.003552  1
  La  La3  1  0.086226  0.265862  0.996447  1
  La  La4  1  0.733424  0.086827  0.000044  1
  La  La5  1  0.266575  0.913173  0.999957  1
  La  La6  1  0.983534  0.871323  0.329941  1
  La  La7  1  0.016465  0.128677  0.670060  1
  C  C8  1  0.003840  0.029260  0.923248  1
  C  C9  1  0.996159  0.970740  0.076752  1
  Br  Br10  1  0.095555  0.187747  0.327604  1
  Br  Br11  1  0.904445  0.812253  0.672396  1
  Br  Br12  1  0.210794  0.591682  0.998259  1
  Br  Br13  1  0.789207  0.408318  0.001741  1
  Br  Br14  1  0.407456  0.205430  0.010582  1
  Br  Br15  1  0.592543  0.794571  0.989417  1
  Br  Br16  1  0.672296  0.993533  0.330337  1
  Br  Br17  1  0.327704  0.006467  0.669663  1
  Br  Br18  1  0.293161  0.759970  0.326806  1
  Br  Br19  1  0.706839  0.240030  0.673194  1
  Br  Br20  1  0.850140  0.577544  0.326275  1
  Br  Br21  1  0.149859  0.422456  0.673725  1
