# generated using pymatgen
data_NdI5
_symmetry_space_group_name_H-M   'P 1'
_cell_length_a   8.08610816
_cell_length_b   8.98950104
_cell_length_c   11.32383022
_cell_angle_alpha   127.66370170
_cell_angle_beta   103.40078907
_cell_angle_gamma   99.04777954
_symmetry_Int_Tables_number   1
_chemical_formula_structural   NdI5
_chemical_formula_sum   'Nd2 I10'
_cell_volume   584.17013807
_cell_formula_units_Z   2
loop_
 _symmetry_equiv_pos_site_id
 _symmetry_equiv_pos_as_xyz
  1  'x, y, z'
loop_
 _atom_site_type_symbol
 _atom_site_label
 _atom_site_symmetry_multiplicity
 _atom_site_fract_x
 _atom_site_fract_y
 _atom_site_fract_z
 _atom_site_occupancy
  Nd  Nd0  1  0.139850  0.295217  0.292504  1
  Nd  Nd1  1  0.860149  0.704783  0.707496  1
  I  I2  1  0.803669  0.864520  0.028183  1
  I  I3  1  0.837989  0.382346  0.115316  1
  I  I4  1  0.327051  0.967690  0.231118  1
  I  I5  1  0.548977  0.611023  0.400571  1
  I  I6  1  0.892196  0.267311  0.478600  1
  I  I7  1  0.107805  0.732690  0.521400  1
  I  I8  1  0.451023  0.388977  0.599429  1
  I  I9  1  0.672950  0.032311  0.768882  1
  I  I10  1  0.162012  0.617655  0.884684  1
  I  I11  1  0.196332  0.135480  0.971817  1
