# generated using pymatgen
data_Th4Mg2OsPd3
_symmetry_space_group_name_H-M   'P 1'
_cell_length_a   3.87526700
_cell_length_b   7.87427941
_cell_length_c   7.87427941
_cell_angle_alpha   89.89328547
_cell_angle_beta   90.00000000
_cell_angle_gamma   90.00000000
_symmetry_Int_Tables_number   1
_chemical_formula_structural   Th4Mg2OsPd3
_chemical_formula_sum   'Th4 Mg2 Os1 Pd3'
_cell_volume   240.28270902
_cell_formula_units_Z   1
loop_
 _symmetry_equiv_pos_site_id
 _symmetry_equiv_pos_as_xyz
  1  'x, y, z'
loop_
 _atom_site_type_symbol
 _atom_site_label
 _atom_site_symmetry_multiplicity
 _atom_site_fract_x
 _atom_site_fract_y
 _atom_site_fract_z
 _atom_site_occupancy
  Th  Th0  1  0.500000  0.167206  0.667206  1
  Th  Th1  1  0.500000  0.816688  0.316688  1
  Th  Th2  1  0.500000  0.345274  0.175279  1
  Th  Th3  1  0.500000  0.675279  0.845274  1
  Mg  Mg4  1  0.000000  0.002338  0.001837  1
  Mg  Mg5  1  0.000000  0.501837  0.502338  1
  Os  Os6  1  0.000000  0.628777  0.128777  1
  Pd  Pd7  1  0.000000  0.362685  0.862685  1
  Pd  Pd8  1  0.000000  0.868335  0.631580  1
  Pd  Pd9  1  0.000000  0.131580  0.368335  1
