# generated using pymatgen
data_Th4Al24Ir2Pd7
_symmetry_space_group_name_H-M   'P 1'
_cell_length_a   7.61450733
_cell_length_b   7.61602358
_cell_length_c   13.29506984
_cell_angle_alpha   84.66696417
_cell_angle_beta   100.96770924
_cell_angle_gamma   119.76332798
_symmetry_Int_Tables_number   1
_chemical_formula_structural   Th4Al24Ir2Pd7
_chemical_formula_sum   'Th4 Al24 Ir2 Pd7'
_cell_volume   657.07592028
_cell_formula_units_Z   1
loop_
 _symmetry_equiv_pos_site_id
 _symmetry_equiv_pos_as_xyz
  1  'x, y, z'
loop_
 _atom_site_type_symbol
 _atom_site_label
 _atom_site_symmetry_multiplicity
 _atom_site_fract_x
 _atom_site_fract_y
 _atom_site_fract_z
 _atom_site_occupancy
  Th  Th0  1  0.436522  0.830240  0.805969  1
  Th  Th1  1  0.563036  0.168336  0.192796  1
  Th  Th2  1  0.766257  0.502556  0.805734  1
  Th  Th3  1  0.231780  0.497693  0.193443  1
  Al  Al4  1  0.478599  0.168132  0.945866  1
  Al  Al5  1  0.520738  0.831335  0.052717  1
  Al  Al6  1  0.026187  0.170448  0.561378  1
  Al  Al7  1  0.979826  0.834510  0.441670  1
  Al  Al8  1  0.353169  0.829794  0.558309  1
  Al  Al9  1  0.647853  0.166297  0.443239  1
  Al  Al10  1  0.622315  0.834057  0.335742  1
  Al  Al11  1  0.377603  0.166554  0.663063  1
  Al  Al12  1  0.055867  0.489742  0.662734  1
  Al  Al13  1  0.945578  0.510839  0.336207  1
  Al  Al14  1  0.730973  0.843149  0.659854  1
  Al  Al15  1  0.266738  0.156020  0.337658  1
  Al  Al16  1  0.149724  0.496527  0.946334  1
  Al  Al17  1  0.849471  0.503372  0.052244  1
  Al  Al18  1  0.818201  0.833047  0.956934  1
  Al  Al19  1  0.181748  0.167379  0.042066  1
  Al  Al20  1  0.313737  0.499344  0.444864  1
  Al  Al21  1  0.683720  0.501387  0.558101  1
  Al  Al22  1  0.099569  0.836872  0.183728  1
  Al  Al23  1  0.899554  0.162330  0.816397  1
  Al  Al24  1  0.302723  0.364858  0.815477  1
  Al  Al25  1  0.696057  0.634172  0.183371  1
  Al  Al26  1  0.100119  0.961938  0.816187  1
  Al  Al27  1  0.898567  0.036935  0.184200  1
  Ir  Ir28  1  0.389927  0.508805  0.640111  1
  Ir  Ir29  1  0.499931  0.499943  0.999763  1
  Pd  Pd30  1  0.612763  0.492371  0.361430  1
  Pd  Pd31  1  0.172983  0.828862  0.000208  1
  Pd  Pd32  1  0.827753  0.171357  0.001085  1
  Pd  Pd33  1  0.294208  0.833742  0.362437  1
  Pd  Pd34  1  0.706101  0.167216  0.637812  1
  Pd  Pd35  1  0.047525  0.825885  0.638330  1
  Pd  Pd36  1  0.952578  0.173956  0.362539  1
