# generated using pymatgen
data_Tb4Hf5Si8Ag
_symmetry_space_group_name_H-M   'P 1'
_cell_length_a   7.32057783
_cell_length_b   7.32057783
_cell_length_c   13.22404600
_cell_angle_alpha   90.00000000
_cell_angle_beta   90.00000000
_cell_angle_gamma   89.59451480
_symmetry_Int_Tables_number   1
_chemical_formula_structural   Tb4Hf5Si8Ag
_chemical_formula_sum   'Tb8 Hf10 Si16 Ag2'
_cell_volume   708.67024779
_cell_formula_units_Z   2
loop_
 _symmetry_equiv_pos_site_id
 _symmetry_equiv_pos_as_xyz
  1  'x, y, z'
loop_
 _atom_site_type_symbol
 _atom_site_label
 _atom_site_symmetry_multiplicity
 _atom_site_fract_x
 _atom_site_fract_y
 _atom_site_fract_z
 _atom_site_occupancy
  Tb  Tb0  1  0.997473  0.347362  0.212232  1
  Tb  Tb1  1  0.002527  0.652638  0.712232  1
  Tb  Tb2  1  0.148844  0.502554  0.466226  1
  Tb  Tb3  1  0.497446  0.851156  0.033774  1
  Tb  Tb4  1  0.851156  0.497446  0.966226  1
  Tb  Tb5  1  0.502554  0.148844  0.533774  1
  Tb  Tb6  1  0.347362  0.997473  0.787768  1
  Tb  Tb7  1  0.652638  0.002527  0.287768  1
  Hf  Hf8  1  0.320802  0.679198  0.250000  1
  Hf  Hf9  1  0.679198  0.320802  0.750000  1
  Hf  Hf10  1  0.140119  0.998456  0.378845  1
  Hf  Hf11  1  0.859881  0.001544  0.878845  1
  Hf  Hf12  1  0.508442  0.644246  0.624929  1
  Hf  Hf13  1  0.355754  0.491558  0.875071  1
  Hf  Hf14  1  0.491558  0.355754  0.124929  1
  Hf  Hf15  1  0.644246  0.508442  0.375071  1
  Hf  Hf16  1  0.998456  0.140119  0.621155  1
  Hf  Hf17  1  0.001544  0.859881  0.121155  1
  Si  Si18  1  0.358081  0.296658  0.319012  1
  Si  Si19  1  0.641919  0.703342  0.819012  1
  Si  Si20  1  0.226359  0.866308  0.573621  1
  Si  Si21  1  0.133692  0.773641  0.926379  1
  Si  Si22  1  0.773641  0.133692  0.073621  1
  Si  Si23  1  0.866308  0.226359  0.426379  1
  Si  Si24  1  0.296658  0.358081  0.680988  1
  Si  Si25  1  0.703342  0.641919  0.180988  1
  Si  Si26  1  0.293664  0.052428  0.191033  1
  Si  Si27  1  0.706336  0.947572  0.691033  1
  Si  Si28  1  0.433663  0.788947  0.436093  1
  Si  Si29  1  0.211053  0.566337  0.063907  1
  Si  Si30  1  0.566337  0.211053  0.936093  1
  Si  Si31  1  0.788947  0.433663  0.563907  1
  Si  Si32  1  0.052428  0.293664  0.808967  1
  Si  Si33  1  0.947572  0.706336  0.308967  1
  Ag  Ag34  1  0.178226  0.178226  0.000000  1
  Ag  Ag35  1  0.821774  0.821774  0.500000  1
