# generated using pymatgen
data_Nd3Th(CuAs2)4
_symmetry_space_group_name_H-M   'P 1'
_cell_length_a   4.00192600
_cell_length_b   4.00411337
_cell_length_c   20.17067199
_cell_angle_alpha   89.85742734
_cell_angle_beta   90.00000000
_cell_angle_gamma   90.00000000
_symmetry_Int_Tables_number   1
_chemical_formula_structural   Nd3Th(CuAs2)4
_chemical_formula_sum   'Nd3 Th1 Cu4 As8'
_cell_volume   323.21718348
_cell_formula_units_Z   1
loop_
 _symmetry_equiv_pos_site_id
 _symmetry_equiv_pos_as_xyz
  1  'x, y, z'
loop_
 _atom_site_type_symbol
 _atom_site_label
 _atom_site_symmetry_multiplicity
 _atom_site_fract_x
 _atom_site_fract_y
 _atom_site_fract_z
 _atom_site_occupancy
  Nd  Nd0  1  0.750000  0.740947  0.381216  1
  Nd  Nd1  1  0.250000  0.258898  0.620773  1
  Nd  Nd2  1  0.750000  0.756941  0.881179  1
  Th  Th3  1  0.250000  0.243596  0.117070  1
  Cu  Cu4  1  0.750000  0.239619  0.249982  1
  Cu  Cu5  1  0.250000  0.739061  0.249988  1
  Cu  Cu6  1  0.750000  0.260740  0.750324  1
  Cu  Cu7  1  0.250000  0.760696  0.750334  1
  As  As8  1  0.250000  0.747127  0.000754  1
  As  As9  1  0.750000  0.742425  0.171049  1
  As  As10  1  0.250000  0.240024  0.325047  1
  As  As11  1  0.750000  0.239447  0.500516  1
  As  As12  1  0.250000  0.760461  0.500677  1
  As  As13  1  0.750000  0.759677  0.674543  1
  As  As14  1  0.250000  0.258549  0.825845  1
  As  As15  1  0.750000  0.251793  0.000705  1
