# generated using pymatgen
data_Dy7Ho3In8CoNi3
_symmetry_space_group_name_H-M   'P 1'
_cell_length_a   3.58459900
_cell_length_b   7.99472742
_cell_length_c   17.89557719
_cell_angle_alpha   90.02583030
_cell_angle_beta   90.00000000
_cell_angle_gamma   90.00000000
_symmetry_Int_Tables_number   1
_chemical_formula_structural   Dy7Ho3In8CoNi3
_chemical_formula_sum   'Dy7 Ho3 In8 Co1 Ni3'
_cell_volume   512.84946505
_cell_formula_units_Z   1
loop_
 _symmetry_equiv_pos_site_id
 _symmetry_equiv_pos_as_xyz
  1  'x, y, z'
loop_
 _atom_site_type_symbol
 _atom_site_label
 _atom_site_symmetry_multiplicity
 _atom_site_fract_x
 _atom_site_fract_y
 _atom_site_fract_z
 _atom_site_occupancy
  Dy  Dy0  1  0.500000  0.760246  0.722400  1
  Dy  Dy1  1  0.500000  0.246724  0.779178  1
  Dy  Dy2  1  0.500000  0.499607  0.999542  1
  Dy  Dy3  1  0.500000  0.746269  0.221357  1
  Dy  Dy4  1  0.500000  0.245319  0.278279  1
  Dy  Dy5  1  0.500000  0.999452  0.500300  1
  Dy  Dy6  1  0.500000  0.616582  0.411504  1
  Ho  Ho7  1  0.500000  0.382945  0.589880  1
  Ho  Ho8  1  0.500000  0.884312  0.909579  1
  Ho  Ho9  1  0.500000  0.116837  0.088615  1
  In  In10  1  0.000000  0.795204  0.068122  1
  In  In11  1  0.000000  0.927716  0.348020  1
  In  In12  1  0.000000  0.071125  0.652076  1
  In  In13  1  0.000000  0.572908  0.847609  1
  In  In14  1  0.000000  0.704229  0.568814  1
  In  In15  1  0.000000  0.203420  0.930661  1
  In  In16  1  0.000000  0.294398  0.431713  1
  In  In17  1  0.000000  0.427663  0.151787  1
  Co  Co18  1  0.000000  0.979779  0.805258  1
  Ni  Ni19  1  0.000000  0.522776  0.304055  1
  Ni  Ni20  1  0.000000  0.478963  0.695641  1
  Ni  Ni21  1  0.000000  0.023525  0.195611  1
