# generated using pymatgen
data_PrY3(CBr)2
_symmetry_space_group_name_H-M   'P 1'
_cell_length_a   3.73481600
_cell_length_b   3.73481604
_cell_length_c   14.46956000
_cell_angle_alpha   90.00000000
_cell_angle_beta   90.00000000
_cell_angle_gamma   120.00001739
_symmetry_Int_Tables_number   1
_chemical_formula_structural   PrY3(CBr)2
_chemical_formula_sum   'Pr1 Y3 C2 Br2'
_cell_volume   174.79310866
_cell_formula_units_Z   1
loop_
 _symmetry_equiv_pos_site_id
 _symmetry_equiv_pos_as_xyz
  1  'x, y, z'
loop_
 _atom_site_type_symbol
 _atom_site_label
 _atom_site_symmetry_multiplicity
 _atom_site_fract_x
 _atom_site_fract_y
 _atom_site_fract_z
 _atom_site_occupancy
  Pr  Pr0  1  0.333333  0.666667  0.409459  1
  Y  Y1  1  0.333333  0.666667  0.085647  1
  Y  Y2  1  0.666667  0.333333  0.594214  1
  Y  Y3  1  0.666667  0.333333  0.909880  1
  C  C4  1  0.000000  0.000000  0.997269  1
  C  C5  1  0.000000  0.000000  0.512478  1
  Br  Br6  1  0.666667  0.333333  0.236516  1
  Br  Br7  1  0.333333  0.666667  0.754538  1
