# generated using pymatgen
data_TbDyHo6(OsC2)4
_symmetry_space_group_name_H-M   'P 1'
_cell_length_a   5.12347700
_cell_length_b   6.43474986
_cell_length_c   9.77695336
_cell_angle_alpha   89.87924693
_cell_angle_beta   90.00000000
_cell_angle_gamma   90.00000000
_symmetry_Int_Tables_number   1
_chemical_formula_structural   TbDyHo6(OsC2)4
_chemical_formula_sum   'Tb1 Dy1 Ho6 Os4 C8'
_cell_volume   322.32874602
_cell_formula_units_Z   1
loop_
 _symmetry_equiv_pos_site_id
 _symmetry_equiv_pos_as_xyz
  1  'x, y, z'
loop_
 _atom_site_type_symbol
 _atom_site_label
 _atom_site_symmetry_multiplicity
 _atom_site_fract_x
 _atom_site_fract_y
 _atom_site_fract_z
 _atom_site_occupancy
  Tb  Tb0  1  0.750000  0.974778  0.718873  1
  Dy  Dy1  1  0.250000  0.025291  0.280882  1
  Ho  Ho2  1  0.250000  0.683753  0.552380  1
  Ho  Ho3  1  0.750000  0.316137  0.447446  1
  Ho  Ho4  1  0.750000  0.816081  0.052594  1
  Ho  Ho5  1  0.250000  0.183995  0.947569  1
  Ho  Ho6  1  0.250000  0.525154  0.219837  1
  Ho  Ho7  1  0.750000  0.474913  0.780197  1
  Os  Os8  1  0.250000  0.725455  0.865501  1
  Os  Os9  1  0.750000  0.274480  0.134719  1
  Os  Os10  1  0.750000  0.773855  0.365552  1
  Os  Os11  1  0.250000  0.226368  0.634311  1
  C  C12  1  0.250000  0.461987  0.758120  1
  C  C13  1  0.750000  0.538068  0.241864  1
  C  C14  1  0.750000  0.037933  0.257996  1
  C  C15  1  0.250000  0.962123  0.742106  1
  C  C16  1  0.250000  0.824391  0.053460  1
  C  C17  1  0.750000  0.175868  0.946892  1
  C  C18  1  0.750000  0.672876  0.553306  1
  C  C19  1  0.250000  0.326495  0.446394  1
