# generated using pymatgen
data_Pa6Zn18PPd5
_symmetry_space_group_name_H-M   'P 1'
_cell_length_a   9.02829760
_cell_length_b   9.01452163
_cell_length_c   9.02841000
_cell_angle_alpha   60.04964332
_cell_angle_beta   60.13263498
_cell_angle_gamma   60.05126646
_symmetry_Int_Tables_number   1
_chemical_formula_structural   Pa6Zn18PPd5
_chemical_formula_sum   'Pa6 Zn18 P1 Pd5'
_cell_volume   520.48679554
_cell_formula_units_Z   1
loop_
 _symmetry_equiv_pos_site_id
 _symmetry_equiv_pos_as_xyz
  1  'x, y, z'
loop_
 _atom_site_type_symbol
 _atom_site_label
 _atom_site_symmetry_multiplicity
 _atom_site_fract_x
 _atom_site_fract_y
 _atom_site_fract_z
 _atom_site_occupancy
  Pa  Pa0  1  0.711490  0.290871  0.288509  1
  Pa  Pa1  1  0.709131  0.290868  0.709132  1
  Pa  Pa2  1  0.711546  0.709213  0.288454  1
  Pa  Pa3  1  0.288510  0.709129  0.711491  1
  Pa  Pa4  1  0.290869  0.709132  0.290868  1
  Pa  Pa5  1  0.288454  0.290787  0.711546  1
  Zn  Zn6  1  0.625404  0.125778  0.123084  1
  Zn  Zn7  1  0.125382  0.624409  0.125337  1
  Zn  Zn8  1  0.123083  0.125734  0.625405  1
  Zn  Zn9  1  0.125337  0.124874  0.125383  1
  Zn  Zn10  1  0.374596  0.874222  0.876916  1
  Zn  Zn11  1  0.874618  0.375591  0.874663  1
  Zn  Zn12  1  0.876917  0.874266  0.374595  1
  Zn  Zn13  1  0.874663  0.875126  0.874617  1
  Zn  Zn14  1  0.500000  0.000000  0.500000  1
  Zn  Zn15  1  0.000000  0.000000  0.000000  1
  Zn  Zn16  1  0.008781  0.330432  0.330376  1
  Zn  Zn17  1  0.332980  0.004669  0.332958  1
  Zn  Zn18  1  0.330377  0.330412  0.008782  1
  Zn  Zn19  1  0.332957  0.329394  0.332980  1
  Zn  Zn20  1  0.991219  0.669568  0.669624  1
  Zn  Zn21  1  0.667020  0.995331  0.667042  1
  Zn  Zn22  1  0.669623  0.669588  0.991218  1
  Zn  Zn23  1  0.667043  0.670606  0.667020  1
  P  P24  1  0.500000  0.500000  0.500000  1
  Pd  Pd25  1  0.500000  0.000000  0.000000  1
  Pd  Pd26  1  0.500000  0.500000  0.000000  1
  Pd  Pd27  1  0.000000  0.500000  0.500000  1
  Pd  Pd28  1  0.000000  0.500000  0.000000  1
  Pd  Pd29  1  0.000000  0.000000  0.500000  1
