# generated using pymatgen
data_Pr16Cd4IrRu3
_symmetry_space_group_name_H-M   'P 1'
_cell_length_a   10.00367446
_cell_length_b   9.99867373
_cell_length_c   9.99867400
_cell_angle_alpha   59.99999910
_cell_angle_beta   60.01653393
_cell_angle_gamma   60.01653532
_symmetry_Int_Tables_number   1
_chemical_formula_structural   Pr16Cd4IrRu3
_chemical_formula_sum   'Pr16 Cd4 Ir1 Ru3'
_cell_volume   707.35568662
_cell_formula_units_Z   1
loop_
 _symmetry_equiv_pos_site_id
 _symmetry_equiv_pos_as_xyz
  1  'x, y, z'
loop_
 _atom_site_type_symbol
 _atom_site_label
 _atom_site_symmetry_multiplicity
 _atom_site_fract_x
 _atom_site_fract_y
 _atom_site_fract_z
 _atom_site_occupancy
  Pr  Pr0  1  0.346069  0.347894  0.347894  1
  Pr  Pr1  1  0.346069  0.347894  0.958141  1
  Pr  Pr2  1  0.346069  0.958141  0.347894  1
  Pr  Pr3  1  0.957976  0.347341  0.347341  1
  Pr  Pr4  1  0.811681  0.190634  0.190634  1
  Pr  Pr5  1  0.190610  0.810169  0.810169  1
  Pr  Pr6  1  0.190610  0.810169  0.189052  1
  Pr  Pr7  1  0.811681  0.190634  0.807052  1
  Pr  Pr8  1  0.190610  0.189052  0.810169  1
  Pr  Pr9  1  0.811681  0.807052  0.190634  1
  Pr  Pr10  1  0.938962  0.561418  0.561418  1
  Pr  Pr11  1  0.560334  0.938839  0.938839  1
  Pr  Pr12  1  0.560334  0.938839  0.561988  1
  Pr  Pr13  1  0.938962  0.561418  0.938203  1
  Pr  Pr14  1  0.560334  0.561988  0.938839  1
  Pr  Pr15  1  0.938962  0.938203  0.561418  1
  Cd  Cd16  1  0.579432  0.579800  0.579800  1
  Cd  Cd17  1  0.579432  0.579800  0.260966  1
  Cd  Cd18  1  0.579432  0.260966  0.579800  1
  Cd  Cd19  1  0.261128  0.579624  0.579624  1
  Ir  Ir20  1  0.579761  0.140080  0.140080  1
  Ru  Ru21  1  0.139956  0.137308  0.137308  1
  Ru  Ru22  1  0.139956  0.137308  0.585428  1
  Ru  Ru23  1  0.139956  0.585428  0.137308  1
