# generated using pymatgen
data_La6Cd23P
_symmetry_space_group_name_H-M   'P 1'
_cell_length_a   10.19251172
_cell_length_b   10.19251190
_cell_length_c   10.19251100
_cell_angle_alpha   59.99999968
_cell_angle_beta   59.99999910
_cell_angle_gamma   59.99999811
_symmetry_Int_Tables_number   1
_chemical_formula_structural   La6Cd23P
_chemical_formula_sum   'La6 Cd23 P1'
_cell_volume   748.73584959
_cell_formula_units_Z   1
loop_
 _symmetry_equiv_pos_site_id
 _symmetry_equiv_pos_as_xyz
  1  'x, y, z'
loop_
 _atom_site_type_symbol
 _atom_site_label
 _atom_site_symmetry_multiplicity
 _atom_site_fract_x
 _atom_site_fract_y
 _atom_site_fract_z
 _atom_site_occupancy
  La  La0  1  0.795376  0.795376  0.204624  1
  La  La1  1  0.204624  0.795376  0.204624  1
  La  La2  1  0.795376  0.204624  0.204624  1
  La  La3  1  0.204624  0.204624  0.795376  1
  La  La4  1  0.795376  0.204624  0.795376  1
  La  La5  1  0.204624  0.795376  0.795376  1
  Cd  Cd6  1  0.829671  0.829671  0.510989  1
  Cd  Cd7  1  0.829671  0.510989  0.829671  1
  Cd  Cd8  1  0.510989  0.829671  0.829671  1
  Cd  Cd9  1  0.829671  0.829671  0.829671  1
  Cd  Cd10  1  0.170329  0.170329  0.489011  1
  Cd  Cd11  1  0.170329  0.489011  0.170329  1
  Cd  Cd12  1  0.489011  0.170329  0.170329  1
  Cd  Cd13  1  0.170329  0.170329  0.170329  1
  Cd  Cd14  1  0.620603  0.620603  0.138191  1
  Cd  Cd15  1  0.620603  0.138191  0.620603  1
  Cd  Cd16  1  0.138191  0.620603  0.620603  1
  Cd  Cd17  1  0.620603  0.620603  0.620603  1
  Cd  Cd18  1  0.379397  0.379397  0.861809  1
  Cd  Cd19  1  0.379397  0.861809  0.379397  1
  Cd  Cd20  1  0.861809  0.379397  0.379397  1
  Cd  Cd21  1  0.379397  0.379397  0.379397  1
  Cd  Cd22  1  0.000000  0.000000  0.500000  1
  Cd  Cd23  1  0.500000  0.000000  0.500000  1
  Cd  Cd24  1  0.000000  0.500000  0.500000  1
  Cd  Cd25  1  0.500000  0.500000  0.000000  1
  Cd  Cd26  1  0.000000  0.500000  0.000000  1
  Cd  Cd27  1  0.500000  0.000000  0.000000  1
  Cd  Cd28  1  0.500000  0.500000  0.500000  1
  P  P29  1  0.000000  0.000000  0.000000  1
