# generated using pymatgen
data_La16SmEr3Sn16
_symmetry_space_group_name_H-M   'P 1'
_cell_length_a   8.41794808
_cell_length_b   8.51396708
_cell_length_c   16.27544800
_cell_angle_alpha   90.00000000
_cell_angle_beta   90.00000000
_cell_angle_gamma   89.98381148
_symmetry_Int_Tables_number   1
_chemical_formula_structural   La16SmEr3Sn16
_chemical_formula_sum   'La16 Sm1 Er3 Sn16'
_cell_volume   1166.46347477
_cell_formula_units_Z   1
loop_
 _symmetry_equiv_pos_site_id
 _symmetry_equiv_pos_as_xyz
  1  'x, y, z'
loop_
 _atom_site_type_symbol
 _atom_site_label
 _atom_site_symmetry_multiplicity
 _atom_site_fract_x
 _atom_site_fract_y
 _atom_site_fract_z
 _atom_site_occupancy
  La  La0  1  0.972340  0.818656  0.899794  1
  La  La1  1  0.472859  0.680806  0.600283  1
  La  La2  1  0.527335  0.318770  0.100426  1
  La  La3  1  0.027336  0.181135  0.399538  1
  La  La4  1  0.972340  0.818656  0.600206  1
  La  La5  1  0.472859  0.680806  0.899717  1
  La  La6  1  0.527335  0.318770  0.399574  1
  La  La7  1  0.027336  0.181135  0.100462  1
  La  La8  1  0.879624  0.660252  0.382265  1
  La  La9  1  0.379528  0.839785  0.117849  1
  La  La10  1  0.620970  0.160536  0.617556  1
  La  La11  1  0.120071  0.340126  0.882453  1
  La  La12  1  0.120071  0.340126  0.617547  1
  La  La13  1  0.620970  0.160536  0.882444  1
  La  La14  1  0.379528  0.839785  0.382151  1
  La  La15  1  0.879624  0.660252  0.117735  1
  Sm  Sm16  1  0.289046  0.002598  0.750000  1
  Er  Er17  1  0.787826  0.496850  0.750000  1
  Er  Er18  1  0.212069  0.502667  0.250000  1
  Er  Er19  1  0.712035  0.997297  0.250000  1
  Sn  Sn20  1  0.781104  0.470142  0.546092  1
  Sn  Sn21  1  0.281096  0.030098  0.954448  1
  Sn  Sn22  1  0.718756  0.970188  0.453937  1
  Sn  Sn23  1  0.218817  0.529832  0.046112  1
  Sn  Sn24  1  0.218817  0.529832  0.453888  1
  Sn  Sn25  1  0.718756  0.970188  0.046063  1
  Sn  Sn26  1  0.281096  0.030098  0.545552  1
  Sn  Sn27  1  0.781104  0.470142  0.953908  1
  Sn  Sn28  1  0.168383  0.643632  0.750000  1
  Sn  Sn29  1  0.668824  0.855293  0.750000  1
  Sn  Sn30  1  0.331568  0.144991  0.250000  1
  Sn  Sn31  1  0.831475  0.355125  0.250000  1
  Sn  Sn32  1  0.922599  0.117623  0.750000  1
  Sn  Sn33  1  0.423780  0.383214  0.750000  1
  Sn  Sn34  1  0.576424  0.617656  0.250000  1
  Sn  Sn35  1  0.076302  0.882403  0.250000  1
