# generated using pymatgen
data_Rb8In3Ga5(SnSe4)8
_symmetry_space_group_name_H-M   'P 1'
_cell_length_a   13.50653435
_cell_length_b   7.79690802
_cell_length_c   18.85086944
_cell_angle_alpha   83.00700014
_cell_angle_beta   89.98766346
_cell_angle_gamma   89.82381947
_symmetry_Int_Tables_number   1
_chemical_formula_structural   Rb8In3Ga5(SnSe4)8
_chemical_formula_sum   'Rb8 In3 Ga5 Sn8 Se32'
_cell_volume   1970.39313937
_cell_formula_units_Z   1
loop_
 _symmetry_equiv_pos_site_id
 _symmetry_equiv_pos_as_xyz
  1  'x, y, z'
loop_
 _atom_site_type_symbol
 _atom_site_label
 _atom_site_symmetry_multiplicity
 _atom_site_fract_x
 _atom_site_fract_y
 _atom_site_fract_z
 _atom_site_occupancy
  Rb  Rb0  1  0.438412  0.769014  0.328491  1
  Rb  Rb1  1  0.562530  0.226214  0.672927  1
  Rb  Rb2  1  0.937706  0.233300  0.171619  1
  Rb  Rb3  1  0.060208  0.770085  0.828547  1
  Rb  Rb4  1  0.603892  0.249482  0.044444  1
  Rb  Rb5  1  0.397449  0.747618  0.953778  1
  Rb  Rb6  1  0.101196  0.746679  0.454451  1
  Rb  Rb7  1  0.896838  0.251031  0.548872  1
  In  In8  1  0.755667  0.989979  0.344334  1
  In  In9  1  0.244494  0.010021  0.655783  1
  In  In10  1  0.255238  0.009756  0.155655  1
  Ga  Ga11  1  0.743636  0.985524  0.843343  1
  Ga  Ga12  1  0.759780  0.479338  0.358508  1
  Ga  Ga13  1  0.241543  0.521654  0.642043  1
  Ga  Ga14  1  0.258283  0.520779  0.141867  1
  Ga  Ga15  1  0.746718  0.473513  0.857446  1
  Sn  Sn16  1  0.704649  0.743053  0.180841  1
  Sn  Sn17  1  0.295718  0.257410  0.818640  1
  Sn  Sn18  1  0.203950  0.258413  0.318674  1
  Sn  Sn19  1  0.792771  0.743090  0.684068  1
  Sn  Sn20  1  0.812979  0.715407  0.012776  1
  Sn  Sn21  1  0.182607  0.288375  0.984051  1
  Sn  Sn22  1  0.317020  0.287353  0.484370  1
  Sn  Sn23  1  0.683253  0.715075  0.516544  1
  Se  Se24  1  0.166308  0.959973  0.282726  1
  Se  Se25  1  0.825722  0.039483  0.723946  1
  Se  Se26  1  0.666292  0.041254  0.217264  1
  Se  Se27  1  0.333479  0.958577  0.782846  1
  Se  Se28  1  0.870609  0.722345  0.348673  1
  Se  Se29  1  0.130352  0.278788  0.651397  1
  Se  Se30  1  0.369556  0.277240  0.150967  1
  Se  Se31  1  0.640021  0.728590  0.848836  1
  Se  Se32  1  0.628961  0.746051  0.052587  1
  Se  Se33  1  0.368124  0.252294  0.947691  1
  Se  Se34  1  0.131717  0.253640  0.447856  1
  Se  Se35  1  0.867127  0.755532  0.554770  1
  Se  Se36  1  0.632471  0.492314  0.264146  1
  Se  Se37  1  0.369756  0.506961  0.735844  1
  Se  Se38  1  0.130175  0.508607  0.235540  1
  Se  Se39  1  0.872242  0.489983  0.762140  1
  Se  Se40  1  0.609660  0.972227  0.437373  1
  Se  Se41  1  0.390234  0.028506  0.562791  1
  Se  Se42  1  0.109690  0.029427  0.062020  1
  Se  Se43  1  0.879788  0.972801  0.930374  1
  Se  Se44  1  0.887438  0.711490  0.140579  1
  Se  Se45  1  0.112054  0.296012  0.855271  1
  Se  Se46  1  0.387774  0.294847  0.355546  1
  Se  Se47  1  0.610320  0.703748  0.644902  1
  Se  Se48  1  0.375542  0.755158  0.144413  1
  Se  Se49  1  0.633572  0.229478  0.854825  1
  Se  Se50  1  0.876295  0.242663  0.356612  1
  Se  Se51  1  0.124037  0.756759  0.644825  1
  Se  Se52  1  0.662186  0.421256  0.471672  1
  Se  Se53  1  0.339831  0.580639  0.529269  1
  Se  Se54  1  0.160178  0.581756  0.028878  1
  Se  Se55  1  0.841951  0.419443  0.971349  1
