# generated using pymatgen
data_LaY3(SiAu2)8
_symmetry_space_group_name_H-M   'P 1'
_cell_length_a   4.42455400
_cell_length_b   4.42455400
_cell_length_c   27.18343700
_cell_angle_alpha   90.00000000
_cell_angle_beta   90.00000000
_cell_angle_gamma   90.00000000
_symmetry_Int_Tables_number   1
_chemical_formula_structural   LaY3(SiAu2)8
_chemical_formula_sum   'La1 Y3 Si8 Au16'
_cell_volume   532.16139577
_cell_formula_units_Z   1
loop_
 _symmetry_equiv_pos_site_id
 _symmetry_equiv_pos_as_xyz
  1  'x, y, z'
loop_
 _atom_site_type_symbol
 _atom_site_label
 _atom_site_symmetry_multiplicity
 _atom_site_fract_x
 _atom_site_fract_y
 _atom_site_fract_z
 _atom_site_occupancy
  La  La0  1  0.500000  0.500000  0.000000  1
  Y  Y1  1  0.000000  0.500000  0.749400  1
  Y  Y2  1  0.500000  0.000000  0.250600  1
  Y  Y3  1  0.500000  0.500000  0.500000  1
  Si  Si4  1  0.000000  0.000000  0.955978  1
  Si  Si5  1  0.000000  0.000000  0.456987  1
  Si  Si6  1  0.500000  0.000000  0.792667  1
  Si  Si7  1  0.500000  0.000000  0.706186  1
  Si  Si8  1  0.000000  0.500000  0.207333  1
  Si  Si9  1  0.000000  0.500000  0.293814  1
  Si  Si10  1  0.000000  0.000000  0.044022  1
  Si  Si11  1  0.000000  0.000000  0.543013  1
  Au  Au12  1  0.500000  0.000000  0.088150  1
  Au  Au13  1  0.500000  0.500000  0.663219  1
  Au  Au14  1  0.500000  0.500000  0.835359  1
  Au  Au15  1  0.000000  0.500000  0.087581  1
  Au  Au16  1  0.500000  0.000000  0.912419  1
  Au  Au17  1  0.000000  0.000000  0.664298  1
  Au  Au18  1  0.000000  0.500000  0.415122  1
  Au  Au19  1  0.500000  0.500000  0.336781  1
  Au  Au20  1  0.500000  0.000000  0.414488  1
  Au  Au21  1  0.000000  0.000000  0.335702  1
  Au  Au22  1  0.000000  0.000000  0.165311  1
  Au  Au23  1  0.500000  0.000000  0.584878  1
  Au  Au24  1  0.000000  0.000000  0.834689  1
  Au  Au25  1  0.500000  0.500000  0.164641  1
  Au  Au26  1  0.000000  0.500000  0.585512  1
  Au  Au27  1  0.000000  0.500000  0.911850  1
