# generated using pymatgen
data_Y2ThAl9Si3Os4
_symmetry_space_group_name_H-M   'P 1'
_cell_length_a   8.78411191
_cell_length_b   8.76420284
_cell_length_c   9.53525100
_cell_angle_alpha   90.00000000
_cell_angle_beta   90.00000000
_cell_angle_gamma   120.26109916
_symmetry_Int_Tables_number   1
_chemical_formula_structural   Y2ThAl9Si3Os4
_chemical_formula_sum   'Y4 Th2 Al18 Si6 Os8'
_cell_volume   634.05128368
_cell_formula_units_Z   2
loop_
 _symmetry_equiv_pos_site_id
 _symmetry_equiv_pos_as_xyz
  1  'x, y, z'
loop_
 _atom_site_type_symbol
 _atom_site_label
 _atom_site_symmetry_multiplicity
 _atom_site_fract_x
 _atom_site_fract_y
 _atom_site_fract_z
 _atom_site_occupancy
  Y  Y0  1  0.194368  0.388147  0.250000  1
  Y  Y1  1  0.805632  0.611853  0.750000  1
  Y  Y2  1  0.609130  0.806278  0.250000  1
  Y  Y3  1  0.390870  0.193722  0.750000  1
  Th  Th4  1  0.194102  0.808686  0.250000  1
  Th  Th5  1  0.805898  0.191314  0.750000  1
  Al  Al6  1  0.166169  0.329184  0.578166  1
  Al  Al7  1  0.833831  0.670816  0.421834  1
  Al  Al8  1  0.671262  0.833002  0.575441  1
  Al  Al9  1  0.833831  0.670816  0.078166  1
  Al  Al10  1  0.328738  0.166998  0.424559  1
  Al  Al11  1  0.166169  0.329184  0.921834  1
  Al  Al12  1  0.162803  0.835988  0.579002  1
  Al  Al13  1  0.328738  0.166998  0.075441  1
  Al  Al14  1  0.837197  0.164012  0.420998  1
  Al  Al15  1  0.671262  0.833002  0.924559  1
  Al  Al16  1  0.837197  0.164012  0.079002  1
  Al  Al17  1  0.162803  0.835988  0.920998  1
  Al  Al18  1  0.868473  0.429056  0.250000  1
  Al  Al19  1  0.131527  0.570944  0.750000  1
  Al  Al20  1  0.559422  0.433821  0.250000  1
  Al  Al21  1  0.440578  0.566179  0.750000  1
  Al  Al22  1  0.995042  0.002509  0.250000  1
  Al  Al23  1  0.004958  0.997491  0.750000  1
  Si  Si24  1  0.333961  0.661768  0.034800  1
  Si  Si25  1  0.666039  0.338232  0.965200  1
  Si  Si26  1  0.666039  0.338232  0.534800  1
  Si  Si27  1  0.333961  0.661768  0.465200  1
  Si  Si28  1  0.566457  0.128842  0.250000  1
  Si  Si29  1  0.433543  0.871158  0.750000  1
  Os  Os30  1  0.500000  0.000000  0.000000  1
  Os  Os31  1  0.000000  0.500000  0.000000  1
  Os  Os32  1  0.500000  0.000000  0.500000  1
  Os  Os33  1  0.500000  0.500000  0.000000  1
  Os  Os34  1  0.000000  0.500000  0.500000  1
  Os  Os35  1  0.500000  0.500000  0.500000  1
  Os  Os36  1  0.000000  0.000000  0.000000  1
  Os  Os37  1  0.000000  0.000000  0.500000  1
