# generated using pymatgen
data_TbPr19Si15Pd
_symmetry_space_group_name_H-M   'P 1'
_cell_length_a   7.92660022
_cell_length_b   7.92350102
_cell_length_c   15.31594508
_cell_angle_alpha   89.97172522
_cell_angle_beta   89.61570369
_cell_angle_gamma   90.11475311
_symmetry_Int_Tables_number   1
_chemical_formula_structural   TbPr19Si15Pd
_chemical_formula_sum   'Tb1 Pr19 Si15 Pd1'
_cell_volume   961.91606528
_cell_formula_units_Z   1
loop_
 _symmetry_equiv_pos_site_id
 _symmetry_equiv_pos_as_xyz
  1  'x, y, z'
loop_
 _atom_site_type_symbol
 _atom_site_label
 _atom_site_symmetry_multiplicity
 _atom_site_fract_x
 _atom_site_fract_y
 _atom_site_fract_z
 _atom_site_occupancy
  Tb  Tb0  1  0.309600  0.308748  0.999089  1
  Pr  Pr1  1  0.189690  0.806869  0.249461  1
  Pr  Pr2  1  0.808130  0.185352  0.751181  1
  Pr  Pr3  1  0.693578  0.688056  0.498511  1
  Pr  Pr4  1  0.374584  0.010292  0.447275  1
  Pr  Pr5  1  0.492088  0.871375  0.699077  1
  Pr  Pr6  1  0.509053  0.124124  0.196364  1
  Pr  Pr7  1  0.876845  0.488001  0.300118  1
  Pr  Pr8  1  0.122772  0.512355  0.802232  1
  Pr  Pr9  1  0.626740  0.988358  0.949697  1
  Pr  Pr10  1  0.001366  0.378692  0.550348  1
  Pr  Pr11  1  0.988492  0.624660  0.052142  1
  Pr  Pr12  1  0.134483  0.986389  0.876614  1
  Pr  Pr13  1  0.517006  0.631433  0.125382  1
  Pr  Pr14  1  0.477080  0.367608  0.628504  1
  Pr  Pr15  1  0.628923  0.517565  0.874552  1
  Pr  Pr16  1  0.371800  0.482227  0.372533  1
  Pr  Pr17  1  0.872255  0.020209  0.376521  1
  Pr  Pr18  1  0.982243  0.127053  0.123643  1
  Pr  Pr19  1  0.020545  0.874028  0.623667  1
  Si  Si20  1  0.330966  0.692085  0.952293  1
  Si  Si21  1  0.662943  0.304075  0.451906  1
  Si  Si22  1  0.694345  0.333388  0.048523  1
  Si  Si23  1  0.305041  0.668286  0.548157  1
  Si  Si24  1  0.804811  0.832645  0.202819  1
  Si  Si25  1  0.167633  0.197126  0.297191  1
  Si  Si26  1  0.836112  0.803430  0.798316  1
  Si  Si27  1  0.288839  0.926894  0.058492  1
  Si  Si28  1  0.578315  0.787368  0.309448  1
  Si  Si29  1  0.426776  0.210919  0.817344  1
  Si  Si30  1  0.786030  0.579135  0.690415  1
  Si  Si31  1  0.213775  0.420033  0.186879  1
  Si  Si32  1  0.706037  0.076152  0.559258  1
  Si  Si33  1  0.925896  0.290201  0.942299  1
  Si  Si34  1  0.079664  0.713957  0.440975  1
  Pd  Pd35  1  0.195547  0.170913  0.698771  1
