# generated using pymatgen
data_Dy5HoAl17Si7Os8
_symmetry_space_group_name_H-M   'P 1'
_cell_length_a   8.70087001
_cell_length_b   8.69138241
_cell_length_c   9.48318700
_cell_angle_alpha   90.00000000
_cell_angle_beta   90.00000000
_cell_angle_gamma   120.08827364
_symmetry_Int_Tables_number   1
_chemical_formula_structural   Dy5HoAl17Si7Os8
_chemical_formula_sum   'Dy5 Ho1 Al17 Si7 Os8'
_cell_volume   620.51100851
_cell_formula_units_Z   1
loop_
 _symmetry_equiv_pos_site_id
 _symmetry_equiv_pos_as_xyz
  1  'x, y, z'
loop_
 _atom_site_type_symbol
 _atom_site_label
 _atom_site_symmetry_multiplicity
 _atom_site_fract_x
 _atom_site_fract_y
 _atom_site_fract_z
 _atom_site_occupancy
  Dy  Dy0  1  0.192966  0.388624  0.250000  1
  Dy  Dy1  1  0.806903  0.613619  0.750000  1
  Dy  Dy2  1  0.610561  0.807230  0.250000  1
  Dy  Dy3  1  0.388226  0.191264  0.750000  1
  Dy  Dy4  1  0.802795  0.191761  0.750000  1
  Ho  Ho5  1  0.196042  0.805217  0.250000  1
  Al  Al6  1  0.164309  0.329376  0.578470  1
  Al  Al7  1  0.834218  0.671190  0.420930  1
  Al  Al8  1  0.671429  0.834951  0.578080  1
  Al  Al9  1  0.834218  0.671190  0.079070  1
  Al  Al10  1  0.329632  0.165977  0.421993  1
  Al  Al11  1  0.164309  0.329376  0.921530  1
  Al  Al12  1  0.163542  0.834313  0.577136  1
  Al  Al13  1  0.329632  0.165977  0.078007  1
  Al  Al14  1  0.835478  0.164196  0.421234  1
  Al  Al15  1  0.671429  0.834951  0.921920  1
  Al  Al16  1  0.835478  0.164196  0.078766  1
  Al  Al17  1  0.163542  0.834313  0.922864  1
  Al  Al18  1  0.126053  0.565543  0.750000  1
  Al  Al19  1  0.564815  0.435048  0.250000  1
  Al  Al20  1  0.438638  0.566385  0.750000  1
  Al  Al21  1  0.999453  0.999371  0.250000  1
  Al  Al22  1  0.000012  0.000591  0.750000  1
  Si  Si23  1  0.333306  0.664764  0.038496  1
  Si  Si24  1  0.666513  0.335631  0.960687  1
  Si  Si25  1  0.666513  0.335631  0.539313  1
  Si  Si26  1  0.333306  0.664764  0.461504  1
  Si  Si27  1  0.564659  0.124540  0.250000  1
  Si  Si28  1  0.436621  0.873117  0.750000  1
  Si  Si29  1  0.874628  0.435008  0.250000  1
  Os  Os30  1  0.500767  0.000984  0.001085  1
  Os  Os31  1  0.998519  0.499493  0.006711  1
  Os  Os32  1  0.500767  0.000984  0.498915  1
  Os  Os33  1  0.500646  0.500150  0.000419  1
  Os  Os34  1  0.998519  0.499493  0.493289  1
  Os  Os35  1  0.500646  0.500150  0.499581  1
  Os  Os36  1  0.000454  0.000313  0.000181  1
  Os  Os37  1  0.000454  0.000313  0.499819  1
