# generated using pymatgen
data_Ba6LuSc(BO3)6
_symmetry_space_group_name_H-M   'P 1'
_cell_length_a   8.14773224
_cell_length_b   8.14773073
_cell_length_c   8.14773203
_cell_angle_alpha   105.81298928
_cell_angle_beta   105.81299018
_cell_angle_gamma   105.81299821
_symmetry_Int_Tables_number   1
_chemical_formula_structural   Ba6LuSc(BO3)6
_chemical_formula_sum   'Ba6 Lu1 Sc1 B6 O18'
_cell_volume   464.27425466
_cell_formula_units_Z   1
loop_
 _symmetry_equiv_pos_site_id
 _symmetry_equiv_pos_as_xyz
  1  'x, y, z'
loop_
 _atom_site_type_symbol
 _atom_site_label
 _atom_site_symmetry_multiplicity
 _atom_site_fract_x
 _atom_site_fract_y
 _atom_site_fract_z
 _atom_site_occupancy
  Ba  Ba0  1  0.347176  0.733807  0.836342  1
  Ba  Ba1  1  0.836342  0.347176  0.733807  1
  Ba  Ba2  1  0.733807  0.836342  0.347176  1
  Ba  Ba3  1  0.652824  0.266193  0.163658  1
  Ba  Ba4  1  0.163658  0.652824  0.266193  1
  Ba  Ba5  1  0.266193  0.163658  0.652824  1
  Lu  Lu6  1  0.000000  0.000000  0.000000  1
  Sc  Sc7  1  0.500000  0.500000  0.500000  1
  B  B8  1  0.373040  0.050712  0.289992  1
  B  B9  1  0.289992  0.373040  0.050712  1
  B  B10  1  0.050712  0.289992  0.373040  1
  B  B11  1  0.710008  0.626960  0.949288  1
  B  B12  1  0.949288  0.710008  0.626960  1
  B  B13  1  0.626960  0.949288  0.710008  1
  O  O14  1  0.426521  0.486878  0.224651  1
  O  O15  1  0.224651  0.426521  0.486878  1
  O  O16  1  0.815703  0.012755  0.746340  1
  O  O17  1  0.012755  0.746340  0.815703  1
  O  O18  1  0.746340  0.815703  0.012755  1
  O  O19  1  0.253660  0.184297  0.987245  1
  O  O20  1  0.184297  0.987245  0.253660  1
  O  O21  1  0.987245  0.253660  0.184297  1
  O  O22  1  0.550099  0.058923  0.798435  1
  O  O23  1  0.058923  0.798435  0.550099  1
  O  O24  1  0.798435  0.550099  0.058923  1
  O  O25  1  0.449901  0.941077  0.201565  1
  O  O26  1  0.941077  0.201565  0.449901  1
  O  O27  1  0.201565  0.449901  0.941077  1
  O  O28  1  0.513122  0.775349  0.573479  1
  O  O29  1  0.775349  0.573479  0.513122  1
  O  O30  1  0.573479  0.513122  0.775349  1
  O  O31  1  0.486878  0.224651  0.426521  1
