# generated using pymatgen
data_Zr10Co8Si19As
_symmetry_space_group_name_H-M   'P 1'
_cell_length_a   12.03536533
_cell_length_b   12.03536536
_cell_length_c   3.94103100
_cell_angle_alpha   90.00000000
_cell_angle_beta   90.00000000
_cell_angle_gamma   90.09140864
_symmetry_Int_Tables_number   1
_chemical_formula_structural   Zr10Co8Si19As
_chemical_formula_sum   'Zr10 Co8 Si19 As1'
_cell_volume   570.85768866
_cell_formula_units_Z   1
loop_
 _symmetry_equiv_pos_site_id
 _symmetry_equiv_pos_as_xyz
  1  'x, y, z'
loop_
 _atom_site_type_symbol
 _atom_site_label
 _atom_site_symmetry_multiplicity
 _atom_site_fract_x
 _atom_site_fract_y
 _atom_site_fract_z
 _atom_site_occupancy
  Zr  Zr0  1  0.000048  0.000244  0.000000  1
  Zr  Zr1  1  0.500244  0.500048  0.000000  1
  Zr  Zr2  1  0.680666  0.180666  0.500000  1
  Zr  Zr3  1  0.179177  0.321309  0.500000  1
  Zr  Zr4  1  0.821309  0.679177  0.500000  1
  Zr  Zr5  1  0.319927  0.819927  0.500000  1
  Zr  Zr6  1  0.887740  0.387740  0.500000  1
  Zr  Zr7  1  0.380659  0.116478  0.500000  1
  Zr  Zr8  1  0.616478  0.880659  0.500000  1
  Zr  Zr9  1  0.112818  0.612818  0.500000  1
  Co  Co10  1  0.526937  0.257962  0.000000  1
  Co  Co11  1  0.256672  0.472411  0.000000  1
  Co  Co12  1  0.743973  0.527422  0.000000  1
  Co  Co13  1  0.473607  0.743966  0.000000  1
  Co  Co14  1  0.972411  0.756672  0.000000  1
  Co  Co15  1  0.027422  0.243973  0.000000  1
  Co  Co16  1  0.757962  0.026937  0.000000  1
  Co  Co17  1  0.243966  0.973607  0.000000  1
  Si  Si18  1  0.068719  0.431743  0.000000  1
  Si  Si19  1  0.931743  0.568719  0.000000  1
  Si  Si20  1  0.428065  0.928065  0.000000  1
  Si  Si21  1  0.198974  0.154127  0.000000  1
  Si  Si22  1  0.153423  0.799934  0.000000  1
  Si  Si23  1  0.846874  0.201005  0.000000  1
  Si  Si24  1  0.800058  0.845715  0.000000  1
  Si  Si25  1  0.299934  0.653423  0.000000  1
  Si  Si26  1  0.701005  0.346874  0.000000  1
  Si  Si27  1  0.654127  0.698974  0.000000  1
  Si  Si28  1  0.345715  0.300058  0.000000  1
  Si  Si29  1  0.000518  0.165022  0.500000  1
  Si  Si30  1  0.163822  0.997594  0.500000  1
  Si  Si31  1  0.836749  0.002087  0.500000  1
  Si  Si32  1  0.000779  0.835237  0.500000  1
  Si  Si33  1  0.497594  0.663822  0.500000  1
  Si  Si34  1  0.502087  0.336749  0.500000  1
  Si  Si35  1  0.665022  0.500518  0.500000  1
  Si  Si36  1  0.335237  0.500779  0.500000  1
  As  As37  1  0.567533  0.067533  0.000000  1
