# generated using pymatgen
data_Zr6SiS2
_symmetry_space_group_name_H-M   'P 1'
_cell_length_a   3.66070500
_cell_length_b   12.48464000
_cell_length_c   15.22260700
_cell_angle_alpha   90.00000000
_cell_angle_beta   90.00000000
_cell_angle_gamma   90.00000000
_symmetry_Int_Tables_number   1
_chemical_formula_structural   Zr6SiS2
_chemical_formula_sum   'Zr24 Si4 S8'
_cell_volume   695.71247620
_cell_formula_units_Z   4
loop_
 _symmetry_equiv_pos_site_id
 _symmetry_equiv_pos_as_xyz
  1  'x, y, z'
loop_
 _atom_site_type_symbol
 _atom_site_label
 _atom_site_symmetry_multiplicity
 _atom_site_fract_x
 _atom_site_fract_y
 _atom_site_fract_z
 _atom_site_occupancy
  Zr  Zr0  1  0.000000  0.028045  0.108446  1
  Zr  Zr1  1  0.000000  0.971955  0.891554  1
  Zr  Zr2  1  0.500000  0.471955  0.608446  1
  Zr  Zr3  1  0.500000  0.528045  0.391554  1
  Zr  Zr4  1  0.000000  0.410617  0.246849  1
  Zr  Zr5  1  0.000000  0.589383  0.753151  1
  Zr  Zr6  1  0.500000  0.089383  0.746849  1
  Zr  Zr7  1  0.500000  0.910617  0.253151  1
  Zr  Zr8  1  0.000000  0.084840  0.577725  1
  Zr  Zr9  1  0.000000  0.915160  0.422275  1
  Zr  Zr10  1  0.500000  0.415160  0.077725  1
  Zr  Zr11  1  0.500000  0.584840  0.922275  1
  Zr  Zr12  1  0.000000  0.343664  0.477022  1
  Zr  Zr13  1  0.000000  0.656336  0.522978  1
  Zr  Zr14  1  0.500000  0.156336  0.977022  1
  Zr  Zr15  1  0.500000  0.843664  0.022978  1
  Zr  Zr16  1  0.000000  0.690164  0.289165  1
  Zr  Zr17  1  0.000000  0.309836  0.710835  1
  Zr  Zr18  1  0.500000  0.809836  0.789165  1
  Zr  Zr19  1  0.500000  0.190164  0.210835  1
  Zr  Zr20  1  0.000000  0.621531  0.082181  1
  Zr  Zr21  1  0.000000  0.378469  0.917819  1
  Zr  Zr22  1  0.500000  0.878469  0.582181  1
  Zr  Zr23  1  0.500000  0.121531  0.417819  1
  Si  Si24  1  0.000000  0.256052  0.089011  1
  Si  Si25  1  0.000000  0.743948  0.910989  1
  Si  Si26  1  0.500000  0.243948  0.589011  1
  Si  Si27  1  0.500000  0.756052  0.410989  1
  S  S28  1  0.000000  0.062167  0.289903  1
  S  S29  1  0.000000  0.937833  0.710097  1
  S  S30  1  0.500000  0.437833  0.789903  1
  S  S31  1  0.500000  0.562167  0.210097  1
  S  S32  1  0.000000  0.815640  0.150257  1
  S  S33  1  0.000000  0.184360  0.849743  1
  S  S34  1  0.500000  0.684360  0.650257  1
  S  S35  1  0.500000  0.315640  0.349743  1
