# generated using pymatgen
data_RbRuRh3O8
_symmetry_space_group_name_H-M   'P 1'
_cell_length_a   7.39899415
_cell_length_b   7.39899448
_cell_length_c   7.30813764
_cell_angle_alpha   92.53073654
_cell_angle_beta   92.77765094
_cell_angle_gamma   155.30187456
_symmetry_Int_Tables_number   1
_chemical_formula_structural   RbRuRh3O8
_chemical_formula_sum   'Rb1 Ru1 Rh3 O8'
_cell_volume   163.20417127
_cell_formula_units_Z   1
loop_
 _symmetry_equiv_pos_site_id
 _symmetry_equiv_pos_as_xyz
  1  'x, y, z'
loop_
 _atom_site_type_symbol
 _atom_site_label
 _atom_site_symmetry_multiplicity
 _atom_site_fract_x
 _atom_site_fract_y
 _atom_site_fract_z
 _atom_site_occupancy
  Rb  Rb0  1  0.002497  0.000485  0.002982  1
  Ru  Ru1  1  0.146452  0.661874  0.808326  1
  Rh  Rh2  1  0.333949  0.150633  0.484583  1
  Rh  Rh3  1  0.667288  0.850974  0.518261  1
  Rh  Rh4  1  0.851396  0.335178  0.186574  1
  O  O5  1  0.299574  0.348662  0.648238  1
  O  O6  1  0.702277  0.652816  0.355092  1
  O  O7  1  0.653772  0.293433  0.947205  1
  O  O8  1  0.342849  0.703135  0.045984  1
  O  O9  1  0.045573  0.339452  0.385026  1
  O  O10  1  0.957949  0.661902  0.619850  1
  O  O11  1  0.656760  0.045939  0.702699  1
  O  O12  1  0.339664  0.955516  0.295180  1
