# generated using pymatgen
data_Tm4TcNiRu6
_symmetry_space_group_name_H-M   'P 1'
_cell_length_a   5.21341161
_cell_length_b   5.32515315
_cell_length_c   8.85618100
_cell_angle_alpha   90.00000000
_cell_angle_beta   90.00000000
_cell_angle_gamma   121.82743318
_symmetry_Int_Tables_number   1
_chemical_formula_structural   Tm4TcNiRu6
_chemical_formula_sum   'Tm4 Tc1 Ni1 Ru6'
_cell_volume   208.89868170
_cell_formula_units_Z   1
loop_
 _symmetry_equiv_pos_site_id
 _symmetry_equiv_pos_as_xyz
  1  'x, y, z'
loop_
 _atom_site_type_symbol
 _atom_site_label
 _atom_site_symmetry_multiplicity
 _atom_site_fract_x
 _atom_site_fract_y
 _atom_site_fract_z
 _atom_site_occupancy
  Tm  Tm0  1  0.333141  0.664141  0.431603  1
  Tm  Tm1  1  0.660622  0.330231  0.562441  1
  Tm  Tm2  1  0.660622  0.330231  0.937559  1
  Tm  Tm3  1  0.333141  0.664141  0.068397  1
  Tc  Tc4  1  0.670762  0.836333  0.750000  1
  Ni  Ni5  1  0.832645  0.167057  0.250000  1
  Ru  Ru6  1  0.991448  0.993338  0.497478  1
  Ru  Ru7  1  0.991448  0.993338  0.002522  1
  Ru  Ru8  1  0.827499  0.662909  0.250000  1
  Ru  Ru9  1  0.344780  0.177124  0.250000  1
  Ru  Ru10  1  0.174350  0.830828  0.750000  1
  Ru  Ru11  1  0.179542  0.350329  0.750000  1
