# generated using pymatgen
data_Er10TlIn6HgPd4
_symmetry_space_group_name_H-M   'P 1'
_cell_length_a   3.62792400
_cell_length_b   8.07253529
_cell_length_c   18.13691646
_cell_angle_alpha   90.05269297
_cell_angle_beta   90.00000000
_cell_angle_gamma   90.00000000
_symmetry_Int_Tables_number   1
_chemical_formula_structural   Er10TlIn6HgPd4
_chemical_formula_sum   'Er10 Tl1 In6 Hg1 Pd4'
_cell_volume   531.16738693
_cell_formula_units_Z   1
loop_
 _symmetry_equiv_pos_site_id
 _symmetry_equiv_pos_as_xyz
  1  'x, y, z'
loop_
 _atom_site_type_symbol
 _atom_site_label
 _atom_site_symmetry_multiplicity
 _atom_site_fract_x
 _atom_site_fract_y
 _atom_site_fract_z
 _atom_site_occupancy
  Er  Er0  1  0.000000  0.500151  0.500172  1
  Er  Er1  1  0.000000  0.994486  0.997477  1
  Er  Er2  1  0.000000  0.742817  0.280174  1
  Er  Er3  1  0.000000  0.257160  0.719411  1
  Er  Er4  1  0.000000  0.757328  0.783762  1
  Er  Er5  1  0.000000  0.242826  0.219968  1
  Er  Er6  1  0.000000  0.615301  0.084056  1
  Er  Er7  1  0.000000  0.391149  0.914537  1
  Er  Er8  1  0.000000  0.881370  0.585418  1
  Er  Er9  1  0.000000  0.117285  0.415794  1
  Tl  Tl10  1  0.500000  0.289304  0.065486  1
  In  In11  1  0.500000  0.792208  0.433125  1
  In  In12  1  0.500000  0.206585  0.566934  1
  In  In13  1  0.500000  0.577896  0.649202  1
  In  In14  1  0.500000  0.422851  0.351173  1
  In  In15  1  0.500000  0.919825  0.148446  1
  In  In16  1  0.500000  0.081068  0.851437  1
  Hg  Hg17  1  0.500000  0.709913  0.933614  1
  Pd  Pd18  1  0.500000  0.527485  0.197141  1
  Pd  Pd19  1  0.500000  0.472960  0.802002  1
  Pd  Pd20  1  0.500000  0.974332  0.696967  1
  Pd  Pd21  1  0.500000  0.025701  0.303707  1
