# generated using pymatgen
data_Ho5Er6TmNi4
_symmetry_space_group_name_H-M   'P 1'
_cell_length_a   6.28819675
_cell_length_b   6.76844401
_cell_length_c   9.45604201
_cell_angle_alpha   89.99767702
_cell_angle_beta   90.02511280
_cell_angle_gamma   90.00413440
_symmetry_Int_Tables_number   1
_chemical_formula_structural   Ho5Er6TmNi4
_chemical_formula_sum   'Ho5 Er6 Tm1 Ni4'
_cell_volume   402.46147294
_cell_formula_units_Z   1
loop_
 _symmetry_equiv_pos_site_id
 _symmetry_equiv_pos_as_xyz
  1  'x, y, z'
loop_
 _atom_site_type_symbol
 _atom_site_label
 _atom_site_symmetry_multiplicity
 _atom_site_fract_x
 _atom_site_fract_y
 _atom_site_fract_z
 _atom_site_occupancy
  Ho  Ho0  1  0.179288  0.178458  0.434675  1
  Ho  Ho1  1  0.861297  0.532224  0.250014  1
  Ho  Ho2  1  0.638633  0.032128  0.249860  1
  Ho  Ho3  1  0.138536  0.467757  0.750014  1
  Ho  Ho4  1  0.361415  0.967697  0.750093  1
  Er  Er5  1  0.679105  0.321686  0.565742  1
  Er  Er6  1  0.820851  0.821571  0.934394  1
  Er  Er7  1  0.679157  0.321651  0.934400  1
  Er  Er8  1  0.820714  0.821604  0.565625  1
  Er  Er9  1  0.320951  0.678397  0.434614  1
  Er  Er10  1  0.179216  0.178396  0.065220  1
  Tm  Tm11  1  0.320778  0.678424  0.065445  1
  Ni  Ni12  1  0.055323  0.891717  0.249885  1
  Ni  Ni13  1  0.444783  0.392006  0.249921  1
  Ni  Ni14  1  0.944444  0.108146  0.750160  1
  Ni  Ni15  1  0.555507  0.608140  0.749938  1
