# generated using pymatgen
data_Ho16InHg3Pt4
_symmetry_space_group_name_H-M   'P 1'
_cell_length_a   9.59692012
_cell_length_b   9.58904277
_cell_length_c   9.59692776
_cell_angle_alpha   60.20151722
_cell_angle_beta   60.35376521
_cell_angle_gamma   60.20172809
_symmetry_Int_Tables_number   1
_chemical_formula_structural   Ho16InHg3Pt4
_chemical_formula_sum   'Ho16 In1 Hg3 Pt4'
_cell_volume   628.05248721
_cell_formula_units_Z   1
loop_
 _symmetry_equiv_pos_site_id
 _symmetry_equiv_pos_as_xyz
  1  'x, y, z'
loop_
 _atom_site_type_symbol
 _atom_site_label
 _atom_site_symmetry_multiplicity
 _atom_site_fract_x
 _atom_site_fract_y
 _atom_site_fract_z
 _atom_site_occupancy
  Ho  Ho0  1  0.188881  0.184242  0.813160  1
  Ho  Ho1  1  0.605866  0.606530  0.185656  1
  Ho  Ho2  1  0.440540  0.060751  0.440552  1
  Ho  Ho3  1  0.441899  0.439412  0.060245  1
  Ho  Ho4  1  0.815525  0.182780  0.815513  1
  Ho  Ho5  1  0.187959  0.810967  0.187971  1
  Ho  Ho6  1  0.440118  0.060342  0.060808  1
  Ho  Ho7  1  0.186275  0.813529  0.815915  1
  Ho  Ho8  1  0.060061  0.439194  0.060061  1
  Ho  Ho9  1  0.815898  0.813530  0.186278  1
  Ho  Ho10  1  0.185666  0.606528  0.605864  1
  Ho  Ho11  1  0.060252  0.439423  0.441881  1
  Ho  Ho12  1  0.060813  0.060344  0.440114  1
  Ho  Ho13  1  0.813154  0.184238  0.188890  1
  Ho  Ho14  1  0.606523  0.183353  0.606529  1
  Ho  Ho15  1  0.600654  0.601145  0.600659  1
  In  In16  1  0.830180  0.506290  0.830169  1
  Hg  Hg17  1  0.836279  0.836589  0.836249  1
  Hg  Hg18  1  0.835823  0.835953  0.489560  1
  Hg  Hg19  1  0.489558  0.835950  0.835831  1
  Pt  Pt20  1  0.391785  0.819911  0.391779  1
  Pt  Pt21  1  0.394757  0.395237  0.394768  1
  Pt  Pt22  1  0.819580  0.391885  0.391964  1
  Pt  Pt23  1  0.391957  0.391881  0.819585  1
