# generated using pymatgen
data_Tb3Tm5Np4O24
_symmetry_space_group_name_H-M   'P 1'
_cell_length_a   5.51022000
_cell_length_b   7.80593094
_cell_length_c   11.76513008
_cell_angle_alpha   73.75498100
_cell_angle_beta   90.00000000
_cell_angle_gamma   90.00000000
_symmetry_Int_Tables_number   1
_chemical_formula_structural   Tb3Tm5Np4O24
_chemical_formula_sum   'Tb3 Tm5 Np4 O24'
_cell_volume   485.84212253
_cell_formula_units_Z   1
loop_
 _symmetry_equiv_pos_site_id
 _symmetry_equiv_pos_as_xyz
  1  'x, y, z'
loop_
 _atom_site_type_symbol
 _atom_site_label
 _atom_site_symmetry_multiplicity
 _atom_site_fract_x
 _atom_site_fract_y
 _atom_site_fract_z
 _atom_site_occupancy
  Tb  Tb0  1  0.253721  0.000000  0.250000  1
  Tb  Tb1  1  0.698271  0.500000  0.750000  1
  Tb  Tb2  1  0.302855  0.500000  0.250000  1
  Tm  Tm3  1  0.745367  0.000000  0.750000  1
  Tm  Tm4  1  0.185720  0.795068  0.580622  1
  Tm  Tm5  1  0.813141  0.795266  0.079401  1
  Tm  Tm6  1  0.185720  0.204932  0.919378  1
  Tm  Tm7  1  0.813141  0.204734  0.420599  1
  Np  Np8  1  0.256176  0.722645  0.886529  1
  Np  Np9  1  0.744326  0.719890  0.388072  1
  Np  Np10  1  0.256176  0.277355  0.613471  1
  Np  Np11  1  0.744326  0.280110  0.111928  1
  O  O12  1  0.043301  0.946442  0.896316  1
  O  O13  1  0.557636  0.849877  0.931392  1
  O  O14  1  0.952827  0.944716  0.399042  1
  O  O15  1  0.451302  0.803201  0.725031  1
  O  O16  1  0.444096  0.846722  0.433860  1
  O  O17  1  0.964583  0.717909  0.765370  1
  O  O18  1  0.552009  0.799787  0.225949  1
  O  O19  1  0.879799  0.626483  0.556158  1
  O  O20  1  0.384253  0.480371  0.883824  1
  O  O21  1  0.034617  0.715788  0.265960  1
  O  O22  1  0.384253  0.519629  0.616176  1
  O  O23  1  0.879799  0.373517  0.943842  1
  O  O24  1  0.121393  0.629111  0.054986  1
  O  O25  1  0.614715  0.478115  0.385437  1
  O  O26  1  0.964583  0.282091  0.734630  1
  O  O27  1  0.614715  0.521885  0.114563  1
  O  O28  1  0.121393  0.370889  0.445014  1
  O  O29  1  0.451302  0.196799  0.774969  1
  O  O30  1  0.034617  0.284212  0.234040  1
  O  O31  1  0.557636  0.150123  0.568608  1
  O  O32  1  0.552009  0.200213  0.274051  1
  O  O33  1  0.043301  0.053558  0.603684  1
  O  O34  1  0.444096  0.153278  0.066140  1
  O  O35  1  0.952827  0.055284  0.100958  1
