# generated using pymatgen
data_Ho18ErTmBi12
_symmetry_space_group_name_H-M   'P 1'
_cell_length_a   8.22365602
_cell_length_b   9.50088200
_cell_length_c   11.99875202
_cell_angle_alpha   89.99891581
_cell_angle_beta   90.00623949
_cell_angle_gamma   90.00349766
_symmetry_Int_Tables_number   1
_chemical_formula_structural   Ho18ErTmBi12
_chemical_formula_sum   'Ho18 Er1 Tm1 Bi12'
_cell_volume   937.48631072
_cell_formula_units_Z   1
loop_
 _symmetry_equiv_pos_site_id
 _symmetry_equiv_pos_as_xyz
  1  'x, y, z'
loop_
 _atom_site_type_symbol
 _atom_site_label
 _atom_site_symmetry_multiplicity
 _atom_site_fract_x
 _atom_site_fract_y
 _atom_site_fract_z
 _atom_site_occupancy
  Ho  Ho0  1  0.353602  0.749992  0.216312  1
  Ho  Ho1  1  0.853517  0.749922  0.283631  1
  Ho  Ho2  1  0.646364  0.249971  0.783666  1
  Ho  Ho3  1  0.146375  0.250006  0.716318  1
  Ho  Ho4  1  0.308109  0.064220  0.941033  1
  Ho  Ho5  1  0.808091  0.435809  0.558957  1
  Ho  Ho6  1  0.308047  0.435807  0.940993  1
  Ho  Ho7  1  0.808060  0.064201  0.559006  1
  Ho  Ho8  1  0.691983  0.935652  0.058981  1
  Ho  Ho9  1  0.191963  0.564277  0.441001  1
  Ho  Ho10  1  0.476419  0.249951  0.488806  1
  Ho  Ho11  1  0.976401  0.250050  0.011185  1
  Ho  Ho12  1  0.523398  0.750058  0.511129  1
  Ho  Ho13  1  0.023307  0.749907  0.988883  1
  Ho  Ho14  1  0.314366  0.250001  0.218125  1
  Ho  Ho15  1  0.814389  0.250008  0.281875  1
  Ho  Ho16  1  0.685579  0.749934  0.781925  1
  Ho  Ho17  1  0.185589  0.750048  0.718092  1
  Er  Er18  1  0.191985  0.935525  0.441101  1
  Tm  Tm19  1  0.692015  0.564576  0.058989  1
  Bi  Bi20  1  0.405653  0.749823  0.957553  1
  Bi  Bi21  1  0.905589  0.750118  0.542461  1
  Bi  Bi22  1  0.594619  0.250536  0.042578  1
  Bi  Bi23  1  0.094573  0.249653  0.457434  1
  Bi  Bi24  1  0.566093  0.996158  0.325737  1
  Bi  Bi25  1  0.066057  0.503826  0.174233  1
  Bi  Bi26  1  0.433886  0.496182  0.674278  1
  Bi  Bi27  1  0.933856  0.003809  0.825731  1
  Bi  Bi28  1  0.433870  0.003831  0.674233  1
  Bi  Bi29  1  0.933874  0.496158  0.825789  1
  Bi  Bi30  1  0.566198  0.503832  0.325673  1
  Bi  Bi31  1  0.066178  0.996162  0.174291  1
