# generated using pymatgen
data_DyCr2BiF14
_symmetry_space_group_name_H-M   'P 1'
_cell_length_a   5.54957200
_cell_length_b   8.87858351
_cell_length_c   11.81417649
_cell_angle_alpha   62.90220076
_cell_angle_beta   90.00000000
_cell_angle_gamma   90.00000000
_symmetry_Int_Tables_number   1
_chemical_formula_structural   DyCr2BiF14
_chemical_formula_sum   'Dy2 Cr4 Bi2 F28'
_cell_volume   518.21383258
_cell_formula_units_Z   2
loop_
 _symmetry_equiv_pos_site_id
 _symmetry_equiv_pos_as_xyz
  1  'x, y, z'
loop_
 _atom_site_type_symbol
 _atom_site_label
 _atom_site_symmetry_multiplicity
 _atom_site_fract_x
 _atom_site_fract_y
 _atom_site_fract_z
 _atom_site_occupancy
  Dy  Dy0  1  0.233191  0.189103  0.234890  1
  Dy  Dy1  1  0.733191  0.810897  0.265110  1
  Cr  Cr2  1  0.757170  0.269696  0.961680  1
  Cr  Cr3  1  0.257170  0.730304  0.538320  1
  Cr  Cr4  1  0.241404  0.723705  0.048131  1
  Cr  Cr5  1  0.741404  0.276295  0.451869  1
  Bi  Bi6  1  0.772191  0.807837  0.765019  1
  Bi  Bi7  1  0.272191  0.192163  0.734981  1
  F  F8  1  0.424989  0.704819  0.926839  1
  F  F9  1  0.924989  0.295181  0.573161  1
  F  F10  1  0.566617  0.290679  0.081179  1
  F  F11  1  0.066617  0.709321  0.418821  1
  F  F12  1  0.452813  0.280996  0.538926  1
  F  F13  1  0.952813  0.719004  0.961074  1
  F  F14  1  0.545132  0.723586  0.452384  1
  F  F15  1  0.045132  0.276414  0.047616  1
  F  F16  1  0.773509  0.501126  0.867941  1
  F  F17  1  0.273509  0.498874  0.632059  1
  F  F18  1  0.230594  0.490959  0.139633  1
  F  F19  1  0.730594  0.509041  0.360367  1
  F  F20  1  0.755265  0.037979  0.049409  1
  F  F21  1  0.255265  0.962021  0.450591  1
  F  F22  1  0.244891  0.955642  0.957511  1
  F  F23  1  0.744891  0.044358  0.542489  1
  F  F24  1  0.974783  0.728185  0.629984  1
  F  F25  1  0.474783  0.271815  0.870016  1
  F  F26  1  0.020408  0.271246  0.360506  1
  F  F27  1  0.520408  0.728754  0.139494  1
  F  F28  1  0.051696  0.744629  0.170548  1
  F  F29  1  0.551696  0.255371  0.329452  1
  F  F30  1  0.937801  0.253584  0.835410  1
  F  F31  1  0.437801  0.746416  0.664590  1
  F  F32  1  0.416350  0.976128  0.228487  1
  F  F33  1  0.916350  0.023872  0.271513  1
  F  F34  1  0.601194  0.031534  0.775497  1
  F  F35  1  0.101194  0.968466  0.724503  1
