# generated using pymatgen
data_HfSc3(VP)4
_symmetry_space_group_name_H-M   'P 1'
_cell_length_a   3.48900400
_cell_length_b   6.61818332
_cell_length_c   7.86774151
_cell_angle_alpha   90.26189851
_cell_angle_beta   90.00000000
_cell_angle_gamma   90.00000000
_symmetry_Int_Tables_number   1
_chemical_formula_structural   HfSc3(VP)4
_chemical_formula_sum   'Hf1 Sc3 V4 P4'
_cell_volume   181.67108326
_cell_formula_units_Z   1
loop_
 _symmetry_equiv_pos_site_id
 _symmetry_equiv_pos_as_xyz
  1  'x, y, z'
loop_
 _atom_site_type_symbol
 _atom_site_label
 _atom_site_symmetry_multiplicity
 _atom_site_fract_x
 _atom_site_fract_y
 _atom_site_fract_z
 _atom_site_occupancy
  Hf  Hf0  1  0.750000  0.458934  0.333038  1
  Sc  Sc1  1  0.250000  0.041452  0.833110  1
  Sc  Sc2  1  0.250000  0.540698  0.666314  1
  Sc  Sc3  1  0.750000  0.958625  0.166762  1
  V  V4  1  0.250000  0.129003  0.443762  1
  V  V5  1  0.250000  0.625835  0.056633  1
  V  V6  1  0.750000  0.871733  0.555073  1
  V  V7  1  0.750000  0.375202  0.945987  1
  P  P8  1  0.250000  0.761858  0.361719  1
  P  P9  1  0.250000  0.259773  0.137256  1
  P  P10  1  0.750000  0.237942  0.638312  1
  P  P11  1  0.750000  0.738945  0.862033  1
