# generated using pymatgen
data_La8Be3Si12Au
_symmetry_space_group_name_H-M   'P 1'
_cell_length_a   8.10597800
_cell_length_b   8.10597761
_cell_length_c   8.88689000
_cell_angle_alpha   90.00000000
_cell_angle_beta   90.00000000
_cell_angle_gamma   119.99999342
_symmetry_Int_Tables_number   1
_chemical_formula_structural   La8Be3Si12Au
_chemical_formula_sum   'La8 Be3 Si12 Au1'
_cell_volume   505.69805787
_cell_formula_units_Z   1
loop_
 _symmetry_equiv_pos_site_id
 _symmetry_equiv_pos_as_xyz
  1  'x, y, z'
loop_
 _atom_site_type_symbol
 _atom_site_label
 _atom_site_symmetry_multiplicity
 _atom_site_fract_x
 _atom_site_fract_y
 _atom_site_fract_z
 _atom_site_occupancy
  La  La0  1  0.498385  0.501615  0.753187  1
  La  La1  1  0.498460  0.501540  0.246839  1
  La  La2  1  0.003230  0.501615  0.753187  1
  La  La3  1  0.003081  0.501540  0.246839  1
  La  La4  1  0.498385  0.996770  0.753187  1
  La  La5  1  0.498460  0.996919  0.246839  1
  La  La6  1  0.000000  0.000000  0.751111  1
  La  La7  1  0.000000  0.000000  0.248964  1
  Be  Be8  1  0.666667  0.333333  0.999136  1
  Be  Be9  1  0.333333  0.666667  0.000755  1
  Be  Be10  1  0.333333  0.666667  0.499549  1
  Si  Si11  1  0.827562  0.172438  0.000118  1
  Si  Si12  1  0.172275  0.827725  0.999984  1
  Si  Si13  1  0.344874  0.172438  0.000118  1
  Si  Si14  1  0.171959  0.828041  0.499910  1
  Si  Si15  1  0.655452  0.827725  0.999984  1
  Si  Si16  1  0.837623  0.162377  0.500125  1
  Si  Si17  1  0.827562  0.655126  0.000118  1
  Si  Si18  1  0.656081  0.828041  0.499910  1
  Si  Si19  1  0.172275  0.344548  0.999984  1
  Si  Si20  1  0.324756  0.162377  0.500125  1
  Si  Si21  1  0.171959  0.343919  0.499910  1
  Si  Si22  1  0.837623  0.675244  0.500125  1
  Au  Au23  1  0.666667  0.333333  0.500003  1
