# generated using pymatgen
data_Nd4YIn3Br
_symmetry_space_group_name_H-M   'P 1'
_cell_length_a   9.54808700
_cell_length_b   9.54808734
_cell_length_c   6.78377600
_cell_angle_alpha   90.00000000
_cell_angle_beta   90.00000000
_cell_angle_gamma   120.00000230
_symmetry_Int_Tables_number   1
_chemical_formula_structural   Nd4YIn3Br
_chemical_formula_sum   'Nd8 Y2 In6 Br2'
_cell_volume   535.59297392
_cell_formula_units_Z   2
loop_
 _symmetry_equiv_pos_site_id
 _symmetry_equiv_pos_as_xyz
  1  'x, y, z'
loop_
 _atom_site_type_symbol
 _atom_site_label
 _atom_site_symmetry_multiplicity
 _atom_site_fract_x
 _atom_site_fract_y
 _atom_site_fract_z
 _atom_site_occupancy
  Nd  Nd0  1  0.732959  0.732959  0.252256  1
  Nd  Nd1  1  0.000000  0.732959  0.747744  1
  Nd  Nd2  1  0.732959  0.000000  0.747744  1
  Nd  Nd3  1  0.267041  0.267041  0.747744  1
  Nd  Nd4  1  0.000000  0.267041  0.252256  1
  Nd  Nd5  1  0.267041  0.000000  0.252256  1
  Nd  Nd6  1  0.333333  0.666667  0.000000  1
  Nd  Nd7  1  0.666667  0.333333  0.000000  1
  Y  Y8  1  0.333333  0.666667  0.500000  1
  Y  Y9  1  0.666667  0.333333  0.500000  1
  In  In10  1  0.393193  0.000000  0.746063  1
  In  In11  1  0.000000  0.606807  0.253937  1
  In  In12  1  0.606807  0.000000  0.253937  1
  In  In13  1  0.000000  0.393193  0.746063  1
  In  In14  1  0.393193  0.393193  0.253937  1
  In  In15  1  0.606807  0.606807  0.746063  1
  Br  Br16  1  0.000000  0.000000  0.500000  1
  Br  Br17  1  0.000000  0.000000  0.000000  1
