# generated using pymatgen
data_Dy5VNiP12Ir17
_symmetry_space_group_name_H-M   'P 1'
_cell_length_a   12.61349803
_cell_length_b   12.77886656
_cell_length_c   3.97125300
_cell_angle_alpha   90.00000000
_cell_angle_beta   90.00000000
_cell_angle_gamma   120.20939073
_symmetry_Int_Tables_number   1
_chemical_formula_structural   Dy5VNiP12Ir17
_chemical_formula_sum   'Dy5 V1 Ni1 P12 Ir17'
_cell_volume   553.17921038
_cell_formula_units_Z   1
loop_
 _symmetry_equiv_pos_site_id
 _symmetry_equiv_pos_as_xyz
  1  'x, y, z'
loop_
 _atom_site_type_symbol
 _atom_site_label
 _atom_site_symmetry_multiplicity
 _atom_site_fract_x
 _atom_site_fract_y
 _atom_site_fract_z
 _atom_site_occupancy
  Dy  Dy0  1  0.330292  0.663465  0.500000  1
  Dy  Dy1  1  0.671769  0.337674  0.500000  1
  Dy  Dy2  1  0.000603  0.811928  0.000000  1
  Dy  Dy3  1  0.186734  0.188533  0.000000  1
  Dy  Dy4  1  0.816459  0.003548  0.000000  1
  V  V5  1  0.000176  0.450019  0.500000  1
  Ni  Ni6  1  0.533958  0.538445  0.500000  1
  P  P7  1  0.998992  0.631614  0.500000  1
  P  P8  1  0.365238  0.363671  0.500000  1
  P  P9  1  0.643356  0.998817  0.500000  1
  P  P10  1  0.514997  0.687126  0.000000  1
  P  P11  1  0.310036  0.825709  0.000000  1
  P  P12  1  0.164158  0.481892  0.000000  1
  P  P13  1  0.485171  0.176992  0.000000  1
  P  P14  1  0.686350  0.518376  0.000000  1
  P  P15  1  0.835115  0.319717  0.000000  1
  P  P16  1  0.999723  0.174984  0.500000  1
  P  P17  1  0.819921  0.819845  0.500000  1
  P  P18  1  0.179070  0.998851  0.500000  1
  Ir  Ir19  1  0.508172  0.870014  0.000000  1
  Ir  Ir20  1  0.129120  0.639207  0.000000  1
  Ir  Ir21  1  0.355926  0.494704  0.000000  1
  Ir  Ir22  1  0.488959  0.361226  0.000000  1
  Ir  Ir23  1  0.869625  0.510905  0.000000  1
  Ir  Ir24  1  0.642494  0.138968  0.000000  1
  Ir  Ir25  1  0.463984  0.002785  0.500000  1
  Ir  Ir26  1  0.998646  0.285929  0.000000  1
  Ir  Ir27  1  0.713812  0.715590  0.000000  1
  Ir  Ir28  1  0.289086  0.999553  0.000000  1
  Ir  Ir29  1  0.621154  0.804076  0.500000  1
  Ir  Ir30  1  0.197866  0.821420  0.500000  1
  Ir  Ir31  1  0.178863  0.369230  0.500000  1
  Ir  Ir32  1  0.377525  0.178990  0.500000  1
  Ir  Ir33  1  0.803483  0.625543  0.500000  1
  Ir  Ir34  1  0.819460  0.193602  0.500000  1
  Ir  Ir35  1  0.999703  0.997052  0.500000  1
