# generated using pymatgen
data_Y3Sc2AlSi2Os
_symmetry_space_group_name_H-M   'P 1'
_cell_length_a   7.29550993
_cell_length_b   7.26992944
_cell_length_c   4.23734900
_cell_angle_alpha   90.00000000
_cell_angle_beta   90.00000000
_cell_angle_gamma   119.88407469
_symmetry_Int_Tables_number   1
_chemical_formula_structural   Y3Sc2AlSi2Os
_chemical_formula_sum   'Y3 Sc2 Al1 Si2 Os1'
_cell_volume   194.85737534
_cell_formula_units_Z   1
loop_
 _symmetry_equiv_pos_site_id
 _symmetry_equiv_pos_as_xyz
  1  'x, y, z'
loop_
 _atom_site_type_symbol
 _atom_site_label
 _atom_site_symmetry_multiplicity
 _atom_site_fract_x
 _atom_site_fract_y
 _atom_site_fract_z
 _atom_site_occupancy
  Y  Y0  1  0.407451  0.992483  0.000000  1
  Y  Y1  1  0.000000  0.424232  0.000000  1
  Y  Y2  1  0.592549  0.585031  0.000000  1
  Sc  Sc3  1  0.762458  0.996886  0.500001  1
  Sc  Sc4  1  0.237541  0.234428  0.500001  1
  Al  Al5  1  0.000000  0.761519  0.500001  1
  Si  Si6  1  0.671934  0.339646  0.500001  1
  Si  Si7  1  0.328065  0.667711  0.500001  1
  Os  Os8  1  0.000000  0.998064  0.000000  1
