# generated using pymatgen
data_Pa8Ta12Si15Pd
_symmetry_space_group_name_H-M   'P 1'
_cell_length_a   7.09005813
_cell_length_b   7.06922465
_cell_length_c   13.06444400
_cell_angle_alpha   89.92922748
_cell_angle_beta   89.76798165
_cell_angle_gamma   89.98413580
_symmetry_Int_Tables_number   1
_chemical_formula_structural   Pa8Ta12Si15Pd
_chemical_formula_sum   'Pa8 Ta12 Si15 Pd1'
_cell_volume   654.79989766
_cell_formula_units_Z   1
loop_
 _symmetry_equiv_pos_site_id
 _symmetry_equiv_pos_as_xyz
  1  'x, y, z'
loop_
 _atom_site_type_symbol
 _atom_site_label
 _atom_site_symmetry_multiplicity
 _atom_site_fract_x
 _atom_site_fract_y
 _atom_site_fract_z
 _atom_site_occupancy
  Pa  Pa0  1  0.001120  0.663652  0.030878  1
  Pa  Pa1  1  0.000885  0.340452  0.531280  1
  Pa  Pa2  1  0.663034  0.000349  0.969115  1
  Pa  Pa3  1  0.162256  0.499932  0.781485  1
  Pa  Pa4  1  0.833196  0.498149  0.282426  1
  Pa  Pa5  1  0.504173  0.164896  0.218498  1
  Pa  Pa6  1  0.498694  0.836932  0.717911  1
  Pa  Pa7  1  0.336440  0.000281  0.469018  1
  Ta  Ta8  1  0.351067  0.493732  0.373411  1
  Ta  Ta9  1  0.835145  0.005001  0.370056  1
  Ta  Ta10  1  0.000041  0.157486  0.124547  1
  Ta  Ta11  1  0.997824  0.839780  0.633389  1
  Ta  Ta12  1  0.658737  0.499774  0.876342  1
  Ta  Ta13  1  0.496676  0.340155  0.624722  1
  Ta  Ta14  1  0.499883  0.659865  0.124131  1
  Ta  Ta15  1  0.158421  0.999803  0.875178  1
  Ta  Ta16  1  0.660379  0.669772  0.502744  1
  Ta  Ta17  1  0.830604  0.168904  0.749863  1
  Ta  Ta18  1  0.173340  0.835000  0.244581  1
  Ta  Ta19  1  0.330759  0.331727  0.999513  1
  Si  Si20  1  0.959350  0.291315  0.935136  1
  Si  Si21  1  0.711090  0.040679  0.563928  1
  Si  Si22  1  0.207799  0.458480  0.185618  1
  Si  Si23  1  0.788261  0.539196  0.685429  1
  Si  Si24  1  0.458752  0.207707  0.814571  1
  Si  Si25  1  0.539966  0.790847  0.315097  1
  Si  Si26  1  0.292703  0.960926  0.063702  1
  Si  Si27  1  0.871819  0.793652  0.819722  1
  Si  Si28  1  0.128633  0.204525  0.316923  1
  Si  Si29  1  0.795301  0.871170  0.181742  1
  Si  Si30  1  0.295867  0.626854  0.567379  1
  Si  Si31  1  0.705841  0.373854  0.066923  1
  Si  Si32  1  0.629456  0.294115  0.434811  1
  Si  Si33  1  0.372127  0.705438  0.931842  1
  Si  Si34  1  0.204309  0.127492  0.681795  1
  Pd  Pd35  1  0.046052  0.708106  0.436288  1
