# generated using pymatgen
data_Dy11YCo4BiRu
_symmetry_space_group_name_H-M   'P 1'
_cell_length_a   8.34014828
_cell_length_b   8.34014804
_cell_length_c   8.33236355
_cell_angle_alpha   111.06666474
_cell_angle_beta   110.48343907
_cell_angle_gamma   106.93410752
_symmetry_Int_Tables_number   1
_chemical_formula_structural   Dy11YCo4BiRu
_chemical_formula_sum   'Dy11 Y1 Co4 Bi1 Ru1'
_cell_volume   445.27005303
_cell_formula_units_Z   1
loop_
 _symmetry_equiv_pos_site_id
 _symmetry_equiv_pos_as_xyz
  1  'x, y, z'
loop_
 _atom_site_type_symbol
 _atom_site_label
 _atom_site_symmetry_multiplicity
 _atom_site_fract_x
 _atom_site_fract_y
 _atom_site_fract_z
 _atom_site_occupancy
  Dy  Dy0  1  0.182364  0.286360  0.468724  1
  Dy  Dy1  1  0.182222  0.713387  0.895608  1
  Dy  Dy2  1  0.817824  0.286501  0.104326  1
  Dy  Dy3  1  0.688145  0.379100  0.691092  1
  Dy  Dy4  1  0.311518  0.620689  0.308810  1
  Dy  Dy5  1  0.688121  0.997291  0.308810  1
  Dy  Dy6  1  0.311993  0.002948  0.691092  1
  Dy  Dy7  1  0.593935  0.789674  0.804612  1
  Dy  Dy8  1  0.405689  0.210130  0.195343  1
  Dy  Dy9  1  0.985213  0.789654  0.195343  1
  Dy  Dy10  1  0.014938  0.210675  0.804612  1
  Y  Y11  1  0.816727  0.713729  0.530456  1
  Co  Co12  1  0.623539  0.000022  0.623561  1
  Co  Co13  1  0.376382  0.000064  0.376446  1
  Co  Co14  1  0.111586  0.610596  0.500196  1
  Co  Co15  1  0.889600  0.388610  0.500196  1
  Bi  Bi16  1  0.500134  0.500115  0.000249  1
  Ru  Ru17  1  0.000071  0.000453  0.000524  1
