# generated using pymatgen
data_Ac8YPd6
_symmetry_space_group_name_H-M   'P 1'
_cell_length_a   8.08345689
_cell_length_b   8.08345673
_cell_length_c   8.08345590
_cell_angle_alpha   72.75304267
_cell_angle_beta   72.75303369
_cell_angle_gamma   72.75304732
_symmetry_Int_Tables_number   1
_chemical_formula_structural   Ac8YPd6
_chemical_formula_sum   'Ac8 Y1 Pd6'
_cell_volume   468.99309667
_cell_formula_units_Z   1
loop_
 _symmetry_equiv_pos_site_id
 _symmetry_equiv_pos_as_xyz
  1  'x, y, z'
loop_
 _atom_site_type_symbol
 _atom_site_label
 _atom_site_symmetry_multiplicity
 _atom_site_fract_x
 _atom_site_fract_y
 _atom_site_fract_z
 _atom_site_occupancy
  Ac  Ac0  1  0.796643  0.796643  0.796643  1
  Ac  Ac1  1  0.203357  0.203357  0.203357  1
  Ac  Ac2  1  0.325886  0.620891  0.832707  1
  Ac  Ac3  1  0.832707  0.325886  0.620891  1
  Ac  Ac4  1  0.620891  0.832707  0.325886  1
  Ac  Ac5  1  0.674114  0.379109  0.167293  1
  Ac  Ac6  1  0.167293  0.674114  0.379109  1
  Ac  Ac7  1  0.379109  0.167293  0.674114  1
  Y  Y8  1  0.000000  0.000000  0.000000  1
  Pd  Pd9  1  0.143735  0.964826  0.600748  1
  Pd  Pd10  1  0.600748  0.143735  0.964826  1
  Pd  Pd11  1  0.964826  0.600748  0.143735  1
  Pd  Pd12  1  0.856265  0.035174  0.399252  1
  Pd  Pd13  1  0.399252  0.856265  0.035174  1
  Pd  Pd14  1  0.035174  0.399252  0.856265  1
