# generated using pymatgen
data_Yb6URuO12
_symmetry_space_group_name_H-M   'P 1'
_cell_length_a   6.57388102
_cell_length_b   6.57388246
_cell_length_c   6.57388121
_cell_angle_alpha   93.20570900
_cell_angle_beta   93.20571140
_cell_angle_gamma   93.20570610
_symmetry_Int_Tables_number   1
_chemical_formula_structural   Yb6URuO12
_chemical_formula_sum   'Yb6 U1 Ru1 O12'
_cell_volume   282.71065097
_cell_formula_units_Z   1
loop_
 _symmetry_equiv_pos_site_id
 _symmetry_equiv_pos_as_xyz
  1  'x, y, z'
loop_
 _atom_site_type_symbol
 _atom_site_label
 _atom_site_symmetry_multiplicity
 _atom_site_fract_x
 _atom_site_fract_y
 _atom_site_fract_z
 _atom_site_occupancy
  Yb  Yb0  1  0.925764  0.432598  0.736353  1
  Yb  Yb1  1  0.736353  0.925764  0.432598  1
  Yb  Yb2  1  0.567402  0.263647  0.074236  1
  Yb  Yb3  1  0.263647  0.074236  0.567402  1
  Yb  Yb4  1  0.074236  0.567402  0.263647  1
  Yb  Yb5  1  0.432598  0.736353  0.925764  1
  U  U6  1  0.000000  0.000000  0.000000  1
  Ru  Ru7  1  0.500000  0.500000  0.500000  1
  O  O8  1  0.301185  0.064863  0.925785  1
  O  O9  1  0.064863  0.925785  0.301185  1
  O  O10  1  0.925785  0.301185  0.064863  1
  O  O11  1  0.698815  0.935137  0.074215  1
  O  O12  1  0.935137  0.074215  0.698815  1
  O  O13  1  0.074215  0.698815  0.935137  1
  O  O14  1  0.215926  0.418667  0.545183  1
  O  O15  1  0.418667  0.545183  0.215926  1
  O  O16  1  0.454817  0.784074  0.581333  1
  O  O17  1  0.581333  0.454817  0.784074  1
  O  O18  1  0.784074  0.581333  0.454817  1
  O  O19  1  0.545183  0.215926  0.418667  1
