# generated using pymatgen
data_TbY3(Ga5Co3)2
_symmetry_space_group_name_H-M   'P 1'
_cell_length_a   8.35099813
_cell_length_b   8.35182048
_cell_length_c   5.54503252
_cell_angle_alpha   70.60403702
_cell_angle_beta   70.59365116
_cell_angle_gamma   96.41925981
_symmetry_Int_Tables_number   1
_chemical_formula_structural   TbY3(Ga5Co3)2
_chemical_formula_sum   'Tb1 Y3 Ga10 Co6'
_cell_volume   333.17034634
_cell_formula_units_Z   1
loop_
 _symmetry_equiv_pos_site_id
 _symmetry_equiv_pos_as_xyz
  1  'x, y, z'
loop_
 _atom_site_type_symbol
 _atom_site_label
 _atom_site_symmetry_multiplicity
 _atom_site_fract_x
 _atom_site_fract_y
 _atom_site_fract_z
 _atom_site_occupancy
  Tb  Tb0  1  0.867599  0.581042  0.276669  1
  Y  Y1  1  0.581216  0.867602  0.776579  1
  Y  Y2  1  0.132489  0.418724  0.723397  1
  Y  Y3  1  0.418660  0.132353  0.223514  1
  Ga  Ga4  1  0.499432  0.500310  0.750342  1
  Ga  Ga5  1  0.500049  0.499713  0.249906  1
  Ga  Ga6  1  0.262755  0.094001  0.820890  1
  Ga  Ga7  1  0.906127  0.737417  0.678992  1
  Ga  Ga8  1  0.737272  0.905944  0.179127  1
  Ga  Ga9  1  0.094159  0.263135  0.320615  1
  Ga  Ga10  1  0.794705  0.205155  0.750023  1
  Ga  Ga11  1  0.205398  0.794613  0.249958  1
  Ga  Ga12  1  0.205800  0.794206  0.750040  1
  Ga  Ga13  1  0.794272  0.205581  0.250110  1
  Co  Co14  1  0.562889  0.265135  0.586717  1
  Co  Co15  1  0.734920  0.437214  0.913199  1
  Co  Co16  1  0.437132  0.734743  0.413345  1
  Co  Co17  1  0.264988  0.562936  0.086750  1
  Co  Co18  1  0.000076  0.000103  0.749704  1
  Co  Co19  1  0.000061  0.000073  0.250123  1
