# generated using pymatgen
data_Tb16Tl3InRu3Au
_symmetry_space_group_name_H-M   'P 1'
_cell_length_a   9.73946850
_cell_length_b   9.75888547
_cell_length_c   9.75887901
_cell_angle_alpha   59.99986584
_cell_angle_beta   59.92959277
_cell_angle_gamma   59.97357070
_symmetry_Int_Tables_number   1
_chemical_formula_structural   Tb16Tl3InRu3Au
_chemical_formula_sum   'Tb16 Tl3 In1 Ru3 Au1'
_cell_volume   655.39273658
_cell_formula_units_Z   1
loop_
 _symmetry_equiv_pos_site_id
 _symmetry_equiv_pos_as_xyz
  1  'x, y, z'
loop_
 _atom_site_type_symbol
 _atom_site_label
 _atom_site_symmetry_multiplicity
 _atom_site_fract_x
 _atom_site_fract_y
 _atom_site_fract_z
 _atom_site_occupancy
  Tb  Tb0  1  0.811837  0.810698  0.188740  1
  Tb  Tb1  1  0.812736  0.178441  0.808185  1
  Tb  Tb2  1  0.201310  0.177697  0.810504  1
  Tb  Tb3  1  0.651644  0.043235  0.652564  1
  Tb  Tb4  1  0.057131  0.061910  0.440482  1
  Tb  Tb5  1  0.434765  0.445144  0.060042  1
  Tb  Tb6  1  0.645731  0.657892  0.645833  1
  Tb  Tb7  1  0.812715  0.178420  0.200686  1
  Tb  Tb8  1  0.190171  0.811639  0.809598  1
  Tb  Tb9  1  0.051228  0.657520  0.645621  1
  Tb  Tb10  1  0.439484  0.061870  0.058744  1
  Tb  Tb11  1  0.439437  0.061874  0.439922  1
  Tb  Tb12  1  0.059040  0.444374  0.061793  1
  Tb  Tb13  1  0.645714  0.657914  0.050556  1
  Tb  Tb14  1  0.190169  0.811657  0.188591  1
  Tb  Tb15  1  0.059038  0.444368  0.434766  1
  Tl  Tl16  1  0.416762  0.414310  0.414576  1
  Tl  Tl17  1  0.416779  0.414302  0.754325  1
  Tl  Tl18  1  0.415179  0.758649  0.413118  1
  In  In19  1  0.747321  0.416999  0.417775  1
  Ru  Ru20  1  0.859486  0.855185  0.860676  1
  Ru  Ru21  1  0.859535  0.855112  0.424648  1
  Ru  Ru22  1  0.425417  0.854964  0.859818  1
  Au  Au23  1  0.857375  0.425818  0.858437  1
