# generated using pymatgen
data_Y3ErGa18Co5Pd
_symmetry_space_group_name_H-M   'P 1'
_cell_length_a   7.41492621
_cell_length_b   7.41631706
_cell_length_c   9.43617535
_cell_angle_alpha   90.15730555
_cell_angle_beta   90.14738728
_cell_angle_gamma   119.62376680
_symmetry_Int_Tables_number   1
_chemical_formula_structural   Y3ErGa18Co5Pd
_chemical_formula_sum   'Y3 Er1 Ga18 Co5 Pd1'
_cell_volume   451.07599529
_cell_formula_units_Z   1
loop_
 _symmetry_equiv_pos_site_id
 _symmetry_equiv_pos_as_xyz
  1  'x, y, z'
loop_
 _atom_site_type_symbol
 _atom_site_label
 _atom_site_symmetry_multiplicity
 _atom_site_fract_x
 _atom_site_fract_y
 _atom_site_fract_z
 _atom_site_occupancy
  Y  Y0  1  0.502547  0.826135  0.751308  1
  Y  Y1  1  0.497560  0.173900  0.248629  1
  Y  Y2  1  0.173549  0.497291  0.248713  1
  Er  Er3  1  0.826075  0.502529  0.751482  1
  Ga  Ga4  1  0.162929  0.944699  0.751501  1
  Ga  Ga5  1  0.836221  0.053933  0.248359  1
  Ga  Ga6  1  0.054005  0.836022  0.248505  1
  Ga  Ga7  1  0.945694  0.164614  0.751582  1
  Ga  Ga8  1  0.631487  0.631313  0.241674  1
  Ga  Ga9  1  0.369439  0.368731  0.758249  1
  Ga  Ga10  1  0.166685  0.166708  0.055535  1
  Ga  Ga11  1  0.843601  0.842816  0.563275  1
  Ga  Ga12  1  0.833242  0.832611  0.943091  1
  Ga  Ga13  1  0.156331  0.156234  0.438103  1
  Ga  Ga14  1  0.498606  0.835774  0.071601  1
  Ga  Ga15  1  0.499757  0.155953  0.576842  1
  Ga  Ga16  1  0.163419  0.501489  0.927514  1
  Ga  Ga17  1  0.844863  0.501136  0.424872  1
  Ga  Ga18  1  0.502306  0.164931  0.927560  1
  Ga  Ga19  1  0.500910  0.844915  0.424095  1
  Ga  Ga20  1  0.835753  0.498557  0.070815  1
  Ga  Ga21  1  0.154414  0.499398  0.576896  1
  Co  Co22  1  0.170961  0.829052  0.999658  1
  Co  Co23  1  0.500243  0.500184  0.999547  1
  Co  Co24  1  0.828984  0.170998  0.500350  1
  Co  Co25  1  0.828991  0.170922  0.999696  1
  Co  Co26  1  0.171105  0.829118  0.500333  1
  Pd  Pd27  1  0.500323  0.500039  0.500215  1
