# generated using pymatgen
data_SrMo2P6Pb3O22
_symmetry_space_group_name_H-M   'P 1'
_cell_length_a   7.18603200
_cell_length_b   6.64555787
_cell_length_c   20.38172774
_cell_angle_alpha   80.30058260
_cell_angle_beta   90.00000000
_cell_angle_gamma   90.00000000
_symmetry_Int_Tables_number   1
_chemical_formula_structural   SrMo2P6Pb3O22
_chemical_formula_sum   'Sr2 Mo4 P12 Pb6 O44'
_cell_volume   959.41968924
_cell_formula_units_Z   2
loop_
 _symmetry_equiv_pos_site_id
 _symmetry_equiv_pos_as_xyz
  1  'x, y, z'
loop_
 _atom_site_type_symbol
 _atom_site_label
 _atom_site_symmetry_multiplicity
 _atom_site_fract_x
 _atom_site_fract_y
 _atom_site_fract_z
 _atom_site_occupancy
  Sr  Sr0  1  0.475496  0.329747  0.771078  1
  Sr  Sr1  1  0.975496  0.670253  0.728922  1
  Mo  Mo2  1  0.630483  0.050228  0.622737  1
  Mo  Mo3  1  0.870176  0.050622  0.122173  1
  Mo  Mo4  1  0.370176  0.949378  0.377827  1
  Mo  Mo5  1  0.130483  0.949772  0.877263  1
  P  P6  1  0.466567  0.816863  0.773099  1
  P  P7  1  0.355089  0.429274  0.411297  1
  P  P8  1  0.855089  0.570726  0.088703  1
  P  P9  1  0.806403  0.183894  0.954165  1
  P  P10  1  0.145747  0.429704  0.910788  1
  P  P11  1  0.966567  0.183137  0.726901  1
  P  P12  1  0.306403  0.816106  0.545835  1
  P  P13  1  0.032991  0.817194  0.273324  1
  P  P14  1  0.532991  0.182806  0.226676  1
  P  P15  1  0.693215  0.184009  0.454833  1
  P  P16  1  0.645747  0.570296  0.589212  1
  P  P17  1  0.193215  0.815991  0.045167  1
  Pb  Pb18  1  0.118704  0.325403  0.576376  1
  Pb  Pb19  1  0.618704  0.674597  0.923624  1
  Pb  Pb20  1  0.381750  0.326368  0.075659  1
  Pb  Pb21  1  0.518902  0.668677  0.228858  1
  Pb  Pb22  1  0.881750  0.673632  0.424341  1
  Pb  Pb23  1  0.018902  0.331323  0.271142  1
  O  O24  1  0.015971  0.993631  0.779766  1
  O  O25  1  0.171022  0.676409  0.589175  1
  O  O26  1  0.237802  0.890507  0.474638  1
  O  O27  1  0.671022  0.323591  0.910825  1
  O  O28  1  0.859894  0.684515  0.297130  1
  O  O29  1  0.261988  0.891635  0.974076  1
  O  O30  1  0.813913  0.529267  0.547884  1
  O  O31  1  0.186222  0.470402  0.452257  1
  O  O32  1  0.761988  0.108365  0.525924  1
  O  O33  1  0.313913  0.470733  0.952116  1
  O  O34  1  0.515971  0.006369  0.720234  1
  O  O35  1  0.139966  0.315898  0.703431  1
  O  O36  1  0.101506  0.910077  0.335397  1
  O  O37  1  0.679290  0.320440  0.252012  1
  O  O38  1  0.601506  0.089923  0.164603  1
  O  O39  1  0.188306  0.279296  0.862287  1
  O  O40  1  0.494967  0.683928  0.536272  1
  O  O41  1  0.316580  0.277667  0.363099  1
  O  O42  1  0.737802  0.109493  0.025362  1
  O  O43  1  0.554958  0.371427  0.625676  1
  O  O44  1  0.688306  0.720704  0.637713  1
  O  O45  1  0.900419  0.085925  0.664923  1
  O  O46  1  0.005402  0.682918  0.035169  1
  O  O47  1  0.359894  0.315485  0.202870  1
  O  O48  1  0.484287  0.994127  0.279952  1
  O  O49  1  0.366756  0.997265  0.579513  1
  O  O50  1  0.984287  0.005873  0.220048  1
  O  O51  1  0.054958  0.628573  0.874324  1
  O  O52  1  0.318793  0.680344  0.749112  1
  O  O53  1  0.633357  0.003360  0.420827  1
  O  O54  1  0.818793  0.319656  0.750888  1
  O  O55  1  0.639966  0.684102  0.796569  1
  O  O56  1  0.866756  0.002735  0.920487  1
  O  O57  1  0.994967  0.316072  0.963728  1
  O  O58  1  0.505402  0.317082  0.464831  1
  O  O59  1  0.444894  0.628765  0.374537  1
  O  O60  1  0.816580  0.722333  0.136901  1
  O  O61  1  0.686222  0.529598  0.047743  1
  O  O62  1  0.328183  0.675555  0.088302  1
  O  O63  1  0.179290  0.679560  0.247988  1
  O  O64  1  0.133357  0.996640  0.079173  1
  O  O65  1  0.944894  0.371235  0.125463  1
  O  O66  1  0.828183  0.324445  0.411698  1
  O  O67  1  0.400419  0.914075  0.835077  1
