# generated using pymatgen
data_Th3Sc2(Ge5Rh2)2
_symmetry_space_group_name_H-M   'P 1'
_cell_length_a   13.03666700
_cell_length_b   13.03666700
_cell_length_c   4.34355000
_cell_angle_alpha   90.00000000
_cell_angle_beta   90.00000000
_cell_angle_gamma   90.00000000
_symmetry_Int_Tables_number   1
_chemical_formula_structural   Th3Sc2(Ge5Rh2)2
_chemical_formula_sum   'Th6 Sc4 Ge20 Rh8'
_cell_volume   738.20667841
_cell_formula_units_Z   2
loop_
 _symmetry_equiv_pos_site_id
 _symmetry_equiv_pos_as_xyz
  1  'x, y, z'
loop_
 _atom_site_type_symbol
 _atom_site_label
 _atom_site_symmetry_multiplicity
 _atom_site_fract_x
 _atom_site_fract_y
 _atom_site_fract_z
 _atom_site_occupancy
  Th  Th0  1  0.112547  0.612547  0.500000  1
  Th  Th1  1  0.612547  0.887453  0.500000  1
  Th  Th2  1  0.387453  0.112547  0.500000  1
  Th  Th3  1  0.887453  0.387453  0.500000  1
  Th  Th4  1  0.500000  0.500000  0.000000  1
  Th  Th5  1  0.000000  0.000000  0.000000  1
  Sc  Sc6  1  0.326601  0.826601  0.500000  1
  Sc  Sc7  1  0.826601  0.673399  0.500000  1
  Sc  Sc8  1  0.173399  0.326601  0.500000  1
  Sc  Sc9  1  0.673399  0.173399  0.500000  1
  Ge  Ge10  1  0.336902  0.492803  0.500000  1
  Ge  Ge11  1  0.663098  0.507197  0.500000  1
  Ge  Ge12  1  0.507197  0.336902  0.500000  1
  Ge  Ge13  1  0.492803  0.663098  0.500000  1
  Ge  Ge14  1  0.992803  0.836902  0.500000  1
  Ge  Ge15  1  0.836902  0.007197  0.500000  1
  Ge  Ge16  1  0.163098  0.992803  0.500000  1
  Ge  Ge17  1  0.007197  0.163098  0.500000  1
  Ge  Ge18  1  0.335564  0.301394  0.000000  1
  Ge  Ge19  1  0.664436  0.698606  0.000000  1
  Ge  Ge20  1  0.698606  0.335564  0.000000  1
  Ge  Ge21  1  0.301394  0.664436  0.000000  1
  Ge  Ge22  1  0.801394  0.835564  0.000000  1
  Ge  Ge23  1  0.835564  0.198606  0.000000  1
  Ge  Ge24  1  0.164436  0.801394  0.000000  1
  Ge  Ge25  1  0.198606  0.164436  0.000000  1
  Ge  Ge26  1  0.432144  0.932144  0.000000  1
  Ge  Ge27  1  0.932144  0.567856  0.000000  1
  Ge  Ge28  1  0.567856  0.067856  0.000000  1
  Ge  Ge29  1  0.067856  0.432144  0.000000  1
  Rh  Rh30  1  0.245615  0.977234  0.000000  1
  Rh  Rh31  1  0.754385  0.022766  0.000000  1
  Rh  Rh32  1  0.022766  0.245615  0.000000  1
  Rh  Rh33  1  0.977234  0.754385  0.000000  1
  Rh  Rh34  1  0.477234  0.745615  0.000000  1
  Rh  Rh35  1  0.745615  0.522766  0.000000  1
  Rh  Rh36  1  0.254385  0.477234  0.000000  1
  Rh  Rh37  1  0.522766  0.254385  0.000000  1
