# generated using pymatgen
data_CuTcF7
_symmetry_space_group_name_H-M   'P 1'
_cell_length_a   7.63408138
_cell_length_b   7.63408000
_cell_length_c   7.63408123
_cell_angle_alpha   123.09598898
_cell_angle_beta   123.90774046
_cell_angle_gamma   84.03617723
_symmetry_Int_Tables_number   1
_chemical_formula_structural   CuTcF7
_chemical_formula_sum   'Cu2 Tc2 F14'
_cell_volume   296.16838585
_cell_formula_units_Z   2
loop_
 _symmetry_equiv_pos_site_id
 _symmetry_equiv_pos_as_xyz
  1  'x, y, z'
loop_
 _atom_site_type_symbol
 _atom_site_label
 _atom_site_symmetry_multiplicity
 _atom_site_fract_x
 _atom_site_fract_y
 _atom_site_fract_z
 _atom_site_occupancy
  Cu  Cu0  1  0.500000  0.000000  0.000000  1
  Cu  Cu1  1  0.000000  0.000000  0.500000  1
  Tc  Tc2  1  0.500000  0.000000  0.500000  1
  Tc  Tc3  1  0.000000  0.500000  0.500000  1
  F  F4  1  0.250000  0.081472  0.831472  1
  F  F5  1  0.750000  0.918528  0.168528  1
  F  F6  1  0.530828  0.282436  0.751608  1
  F  F7  1  0.969172  0.720780  0.751608  1
  F  F8  1  0.068490  0.341694  0.648256  1
  F  F9  1  0.431510  0.079767  0.273204  1
  F  F10  1  0.306563  0.658306  0.726796  1
  F  F11  1  0.193437  0.920233  0.351744  1
  F  F12  1  0.931510  0.658306  0.351744  1
  F  F13  1  0.568490  0.920233  0.726796  1
  F  F14  1  0.693437  0.341694  0.273204  1
  F  F15  1  0.806563  0.079767  0.648256  1
  F  F16  1  0.030828  0.279220  0.248392  1
  F  F17  1  0.469172  0.717564  0.248392  1
