# generated using pymatgen
data_YEr9(In2Au)4
_symmetry_space_group_name_H-M   'P 1'
_cell_length_a   3.63413800
_cell_length_b   8.18896509
_cell_length_c   18.35484220
_cell_angle_alpha   89.98327315
_cell_angle_beta   90.00000000
_cell_angle_gamma   90.00000000
_symmetry_Int_Tables_number   1
_chemical_formula_structural   YEr9(In2Au)4
_chemical_formula_sum   'Y1 Er9 In8 Au4'
_cell_volume   546.23694553
_cell_formula_units_Z   1
loop_
 _symmetry_equiv_pos_site_id
 _symmetry_equiv_pos_as_xyz
  1  'x, y, z'
loop_
 _atom_site_type_symbol
 _atom_site_label
 _atom_site_symmetry_multiplicity
 _atom_site_fract_x
 _atom_site_fract_y
 _atom_site_fract_z
 _atom_site_occupancy
  Y  Y0  1  0.000000  0.500000  0.500000  1
  Er  Er1  1  0.000000  0.000000  0.000000  1
  Er  Er2  1  0.000000  0.736928  0.281004  1
  Er  Er3  1  0.000000  0.263072  0.718996  1
  Er  Er4  1  0.000000  0.763059  0.781287  1
  Er  Er5  1  0.000000  0.236941  0.218713  1
  Er  Er6  1  0.000000  0.617897  0.079576  1
  Er  Er7  1  0.000000  0.382103  0.920424  1
  Er  Er8  1  0.000000  0.882399  0.579826  1
  Er  Er9  1  0.000000  0.117601  0.420174  1
  In  In10  1  0.500000  0.713585  0.932577  1
  In  In11  1  0.500000  0.286415  0.067423  1
  In  In12  1  0.500000  0.787398  0.432409  1
  In  In13  1  0.500000  0.212602  0.567591  1
  In  In14  1  0.500000  0.581508  0.646819  1
  In  In15  1  0.500000  0.418492  0.353181  1
  In  In16  1  0.500000  0.918763  0.146462  1
  In  In17  1  0.500000  0.081237  0.853538  1
  Au  Au18  1  0.500000  0.525902  0.196475  1
  Au  Au19  1  0.500000  0.474098  0.803525  1
  Au  Au20  1  0.500000  0.974079  0.696498  1
  Au  Au21  1  0.500000  0.025921  0.303502  1
