# generated using pymatgen
data_Er6Tm10InAg3Rh4
_symmetry_space_group_name_H-M   'P 1'
_cell_length_a   9.48273340
_cell_length_b   9.46516114
_cell_length_c   9.44038572
_cell_angle_alpha   59.82298258
_cell_angle_beta   59.83159422
_cell_angle_gamma   59.91887991
_symmetry_Int_Tables_number   1
_chemical_formula_structural   Er6Tm10InAg3Rh4
_chemical_formula_sum   'Er6 Tm10 In1 Ag3 Rh4'
_cell_volume   597.21683518
_cell_formula_units_Z   1
loop_
 _symmetry_equiv_pos_site_id
 _symmetry_equiv_pos_as_xyz
  1  'x, y, z'
loop_
 _atom_site_type_symbol
 _atom_site_label
 _atom_site_symmetry_multiplicity
 _atom_site_fract_x
 _atom_site_fract_y
 _atom_site_fract_z
 _atom_site_occupancy
  Er  Er0  1  0.063606  0.062659  0.437957  1
  Er  Er1  1  0.436094  0.062333  0.438146  1
  Er  Er2  1  0.061820  0.435168  0.067813  1
  Er  Er3  1  0.054444  0.647759  0.648843  1
  Er  Er4  1  0.435522  0.435326  0.067516  1
  Er  Er5  1  0.648370  0.054398  0.648938  1
  Tm  Tm6  1  0.187555  0.813291  0.187669  1
  Tm  Tm7  1  0.188471  0.189794  0.812082  1
  Tm  Tm8  1  0.811310  0.813105  0.187955  1
  Tm  Tm9  1  0.435559  0.061151  0.067884  1
  Tm  Tm10  1  0.812089  0.188458  0.187364  1
  Tm  Tm11  1  0.062470  0.436214  0.438659  1
  Tm  Tm12  1  0.809501  0.190050  0.811915  1
  Tm  Tm13  1  0.188846  0.810241  0.812356  1
  Tm  Tm14  1  0.649103  0.648055  0.053757  1
  Tm  Tm15  1  0.649096  0.647799  0.649136  1
  In  In16  1  0.420547  0.420960  0.738336  1
  Ag  Ag17  1  0.417773  0.417883  0.415009  1
  Ag  Ag18  1  0.749264  0.417984  0.415123  1
  Ag  Ag19  1  0.418121  0.749496  0.414546  1
  Rh  Rh20  1  0.857064  0.855708  0.428900  1
  Rh  Rh21  1  0.858030  0.857274  0.857293  1
  Rh  Rh22  1  0.428039  0.856727  0.856630  1
  Rh  Rh23  1  0.857307  0.428169  0.856174  1
