# generated using pymatgen
data_Er4Al18Ni2Ir3Rh
_symmetry_space_group_name_H-M   'P 1'
_cell_length_a   7.51985466
_cell_length_b   7.51985533
_cell_length_c   9.36829806
_cell_angle_alpha   90.00628522
_cell_angle_beta   90.00628047
_cell_angle_gamma   119.92636452
_symmetry_Int_Tables_number   1
_chemical_formula_structural   Er4Al18Ni2Ir3Rh
_chemical_formula_sum   'Er4 Al18 Ni2 Ir3 Rh1'
_cell_volume   459.12614174
_cell_formula_units_Z   1
loop_
 _symmetry_equiv_pos_site_id
 _symmetry_equiv_pos_as_xyz
  1  'x, y, z'
loop_
 _atom_site_type_symbol
 _atom_site_label
 _atom_site_symmetry_multiplicity
 _atom_site_fract_x
 _atom_site_fract_y
 _atom_site_fract_z
 _atom_site_occupancy
  Er  Er0  1  0.994569  0.667805  0.749792  1
  Er  Er1  1  0.005869  0.332882  0.250353  1
  Er  Er2  1  0.667118  0.994131  0.749647  1
  Er  Er3  1  0.332195  0.005431  0.250208  1
  Al  Al4  1  0.120272  0.120205  0.749974  1
  Al  Al5  1  0.879795  0.879728  0.250026  1
  Al  Al6  1  0.999275  0.331316  0.575113  1
  Al  Al7  1  0.000196  0.668483  0.424890  1
  Al  Al8  1  0.000139  0.668353  0.075004  1
  Al  Al9  1  0.331647  0.999861  0.924996  1
  Al  Al10  1  0.998611  0.331205  0.925142  1
  Al  Al11  1  0.668795  0.001389  0.074858  1
  Al  Al12  1  0.668684  0.000725  0.424887  1
  Al  Al13  1  0.331517  0.999804  0.575110  1
  Al  Al14  1  0.330090  0.329772  0.050664  1
  Al  Al15  1  0.670228  0.669910  0.949336  1
  Al  Al16  1  0.670125  0.669942  0.550467  1
  Al  Al17  1  0.330058  0.329875  0.449533  1
  Al  Al18  1  0.338749  0.546146  0.750114  1
  Al  Al19  1  0.661507  0.452910  0.249293  1
  Al  Al20  1  0.547090  0.338493  0.750707  1
  Al  Al21  1  0.453854  0.661251  0.249886  1
  Ni  Ni22  1  0.999898  0.000102  0.500000  1
  Ni  Ni23  1  0.000108  0.999892  0.000000  1
  Ir  Ir24  1  0.672088  0.327912  0.500000  1
  Ir  Ir25  1  0.327775  0.672225  0.500000  1
  Ir  Ir26  1  0.327843  0.672157  0.000000  1
  Rh  Rh27  1  0.671904  0.328096  0.000000  1
