# generated using pymatgen
data_Ce4IrPd2RhPb2
_symmetry_space_group_name_H-M   'P 1'
_cell_length_a   7.89494360
_cell_length_b   7.90199861
_cell_length_c   3.72012900
_cell_angle_alpha   90.00000000
_cell_angle_beta   90.00000000
_cell_angle_gamma   89.92694462
_symmetry_Int_Tables_number   1
_chemical_formula_structural   Ce4IrPd2RhPb2
_chemical_formula_sum   'Ce4 Ir1 Pd2 Rh1 Pb2'
_cell_volume   232.08315920
_cell_formula_units_Z   1
loop_
 _symmetry_equiv_pos_site_id
 _symmetry_equiv_pos_as_xyz
  1  'x, y, z'
loop_
 _atom_site_type_symbol
 _atom_site_label
 _atom_site_symmetry_multiplicity
 _atom_site_fract_x
 _atom_site_fract_y
 _atom_site_fract_z
 _atom_site_occupancy
  Ce  Ce0  1  0.657848  0.172551  0.500000  1
  Ce  Ce1  1  0.184667  0.330321  0.500000  1
  Ce  Ce2  1  0.844336  0.672912  0.500000  1
  Ce  Ce3  1  0.314471  0.825865  0.500000  1
  Ir  Ir4  1  0.126465  0.624854  0.000000  1
  Pd  Pd5  1  0.628900  0.867587  0.000000  1
  Pd  Pd6  1  0.869423  0.365312  0.000000  1
  Rh  Rh7  1  0.372002  0.128728  0.000000  1
  Pb  Pb8  1  0.996684  0.007264  0.000000  1
  Pb  Pb9  1  0.505203  0.504604  0.000000  1
