# generated using pymatgen
data_Tm3(Zn2Ge)2
_symmetry_space_group_name_H-M   'P 1'
_cell_length_a   6.90140700
_cell_length_b   6.90140607
_cell_length_c   4.21023700
_cell_angle_alpha   90.00000000
_cell_angle_beta   90.00000000
_cell_angle_gamma   119.99999966
_symmetry_Int_Tables_number   1
_chemical_formula_structural   Tm3(Zn2Ge)2
_chemical_formula_sum   'Tm3 Zn4 Ge2'
_cell_volume   173.66503905
_cell_formula_units_Z   1
loop_
 _symmetry_equiv_pos_site_id
 _symmetry_equiv_pos_as_xyz
  1  'x, y, z'
loop_
 _atom_site_type_symbol
 _atom_site_label
 _atom_site_symmetry_multiplicity
 _atom_site_fract_x
 _atom_site_fract_y
 _atom_site_fract_z
 _atom_site_occupancy
  Tm  Tm0  1  0.420370  0.420370  0.500000  1
  Tm  Tm1  1  0.579630  0.000000  0.500000  1
  Tm  Tm2  1  0.000000  0.579630  0.500000  1
  Zn  Zn3  1  0.000000  0.000000  0.500000  1
  Zn  Zn4  1  0.763364  0.763364  0.000000  1
  Zn  Zn5  1  0.236636  0.000000  0.000000  1
  Zn  Zn6  1  0.000000  0.236636  0.000000  1
  Ge  Ge7  1  0.666667  0.333333  0.000000  1
  Ge  Ge8  1  0.333333  0.666667  0.000000  1
