# generated using pymatgen
data_NdF37
_symmetry_space_group_name_H-M   'P 1'
_cell_length_a   6.36604817
_cell_length_b   10.69674084
_cell_length_c   10.69294272
_cell_angle_alpha   86.93365442
_cell_angle_beta   96.69016456
_cell_angle_gamma   72.51042266
_symmetry_Int_Tables_number   1
_chemical_formula_structural   NdF37
_chemical_formula_sum   'Nd1 F37'
_cell_volume   686.73916860
_cell_formula_units_Z   1
loop_
 _symmetry_equiv_pos_site_id
 _symmetry_equiv_pos_as_xyz
  1  'x, y, z'
loop_
 _atom_site_type_symbol
 _atom_site_label
 _atom_site_symmetry_multiplicity
 _atom_site_fract_x
 _atom_site_fract_y
 _atom_site_fract_z
 _atom_site_occupancy
  Nd  Nd0  1  0.203560  0.192989  0.190290  1
  F  F1  1  0.725040  0.858396  0.739692  1
  F  F2  1  0.311063  0.378216  0.891381  1
  F  F3  1  0.686660  0.626549  0.090464  1
  F  F4  1  0.314700  0.242966  0.564859  1
  F  F5  1  0.693021  0.754779  0.445779  1
  F  F6  1  0.877451  0.198901  0.821660  1
  F  F7  1  0.118873  0.788757  0.189441  1
  F  F8  1  0.675356  0.892374  0.012221  1
  F  F9  1  0.294496  0.151674  0.995702  1
  F  F10  1  0.782965  0.592437  0.830779  1
  F  F11  1  0.189241  0.402277  0.131092  1
  F  F12  1  0.442053  0.439831  0.826295  1
  F  F13  1  0.561999  0.569963  0.165801  1
  F  F14  1  0.771649  0.587990  0.697180  1
  F  F15  1  0.251413  0.354807  0.318486  1
  F  F16  1  0.779153  0.020937  0.523565  1
  F  F17  1  0.242997  0.019051  0.423763  1
  F  F18  1  0.297278  0.190458  0.687363  1
  F  F19  1  0.696531  0.792722  0.316352  1
  F  F20  1  0.828283  0.088329  0.629924  1
  F  F21  1  0.184992  0.919950  0.352202  1
  F  F22  1  0.797581  0.977928  0.978309  1
  F  F23  1  0.209701  0.007546  0.085145  1
  F  F24  1  0.896591  0.327190  0.799658  1
  F  F25  1  0.118055  0.656612  0.213761  1
  F  F26  1  0.172243  0.713003  0.922523  1
  F  F27  1  0.819830  0.265691  0.105620  1
  F  F28  1  0.489190  0.913960  0.720303  1
  F  F29  1  0.574403  0.076957  0.273439  1
  F  F30  1  0.121769  0.765975  0.584473  1
  F  F31  1  0.914826  0.246070  0.402231  1
  F  F32  1  0.200859  0.640568  0.656245  1
  F  F33  1  0.789492  0.377466  0.351639  1
  F  F34  1  0.283369  0.798186  0.872859  1
  F  F35  1  0.697546  0.171688  0.187598  1
  F  F36  1  0.502056  0.439661  0.538844  1
  F  F37  1  0.483716  0.557146  0.463060  1
