# generated using pymatgen
data_Sc12FeCo4Sb
_symmetry_space_group_name_H-M   'P 1'
_cell_length_a   7.70731678
_cell_length_b   7.70731583
_cell_length_c   7.70731746
_cell_angle_alpha   111.23953382
_cell_angle_beta   110.90067064
_cell_angle_gamma   106.31890365
_symmetry_Int_Tables_number   1
_chemical_formula_structural   Sc12FeCo4Sb
_chemical_formula_sum   'Sc12 Fe1 Co4 Sb1'
_cell_volume   351.64424668
_cell_formula_units_Z   1
loop_
 _symmetry_equiv_pos_site_id
 _symmetry_equiv_pos_as_xyz
  1  'x, y, z'
loop_
 _atom_site_type_symbol
 _atom_site_label
 _atom_site_symmetry_multiplicity
 _atom_site_fract_x
 _atom_site_fract_y
 _atom_site_fract_z
 _atom_site_occupancy
  Sc  Sc0  1  0.414387  0.219253  0.195134  1
  Sc  Sc1  1  0.585613  0.780747  0.804866  1
  Sc  Sc2  1  0.024120  0.219253  0.804866  1
  Sc  Sc3  1  0.975880  0.780747  0.195134  1
  Sc  Sc4  1  0.312414  0.617433  0.305018  1
  Sc  Sc5  1  0.687586  0.382567  0.694982  1
  Sc  Sc6  1  0.312414  0.007395  0.694982  1
  Sc  Sc7  1  0.687586  0.992605  0.305018  1
  Sc  Sc8  1  0.182503  0.275029  0.457533  1
  Sc  Sc9  1  0.817497  0.724970  0.542467  1
  Sc  Sc10  1  0.182503  0.724970  0.907474  1
  Sc  Sc11  1  0.817497  0.275029  0.092526  1
  Fe  Fe12  1  0.000000  0.000000  0.000000  1
  Co  Co13  1  0.362213  0.000000  0.362213  1
  Co  Co14  1  0.637787  0.000000  0.637787  1
  Co  Co15  1  0.118357  0.618357  0.500000  1
  Co  Co16  1  0.881643  0.381643  0.500000  1
  Sb  Sb17  1  0.500000  0.500000  0.000000  1
