# generated using pymatgen
data_Ba3Eu3(Si2P3)4
_symmetry_space_group_name_H-M   'P 1'
_cell_length_a   7.25113500
_cell_length_b   7.54133803
_cell_length_c   11.42819835
_cell_angle_alpha   79.98565355
_cell_angle_beta   90.00000000
_cell_angle_gamma   90.00000000
_symmetry_Int_Tables_number   1
_chemical_formula_structural   Ba3Eu3(Si2P3)4
_chemical_formula_sum   'Ba3 Eu3 Si8 P12'
_cell_volume   615.40984370
_cell_formula_units_Z   1
loop_
 _symmetry_equiv_pos_site_id
 _symmetry_equiv_pos_as_xyz
  1  'x, y, z'
loop_
 _atom_site_type_symbol
 _atom_site_label
 _atom_site_symmetry_multiplicity
 _atom_site_fract_x
 _atom_site_fract_y
 _atom_site_fract_z
 _atom_site_occupancy
  Ba  Ba0  1  0.250000  0.082353  0.154586  1
  Ba  Ba1  1  0.750000  0.407530  0.863976  1
  Ba  Ba2  1  0.250000  0.591543  0.138620  1
  Eu  Eu3  1  0.750000  0.493641  0.481760  1
  Eu  Eu4  1  0.250000  0.504913  0.521198  1
  Eu  Eu5  1  0.750000  0.917580  0.833171  1
  Si  Si6  1  0.420384  0.979273  0.590457  1
  Si  Si7  1  0.919520  0.022119  0.409586  1
  Si  Si8  1  0.580480  0.022119  0.409586  1
  Si  Si9  1  0.079616  0.979273  0.590457  1
  Si  Si10  1  0.750000  0.330442  0.197309  1
  Si  Si11  1  0.250000  0.181560  0.795815  1
  Si  Si12  1  0.250000  0.672753  0.799067  1
  Si  Si13  1  0.750000  0.816195  0.206291  1
  P  P14  1  0.998067  0.214479  0.676747  1
  P  P15  1  0.502085  0.779609  0.329037  1
  P  P16  1  0.250000  0.393108  0.916466  1
  P  P17  1  0.750000  0.614714  0.079563  1
  P  P18  1  0.250000  0.899891  0.911492  1
  P  P19  1  0.750000  0.095069  0.085923  1
  P  P20  1  0.502202  0.700733  0.680482  1
  P  P21  1  0.997355  0.303140  0.321071  1
  P  P22  1  0.502645  0.303140  0.321071  1
  P  P23  1  0.997798  0.700733  0.680482  1
  P  P24  1  0.501933  0.214479  0.676747  1
  P  P25  1  0.997915  0.779609  0.329037  1
