# generated using pymatgen
data_HoPa3(CoGe)4
_symmetry_space_group_name_H-M   'P 1'
_cell_length_a   4.21234400
_cell_length_b   6.91127435
_cell_length_c   7.24344364
_cell_angle_alpha   89.89530182
_cell_angle_beta   90.00000000
_cell_angle_gamma   90.00000000
_symmetry_Int_Tables_number   1
_chemical_formula_structural   HoPa3(CoGe)4
_chemical_formula_sum   'Ho1 Pa3 Co4 Ge4'
_cell_volume   210.87559637
_cell_formula_units_Z   1
loop_
 _symmetry_equiv_pos_site_id
 _symmetry_equiv_pos_as_xyz
  1  'x, y, z'
loop_
 _atom_site_type_symbol
 _atom_site_label
 _atom_site_symmetry_multiplicity
 _atom_site_fract_x
 _atom_site_fract_y
 _atom_site_fract_z
 _atom_site_occupancy
  Ho  Ho0  1  0.750000  0.513005  0.291974  1
  Pa  Pa1  1  0.250000  0.988139  0.797566  1
  Pa  Pa2  1  0.250000  0.485269  0.713271  1
  Pa  Pa3  1  0.750000  0.010252  0.200821  1
  Co  Co4  1  0.250000  0.196012  0.417992  1
  Co  Co5  1  0.250000  0.740461  0.072601  1
  Co  Co6  1  0.750000  0.795906  0.588337  1
  Co  Co7  1  0.750000  0.277803  0.913121  1
  Ge  Ge8  1  0.250000  0.802385  0.413764  1
  Ge  Ge9  1  0.250000  0.307552  0.093722  1
  Ge  Ge10  1  0.750000  0.196511  0.580443  1
  Ge  Ge11  1  0.750000  0.686704  0.916388  1
