# generated using pymatgen
data_TbHo9(Hg2Pt)4
_symmetry_space_group_name_H-M   'P 1'
_cell_length_a   3.63575100
_cell_length_b   7.93415291
_cell_length_c   18.20900109
_cell_angle_alpha   89.94512431
_cell_angle_beta   90.00000000
_cell_angle_gamma   90.00000000
_symmetry_Int_Tables_number   1
_chemical_formula_structural   TbHo9(Hg2Pt)4
_chemical_formula_sum   'Tb1 Ho9 Hg8 Pt4'
_cell_volume   525.26760955
_cell_formula_units_Z   1
loop_
 _symmetry_equiv_pos_site_id
 _symmetry_equiv_pos_as_xyz
  1  'x, y, z'
loop_
 _atom_site_type_symbol
 _atom_site_label
 _atom_site_symmetry_multiplicity
 _atom_site_fract_x
 _atom_site_fract_y
 _atom_site_fract_z
 _atom_site_occupancy
  Tb  Tb0  1  0.000000  0.000000  0.000000  1
  Ho  Ho1  1  0.000000  0.113862  0.414239  1
  Ho  Ho2  1  0.000000  0.886138  0.585761  1
  Ho  Ho3  1  0.000000  0.385993  0.914238  1
  Ho  Ho4  1  0.000000  0.614007  0.085762  1
  Ho  Ho5  1  0.000000  0.239919  0.217725  1
  Ho  Ho6  1  0.000000  0.760081  0.782275  1
  Ho  Ho7  1  0.000000  0.260040  0.717730  1
  Ho  Ho8  1  0.000000  0.739960  0.282270  1
  Ho  Ho9  1  0.000000  0.500000  0.500000  1
  Hg  Hg10  1  0.500000  0.424824  0.354511  1
  Hg  Hg11  1  0.500000  0.575176  0.645489  1
  Hg  Hg12  1  0.500000  0.075353  0.854100  1
  Hg  Hg13  1  0.500000  0.924647  0.145900  1
  Hg  Hg14  1  0.500000  0.289388  0.063850  1
  Hg  Hg15  1  0.500000  0.710612  0.936150  1
  Hg  Hg16  1  0.500000  0.211633  0.563572  1
  Hg  Hg17  1  0.500000  0.788367  0.436428  1
  Pt  Pt18  1  0.500000  0.027043  0.303746  1
  Pt  Pt19  1  0.500000  0.972957  0.696254  1
  Pt  Pt20  1  0.500000  0.473098  0.803636  1
  Pt  Pt21  1  0.500000  0.526902  0.196364  1
