# generated using pymatgen
data_Sm3Er5(Si3Ir)4
_symmetry_space_group_name_H-M   'P 1'
_cell_length_a   8.15195900
_cell_length_b   8.15195960
_cell_length_c   7.85841200
_cell_angle_alpha   90.00000000
_cell_angle_beta   90.00000000
_cell_angle_gamma   120.01794724
_symmetry_Int_Tables_number   1
_chemical_formula_structural   Sm3Er5(Si3Ir)4
_chemical_formula_sum   'Sm3 Er5 Si12 Ir4'
_cell_volume   452.17949163
_cell_formula_units_Z   1
loop_
 _symmetry_equiv_pos_site_id
 _symmetry_equiv_pos_as_xyz
  1  'x, y, z'
loop_
 _atom_site_type_symbol
 _atom_site_label
 _atom_site_symmetry_multiplicity
 _atom_site_fract_x
 _atom_site_fract_y
 _atom_site_fract_z
 _atom_site_occupancy
  Sm  Sm0  1  0.000286  0.999714  0.250000  1
  Sm  Sm1  1  0.999854  0.000146  0.750000  1
  Sm  Sm2  1  0.489872  0.510128  0.250000  1
  Er  Er3  1  0.490500  0.981709  0.250000  1
  Er  Er4  1  0.018291  0.509500  0.250000  1
  Er  Er5  1  0.510040  0.489960  0.750000  1
  Er  Er6  1  0.979696  0.489847  0.750000  1
  Er  Er7  1  0.510153  0.020304  0.750000  1
  Si  Si8  1  0.832893  0.167107  0.500439  1
  Si  Si9  1  0.833043  0.665404  0.501132  1
  Si  Si10  1  0.334596  0.166957  0.501132  1
  Si  Si11  1  0.832893  0.167107  0.999561  1
  Si  Si12  1  0.833043  0.665404  0.998868  1
  Si  Si13  1  0.334596  0.166957  0.998868  1
  Si  Si14  1  0.167443  0.832557  0.999882  1
  Si  Si15  1  0.665527  0.833408  0.997964  1
  Si  Si16  1  0.166592  0.334473  0.997964  1
  Si  Si17  1  0.167443  0.832557  0.500118  1
  Si  Si18  1  0.665527  0.833408  0.502036  1
  Si  Si19  1  0.166592  0.334473  0.502036  1
  Ir  Ir20  1  0.667703  0.332297  0.468404  1
  Ir  Ir21  1  0.667703  0.332297  0.031596  1
  Ir  Ir22  1  0.332857  0.667143  0.962950  1
  Ir  Ir23  1  0.332857  0.667143  0.537050  1
