# generated using pymatgen
data_La5Pr15(IrPt2)4
_symmetry_space_group_name_H-M   'P 1'
_cell_length_a   11.49063561
_cell_length_b   11.59535693
_cell_length_c   6.58504299
_cell_angle_alpha   89.82378482
_cell_angle_beta   89.97487500
_cell_angle_gamma   89.92734523
_symmetry_Int_Tables_number   1
_chemical_formula_structural   La5Pr15(IrPt2)4
_chemical_formula_sum   'La5 Pr15 Ir4 Pt8'
_cell_volume   877.37315994
_cell_formula_units_Z   1
loop_
 _symmetry_equiv_pos_site_id
 _symmetry_equiv_pos_as_xyz
  1  'x, y, z'
loop_
 _atom_site_type_symbol
 _atom_site_label
 _atom_site_symmetry_multiplicity
 _atom_site_fract_x
 _atom_site_fract_y
 _atom_site_fract_z
 _atom_site_occupancy
  La  La0  1  0.295926  0.089958  0.375407  1
  La  La1  1  0.295036  0.910131  0.875541  1
  La  La2  1  0.704545  0.090610  0.875584  1
  La  La3  1  0.704626  0.910401  0.375605  1
  La  La4  1  0.589644  0.794477  0.875765  1
  Pr  Pr5  1  0.589569  0.206232  0.375292  1
  Pr  Pr6  1  0.410028  0.793579  0.375309  1
  Pr  Pr7  1  0.410567  0.206331  0.875011  1
  Pr  Pr8  1  0.204686  0.410664  0.625451  1
  Pr  Pr9  1  0.204809  0.589163  0.125810  1
  Pr  Pr10  1  0.795315  0.410823  0.125240  1
  Pr  Pr11  1  0.795379  0.588944  0.625441  1
  Pr  Pr12  1  0.911006  0.704615  0.125001  1
  Pr  Pr13  1  0.910770  0.295336  0.624791  1
  Pr  Pr14  1  0.089166  0.704665  0.624849  1
  Pr  Pr15  1  0.089315  0.295378  0.124934  1
  Pr  Pr16  1  0.999995  0.000042  0.499808  1
  Pr  Pr17  1  0.000069  0.000178  0.999655  1
  Pr  Pr18  1  0.499982  0.499668  0.000909  1
  Pr  Pr19  1  0.500052  0.499891  0.500057  1
  Ir  Ir20  1  0.499956  0.999660  0.114172  1
  Ir  Ir21  1  0.500321  0.998966  0.615543  1
  Ir  Ir22  1  0.000093  0.500010  0.885826  1
  Ir  Ir23  1  0.999942  0.500018  0.386048  1
  Pt  Pt24  1  0.845249  0.155078  0.248742  1
  Pt  Pt25  1  0.845033  0.845690  0.748716  1
  Pt  Pt26  1  0.155057  0.154508  0.748100  1
  Pt  Pt27  1  0.154820  0.845485  0.248626  1
  Pt  Pt28  1  0.653201  0.345775  0.750048  1
  Pt  Pt29  1  0.653699  0.654861  0.248473  1
  Pt  Pt30  1  0.346540  0.345436  0.250597  1
  Pt  Pt31  1  0.345605  0.653426  0.749648  1
