# generated using pymatgen
data_Nd3Sn6Pd
_symmetry_space_group_name_H-M   'P 1'
_cell_length_a   8.96499310
_cell_length_b   8.96499344
_cell_length_c   13.38560800
_cell_angle_alpha   90.00000000
_cell_angle_beta   90.00000000
_cell_angle_gamma   150.02410250
_symmetry_Int_Tables_number   1
_chemical_formula_structural   Nd3Sn6Pd
_chemical_formula_sum   'Nd6 Sn12 Pd2'
_cell_volume   537.51607135
_cell_formula_units_Z   2
loop_
 _symmetry_equiv_pos_site_id
 _symmetry_equiv_pos_as_xyz
  1  'x, y, z'
loop_
 _atom_site_type_symbol
 _atom_site_label
 _atom_site_symmetry_multiplicity
 _atom_site_fract_x
 _atom_site_fract_y
 _atom_site_fract_z
 _atom_site_occupancy
  Nd  Nd0  1  0.601991  0.398009  0.250000  1
  Nd  Nd1  1  0.398009  0.601991  0.750000  1
  Nd  Nd2  1  0.399988  0.600012  0.408544  1
  Nd  Nd3  1  0.600012  0.399988  0.591456  1
  Nd  Nd4  1  0.399988  0.600012  0.091456  1
  Nd  Nd5  1  0.600012  0.399988  0.908544  1
  Sn  Sn6  1  0.931393  0.068607  0.924718  1
  Sn  Sn7  1  0.068607  0.931393  0.075282  1
  Sn  Sn8  1  0.931393  0.068607  0.575282  1
  Sn  Sn9  1  0.068607  0.931393  0.424718  1
  Sn  Sn10  1  0.962382  0.037618  0.250000  1
  Sn  Sn11  1  0.037618  0.962382  0.750000  1
  Sn  Sn12  1  0.742336  0.257665  0.432010  1
  Sn  Sn13  1  0.257665  0.742335  0.567990  1
  Sn  Sn14  1  0.742336  0.257665  0.067990  1
  Sn  Sn15  1  0.257665  0.742335  0.932010  1
  Sn  Sn16  1  0.232170  0.767830  0.250000  1
  Sn  Sn17  1  0.767830  0.232170  0.750000  1
  Pd  Pd18  1  0.808368  0.191632  0.250000  1
  Pd  Pd19  1  0.191632  0.808368  0.750000  1
