# generated using pymatgen
data_Th10Si2(SnSb)3
_symmetry_space_group_name_H-M   'P 1'
_cell_length_a   9.55532600
_cell_length_b   9.55438719
_cell_length_c   6.50717500
_cell_angle_alpha   90.00000000
_cell_angle_beta   90.00000000
_cell_angle_gamma   120.00325044
_symmetry_Int_Tables_number   1
_chemical_formula_structural   Th10Si2(SnSb)3
_chemical_formula_sum   'Th10 Si2 Sn3 Sb3'
_cell_volume   514.46666326
_cell_formula_units_Z   1
loop_
 _symmetry_equiv_pos_site_id
 _symmetry_equiv_pos_as_xyz
  1  'x, y, z'
loop_
 _atom_site_type_symbol
 _atom_site_label
 _atom_site_symmetry_multiplicity
 _atom_site_fract_x
 _atom_site_fract_y
 _atom_site_fract_z
 _atom_site_occupancy
  Th  Th0  1  0.258319  0.000000  0.250000  1
  Th  Th1  1  0.259295  0.258733  0.750000  1
  Th  Th2  1  0.000562  0.741267  0.750000  1
  Th  Th3  1  0.000780  0.259636  0.250000  1
  Th  Th4  1  0.741144  0.740364  0.250000  1
  Th  Th5  1  0.740003  0.000000  0.750000  1
  Th  Th6  1  0.333325  0.666641  0.999202  1
  Th  Th7  1  0.666686  0.333359  0.500798  1
  Th  Th8  1  0.666686  0.333359  0.999202  1
  Th  Th9  1  0.333325  0.666641  0.500798  1
  Si  Si10  1  0.999688  0.000000  0.000291  1
  Si  Si11  1  0.999688  0.000000  0.499709  1
  Sn  Sn12  1  0.611146  0.000000  0.250000  1
  Sn  Sn13  1  0.611011  0.612242  0.750000  1
  Sn  Sn14  1  0.998770  0.387758  0.750000  1
  Sb  Sb15  1  0.999277  0.608972  0.250000  1
  Sb  Sb16  1  0.390305  0.391028  0.250000  1
  Sb  Sb17  1  0.389993  0.000000  0.750000  1
