# generated using pymatgen
data_Na8FeNi3P4(O4F)4
_symmetry_space_group_name_H-M   'P 1'
_cell_length_a   5.26264800
_cell_length_b   13.60447666
_cell_length_c   13.86526000
_cell_angle_alpha   59.46988510
_cell_angle_beta   90.00000000
_cell_angle_gamma   90.00000000
_symmetry_Int_Tables_number   1
_chemical_formula_structural   Na8FeNi3P4(O4F)4
_chemical_formula_sum   'Na16 Fe2 Ni6 P8 O32 F8'
_cell_volume   855.06676929
_cell_formula_units_Z   2
loop_
 _symmetry_equiv_pos_site_id
 _symmetry_equiv_pos_as_xyz
  1  'x, y, z'
loop_
 _atom_site_type_symbol
 _atom_site_label
 _atom_site_symmetry_multiplicity
 _atom_site_fract_x
 _atom_site_fract_y
 _atom_site_fract_z
 _atom_site_occupancy
  Na  Na0  1  0.269529  0.915074  0.916265  1
  Na  Na1  1  0.769529  0.084926  0.583735  1
  Na  Na2  1  0.727874  0.080898  0.088322  1
  Na  Na3  1  0.227874  0.919102  0.411678  1
  Na  Na4  1  0.236352  0.171325  0.417503  1
  Na  Na5  1  0.736352  0.828675  0.082497  1
  Na  Na6  1  0.764987  0.828345  0.578816  1
  Na  Na7  1  0.264987  0.171655  0.921184  1
  Na  Na8  1  0.762505  0.580268  0.083146  1
  Na  Na9  1  0.262505  0.419732  0.416854  1
  Na  Na10  1  0.239547  0.418168  0.918563  1
  Na  Na11  1  0.739547  0.581832  0.581437  1
  Na  Na12  1  0.762657  0.329504  0.338545  1
  Na  Na13  1  0.262657  0.670496  0.161455  1
  Na  Na14  1  0.239176  0.669013  0.663055  1
  Na  Na15  1  0.739176  0.330987  0.836945  1
  Fe  Fe16  1  0.776149  0.825689  0.845567  1
  Fe  Fe17  1  0.276149  0.174311  0.654433  1
  Ni  Ni18  1  0.214354  0.176147  0.149305  1
  Ni  Ni19  1  0.714354  0.823853  0.350695  1
  Ni  Ni20  1  0.223661  0.674618  0.926385  1
  Ni  Ni21  1  0.723661  0.325382  0.573615  1
  Ni  Ni22  1  0.778729  0.322923  0.075560  1
  Ni  Ni23  1  0.278729  0.677077  0.424440  1
  P  P24  1  0.700957  0.088043  0.322632  1
  P  P25  1  0.200957  0.911957  0.177368  1
  P  P26  1  0.297190  0.911568  0.673947  1
  P  P27  1  0.797190  0.088432  0.826053  1
  P  P28  1  0.791791  0.588657  0.338321  1
  P  P29  1  0.291791  0.411343  0.161679  1
  P  P30  1  0.210023  0.414168  0.660221  1
  P  P31  1  0.710023  0.585832  0.839779  1
  O  O32  1  0.084472  0.606142  0.345618  1
  O  O33  1  0.584472  0.393858  0.154382  1
  O  O34  1  0.917837  0.395160  0.653287  1
  O  O35  1  0.417837  0.604840  0.846713  1
  O  O36  1  0.093988  0.101549  0.807598  1
  O  O37  1  0.593988  0.898451  0.692402  1
  O  O38  1  0.908024  0.893208  0.200711  1
  O  O39  1  0.408024  0.106792  0.299289  1
  O  O40  1  0.856854  0.650093  0.889424  1
  O  O41  1  0.356854  0.349907  0.610576  1
  O  O42  1  0.147287  0.345119  0.113109  1
  O  O43  1  0.647287  0.654881  0.386891  1
  O  O44  1  0.271324  0.543794  0.588569  1
  O  O45  1  0.771325  0.456206  0.911431  1
  O  O46  1  0.725510  0.459685  0.410582  1
  O  O47  1  0.225510  0.540315  0.089418  1
  O  O48  1  0.212120  0.865271  0.598811  1
  O  O49  1  0.712120  0.134729  0.901189  1
  O  O50  1  0.786319  0.131784  0.399940  1
  O  O51  1  0.286319  0.868216  0.100060  1
  O  O52  1  0.712567  0.632510  0.216553  1
  O  O53  1  0.212567  0.367490  0.283447  1
  O  O54  1  0.288950  0.369309  0.782350  1
  O  O55  1  0.788950  0.630691  0.717650  1
  O  O56  1  0.264251  0.041334  0.122163  1
  O  O57  1  0.764251  0.958666  0.377837  1
  O  O58  1  0.723667  0.960532  0.880579  1
  O  O59  1  0.223667  0.039468  0.619421  1
  O  O60  1  0.842768  0.153450  0.207409  1
  O  O61  1  0.342768  0.846550  0.292591  1
  O  O62  1  0.169562  0.844241  0.792069  1
  O  O63  1  0.669562  0.155759  0.707931  1
  F  F64  1  0.504037  0.247154  0.501465  1
  F  F65  1  0.004037  0.752846  0.998535  1
  F  F66  1  0.496045  0.752849  0.498837  1
  F  F67  1  0.996045  0.247151  0.001163  1
  F  F68  1  0.504859  0.743093  0.976088  1
  F  F69  1  0.004859  0.256907  0.523912  1
  F  F70  1  0.494078  0.252130  0.030883  1
  F  F71  1  0.994078  0.747870  0.469117  1
