# generated using pymatgen
data_Dy2Sc2TiOs7
_symmetry_space_group_name_H-M   'P 1'
_cell_length_a   5.34631200
_cell_length_b   5.34631076
_cell_length_c   8.55302200
_cell_angle_alpha   90.00000000
_cell_angle_beta   90.00000000
_cell_angle_gamma   120.00002004
_symmetry_Int_Tables_number   1
_chemical_formula_structural   Dy2Sc2TiOs7
_chemical_formula_sum   'Dy2 Sc2 Ti1 Os7'
_cell_volume   211.71841392
_cell_formula_units_Z   1
loop_
 _symmetry_equiv_pos_site_id
 _symmetry_equiv_pos_as_xyz
  1  'x, y, z'
loop_
 _atom_site_type_symbol
 _atom_site_label
 _atom_site_symmetry_multiplicity
 _atom_site_fract_x
 _atom_site_fract_y
 _atom_site_fract_z
 _atom_site_occupancy
  Dy  Dy0  1  0.333333  0.666667  0.436897  1
  Dy  Dy1  1  0.666667  0.333333  0.563103  1
  Sc  Sc2  1  0.666667  0.333333  0.930066  1
  Sc  Sc3  1  0.333333  0.666667  0.069934  1
  Ti  Ti4  1  0.000000  0.000000  0.000000  1
  Os  Os5  1  0.172618  0.345236  0.756750  1
  Os  Os6  1  0.172618  0.827382  0.756750  1
  Os  Os7  1  0.345236  0.172618  0.243250  1
  Os  Os8  1  0.827382  0.654764  0.243250  1
  Os  Os9  1  0.654764  0.827382  0.756750  1
  Os  Os10  1  0.827382  0.172618  0.243250  1
  Os  Os11  1  0.000000  0.000000  0.500000  1
