# generated using pymatgen
data_Y2Lu3Co19(Si3P)3
_symmetry_space_group_name_H-M   'P 1'
_cell_length_a   12.09563500
_cell_length_b   12.09563546
_cell_length_c   3.68473100
_cell_angle_alpha   90.00000000
_cell_angle_beta   90.00000000
_cell_angle_gamma   119.99999602
_symmetry_Int_Tables_number   1
_chemical_formula_structural   Y2Lu3Co19(Si3P)3
_chemical_formula_sum   'Y2 Lu3 Co19 Si9 P3'
_cell_volume   466.86766894
_cell_formula_units_Z   1
loop_
 _symmetry_equiv_pos_site_id
 _symmetry_equiv_pos_as_xyz
  1  'x, y, z'
loop_
 _atom_site_type_symbol
 _atom_site_label
 _atom_site_symmetry_multiplicity
 _atom_site_fract_x
 _atom_site_fract_y
 _atom_site_fract_z
 _atom_site_occupancy
  Y  Y0  1  0.333333  0.666667  0.500000  1
  Y  Y1  1  0.666667  0.333333  0.500000  1
  Lu  Lu2  1  0.000000  0.183959  0.000000  1
  Lu  Lu3  1  0.816041  0.816041  0.000000  1
  Lu  Lu4  1  0.183959  0.000000  0.000000  1
  Co  Co5  1  0.628988  0.824678  0.500000  1
  Co  Co6  1  0.175322  0.804310  0.500000  1
  Co  Co7  1  0.195690  0.371012  0.500000  1
  Co  Co8  1  0.371012  0.195690  0.500000  1
  Co  Co9  1  0.824678  0.628988  0.500000  1
  Co  Co10  1  0.804310  0.175322  0.500000  1
  Co  Co11  1  0.000000  0.557672  0.500000  1
  Co  Co12  1  0.442328  0.442328  0.500000  1
  Co  Co13  1  0.557672  0.000000  0.500000  1
  Co  Co14  1  0.522312  0.645346  0.000000  1
  Co  Co15  1  0.354654  0.876966  0.000000  1
  Co  Co16  1  0.123034  0.477688  0.000000  1
  Co  Co17  1  0.477688  0.123034  0.000000  1
  Co  Co18  1  0.645346  0.522312  0.000000  1
  Co  Co19  1  0.876966  0.354654  0.000000  1
  Co  Co20  1  0.000000  0.724050  0.000000  1
  Co  Co21  1  0.275950  0.275950  0.000000  1
  Co  Co22  1  0.724050  0.000000  0.000000  1
  Co  Co23  1  0.000000  0.000000  0.500000  1
  Si  Si24  1  0.000000  0.368517  0.500000  1
  Si  Si25  1  0.631483  0.631483  0.500000  1
  Si  Si26  1  0.368517  0.000000  0.500000  1
  Si  Si27  1  0.522889  0.841322  0.000000  1
  Si  Si28  1  0.158678  0.681567  0.000000  1
  Si  Si29  1  0.318433  0.477111  0.000000  1
  Si  Si30  1  0.477111  0.318433  0.000000  1
  Si  Si31  1  0.841322  0.522889  0.000000  1
  Si  Si32  1  0.681567  0.158678  0.000000  1
  P  P33  1  0.000000  0.820511  0.500000  1
  P  P34  1  0.179489  0.179489  0.500000  1
  P  P35  1  0.820511  0.000000  0.500000  1
