# generated using pymatgen
data_K8TbEr3F20
_symmetry_space_group_name_H-M   'P 1'
_cell_length_a   6.69938053
_cell_length_b   7.28867100
_cell_length_c   10.99503751
_cell_angle_alpha   90.00000000
_cell_angle_beta   90.07737127
_cell_angle_gamma   90.00000000
_symmetry_Int_Tables_number   1
_chemical_formula_structural   K8TbEr3F20
_chemical_formula_sum   'K8 Tb1 Er3 F20'
_cell_volume   536.88258022
_cell_formula_units_Z   1
loop_
 _symmetry_equiv_pos_site_id
 _symmetry_equiv_pos_as_xyz
  1  'x, y, z'
loop_
 _atom_site_type_symbol
 _atom_site_label
 _atom_site_symmetry_multiplicity
 _atom_site_fract_x
 _atom_site_fract_y
 _atom_site_fract_z
 _atom_site_occupancy
  K  K0  1  0.534282  0.996775  0.829257  1
  K  K1  1  0.465539  0.497163  0.170772  1
  K  K2  1  0.965874  0.996682  0.328721  1
  K  K3  1  0.034673  0.497357  0.671276  1
  K  K4  1  0.534282  0.503225  0.829257  1
  K  K5  1  0.465539  0.002837  0.170772  1
  K  K6  1  0.965874  0.503318  0.328721  1
  K  K7  1  0.034673  0.002643  0.671276  1
  Tb  Tb8  1  0.564004  0.250000  0.502901  1
  Er  Er9  1  0.435500  0.750000  0.497414  1
  Er  Er10  1  0.936329  0.250000  0.002459  1
  Er  Er11  1  0.063592  0.750000  0.997536  1
  F  F12  1  0.878201  0.750000  0.834368  1
  F  F13  1  0.121931  0.250000  0.165705  1
  F  F14  1  0.621858  0.750000  0.334454  1
  F  F15  1  0.374512  0.250000  0.668659  1
  F  F16  1  0.842931  0.250000  0.811122  1
  F  F17  1  0.156815  0.750000  0.188692  1
  F  F18  1  0.658402  0.250000  0.308381  1
  F  F19  1  0.343041  0.750000  0.688637  1
  F  F20  1  0.647194  0.961394  0.573604  1
  F  F21  1  0.351559  0.467116  0.426192  1
  F  F22  1  0.853897  0.964424  0.072674  1
  F  F23  1  0.146049  0.464474  0.927355  1
  F  F24  1  0.388935  0.750000  0.986048  1
  F  F25  1  0.611083  0.250000  0.013843  1
  F  F26  1  0.110283  0.750000  0.486227  1
  F  F27  1  0.894452  0.250000  0.513851  1
  F  F28  1  0.146049  0.035526  0.927355  1
  F  F29  1  0.853897  0.535576  0.072674  1
  F  F30  1  0.351559  0.032884  0.426192  1
  F  F31  1  0.647194  0.538606  0.573604  1
