# generated using pymatgen
data_Dy5Tm11ZnIn2AgRh4
_symmetry_space_group_name_H-M   'P 1'
_cell_length_a   9.52520175
_cell_length_b   9.50680468
_cell_length_c   9.50680500
_cell_angle_alpha   59.74835209
_cell_angle_beta   59.63267263
_cell_angle_gamma   59.63266966
_symmetry_Int_Tables_number   1
_chemical_formula_structural   Dy5Tm11ZnIn2AgRh4
_chemical_formula_sum   'Dy5 Tm11 Zn1 In2 Ag1 Rh4'
_cell_volume   604.18663452
_cell_formula_units_Z   1
loop_
 _symmetry_equiv_pos_site_id
 _symmetry_equiv_pos_as_xyz
  1  'x, y, z'
loop_
 _atom_site_type_symbol
 _atom_site_label
 _atom_site_symmetry_multiplicity
 _atom_site_fract_x
 _atom_site_fract_y
 _atom_site_fract_z
 _atom_site_occupancy
  Dy  Dy0  1  0.058764  0.068578  0.437840  1
  Dy  Dy1  1  0.435364  0.066827  0.436703  1
  Dy  Dy2  1  0.058764  0.437840  0.068578  1
  Dy  Dy3  1  0.054509  0.648452  0.648452  1
  Dy  Dy4  1  0.435364  0.436703  0.066827  1
  Tm  Tm5  1  0.647598  0.052249  0.648052  1
  Tm  Tm6  1  0.189167  0.812158  0.188680  1
  Tm  Tm7  1  0.189167  0.188680  0.812158  1
  Tm  Tm8  1  0.810779  0.811648  0.188943  1
  Tm  Tm9  1  0.437356  0.062328  0.062328  1
  Tm  Tm10  1  0.813487  0.187514  0.187514  1
  Tm  Tm11  1  0.060483  0.439782  0.439782  1
  Tm  Tm12  1  0.810779  0.188943  0.811648  1
  Tm  Tm13  1  0.190324  0.810723  0.810723  1
  Tm  Tm14  1  0.647598  0.648052  0.052249  1
  Tm  Tm15  1  0.648381  0.649853  0.649853  1
  Zn  Zn16  1  0.419887  0.416737  0.416737  1
  In  In17  1  0.422919  0.742273  0.416005  1
  In  In18  1  0.422919  0.416005  0.742273  1
  Ag  Ag19  1  0.749302  0.416529  0.416529  1
  Rh  Rh20  1  0.856542  0.855677  0.427162  1
  Rh  Rh21  1  0.855661  0.858088  0.858088  1
  Rh  Rh22  1  0.428346  0.857196  0.857196  1
  Rh  Rh23  1  0.856542  0.427162  0.855677  1
