# generated using pymatgen
data_Re3Ag4RuO16
_symmetry_space_group_name_H-M   'P 1'
_cell_length_a   9.07798029
_cell_length_b   5.95403939
_cell_length_c   9.12697145
_cell_angle_alpha   57.33918010
_cell_angle_beta   90.95235868
_cell_angle_gamma   89.18626200
_symmetry_Int_Tables_number   1
_chemical_formula_structural   Re3Ag4RuO16
_chemical_formula_sum   'Re3 Ag4 Ru1 O16'
_cell_volume   415.10046842
_cell_formula_units_Z   1
loop_
 _symmetry_equiv_pos_site_id
 _symmetry_equiv_pos_as_xyz
  1  'x, y, z'
loop_
 _atom_site_type_symbol
 _atom_site_label
 _atom_site_symmetry_multiplicity
 _atom_site_fract_x
 _atom_site_fract_y
 _atom_site_fract_z
 _atom_site_occupancy
  Re  Re0  1  0.698037  0.375011  0.863701  1
  Re  Re1  1  0.196400  0.623017  0.634435  1
  Re  Re2  1  0.798575  0.365278  0.366318  1
  Ag  Ag3  1  0.521369  0.915649  0.331247  1
  Ag  Ag4  1  0.061519  0.125381  0.143782  1
  Ag  Ag5  1  0.965376  0.889700  0.852130  1
  Ag  Ag6  1  0.464555  0.088458  0.662961  1
  Ru  Ru7  1  0.306906  0.630591  0.134275  1
  O  O8  1  0.748164  0.689371  0.306085  1
  O  O9  1  0.617897  0.382270  0.683661  1
  O  O10  1  0.862070  0.176072  0.930142  1
  O  O11  1  0.071489  0.783788  0.457031  1
  O  O12  1  0.574000  0.238944  0.033652  1
  O  O13  1  0.358951  0.809674  0.586188  1
  O  O14  1  0.115691  0.595125  0.818138  1
  O  O15  1  0.739017  0.701034  0.803021  1
  O  O16  1  0.266837  0.299286  0.202711  1
  O  O17  1  0.886186  0.380127  0.190258  1
  O  O18  1  0.638053  0.172767  0.417048  1
  O  O19  1  0.428742  0.785874  0.962137  1
  O  O20  1  0.919559  0.220139  0.547737  1
  O  O21  1  0.140304  0.830292  0.069773  1
  O  O22  1  0.380173  0.620829  0.319550  1
  O  O23  1  0.240128  0.301323  0.684023  1
