# generated using pymatgen
data_HoErZr4(SnRh)6
_symmetry_space_group_name_H-M   'P 1'
_cell_length_a   7.50142604
_cell_length_b   7.51196560
_cell_length_c   7.35333400
_cell_angle_alpha   90.00000000
_cell_angle_beta   90.00000000
_cell_angle_gamma   119.83937994
_symmetry_Int_Tables_number   1
_chemical_formula_structural   HoErZr4(SnRh)6
_chemical_formula_sum   'Ho1 Er1 Zr4 Sn6 Rh6'
_cell_volume   359.42889322
_cell_formula_units_Z   1
loop_
 _symmetry_equiv_pos_site_id
 _symmetry_equiv_pos_as_xyz
  1  'x, y, z'
loop_
 _atom_site_type_symbol
 _atom_site_label
 _atom_site_symmetry_multiplicity
 _atom_site_fract_x
 _atom_site_fract_y
 _atom_site_fract_z
 _atom_site_occupancy
  Ho  Ho0  1  0.405557  0.400598  0.250000  1
  Er  Er1  1  0.598170  0.002291  0.250000  1
  Zr  Zr2  1  0.606397  0.999245  0.750000  1
  Zr  Zr3  1  0.389584  0.397283  0.750000  1
  Zr  Zr4  1  0.005153  0.605473  0.750000  1
  Zr  Zr5  1  0.002405  0.601434  0.250000  1
  Sn  Sn6  1  0.268078  0.001552  0.992772  1
  Sn  Sn7  1  0.733195  0.730969  0.506426  1
  Sn  Sn8  1  0.998386  0.267177  0.497103  1
  Sn  Sn9  1  0.998386  0.267177  0.002897  1
  Sn  Sn10  1  0.733195  0.730969  0.993574  1
  Sn  Sn11  1  0.268078  0.001552  0.507228  1
  Rh  Rh12  1  0.669770  0.335719  0.969112  1
  Rh  Rh13  1  0.669770  0.335719  0.530888  1
  Rh  Rh14  1  0.327503  0.665577  0.985357  1
  Rh  Rh15  1  0.327503  0.665577  0.514643  1
  Rh  Rh16  1  0.999049  0.002892  0.750000  1
  Rh  Rh17  1  0.999823  0.988795  0.250000  1
