# generated using pymatgen
data_Ba8Ga5Si40Pt
_symmetry_space_group_name_H-M   'P 1'
_cell_length_a   10.48044000
_cell_length_b   10.48044000
_cell_length_c   10.48044000
_cell_angle_alpha   90.00000000
_cell_angle_beta   90.00000000
_cell_angle_gamma   90.00000000
_symmetry_Int_Tables_number   1
_chemical_formula_structural   Ba8Ga5Si40Pt
_chemical_formula_sum   'Ba8 Ga5 Si40 Pt1'
_cell_volume   1151.16757421
_cell_formula_units_Z   1
loop_
 _symmetry_equiv_pos_site_id
 _symmetry_equiv_pos_as_xyz
  1  'x, y, z'
loop_
 _atom_site_type_symbol
 _atom_site_label
 _atom_site_symmetry_multiplicity
 _atom_site_fract_x
 _atom_site_fract_y
 _atom_site_fract_z
 _atom_site_occupancy
  Ba  Ba0  1  0.002022  0.000000  0.000000  1
  Ba  Ba1  1  0.497978  0.500000  0.500000  1
  Ba  Ba2  1  0.250000  0.000000  0.500000  1
  Ba  Ba3  1  0.750000  0.000000  0.500000  1
  Ba  Ba4  1  0.489663  0.258380  0.000000  1
  Ba  Ba5  1  0.489663  0.741620  0.000000  1
  Ba  Ba6  1  0.010337  0.500000  0.241620  1
  Ba  Ba7  1  0.010337  0.500000  0.758380  1
  Ga  Ga8  1  0.750000  0.500000  0.000000  1
  Ga  Ga9  1  0.998936  0.252709  0.500000  1
  Ga  Ga10  1  0.998936  0.747291  0.500000  1
  Ga  Ga11  1  0.501064  0.000000  0.247291  1
  Ga  Ga12  1  0.501064  0.000000  0.752709  1
  Si  Si13  1  0.999242  0.117871  0.303314  1
  Si  Si14  1  0.999242  0.882129  0.696686  1
  Si  Si15  1  0.999242  0.882129  0.303314  1
  Si  Si16  1  0.999242  0.117871  0.696686  1
  Si  Si17  1  0.302366  0.000000  0.117439  1
  Si  Si18  1  0.612742  0.500000  0.197462  1
  Si  Si19  1  0.697594  0.000000  0.883637  1
  Si  Si20  1  0.375689  0.500000  0.810530  1
  Si  Si21  1  0.302366  0.000000  0.882561  1
  Si  Si22  1  0.375689  0.500000  0.189470  1
  Si  Si23  1  0.697594  0.000000  0.116363  1
  Si  Si24  1  0.612742  0.500000  0.802538  1
  Si  Si25  1  0.124311  0.310530  0.000000  1
  Si  Si26  1  0.500758  0.803314  0.382129  1
  Si  Si27  1  0.887258  0.697462  0.000000  1
  Si  Si28  1  0.500758  0.196686  0.617871  1
  Si  Si29  1  0.124311  0.689470  0.000000  1
  Si  Si30  1  0.500758  0.196686  0.382129  1
  Si  Si31  1  0.887258  0.302538  0.000000  1
  Si  Si32  1  0.500758  0.803314  0.617871  1
  Si  Si33  1  0.197634  0.617439  0.500000  1
  Si  Si34  1  0.802406  0.383637  0.500000  1
  Si  Si35  1  0.197634  0.382561  0.500000  1
  Si  Si36  1  0.802406  0.616363  0.500000  1
  Si  Si37  1  0.183281  0.185847  0.185184  1
  Si  Si38  1  0.815304  0.814170  0.815466  1
  Si  Si39  1  0.815304  0.814170  0.184534  1
  Si  Si40  1  0.815304  0.185830  0.815466  1
  Si  Si41  1  0.684696  0.684534  0.314170  1
  Si  Si42  1  0.183281  0.185847  0.814816  1
  Si  Si43  1  0.183281  0.814153  0.185184  1
  Si  Si44  1  0.316719  0.314816  0.685847  1
  Si  Si45  1  0.183281  0.814153  0.814816  1
  Si  Si46  1  0.316719  0.314816  0.314153  1
  Si  Si47  1  0.815304  0.185830  0.184534  1
  Si  Si48  1  0.684696  0.684534  0.685830  1
  Si  Si49  1  0.684696  0.315466  0.685830  1
  Si  Si50  1  0.316719  0.685184  0.314153  1
  Si  Si51  1  0.316719  0.685184  0.685847  1
  Si  Si52  1  0.684696  0.315466  0.314170  1
  Pt  Pt53  1  0.250000  0.500000  0.000000  1
