# generated using pymatgen
data_NaSc(Si7Rh3)2
_symmetry_space_group_name_H-M   'P 1'
_cell_length_a   7.92882738
_cell_length_b   7.92882693
_cell_length_c   7.92882813
_cell_angle_alpha   57.16027666
_cell_angle_beta   57.16027632
_cell_angle_gamma   57.16027238
_symmetry_Int_Tables_number   1
_chemical_formula_structural   NaSc(Si7Rh3)2
_chemical_formula_sum   'Na1 Sc1 Si14 Rh6'
_cell_volume   329.40178286
_cell_formula_units_Z   1
loop_
 _symmetry_equiv_pos_site_id
 _symmetry_equiv_pos_as_xyz
  1  'x, y, z'
loop_
 _atom_site_type_symbol
 _atom_site_label
 _atom_site_symmetry_multiplicity
 _atom_site_fract_x
 _atom_site_fract_y
 _atom_site_fract_z
 _atom_site_occupancy
  Na  Na0  1  0.000000  0.000000  0.000000  1
  Sc  Sc1  1  0.500000  0.500000  0.500000  1
  Si  Si2  1  0.749788  0.749788  0.749788  1
  Si  Si3  1  0.250212  0.250212  0.250212  1
  Si  Si4  1  0.851061  0.067409  0.673316  1
  Si  Si5  1  0.673316  0.851061  0.067409  1
  Si  Si6  1  0.067409  0.673316  0.851061  1
  Si  Si7  1  0.649218  0.828274  0.432361  1
  Si  Si8  1  0.432361  0.649218  0.828274  1
  Si  Si9  1  0.828274  0.432361  0.649218  1
  Si  Si10  1  0.171726  0.567639  0.350782  1
  Si  Si11  1  0.567639  0.350782  0.171726  1
  Si  Si12  1  0.350782  0.171726  0.567639  1
  Si  Si13  1  0.932591  0.326684  0.148939  1
  Si  Si14  1  0.326684  0.148939  0.932591  1
  Si  Si15  1  0.148939  0.932591  0.326684  1
  Rh  Rh16  1  0.075285  0.432333  0.745943  1
  Rh  Rh17  1  0.254057  0.924715  0.567667  1
  Rh  Rh18  1  0.567667  0.254057  0.924715  1
  Rh  Rh19  1  0.924715  0.567667  0.254057  1
  Rh  Rh20  1  0.432333  0.745943  0.075285  1
  Rh  Rh21  1  0.745943  0.075285  0.432333  1
