# generated using pymatgen
data_Dy4Er6(InBi)3
_symmetry_space_group_name_H-M   'P 1'
_cell_length_a   9.02360848
_cell_length_b   9.02361001
_cell_length_c   6.53928000
_cell_angle_alpha   90.00000000
_cell_angle_beta   90.00000000
_cell_angle_gamma   120.06565707
_symmetry_Int_Tables_number   1
_chemical_formula_structural   Dy4Er6(InBi)3
_chemical_formula_sum   'Dy4 Er6 In3 Bi3'
_cell_volume   460.82222331
_cell_formula_units_Z   1
loop_
 _symmetry_equiv_pos_site_id
 _symmetry_equiv_pos_as_xyz
  1  'x, y, z'
loop_
 _atom_site_type_symbol
 _atom_site_label
 _atom_site_symmetry_multiplicity
 _atom_site_fract_x
 _atom_site_fract_y
 _atom_site_fract_z
 _atom_site_occupancy
  Dy  Dy0  1  0.763742  0.763742  0.750000  1
  Dy  Dy1  1  0.236558  0.999842  0.750000  1
  Dy  Dy2  1  0.999842  0.236558  0.750000  1
  Dy  Dy3  1  0.238155  0.238155  0.250000  1
  Er  Er4  1  0.666795  0.333362  0.007314  1
  Er  Er5  1  0.333362  0.666795  0.007314  1
  Er  Er6  1  0.333362  0.666795  0.492686  1
  Er  Er7  1  0.666795  0.333362  0.492686  1
  Er  Er8  1  0.761457  0.999842  0.250000  1
  Er  Er9  1  0.999842  0.761457  0.250000  1
  In  In10  1  0.606758  0.606758  0.250000  1
  In  In11  1  0.393588  0.999785  0.250000  1
  In  In12  1  0.999785  0.393588  0.250000  1
  Bi  Bi13  1  0.397012  0.397012  0.750000  1
  Bi  Bi14  1  0.602977  0.999968  0.750000  1
  Bi  Bi15  1  0.999968  0.602977  0.750000  1
