# generated using pymatgen
data_Tb8Cu3Si12Pd
_symmetry_space_group_name_H-M   'P 1'
_cell_length_a   8.04330900
_cell_length_b   8.04330845
_cell_length_c   8.14790600
_cell_angle_alpha   90.00000000
_cell_angle_beta   90.00000000
_cell_angle_gamma   120.00000638
_symmetry_Int_Tables_number   1
_chemical_formula_structural   Tb8Cu3Si12Pd
_chemical_formula_sum   'Tb8 Cu3 Si12 Pd1'
_cell_volume   456.50558034
_cell_formula_units_Z   1
loop_
 _symmetry_equiv_pos_site_id
 _symmetry_equiv_pos_as_xyz
  1  'x, y, z'
loop_
 _atom_site_type_symbol
 _atom_site_label
 _atom_site_symmetry_multiplicity
 _atom_site_fract_x
 _atom_site_fract_y
 _atom_site_fract_z
 _atom_site_occupancy
  Tb  Tb0  1  0.500551  0.001101  0.249431  1
  Tb  Tb1  1  0.500941  0.001883  0.750736  1
  Tb  Tb2  1  0.998899  0.499449  0.249431  1
  Tb  Tb3  1  0.998117  0.499059  0.750736  1
  Tb  Tb4  1  0.500551  0.499449  0.249431  1
  Tb  Tb5  1  0.500941  0.499059  0.750736  1
  Tb  Tb6  1  0.000000  0.000000  0.249005  1
  Tb  Tb7  1  0.000000  0.000000  0.750639  1
  Cu  Cu8  1  0.333333  0.666667  0.000668  1
  Cu  Cu9  1  0.666667  0.333333  0.999893  1
  Cu  Cu10  1  0.666667  0.333333  0.498543  1
  Si  Si11  1  0.169389  0.338778  0.999059  1
  Si  Si12  1  0.831110  0.662219  0.000908  1
  Si  Si13  1  0.661222  0.830611  0.999059  1
  Si  Si14  1  0.831235  0.662469  0.500621  1
  Si  Si15  1  0.337781  0.168890  0.000908  1
  Si  Si16  1  0.165950  0.331900  0.499054  1
  Si  Si17  1  0.169389  0.830611  0.999059  1
  Si  Si18  1  0.337531  0.168765  0.500621  1
  Si  Si19  1  0.831110  0.168890  0.000908  1
  Si  Si20  1  0.668100  0.834050  0.499054  1
  Si  Si21  1  0.831235  0.168765  0.500621  1
  Si  Si22  1  0.165950  0.834050  0.499054  1
  Pd  Pd23  1  0.333333  0.666667  0.501824  1
