# generated using pymatgen
data_Nd2Cd3InPd2
_symmetry_space_group_name_H-M   'P 1'
_cell_length_a   5.55290146
_cell_length_b   5.55290050
_cell_length_c   8.38740933
_cell_angle_alpha   89.86202728
_cell_angle_beta   90.13797124
_cell_angle_gamma   133.85451045
_symmetry_Int_Tables_number   1
_chemical_formula_structural   Nd2Cd3InPd2
_chemical_formula_sum   'Nd2 Cd3 In1 Pd2'
_cell_volume   186.49300706
_cell_formula_units_Z   1
loop_
 _symmetry_equiv_pos_site_id
 _symmetry_equiv_pos_as_xyz
  1  'x, y, z'
loop_
 _atom_site_type_symbol
 _atom_site_label
 _atom_site_symmetry_multiplicity
 _atom_site_fract_x
 _atom_site_fract_y
 _atom_site_fract_z
 _atom_site_occupancy
  Nd  Nd0  1  0.933926  0.066074  0.244114  1
  Nd  Nd1  1  0.065611  0.934389  0.754611  1
  Cd  Cd2  1  0.359024  0.640976  0.553584  1
  Cd  Cd3  1  0.643240  0.356760  0.048047  1
  Cd  Cd4  1  0.356707  0.643293  0.950083  1
  In  In5  1  0.645551  0.354449  0.448745  1
  Pd  Pd6  1  0.221884  0.778116  0.254155  1
  Pd  Pd7  1  0.774057  0.225943  0.746660  1
