# generated using pymatgen
data_Tb9Dy(OsRu)2
_symmetry_space_group_name_H-M   'P 1'
_cell_length_a   8.51736469
_cell_length_b   8.51736456
_cell_length_c   7.31041263
_cell_angle_alpha   83.22166992
_cell_angle_beta   83.22167121
_cell_angle_gamma   44.19325312
_symmetry_Int_Tables_number   1
_chemical_formula_structural   Tb9Dy(OsRu)2
_chemical_formula_sum   'Tb9 Dy1 Os2 Ru2'
_cell_volume   366.67634612
_cell_formula_units_Z   1
loop_
 _symmetry_equiv_pos_site_id
 _symmetry_equiv_pos_as_xyz
  1  'x, y, z'
loop_
 _atom_site_type_symbol
 _atom_site_label
 _atom_site_symmetry_multiplicity
 _atom_site_fract_x
 _atom_site_fract_y
 _atom_site_fract_z
 _atom_site_occupancy
  Tb  Tb0  1  0.206088  0.978181  0.584145  1
  Tb  Tb1  1  0.021819  0.793912  0.915855  1
  Tb  Tb2  1  0.205922  0.360010  0.314429  1
  Tb  Tb3  1  0.639990  0.794078  0.185571  1
  Tb  Tb4  1  0.794194  0.640534  0.685272  1
  Tb  Tb5  1  0.359466  0.205806  0.814728  1
  Tb  Tb6  1  0.978681  0.207017  0.085372  1
  Tb  Tb7  1  0.792983  0.021319  0.414628  1
  Tb  Tb8  1  0.575157  0.424843  0.750000  1
  Dy  Dy9  1  0.422977  0.577023  0.250000  1
  Os  Os10  1  0.177076  0.602757  0.574481  1
  Os  Os11  1  0.397243  0.822924  0.925519  1
  Ru  Ru12  1  0.824744  0.396339  0.424523  1
  Ru  Ru13  1  0.603661  0.175256  0.075477  1
