# generated using pymatgen
data_Tb5Sm(RuI3)2
_symmetry_space_group_name_H-M   'P 1'
_cell_length_a   4.24675500
_cell_length_b   8.96725773
_cell_length_c   12.39401727
_cell_angle_alpha   94.05304357
_cell_angle_beta   90.00000000
_cell_angle_gamma   90.00000000
_symmetry_Int_Tables_number   1
_chemical_formula_structural   Tb5Sm(RuI3)2
_chemical_formula_sum   'Tb5 Sm1 Ru2 I6'
_cell_volume   470.80540914
_cell_formula_units_Z   1
loop_
 _symmetry_equiv_pos_site_id
 _symmetry_equiv_pos_as_xyz
  1  'x, y, z'
loop_
 _atom_site_type_symbol
 _atom_site_label
 _atom_site_symmetry_multiplicity
 _atom_site_fract_x
 _atom_site_fract_y
 _atom_site_fract_z
 _atom_site_occupancy
  Tb  Tb0  1  0.250000  0.736313  0.397750  1
  Tb  Tb1  1  0.750000  0.872715  0.623984  1
  Tb  Tb2  1  0.250000  0.128459  0.374626  1
  Tb  Tb3  1  0.750000  0.896606  0.184971  1
  Tb  Tb4  1  0.250000  0.099661  0.815514  1
  Sm  Sm5  1  0.750000  0.269280  0.602608  1
  Ru  Ru6  1  0.750000  0.943561  0.405912  1
  Ru  Ru7  1  0.250000  0.057395  0.593426  1
  I  I8  1  0.750000  0.425399  0.364935  1
  I  I9  1  0.250000  0.579499  0.633686  1
  I  I10  1  0.750000  0.860410  0.890157  1
  I  I11  1  0.250000  0.134735  0.109048  1
  I  I12  1  0.750000  0.351071  0.866395  1
  I  I13  1  0.250000  0.644896  0.136989  1
