# generated using pymatgen
data_Tb6C2Cl7
_symmetry_space_group_name_H-M   'P 1'
_cell_length_a   10.20764364
_cell_length_b   10.20764306
_cell_length_c   11.62140773
_cell_angle_alpha   56.48190878
_cell_angle_beta   56.48191186
_cell_angle_gamma   21.17826459
_symmetry_Int_Tables_number   1
_chemical_formula_structural   Tb6C2Cl7
_chemical_formula_sum   'Tb6 C2 Cl7'
_cell_volume   361.91227119
_cell_formula_units_Z   1
loop_
 _symmetry_equiv_pos_site_id
 _symmetry_equiv_pos_as_xyz
  1  'x, y, z'
loop_
 _atom_site_type_symbol
 _atom_site_label
 _atom_site_symmetry_multiplicity
 _atom_site_fract_x
 _atom_site_fract_y
 _atom_site_fract_z
 _atom_site_occupancy
  Tb  Tb0  1  0.224650  0.224650  0.850301  1
  Tb  Tb1  1  0.318075  0.318075  0.358834  1
  Tb  Tb2  1  0.127890  0.127890  0.441278  1
  Tb  Tb3  1  0.872110  0.872110  0.558722  1
  Tb  Tb4  1  0.681925  0.681925  0.641166  1
  Tb  Tb5  1  0.775350  0.775350  0.149699  1
  C  C6  1  0.279192  0.279192  0.611028  1
  C  C7  1  0.720808  0.720808  0.388972  1
  Cl  Cl8  1  0.169581  0.169581  0.160412  1
  Cl  Cl9  1  0.830419  0.830419  0.839588  1
  Cl  Cl10  1  0.058157  0.058157  0.716176  1
  Cl  Cl11  1  0.941843  0.941843  0.283824  1
  Cl  Cl12  1  0.500000  0.500000  0.500000  1
  Cl  Cl13  1  0.390484  0.390484  0.065499  1
  Cl  Cl14  1  0.609516  0.609516  0.934501  1
