# generated using pymatgen
data_YUC2
_symmetry_space_group_name_H-M   'P 1'
_cell_length_a   6.05171867
_cell_length_b   6.05171882
_cell_length_c   6.05171634
_cell_angle_alpha   34.45437397
_cell_angle_beta   34.45436831
_cell_angle_gamma   34.45437583
_symmetry_Int_Tables_number   1
_chemical_formula_structural   YUC2
_chemical_formula_sum   'Y1 U1 C2'
_cell_volume   63.28141937
_cell_formula_units_Z   1
loop_
 _symmetry_equiv_pos_site_id
 _symmetry_equiv_pos_as_xyz
  1  'x, y, z'
loop_
 _atom_site_type_symbol
 _atom_site_label
 _atom_site_symmetry_multiplicity
 _atom_site_fract_x
 _atom_site_fract_y
 _atom_site_fract_z
 _atom_site_occupancy
  Y  Y0  1  0.000000  0.000000  0.000000  1
  U  U1  1  0.500000  0.500000  0.500000  1
  C  C2  1  0.237097  0.237097  0.237097  1
  C  C3  1  0.762903  0.762903  0.762903  1
