# generated using pymatgen
data_Sm2LuGa4Co3(Ni3B)2
_symmetry_space_group_name_H-M   'P 1'
_cell_length_a   5.19954200
_cell_length_b   5.19954160
_cell_length_c   10.62371900
_cell_angle_alpha   90.00000000
_cell_angle_beta   90.00000000
_cell_angle_gamma   120.00000253
_symmetry_Int_Tables_number   1
_chemical_formula_structural   Sm2LuGa4Co3(Ni3B)2
_chemical_formula_sum   'Sm2 Lu1 Ga4 Co3 Ni6 B2'
_cell_volume   248.73525403
_cell_formula_units_Z   1
loop_
 _symmetry_equiv_pos_site_id
 _symmetry_equiv_pos_as_xyz
  1  'x, y, z'
loop_
 _atom_site_type_symbol
 _atom_site_label
 _atom_site_symmetry_multiplicity
 _atom_site_fract_x
 _atom_site_fract_y
 _atom_site_fract_z
 _atom_site_occupancy
  Sm  Sm0  1  0.000000  0.000000  0.691577  1
  Sm  Sm1  1  0.000000  0.000000  0.348132  1
  Lu  Lu2  1  0.000000  0.000000  0.003100  1
  Ga  Ga3  1  0.666667  0.333333  0.683164  1
  Ga  Ga4  1  0.333333  0.666667  0.683164  1
  Ga  Ga5  1  0.333333  0.666667  0.310126  1
  Ga  Ga6  1  0.666667  0.333333  0.310126  1
  Co  Co7  1  0.500000  0.500000  0.870854  1
  Co  Co8  1  0.500000  0.000000  0.870854  1
  Co  Co9  1  0.000000  0.500000  0.870854  1
  Ni  Ni10  1  0.500000  0.500000  0.499059  1
  Ni  Ni11  1  0.500000  0.000000  0.499059  1
  Ni  Ni12  1  0.000000  0.500000  0.499059  1
  Ni  Ni13  1  0.500000  0.500000  0.124395  1
  Ni  Ni14  1  0.500000  0.000000  0.124395  1
  Ni  Ni15  1  0.000000  0.500000  0.124395  1
  B  B16  1  0.666667  0.333333  0.993844  1
  B  B17  1  0.333333  0.666667  0.993844  1
