# generated using pymatgen
data_HoLu(FeOs)2
_symmetry_space_group_name_H-M   'P 1'
_cell_length_a   5.18617085
_cell_length_b   5.24510922
_cell_length_c   5.24510832
_cell_angle_alpha   59.80882057
_cell_angle_beta   60.37101050
_cell_angle_gamma   60.37101912
_symmetry_Int_Tables_number   1
_chemical_formula_structural   HoLu(FeOs)2
_chemical_formula_sum   'Ho1 Lu1 Fe2 Os2'
_cell_volume   101.30137530
_cell_formula_units_Z   1
loop_
 _symmetry_equiv_pos_site_id
 _symmetry_equiv_pos_as_xyz
  1  'x, y, z'
loop_
 _atom_site_type_symbol
 _atom_site_label
 _atom_site_symmetry_multiplicity
 _atom_site_fract_x
 _atom_site_fract_y
 _atom_site_fract_z
 _atom_site_occupancy
  Ho  Ho0  1  0.252251  0.247749  0.247749  1
  Lu  Lu1  1  0.997746  0.002254  0.002254  1
  Fe  Fe2  1  0.125155  0.624993  0.624993  1
  Fe  Fe3  1  0.624858  0.624993  0.624993  1
  Os  Os4  1  0.624994  0.625137  0.124873  1
  Os  Os5  1  0.624994  0.124873  0.625137  1
