# generated using pymatgen
data_Tb10Si16Pt
_symmetry_space_group_name_H-M   'P 1'
_cell_length_a   11.16504947
_cell_length_b   11.17102493
_cell_length_c   11.16504843
_cell_angle_alpha   144.71893607
_cell_angle_beta   136.56410311
_cell_angle_gamma   57.13788803
_symmetry_Int_Tables_number   1
_chemical_formula_structural   Tb10Si16Pt
_chemical_formula_sum   'Tb10 Si16 Pt1'
_cell_volume   548.58073066
_cell_formula_units_Z   1
loop_
 _symmetry_equiv_pos_site_id
 _symmetry_equiv_pos_as_xyz
  1  'x, y, z'
loop_
 _atom_site_type_symbol
 _atom_site_label
 _atom_site_symmetry_multiplicity
 _atom_site_fract_x
 _atom_site_fract_y
 _atom_site_fract_z
 _atom_site_occupancy
  Tb  Tb0  1  0.052009  0.563773  0.015677  1
  Tb  Tb1  1  0.352095  0.371089  0.521965  1
  Tb  Tb2  1  0.151749  0.165889  0.519907  1
  Tb  Tb3  1  0.451724  0.963506  0.014912  1
  Tb  Tb4  1  0.645982  0.165889  0.014141  1
  Tb  Tb5  1  0.948592  0.963506  0.511781  1
  Tb  Tb6  1  0.849125  0.371089  0.018996  1
  Tb  Tb7  1  0.548096  0.563773  0.511765  1
  Tb  Tb8  1  0.249383  0.763724  0.011856  1
  Tb  Tb9  1  0.751869  0.763724  0.514340  1
  Si  Si10  1  0.115319  0.070406  0.955085  1
  Si  Si11  1  0.798364  0.191432  0.393069  1
  Si  Si12  1  0.299835  0.899075  0.599241  1
  Si  Si13  1  0.399982  0.500276  0.100293  1
  Si  Si14  1  0.887271  0.846323  0.959051  1
  Si  Si15  1  0.103438  0.707429  0.603990  1
  Si  Si16  1  0.200082  0.591888  0.391804  1
  Si  Si17  1  0.698247  0.294591  0.596344  1
  Si  Si18  1  0.999973  0.432948  0.432976  1
  Si  Si19  1  0.711828  0.661776  0.949946  1
  Si  Si20  1  0.600721  0.702410  0.101689  1
  Si  Si21  1  0.000787  0.088892  0.088105  1
  Si  Si22  1  0.501023  0.398944  0.897922  1
  Si  Si23  1  0.288058  0.240277  0.952218  1
  Si  Si24  1  0.585671  0.039547  0.453875  1
  Si  Si25  1  0.411848  0.863148  0.451301  1
  Pt  Pt26  1  0.896927  0.503597  0.606669  1
