# generated using pymatgen
data_Nd6In(HgPb2)3
_symmetry_space_group_name_H-M   'P 1'
_cell_length_a   6.70340359
_cell_length_b   6.70340248
_cell_length_c   10.61052948
_cell_angle_alpha   90.92413148
_cell_angle_beta   90.92413479
_cell_angle_gamma   102.87417743
_symmetry_Int_Tables_number   1
_chemical_formula_structural   Nd6In(HgPb2)3
_chemical_formula_sum   'Nd6 In1 Hg3 Pb6'
_cell_volume   464.64934046
_cell_formula_units_Z   1
loop_
 _symmetry_equiv_pos_site_id
 _symmetry_equiv_pos_as_xyz
  1  'x, y, z'
loop_
 _atom_site_type_symbol
 _atom_site_label
 _atom_site_symmetry_multiplicity
 _atom_site_fract_x
 _atom_site_fract_y
 _atom_site_fract_z
 _atom_site_occupancy
  Nd  Nd0  1  0.611055  0.611055  0.252305  1
  Nd  Nd1  1  0.385112  0.385112  0.747711  1
  Nd  Nd2  1  0.206619  0.801096  0.497442  1
  Nd  Nd3  1  0.207471  0.789469  0.000801  1
  Nd  Nd4  1  0.801096  0.206619  0.497442  1
  Nd  Nd5  1  0.789469  0.207471  0.000801  1
  In  In6  1  0.694298  0.694298  0.543237  1
  Hg  Hg7  1  0.309497  0.309497  0.034519  1
  Hg  Hg8  1  0.688534  0.688534  0.966267  1
  Hg  Hg9  1  0.310438  0.310438  0.463023  1
  Pb  Pb10  1  0.007688  0.007687  0.243663  1
  Pb  Pb11  1  0.991573  0.991572  0.753620  1
  Pb  Pb12  1  0.497552  0.064888  0.248268  1
  Pb  Pb13  1  0.933626  0.501083  0.751316  1
  Pb  Pb14  1  0.501083  0.933626  0.751316  1
  Pb  Pb15  1  0.064888  0.497552  0.248268  1
