# generated using pymatgen
data_Dy5Y2CoI12
_symmetry_space_group_name_H-M   'P 1'
_cell_length_a   9.75832472
_cell_length_b   9.75855237
_cell_length_c   9.75014690
_cell_angle_alpha   106.84437265
_cell_angle_beta   106.78726306
_cell_angle_gamma   106.79666968
_symmetry_Int_Tables_number   1
_chemical_formula_structural   Dy5Y2CoI12
_chemical_formula_sum   'Dy5 Y2 Co1 I12'
_cell_volume   777.23015951
_cell_formula_units_Z   1
loop_
 _symmetry_equiv_pos_site_id
 _symmetry_equiv_pos_as_xyz
  1  'x, y, z'
loop_
 _atom_site_type_symbol
 _atom_site_label
 _atom_site_symmetry_multiplicity
 _atom_site_fract_x
 _atom_site_fract_y
 _atom_site_fract_z
 _atom_site_occupancy
  Dy  Dy0  1  0.021013  0.092043  0.287352  1
  Dy  Dy1  1  0.091587  0.286476  0.021123  1
  Dy  Dy2  1  0.286568  0.021065  0.091739  1
  Dy  Dy3  1  0.908418  0.713533  0.978923  1
  Dy  Dy4  1  0.713403  0.979057  0.908681  1
  Y  Y5  1  0.978637  0.907414  0.710400  1
  Y  Y6  1  0.500045  0.500050  0.500112  1
  Co  Co7  1  0.999929  0.999902  0.999886  1
  I  I8  1  0.538479  0.615132  0.839749  1
  I  I9  1  0.461592  0.384881  0.160337  1
  I  I10  1  0.322997  0.928521  0.776501  1
  I  I11  1  0.385026  0.160267  0.461692  1
  I  I12  1  0.928523  0.775809  0.323184  1
  I  I13  1  0.677262  0.071434  0.223985  1
  I  I14  1  0.071603  0.224570  0.677629  1
  I  I15  1  0.776143  0.322547  0.928578  1
  I  I16  1  0.223813  0.677480  0.071496  1
  I  I17  1  0.839980  0.537850  0.615295  1
  I  I18  1  0.160342  0.461820  0.384909  1
  I  I19  1  0.614641  0.840150  0.538429  1
