# generated using pymatgen
data_Hf8Mo4Ir3Pt
_symmetry_space_group_name_H-M   'P 1'
_cell_length_a   6.54797900
_cell_length_b   4.66035800
_cell_length_c   9.32820300
_cell_angle_alpha   90.00000000
_cell_angle_beta   90.00001843
_cell_angle_gamma   90.00000000
_symmetry_Int_Tables_number   1
_chemical_formula_structural   Hf8Mo4Ir3Pt
_chemical_formula_sum   'Hf8 Mo4 Ir3 Pt1'
_cell_volume   284.65875541
_cell_formula_units_Z   1
loop_
 _symmetry_equiv_pos_site_id
 _symmetry_equiv_pos_as_xyz
  1  'x, y, z'
loop_
 _atom_site_type_symbol
 _atom_site_label
 _atom_site_symmetry_multiplicity
 _atom_site_fract_x
 _atom_site_fract_y
 _atom_site_fract_z
 _atom_site_occupancy
  Hf  Hf0  1  0.996289  0.750000  0.125006  1
  Hf  Hf1  1  0.503696  0.750000  0.125009  1
  Hf  Hf2  1  0.997828  0.250001  0.377414  1
  Hf  Hf3  1  0.502168  0.250001  0.377413  1
  Hf  Hf4  1  0.499154  0.750000  0.625029  1
  Hf  Hf5  1  0.000849  0.750000  0.625028  1
  Hf  Hf6  1  0.502166  0.250001  0.872562  1
  Hf  Hf7  1  0.997852  0.250001  0.872561  1
  Mo  Mo8  1  0.749991  0.250001  0.124986  1
  Mo  Mo9  1  0.249991  0.750000  0.374075  1
  Mo  Mo10  1  0.750010  0.250001  0.624996  1
  Mo  Mo11  1  0.250007  0.750000  0.875941  1
  Ir  Ir12  1  0.749990  0.750000  0.375167  1
  Ir  Ir13  1  0.250010  0.250001  0.624998  1
  Ir  Ir14  1  0.750009  0.750000  0.874830  1
  Pt  Pt15  1  0.249990  0.250001  0.124986  1
