# generated using pymatgen
data_ErTm11(Si3Ir)4
_symmetry_space_group_name_H-M   'P 1'
_cell_length_a   4.19595500
_cell_length_b   10.56533975
_cell_length_c   12.19195500
_cell_angle_alpha   90.02154556
_cell_angle_beta   90.00000000
_cell_angle_gamma   90.00000000
_symmetry_Int_Tables_number   1
_chemical_formula_structural   ErTm11(Si3Ir)4
_chemical_formula_sum   'Er1 Tm11 Si12 Ir4'
_cell_volume   540.48993302
_cell_formula_units_Z   1
loop_
 _symmetry_equiv_pos_site_id
 _symmetry_equiv_pos_as_xyz
  1  'x, y, z'
loop_
 _atom_site_type_symbol
 _atom_site_label
 _atom_site_symmetry_multiplicity
 _atom_site_fract_x
 _atom_site_fract_y
 _atom_site_fract_z
 _atom_site_occupancy
  Er  Er0  1  0.750000  0.159566  0.699355  1
  Tm  Tm1  1  0.250000  0.879374  0.019907  1
  Tm  Tm2  1  0.250000  0.620655  0.519702  1
  Tm  Tm3  1  0.750000  0.120683  0.980200  1
  Tm  Tm4  1  0.750000  0.379447  0.480208  1
  Tm  Tm5  1  0.250000  0.919878  0.603540  1
  Tm  Tm6  1  0.250000  0.579857  0.103779  1
  Tm  Tm7  1  0.750000  0.079759  0.396502  1
  Tm  Tm8  1  0.750000  0.420340  0.896342  1
  Tm  Tm9  1  0.250000  0.660352  0.800402  1
  Tm  Tm10  1  0.250000  0.840021  0.300432  1
  Tm  Tm11  1  0.750000  0.339263  0.199662  1
  Si  Si12  1  0.250000  0.012616  0.822158  1
  Si  Si13  1  0.250000  0.486886  0.321880  1
  Si  Si14  1  0.750000  0.987300  0.178006  1
  Si  Si15  1  0.750000  0.513084  0.678088  1
  Si  Si16  1  0.250000  0.248120  0.841253  1
  Si  Si17  1  0.250000  0.252080  0.341372  1
  Si  Si18  1  0.750000  0.752314  0.158847  1
  Si  Si19  1  0.750000  0.747838  0.658680  1
  Si  Si20  1  0.250000  0.198872  0.543425  1
  Si  Si21  1  0.250000  0.301553  0.043615  1
  Si  Si22  1  0.750000  0.801266  0.456168  1
  Si  Si23  1  0.750000  0.698665  0.956378  1
  Ir  Ir24  1  0.250000  0.391251  0.680405  1
  Ir  Ir25  1  0.250000  0.109422  0.180337  1
  Ir  Ir26  1  0.750000  0.609128  0.319485  1
  Ir  Ir27  1  0.750000  0.890408  0.819874  1
