# generated using pymatgen
data_Yb6Al7Au16
_symmetry_space_group_name_H-M   'P 1'
_cell_length_a   9.27404563
_cell_length_b   9.27404598
_cell_length_c   9.27404500
_cell_angle_alpha   59.99999994
_cell_angle_beta   59.99999867
_cell_angle_gamma   60.00000245
_symmetry_Int_Tables_number   1
_chemical_formula_structural   Yb6Al7Au16
_chemical_formula_sum   'Yb6 Al7 Au16'
_cell_volume   564.01762785
_cell_formula_units_Z   1
loop_
 _symmetry_equiv_pos_site_id
 _symmetry_equiv_pos_as_xyz
  1  'x, y, z'
loop_
 _atom_site_type_symbol
 _atom_site_label
 _atom_site_symmetry_multiplicity
 _atom_site_fract_x
 _atom_site_fract_y
 _atom_site_fract_z
 _atom_site_occupancy
  Yb  Yb0  1  0.714754  0.714754  0.285246  1
  Yb  Yb1  1  0.285246  0.714754  0.285246  1
  Yb  Yb2  1  0.714754  0.285246  0.285246  1
  Yb  Yb3  1  0.285246  0.285246  0.714754  1
  Yb  Yb4  1  0.714754  0.285246  0.714754  1
  Yb  Yb5  1  0.285246  0.714754  0.714754  1
  Al  Al6  1  0.000000  0.000000  0.000000  1
  Al  Al7  1  0.000000  0.000000  0.500000  1
  Al  Al8  1  0.500000  0.000000  0.500000  1
  Al  Al9  1  0.000000  0.500000  0.500000  1
  Al  Al10  1  0.500000  0.500000  0.000000  1
  Al  Al11  1  0.000000  0.500000  0.000000  1
  Al  Al12  1  0.500000  0.000000  0.000000  1
  Au  Au13  1  0.882256  0.882256  0.353231  1
  Au  Au14  1  0.882256  0.353231  0.882256  1
  Au  Au15  1  0.353231  0.882256  0.882256  1
  Au  Au16  1  0.882256  0.882256  0.882256  1
  Au  Au17  1  0.117744  0.117744  0.646769  1
  Au  Au18  1  0.117744  0.646769  0.117744  1
  Au  Au19  1  0.646769  0.117744  0.117744  1
  Au  Au20  1  0.117744  0.117744  0.117744  1
  Au  Au21  1  0.659955  0.659955  0.020135  1
  Au  Au22  1  0.659955  0.020135  0.659955  1
  Au  Au23  1  0.020135  0.659955  0.659955  1
  Au  Au24  1  0.659955  0.659955  0.659955  1
  Au  Au25  1  0.340045  0.340045  0.979865  1
  Au  Au26  1  0.340045  0.979865  0.340045  1
  Au  Au27  1  0.979865  0.340045  0.340045  1
  Au  Au28  1  0.340045  0.340045  0.340045  1
