# generated using pymatgen
data_Nd7Dy4Y(Si2Ni)4
_symmetry_space_group_name_H-M   'P 1'
_cell_length_a   4.19077100
_cell_length_b   11.72924097
_cell_length_c   11.38674170
_cell_angle_alpha   89.88218232
_cell_angle_beta   90.00000000
_cell_angle_gamma   90.00000000
_symmetry_Int_Tables_number   1
_chemical_formula_structural   Nd7Dy4Y(Si2Ni)4
_chemical_formula_sum   'Nd7 Dy4 Y1 Si8 Ni4'
_cell_volume   559.70912782
_cell_formula_units_Z   1
loop_
 _symmetry_equiv_pos_site_id
 _symmetry_equiv_pos_as_xyz
  1  'x, y, z'
loop_
 _atom_site_type_symbol
 _atom_site_label
 _atom_site_symmetry_multiplicity
 _atom_site_fract_x
 _atom_site_fract_y
 _atom_site_fract_z
 _atom_site_occupancy
  Nd  Nd0  1  0.250000  0.058316  0.885641  1
  Nd  Nd1  1  0.250000  0.439945  0.383948  1
  Nd  Nd2  1  0.750000  0.938566  0.114369  1
  Nd  Nd3  1  0.750000  0.561023  0.615645  1
  Nd  Nd4  1  0.250000  0.122930  0.564325  1
  Nd  Nd5  1  0.250000  0.379473  0.060392  1
  Nd  Nd6  1  0.750000  0.877305  0.437805  1
  Dy  Dy7  1  0.250000  0.801827  0.711129  1
  Dy  Dy8  1  0.250000  0.692540  0.208254  1
  Dy  Dy9  1  0.750000  0.192934  0.290200  1
  Dy  Dy10  1  0.750000  0.311692  0.791785  1
  Y  Y11  1  0.750000  0.623633  0.937123  1
  Si  Si12  1  0.250000  0.805515  0.969343  1
  Si  Si13  1  0.250000  0.688879  0.467140  1
  Si  Si14  1  0.750000  0.190056  0.031012  1
  Si  Si15  1  0.750000  0.311318  0.532421  1
  Si  Si16  1  0.250000  0.491070  0.804611  1
  Si  Si17  1  0.250000  0.017339  0.302116  1
  Si  Si18  1  0.750000  0.517535  0.194888  1
  Si  Si19  1  0.750000  0.979552  0.698521  1
  Ni  Ni20  1  0.250000  0.365008  0.635829  1
  Ni  Ni21  1  0.250000  0.139113  0.132576  1
  Ni  Ni22  1  0.750000  0.638250  0.365068  1
  Ni  Ni23  1  0.750000  0.856184  0.865856  1
