# generated using pymatgen
data_Yb2Pr8InSi5
_symmetry_space_group_name_H-M   'P 1'
_cell_length_a   7.81643559
_cell_length_b   7.81643547
_cell_length_c   9.18897222
_cell_angle_alpha   115.17067456
_cell_angle_beta   115.17067334
_cell_angle_gamma   89.99999980
_symmetry_Int_Tables_number   1
_chemical_formula_structural   Yb2Pr8InSi5
_chemical_formula_sum   'Yb2 Pr8 In1 Si5'
_cell_volume   448.50476455
_cell_formula_units_Z   1
loop_
 _symmetry_equiv_pos_site_id
 _symmetry_equiv_pos_as_xyz
  1  'x, y, z'
loop_
 _atom_site_type_symbol
 _atom_site_label
 _atom_site_symmetry_multiplicity
 _atom_site_fract_x
 _atom_site_fract_y
 _atom_site_fract_z
 _atom_site_occupancy
  Yb  Yb0  1  0.516688  0.516688  0.033378  1
  Yb  Yb1  1  0.983312  0.983312  0.966622  1
  Pr  Pr2  1  0.971341  0.830796  0.280902  1
  Pr  Pr3  1  0.309561  0.450106  0.280902  1
  Pr  Pr4  1  0.830796  0.309561  0.280902  1
  Pr  Pr5  1  0.450106  0.971341  0.280902  1
  Pr  Pr6  1  0.049894  0.190439  0.719098  1
  Pr  Pr7  1  0.669204  0.528659  0.719098  1
  Pr  Pr8  1  0.190439  0.669204  0.719098  1
  Pr  Pr9  1  0.528659  0.049894  0.719098  1
  In  In10  1  0.750000  0.750000  0.500000  1
  Si  Si11  1  0.250000  0.250000  0.500000  1
  Si  Si12  1  0.612227  0.887773  0.000000  1
  Si  Si13  1  0.387773  0.112227  0.000000  1
  Si  Si14  1  0.887773  0.387773  0.000000  1
  Si  Si15  1  0.112227  0.612227  0.000000  1
