# generated using pymatgen
data_TbYbPrGa8Ag3
_symmetry_space_group_name_H-M   'P 1'
_cell_length_a   4.38638211
_cell_length_b   8.42476620
_cell_length_c   8.42476508
_cell_angle_alpha   69.87296456
_cell_angle_beta   74.91054292
_cell_angle_gamma   74.91054663
_symmetry_Int_Tables_number   1
_chemical_formula_structural   TbYbPrGa8Ag3
_chemical_formula_sum   'Tb1 Yb1 Pr1 Ga8 Ag3'
_cell_volume   277.18811353
_cell_formula_units_Z   1
loop_
 _symmetry_equiv_pos_site_id
 _symmetry_equiv_pos_as_xyz
  1  'x, y, z'
loop_
 _atom_site_type_symbol
 _atom_site_label
 _atom_site_symmetry_multiplicity
 _atom_site_fract_x
 _atom_site_fract_y
 _atom_site_fract_z
 _atom_site_occupancy
  Tb  Tb0  1  0.799494  0.200506  0.200506  1
  Yb  Yb1  1  0.196869  0.803131  0.803131  1
  Pr  Pr2  1  0.499443  0.500557  0.500557  1
  Ga  Ga3  1  0.358273  0.359890  0.923562  1
  Ga  Ga4  1  0.644758  0.635965  0.074519  1
  Ga  Ga5  1  0.358273  0.923562  0.359890  1
  Ga  Ga6  1  0.644758  0.074519  0.635965  1
  Ga  Ga7  1  0.160539  0.470092  0.208830  1
  Ga  Ga8  1  0.836982  0.530431  0.795605  1
  Ga  Ga9  1  0.160539  0.208830  0.470092  1
  Ga  Ga10  1  0.836982  0.795605  0.530431  1
  Ag  Ag11  1  0.500871  0.999129  0.999129  1
  Ag  Ag12  1  0.001109  0.803496  0.194286  1
  Ag  Ag13  1  0.001109  0.194286  0.803496  1
