# generated using pymatgen
data_Pr3Nd2Pt19
_symmetry_space_group_name_H-M   'P 1'
_cell_length_a   5.46684680
_cell_length_b   5.46684683
_cell_length_c   18.10188399
_cell_angle_alpha   81.31499523
_cell_angle_beta   81.31499558
_cell_angle_gamma   59.99998873
_symmetry_Int_Tables_number   1
_chemical_formula_structural   Pr3Nd2Pt19
_chemical_formula_sum   'Pr3 Nd2 Pt19'
_cell_volume   461.34305243
_cell_formula_units_Z   1
loop_
 _symmetry_equiv_pos_site_id
 _symmetry_equiv_pos_as_xyz
  1  'x, y, z'
loop_
 _atom_site_type_symbol
 _atom_site_label
 _atom_site_symmetry_multiplicity
 _atom_site_fract_x
 _atom_site_fract_y
 _atom_site_fract_z
 _atom_site_occupancy
  Pr  Pr0  1  0.000000  0.000000  0.000000  1
  Pr  Pr1  1  0.077386  0.077386  0.767841  1
  Pr  Pr2  1  0.922614  0.922614  0.232159  1
  Nd  Nd3  1  0.152100  0.152100  0.543699  1
  Nd  Nd4  1  0.847900  0.847900  0.456301  1
  Pt  Pt5  1  0.500000  0.500000  0.500000  1
  Pt  Pt6  1  0.250047  0.250047  0.249858  1
  Pt  Pt7  1  0.749953  0.749953  0.750142  1
  Pt  Pt8  1  0.333261  0.333261  0.000218  1
  Pt  Pt9  1  0.666739  0.666739  0.999782  1
  Pt  Pt10  1  0.416279  0.416279  0.751165  1
  Pt  Pt11  1  0.583721  0.583721  0.248835  1
  Pt  Pt12  1  0.122378  0.626480  0.624663  1
  Pt  Pt13  1  0.626480  0.626480  0.624663  1
  Pt  Pt14  1  0.626480  0.122378  0.624663  1
  Pt  Pt15  1  0.877622  0.373520  0.375337  1
  Pt  Pt16  1  0.373520  0.373520  0.375337  1
  Pt  Pt17  1  0.373520  0.877622  0.375337  1
  Pt  Pt18  1  0.041186  0.541266  0.876280  1
  Pt  Pt19  1  0.541266  0.541266  0.876280  1
  Pt  Pt20  1  0.541266  0.041186  0.876280  1
  Pt  Pt21  1  0.958814  0.458734  0.123720  1
  Pt  Pt22  1  0.458734  0.458734  0.123720  1
  Pt  Pt23  1  0.458734  0.958814  0.123720  1
