# generated using pymatgen
data_Nd5Ho2Tm(Si3Rh)4
_symmetry_space_group_name_H-M   'P 1'
_cell_length_a   8.22799233
_cell_length_b   8.22799173
_cell_length_c   8.14790200
_cell_angle_alpha   90.00000000
_cell_angle_beta   90.00000000
_cell_angle_gamma   119.96734214
_symmetry_Int_Tables_number   1
_chemical_formula_structural   Nd5Ho2Tm(Si3Rh)4
_chemical_formula_sum   'Nd5 Ho2 Tm1 Si12 Rh4'
_cell_volume   477.86693146
_cell_formula_units_Z   1
loop_
 _symmetry_equiv_pos_site_id
 _symmetry_equiv_pos_as_xyz
  1  'x, y, z'
loop_
 _atom_site_type_symbol
 _atom_site_label
 _atom_site_symmetry_multiplicity
 _atom_site_fract_x
 _atom_site_fract_y
 _atom_site_fract_z
 _atom_site_occupancy
  Nd  Nd0  1  0.000108  0.999892  0.250000  1
  Nd  Nd1  1  0.999935  0.000065  0.750000  1
  Nd  Nd2  1  0.505037  0.494963  0.250000  1
  Nd  Nd3  1  0.505104  0.010300  0.250000  1
  Nd  Nd4  1  0.989700  0.494896  0.250000  1
  Ho  Ho5  1  0.492328  0.984453  0.750000  1
  Ho  Ho6  1  0.015547  0.507672  0.750000  1
  Tm  Tm7  1  0.492507  0.507493  0.750000  1
  Si  Si8  1  0.166833  0.833167  0.506683  1
  Si  Si9  1  0.167077  0.333738  0.507204  1
  Si  Si10  1  0.666262  0.832923  0.507204  1
  Si  Si11  1  0.831594  0.168406  0.504534  1
  Si  Si12  1  0.831516  0.663272  0.504696  1
  Si  Si13  1  0.336728  0.168484  0.504696  1
  Si  Si14  1  0.831594  0.168406  0.995466  1
  Si  Si15  1  0.831516  0.663272  0.995304  1
  Si  Si16  1  0.336728  0.168484  0.995304  1
  Si  Si17  1  0.166833  0.833167  0.993317  1
  Si  Si18  1  0.167077  0.333738  0.992796  1
  Si  Si19  1  0.666262  0.832923  0.992796  1
  Rh  Rh20  1  0.333615  0.666385  0.490562  1
  Rh  Rh21  1  0.666242  0.333758  0.545885  1
  Rh  Rh22  1  0.666242  0.333758  0.954115  1
  Rh  Rh23  1  0.333615  0.666385  0.009438  1
