# generated using pymatgen
data_Dy2Er4NbCo17P12
_symmetry_space_group_name_H-M   'P 1'
_cell_length_a   3.68803000
_cell_length_b   10.53076200
_cell_length_c   12.21516900
_cell_angle_alpha   90.00000000
_cell_angle_beta   90.00000000
_cell_angle_gamma   90.00000000
_symmetry_Int_Tables_number   1
_chemical_formula_structural   Dy2Er4NbCo17P12
_chemical_formula_sum   'Dy2 Er4 Nb1 Co17 P12'
_cell_volume   474.40987746
_cell_formula_units_Z   1
loop_
 _symmetry_equiv_pos_site_id
 _symmetry_equiv_pos_as_xyz
  1  'x, y, z'
loop_
 _atom_site_type_symbol
 _atom_site_label
 _atom_site_symmetry_multiplicity
 _atom_site_fract_x
 _atom_site_fract_y
 _atom_site_fract_z
 _atom_site_occupancy
  Dy  Dy0  1  0.750000  0.250000  0.473277  1
  Dy  Dy1  1  0.250000  0.750000  0.522281  1
  Er  Er2  1  0.250000  0.930286  0.792955  1
  Er  Er3  1  0.250000  0.569714  0.792955  1
  Er  Er4  1  0.750000  0.067346  0.204186  1
  Er  Er5  1  0.750000  0.432654  0.204186  1
  Nb  Nb6  1  0.250000  0.250000  0.845055  1
  Co  Co7  1  0.750000  0.750000  0.161234  1
  Co  Co8  1  0.250000  0.250000  0.298050  1
  Co  Co9  1  0.750000  0.750000  0.703464  1
  Co  Co10  1  0.750000  0.250000  0.015923  1
  Co  Co11  1  0.250000  0.750000  0.985538  1
  Co  Co12  1  0.250000  0.420286  0.010866  1
  Co  Co13  1  0.250000  0.079714  0.010866  1
  Co  Co14  1  0.750000  0.586250  0.995658  1
  Co  Co15  1  0.750000  0.913750  0.995658  1
  Co  Co16  1  0.250000  0.454987  0.567285  1
  Co  Co17  1  0.250000  0.045013  0.567285  1
  Co  Co18  1  0.750000  0.547449  0.430185  1
  Co  Co19  1  0.750000  0.952551  0.430185  1
  Co  Co20  1  0.250000  0.870820  0.291604  1
  Co  Co21  1  0.250000  0.629180  0.291604  1
  Co  Co22  1  0.750000  0.126569  0.705616  1
  Co  Co23  1  0.750000  0.373431  0.705616  1
  P  P24  1  0.250000  0.250000  0.119827  1
  P  P25  1  0.750000  0.750000  0.882231  1
  P  P26  1  0.250000  0.250000  0.644140  1
  P  P27  1  0.750000  0.750000  0.344098  1
  P  P28  1  0.250000  0.440147  0.382579  1
  P  P29  1  0.250000  0.059853  0.382579  1
  P  P30  1  0.750000  0.561937  0.614630  1
  P  P31  1  0.750000  0.938063  0.614630  1
  P  P32  1  0.250000  0.899193  0.110082  1
  P  P33  1  0.250000  0.600807  0.110082  1
  P  P34  1  0.750000  0.088681  0.896796  1
  P  P35  1  0.750000  0.411319  0.896796  1
