# generated using pymatgen
data_PrNd(B2Ir3)3
_symmetry_space_group_name_H-M   'P 1'
_cell_length_a   5.70794200
_cell_length_b   5.70793527
_cell_length_c   8.62715300
_cell_angle_alpha   89.99971894
_cell_angle_beta   89.99941780
_cell_angle_gamma   59.99996097
_symmetry_Int_Tables_number   1
_chemical_formula_structural   PrNd(B2Ir3)3
_chemical_formula_sum   'Pr1 Nd1 B6 Ir9'
_cell_volume   243.42016458
_cell_formula_units_Z   1
loop_
 _symmetry_equiv_pos_site_id
 _symmetry_equiv_pos_as_xyz
  1  'x, y, z'
loop_
 _atom_site_type_symbol
 _atom_site_label
 _atom_site_symmetry_multiplicity
 _atom_site_fract_x
 _atom_site_fract_y
 _atom_site_fract_z
 _atom_site_occupancy
  Pr  Pr0  1  0.000004  0.000001  0.295805  1
  Nd  Nd1  1  0.999943  0.999998  0.702856  1
  B  B2  1  0.666663  0.666665  0.999924  1
  B  B3  1  0.333334  0.333335  0.999921  1
  B  B4  1  0.666663  0.666658  0.332396  1
  B  B5  1  0.333344  0.333339  0.332394  1
  B  B6  1  0.333346  0.333343  0.668082  1
  B  B7  1  0.666667  0.666659  0.668084  1
  Ir  Ir8  1  0.500007  0.999999  0.163103  1
  Ir  Ir9  1  0.000005  0.500006  0.163103  1
  Ir  Ir10  1  0.500002  0.500000  0.163104  1
  Ir  Ir11  1  0.499960  0.000000  0.836907  1
  Ir  Ir12  1  0.999982  0.499986  0.836906  1
  Ir  Ir13  1  0.499976  0.500009  0.836906  1
  Ir  Ir14  1  0.499995  0.000000  0.500171  1
  Ir  Ir15  1  0.000007  0.499995  0.500170  1
  Ir  Ir16  1  0.500003  0.500005  0.500170  1
