# generated using pymatgen
data_KSr(AcB12)2
_symmetry_space_group_name_H-M   'P 1'
_cell_length_a   7.22478000
_cell_length_b   7.22477948
_cell_length_c   5.93077500
_cell_angle_alpha   90.00000000
_cell_angle_beta   90.00000000
_cell_angle_gamma   109.30047389
_symmetry_Int_Tables_number   1
_chemical_formula_structural   KSr(AcB12)2
_chemical_formula_sum   'K1 Sr1 Ac2 B24'
_cell_volume   292.17282795
_cell_formula_units_Z   1
loop_
 _symmetry_equiv_pos_site_id
 _symmetry_equiv_pos_as_xyz
  1  'x, y, z'
loop_
 _atom_site_type_symbol
 _atom_site_label
 _atom_site_symmetry_multiplicity
 _atom_site_fract_x
 _atom_site_fract_y
 _atom_site_fract_z
 _atom_site_occupancy
  K  K0  1  0.000000  0.000000  0.000000  1
  Sr  Sr1  1  0.500000  0.500000  0.000000  1
  Ac  Ac2  1  0.751602  0.248398  0.500000  1
  Ac  Ac3  1  0.248398  0.751602  0.500000  1
  B  B4  1  0.176007  0.325000  0.648756  1
  B  B5  1  0.924922  0.574391  0.148084  1
  B  B6  1  0.675000  0.823993  0.648756  1
  B  B7  1  0.425609  0.075078  0.148084  1
  B  B8  1  0.176007  0.325000  0.351244  1
  B  B9  1  0.924922  0.574391  0.851916  1
  B  B10  1  0.675000  0.823993  0.351244  1
  B  B11  1  0.425609  0.075078  0.851916  1
  B  B12  1  0.399038  0.399038  0.500000  1
  B  B13  1  0.148170  0.649542  0.000000  1
  B  B14  1  0.898444  0.898444  0.500000  1
  B  B15  1  0.649542  0.148170  0.000000  1
  B  B16  1  0.325000  0.176007  0.648756  1
  B  B17  1  0.075078  0.425609  0.148084  1
  B  B18  1  0.823993  0.675000  0.648756  1
  B  B19  1  0.574391  0.924922  0.148084  1
  B  B20  1  0.101556  0.101556  0.500000  1
  B  B21  1  0.851830  0.350458  0.000000  1
  B  B22  1  0.600962  0.600962  0.500000  1
  B  B23  1  0.350458  0.851830  0.000000  1
  B  B24  1  0.325000  0.176007  0.351244  1
  B  B25  1  0.075078  0.425609  0.851916  1
  B  B26  1  0.823993  0.675000  0.351244  1
  B  B27  1  0.574391  0.924922  0.851916  1
