# generated using pymatgen
data_BaErZn3GaO7
_symmetry_space_group_name_H-M   'P 1'
_cell_length_a   6.38982200
_cell_length_b   6.39016877
_cell_length_c   10.39636600
_cell_angle_alpha   90.00000000
_cell_angle_beta   90.00000000
_cell_angle_gamma   119.99875345
_symmetry_Int_Tables_number   1
_chemical_formula_structural   BaErZn3GaO7
_chemical_formula_sum   'Ba2 Er2 Zn6 Ga2 O14'
_cell_volume   367.63659543
_cell_formula_units_Z   2
loop_
 _symmetry_equiv_pos_site_id
 _symmetry_equiv_pos_as_xyz
  1  'x, y, z'
loop_
 _atom_site_type_symbol
 _atom_site_label
 _atom_site_symmetry_multiplicity
 _atom_site_fract_x
 _atom_site_fract_y
 _atom_site_fract_z
 _atom_site_occupancy
  Ba  Ba0  1  0.666668  0.333331  0.984059  1
  Ba  Ba1  1  0.333332  0.666669  0.484059  1
  Er  Er2  1  0.666663  0.333331  0.633714  1
  Er  Er3  1  0.333337  0.666669  0.133714  1
  Zn  Zn4  1  0.171352  0.828646  0.817232  1
  Zn  Zn5  1  0.657286  0.828642  0.817235  1
  Zn  Zn6  1  0.171361  0.342721  0.817232  1
  Zn  Zn7  1  0.828648  0.171354  0.317232  1
  Zn  Zn8  1  0.342714  0.171358  0.317235  1
  Zn  Zn9  1  0.828639  0.657279  0.317232  1
  Ga  Ga10  1  0.999962  0.000004  0.067667  1
  Ga  Ga11  1  0.000038  0.999996  0.567667  1
  O  O12  1  0.507956  0.492041  0.764464  1
  O  O13  1  0.984084  0.492042  0.764463  1
  O  O14  1  0.507952  0.015907  0.764462  1
  O  O15  1  0.492044  0.507959  0.264464  1
  O  O16  1  0.015916  0.507958  0.264463  1
  O  O17  1  0.492048  0.984093  0.264462  1
  O  O18  1  0.999999  0.999995  0.249388  1
  O  O19  1  0.000001  0.000005  0.749388  1
  O  O20  1  0.160239  0.839767  0.011110  1
  O  O21  1  0.679551  0.839777  0.011113  1
  O  O22  1  0.160233  0.320465  0.011112  1
  O  O23  1  0.839761  0.160233  0.511110  1
  O  O24  1  0.320449  0.160223  0.511113  1
  O  O25  1  0.839767  0.679535  0.511112  1
