# generated using pymatgen
data_La3SnBi2Rh3
_symmetry_space_group_name_H-M   'P 1'
_cell_length_a   7.72613500
_cell_length_b   7.79010129
_cell_length_c   4.18127300
_cell_angle_alpha   90.00000000
_cell_angle_beta   90.00000000
_cell_angle_gamma   119.72874873
_symmetry_Int_Tables_number   1
_chemical_formula_structural   La3SnBi2Rh3
_chemical_formula_sum   'La3 Sn1 Bi2 Rh3'
_cell_volume   218.53707990
_cell_formula_units_Z   1
loop_
 _symmetry_equiv_pos_site_id
 _symmetry_equiv_pos_as_xyz
  1  'x, y, z'
loop_
 _atom_site_type_symbol
 _atom_site_label
 _atom_site_symmetry_multiplicity
 _atom_site_fract_x
 _atom_site_fract_y
 _atom_site_fract_z
 _atom_site_occupancy
  La  La0  1  0.007449  0.595124  0.000000  1
  La  La1  1  0.412326  0.404876  0.000000  1
  La  La2  1  0.583578  0.000000  0.000000  1
  Sn  Sn3  1  0.255372  0.000000  0.500000  1
  Bi  Bi4  1  0.746344  0.743322  0.500000  1
  Bi  Bi5  1  0.003022  0.256678  0.500000  1
  Rh  Rh6  1  0.328983  0.674779  0.500000  1
  Rh  Rh7  1  0.654205  0.325221  0.500000  1
  Rh  Rh8  1  0.008720  0.000000  0.000000  1
