# generated using pymatgen
data_Tm4Lu6(SnSb)3
_symmetry_space_group_name_H-M   'P 1'
_cell_length_a   8.82260154
_cell_length_b   8.82260292
_cell_length_c   6.27893000
_cell_angle_alpha   90.00000000
_cell_angle_beta   90.00000000
_cell_angle_gamma   120.03991721
_symmetry_Int_Tables_number   1
_chemical_formula_structural   Tm4Lu6(SnSb)3
_chemical_formula_sum   'Tm4 Lu6 Sn3 Sb3'
_cell_volume   423.09202951
_cell_formula_units_Z   1
loop_
 _symmetry_equiv_pos_site_id
 _symmetry_equiv_pos_as_xyz
  1  'x, y, z'
loop_
 _atom_site_type_symbol
 _atom_site_label
 _atom_site_symmetry_multiplicity
 _atom_site_fract_x
 _atom_site_fract_y
 _atom_site_fract_z
 _atom_site_occupancy
  Tm  Tm0  1  0.760145  0.760145  0.750000  1
  Tm  Tm1  1  0.240055  0.999844  0.750000  1
  Tm  Tm2  1  0.999844  0.240055  0.750000  1
  Tm  Tm3  1  0.239249  0.239249  0.250000  1
  Lu  Lu4  1  0.666627  0.333358  0.000919  1
  Lu  Lu5  1  0.333358  0.666627  0.000919  1
  Lu  Lu6  1  0.333358  0.666627  0.499081  1
  Lu  Lu7  1  0.666627  0.333358  0.499081  1
  Lu  Lu8  1  0.760714  0.000011  0.250000  1
  Lu  Lu9  1  0.000011  0.760714  0.250000  1
  Sn  Sn10  1  0.606855  0.606855  0.250000  1
  Sn  Sn11  1  0.393754  0.999352  0.250000  1
  Sn  Sn12  1  0.999352  0.393754  0.250000  1
  Sb  Sb13  1  0.393256  0.393256  0.750000  1
  Sb  Sb14  1  0.606767  0.000027  0.750000  1
  Sb  Sb15  1  0.000027  0.606767  0.750000  1
