# generated using pymatgen
data_Tb11Nd8LuSi16
_symmetry_space_group_name_H-M   'P 1'
_cell_length_a   7.77227039
_cell_length_b   7.77227039
_cell_length_c   14.52599150
_cell_angle_alpha   90.02124083
_cell_angle_beta   89.97875917
_cell_angle_gamma   90.02932706
_symmetry_Int_Tables_number   1
_chemical_formula_structural   Tb11Nd8LuSi16
_chemical_formula_sum   'Tb11 Nd8 Lu1 Si16'
_cell_volume   877.48857511
_cell_formula_units_Z   1
loop_
 _symmetry_equiv_pos_site_id
 _symmetry_equiv_pos_as_xyz
  1  'x, y, z'
loop_
 _atom_site_type_symbol
 _atom_site_label
 _atom_site_symmetry_multiplicity
 _atom_site_fract_x
 _atom_site_fract_y
 _atom_site_fract_z
 _atom_site_occupancy
  Tb  Tb0  1  0.488363  0.365321  0.125023  1
  Tb  Tb1  1  0.988799  0.135068  0.624789  1
  Tb  Tb2  1  0.865019  0.011392  0.874989  1
  Tb  Tb3  1  0.135068  0.988799  0.375211  1
  Tb  Tb4  1  0.511021  0.634621  0.624733  1
  Tb  Tb5  1  0.365321  0.488363  0.874977  1
  Tb  Tb6  1  0.634621  0.511021  0.375267  1
  Tb  Tb7  1  0.011392  0.865019  0.125011  1
  Tb  Tb8  1  0.186074  0.814460  0.749976  1
  Tb  Tb9  1  0.814460  0.186074  0.250024  1
  Tb  Tb10  1  0.685998  0.685998  0.000000  1
  Nd  Nd11  1  0.635248  0.990333  0.454907  1
  Nd  Nd12  1  0.364699  0.009825  0.954961  1
  Nd  Nd13  1  0.990333  0.635248  0.545093  1
  Nd  Nd14  1  0.490120  0.864545  0.204967  1
  Nd  Nd15  1  0.509274  0.135478  0.704652  1
  Nd  Nd16  1  0.864545  0.490120  0.795033  1
  Nd  Nd17  1  0.135478  0.509274  0.295348  1
  Nd  Nd18  1  0.009825  0.364699  0.045039  1
  Lu  Lu19  1  0.314272  0.314272  0.500000  1
  Si  Si20  1  0.288822  0.932263  0.560898  1
  Si  Si21  1  0.711498  0.068965  0.060873  1
  Si  Si22  1  0.932263  0.288822  0.439102  1
  Si  Si23  1  0.430569  0.212011  0.312134  1
  Si  Si24  1  0.568894  0.788455  0.810768  1
  Si  Si25  1  0.212011  0.430569  0.687866  1
  Si  Si26  1  0.788455  0.568894  0.189232  1
  Si  Si27  1  0.068965  0.711498  0.939127  1
  Si  Si28  1  0.799927  0.840729  0.693234  1
  Si  Si29  1  0.199869  0.159485  0.193515  1
  Si  Si30  1  0.840729  0.799927  0.306766  1
  Si  Si31  1  0.340505  0.699159  0.443405  1
  Si  Si32  1  0.659154  0.299768  0.943244  1
  Si  Si33  1  0.699159  0.340505  0.556595  1
  Si  Si34  1  0.299768  0.659154  0.056756  1
  Si  Si35  1  0.159485  0.199869  0.806485  1
