# generated using pymatgen
data_YbScOs3Ru
_symmetry_space_group_name_H-M   'P 1'
_cell_length_a   5.20401500
_cell_length_b   5.20401335
_cell_length_c   8.80258700
_cell_angle_alpha   90.00000000
_cell_angle_beta   90.00000000
_cell_angle_gamma   120.00001683
_symmetry_Int_Tables_number   1
_chemical_formula_structural   YbScOs3Ru
_chemical_formula_sum   'Yb2 Sc2 Os6 Ru2'
_cell_volume   206.45139701
_cell_formula_units_Z   2
loop_
 _symmetry_equiv_pos_site_id
 _symmetry_equiv_pos_as_xyz
  1  'x, y, z'
loop_
 _atom_site_type_symbol
 _atom_site_label
 _atom_site_symmetry_multiplicity
 _atom_site_fract_x
 _atom_site_fract_y
 _atom_site_fract_z
 _atom_site_occupancy
  Yb  Yb0  1  0.333333  0.666667  0.438856  1
  Yb  Yb1  1  0.666667  0.333333  0.561144  1
  Sc  Sc2  1  0.666667  0.333333  0.929214  1
  Sc  Sc3  1  0.333333  0.666667  0.070786  1
  Os  Os4  1  0.171812  0.343626  0.756569  1
  Os  Os5  1  0.171812  0.828188  0.756569  1
  Os  Os6  1  0.343626  0.171812  0.243431  1
  Os  Os7  1  0.828188  0.656374  0.243431  1
  Os  Os8  1  0.656374  0.828188  0.756569  1
  Os  Os9  1  0.828188  0.171812  0.243431  1
  Ru  Ru10  1  0.000000  0.000000  0.000000  1
  Ru  Ru11  1  0.000000  0.000000  0.500000  1
