# generated using pymatgen
data_LiTmB6Ir
_symmetry_space_group_name_H-M   'P 1'
_cell_length_a   3.50824600
_cell_length_b   8.80704400
_cell_length_c   11.19624700
_cell_angle_alpha   90.00000000
_cell_angle_beta   90.00000000
_cell_angle_gamma   90.00000000
_symmetry_Int_Tables_number   1
_chemical_formula_structural   LiTmB6Ir
_chemical_formula_sum   'Li4 Tm4 B24 Ir4'
_cell_volume   345.93354363
_cell_formula_units_Z   4
loop_
 _symmetry_equiv_pos_site_id
 _symmetry_equiv_pos_as_xyz
  1  'x, y, z'
loop_
 _atom_site_type_symbol
 _atom_site_label
 _atom_site_symmetry_multiplicity
 _atom_site_fract_x
 _atom_site_fract_y
 _atom_site_fract_z
 _atom_site_occupancy
  Li  Li0  1  0.500000  0.446111  0.122900  1
  Li  Li1  1  0.500000  0.553889  0.877100  1
  Li  Li2  1  0.500000  0.053889  0.622900  1
  Li  Li3  1  0.500000  0.946111  0.377100  1
  Tm  Tm4  1  0.500000  0.316870  0.414215  1
  Tm  Tm5  1  0.500000  0.683130  0.585785  1
  Tm  Tm6  1  0.500000  0.183130  0.914215  1
  Tm  Tm7  1  0.500000  0.816870  0.085785  1
  B  B8  1  0.000000  0.090993  0.475013  1
  B  B9  1  0.000000  0.909007  0.524987  1
  B  B10  1  0.000000  0.409007  0.975013  1
  B  B11  1  0.000000  0.590993  0.024987  1
  B  B12  1  0.000000  0.124557  0.318998  1
  B  B13  1  0.000000  0.875443  0.681002  1
  B  B14  1  0.000000  0.375443  0.818998  1
  B  B15  1  0.000000  0.624557  0.181002  1
  B  B16  1  0.000000  0.055469  0.067273  1
  B  B17  1  0.000000  0.944531  0.932727  1
  B  B18  1  0.000000  0.444531  0.567273  1
  B  B19  1  0.000000  0.555469  0.432727  1
  B  B20  1  0.000000  0.479067  0.285466  1
  B  B21  1  0.000000  0.520933  0.714534  1
  B  B22  1  0.000000  0.020933  0.785466  1
  B  B23  1  0.000000  0.979067  0.214534  1
  B  B24  1  0.000000  0.258385  0.081590  1
  B  B25  1  0.000000  0.741615  0.918410  1
  B  B26  1  0.000000  0.241615  0.581590  1
  B  B27  1  0.000000  0.758385  0.418410  1
  B  B28  1  0.000000  0.293466  0.236046  1
  B  B29  1  0.000000  0.706534  0.763954  1
  B  B30  1  0.000000  0.206534  0.736046  1
  B  B31  1  0.000000  0.793466  0.263954  1
  Ir  Ir32  1  0.500000  0.140197  0.181721  1
  Ir  Ir33  1  0.500000  0.859803  0.818279  1
  Ir  Ir34  1  0.500000  0.359803  0.681721  1
  Ir  Ir35  1  0.500000  0.640197  0.318279  1
