# generated using pymatgen
data_Rb4OsRhBr12
_symmetry_space_group_name_H-M   'P 1'
_cell_length_a   7.53314300
_cell_length_b   7.53314300
_cell_length_c   10.89583700
_cell_angle_alpha   90.00000000
_cell_angle_beta   90.00000000
_cell_angle_gamma   90.00000000
_symmetry_Int_Tables_number   1
_chemical_formula_structural   Rb4OsRhBr12
_chemical_formula_sum   'Rb4 Os1 Rh1 Br12'
_cell_volume   618.31961076
_cell_formula_units_Z   1
loop_
 _symmetry_equiv_pos_site_id
 _symmetry_equiv_pos_as_xyz
  1  'x, y, z'
loop_
 _atom_site_type_symbol
 _atom_site_label
 _atom_site_symmetry_multiplicity
 _atom_site_fract_x
 _atom_site_fract_y
 _atom_site_fract_z
 _atom_site_occupancy
  Rb  Rb0  1  0.500000  0.000000  0.774842  1
  Rb  Rb1  1  0.000000  0.500000  0.225158  1
  Rb  Rb2  1  0.500000  0.000000  0.225158  1
  Rb  Rb3  1  0.000000  0.500000  0.774842  1
  Os  Os4  1  0.500000  0.500000  0.500000  1
  Rh  Rh5  1  0.000000  0.000000  0.000000  1
  Br  Br6  1  0.000000  0.000000  0.768401  1
  Br  Br7  1  0.500000  0.500000  0.269982  1
  Br  Br8  1  0.734173  0.734173  0.500000  1
  Br  Br9  1  0.236336  0.236336  0.000000  1
  Br  Br10  1  0.734173  0.265827  0.500000  1
  Br  Br11  1  0.236336  0.763664  0.000000  1
  Br  Br12  1  0.000000  0.000000  0.231599  1
  Br  Br13  1  0.500000  0.500000  0.730018  1
  Br  Br14  1  0.265827  0.265827  0.500000  1
  Br  Br15  1  0.763664  0.763664  0.000000  1
  Br  Br16  1  0.265827  0.734173  0.500000  1
  Br  Br17  1  0.763664  0.236336  0.000000  1
