# generated using pymatgen
data_Ho8Tm4Co4CuSn
_symmetry_space_group_name_H-M   'P 1'
_cell_length_a   8.22339616
_cell_length_b   8.22339563
_cell_length_c   8.22339524
_cell_angle_alpha   111.63864319
_cell_angle_beta   109.84714109
_cell_angle_gamma   106.96194940
_symmetry_Int_Tables_number   1
_chemical_formula_structural   Ho8Tm4Co4CuSn
_chemical_formula_sum   'Ho8 Tm4 Co4 Cu1 Sn1'
_cell_volume   427.36467614
_cell_formula_units_Z   1
loop_
 _symmetry_equiv_pos_site_id
 _symmetry_equiv_pos_as_xyz
  1  'x, y, z'
loop_
 _atom_site_type_symbol
 _atom_site_label
 _atom_site_symmetry_multiplicity
 _atom_site_fract_x
 _atom_site_fract_y
 _atom_site_fract_z
 _atom_site_occupancy
  Ho  Ho0  1  0.422063  0.224124  0.197939  1
  Ho  Ho1  1  0.577937  0.775876  0.802061  1
  Ho  Ho2  1  0.026185  0.224124  0.802061  1
  Ho  Ho3  1  0.973815  0.775876  0.197939  1
  Ho  Ho4  1  0.182322  0.283898  0.466218  1
  Ho  Ho5  1  0.817678  0.716102  0.533782  1
  Ho  Ho6  1  0.182322  0.716102  0.898424  1
  Ho  Ho7  1  0.817678  0.283898  0.101576  1
  Tm  Tm8  1  0.322617  0.633156  0.310537  1
  Tm  Tm9  1  0.677383  0.366844  0.689463  1
  Tm  Tm10  1  0.322617  0.012080  0.689463  1
  Tm  Tm11  1  0.677383  0.987920  0.310537  1
  Co  Co12  1  0.354475  0.000000  0.354475  1
  Co  Co13  1  0.645525  0.000000  0.645525  1
  Co  Co14  1  0.114666  0.614666  0.500000  1
  Co  Co15  1  0.885334  0.385334  0.500000  1
  Cu  Cu16  1  0.000000  0.000000  0.000000  1
  Sn  Sn17  1  0.500000  0.500000  0.000000  1
