# generated using pymatgen
data_Sm3Si2SnRh6
_symmetry_space_group_name_H-M   'P 1'
_cell_length_a   5.69801600
_cell_length_b   5.69801584
_cell_length_c   15.55548900
_cell_angle_alpha   90.00000000
_cell_angle_beta   90.00000000
_cell_angle_gamma   119.99998932
_symmetry_Int_Tables_number   1
_chemical_formula_structural   Sm3Si2SnRh6
_chemical_formula_sum   'Sm6 Si4 Sn2 Rh12'
_cell_volume   437.38276240
_cell_formula_units_Z   2
loop_
 _symmetry_equiv_pos_site_id
 _symmetry_equiv_pos_as_xyz
  1  'x, y, z'
loop_
 _atom_site_type_symbol
 _atom_site_label
 _atom_site_symmetry_multiplicity
 _atom_site_fract_x
 _atom_site_fract_y
 _atom_site_fract_z
 _atom_site_occupancy
  Sm  Sm0  1  0.333334  0.666667  0.037842  1
  Sm  Sm1  1  0.333334  0.666667  0.250000  1
  Sm  Sm2  1  0.333334  0.666667  0.462158  1
  Sm  Sm3  1  0.666666  0.333333  0.537842  1
  Sm  Sm4  1  0.666666  0.333333  0.750000  1
  Sm  Sm5  1  0.666666  0.333333  0.962158  1
  Si  Si6  1  0.000000  0.000000  0.250000  1
  Si  Si7  1  0.666666  0.333333  0.250000  1
  Si  Si8  1  0.000000  0.000000  0.750000  1
  Si  Si9  1  0.333334  0.666667  0.750000  1
  Sn  Sn10  1  0.000000  0.000000  0.000000  1
  Sn  Sn11  1  0.000000  0.000000  0.500000  1
  Rh  Rh12  1  0.335153  0.167577  0.139493  1
  Rh  Rh13  1  0.832424  0.167577  0.139493  1
  Rh  Rh14  1  0.832424  0.664848  0.139493  1
  Rh  Rh15  1  0.335153  0.167577  0.360507  1
  Rh  Rh16  1  0.832424  0.167577  0.360507  1
  Rh  Rh17  1  0.832424  0.664848  0.360507  1
  Rh  Rh18  1  0.167577  0.335154  0.639493  1
  Rh  Rh19  1  0.167576  0.832423  0.639493  1
  Rh  Rh20  1  0.664847  0.832423  0.639493  1
  Rh  Rh21  1  0.167577  0.335154  0.860507  1
  Rh  Rh22  1  0.167576  0.832423  0.860507  1
  Rh  Rh23  1  0.664847  0.832423  0.860507  1
