# generated using pymatgen
data_Yb10Cd2CuRh3
_symmetry_space_group_name_H-M   'P 1'
_cell_length_a   8.95069915
_cell_length_b   8.95069896
_cell_length_c   8.95189519
_cell_angle_alpha   128.95045475
_cell_angle_beta   128.95044895
_cell_angle_gamma   75.08034242
_symmetry_Int_Tables_number   1
_chemical_formula_structural   Yb10Cd2CuRh3
_chemical_formula_sum   'Yb10 Cd2 Cu1 Rh3'
_cell_volume   422.35473877
_cell_formula_units_Z   1
loop_
 _symmetry_equiv_pos_site_id
 _symmetry_equiv_pos_as_xyz
  1  'x, y, z'
loop_
 _atom_site_type_symbol
 _atom_site_label
 _atom_site_symmetry_multiplicity
 _atom_site_fract_x
 _atom_site_fract_y
 _atom_site_fract_z
 _atom_site_occupancy
  Yb  Yb0  1  0.501480  0.504287  0.005767  1
  Yb  Yb1  1  0.995713  0.998520  0.994233  1
  Yb  Yb2  1  0.539766  0.031186  0.832702  1
  Yb  Yb3  1  0.207065  0.698485  0.167298  1
  Yb  Yb4  1  0.026603  0.218307  0.500000  1
  Yb  Yb5  1  0.709679  0.537937  0.500000  1
  Yb  Yb6  1  0.468814  0.960234  0.167298  1
  Yb  Yb7  1  0.801515  0.292935  0.832702  1
  Yb  Yb8  1  0.962063  0.790321  0.500000  1
  Yb  Yb9  1  0.281693  0.473397  0.500000  1
  Cd  Cd10  1  0.252621  0.247379  0.000000  1
  Cd  Cd11  1  0.752621  0.747379  0.000000  1
  Cu  Cu12  1  0.376141  0.123859  0.500000  1
  Rh  Rh13  1  0.138259  0.640201  0.778461  1
  Rh  Rh14  1  0.859799  0.361741  0.221539  1
  Rh  Rh15  1  0.626166  0.873834  0.500000  1
