# generated using pymatgen
data_La2Dy4IrBr10
_symmetry_space_group_name_H-M   'P 1'
_cell_length_a   7.51167341
_cell_length_b   9.43712757
_cell_length_c   9.42262983
_cell_angle_alpha   109.55801748
_cell_angle_beta   96.83481781
_cell_angle_gamma   104.06031896
_symmetry_Int_Tables_number   1
_chemical_formula_structural   La2Dy4IrBr10
_chemical_formula_sum   'La2 Dy4 Ir1 Br10'
_cell_volume   595.71656100
_cell_formula_units_Z   1
loop_
 _symmetry_equiv_pos_site_id
 _symmetry_equiv_pos_as_xyz
  1  'x, y, z'
loop_
 _atom_site_type_symbol
 _atom_site_label
 _atom_site_symmetry_multiplicity
 _atom_site_fract_x
 _atom_site_fract_y
 _atom_site_fract_z
 _atom_site_occupancy
  La  La0  1  0.969752  0.297175  0.098803  1
  La  La1  1  0.030248  0.702825  0.901197  1
  Dy  Dy2  1  0.638996  0.868364  0.816758  1
  Dy  Dy3  1  0.361004  0.131636  0.183242  1
  Dy  Dy4  1  0.123925  0.042708  0.749835  1
  Dy  Dy5  1  0.876075  0.957292  0.250165  1
  Ir  Ir6  1  0.000000  0.000000  0.000000  1
  Br  Br7  1  0.537600  0.169641  0.916526  1
  Br  Br8  1  0.462400  0.830359  0.083474  1
  Br  Br9  1  0.753919  0.916991  0.543393  1
  Br  Br10  1  0.246081  0.083009  0.456607  1
  Br  Br11  1  0.094005  0.359141  0.820879  1
  Br  Br12  1  0.905995  0.640859  0.179121  1
  Br  Br13  1  0.225151  0.752770  0.642690  1
  Br  Br14  1  0.774849  0.247230  0.357310  1
  Br  Br15  1  0.629254  0.552784  0.725554  1
  Br  Br16  1  0.370746  0.447216  0.274446  1
