# generated using pymatgen
data_Dy8Hg2RuRh
_symmetry_space_group_name_H-M   'P 1'
_cell_length_a   9.65860946
_cell_length_b   9.60610957
_cell_length_c   9.60610875
_cell_angle_alpha   59.65427834
_cell_angle_beta   59.81904063
_cell_angle_gamma   59.81903814
_symmetry_Int_Tables_number   1
_chemical_formula_structural   Dy8Hg2RuRh
_chemical_formula_sum   'Dy16 Hg4 Ru2 Rh2'
_cell_volume   626.84468720
_cell_formula_units_Z   2
loop_
 _symmetry_equiv_pos_site_id
 _symmetry_equiv_pos_as_xyz
  1  'x, y, z'
loop_
 _atom_site_type_symbol
 _atom_site_label
 _atom_site_symmetry_multiplicity
 _atom_site_fract_x
 _atom_site_fract_y
 _atom_site_fract_z
 _atom_site_occupancy
  Dy  Dy0  1  0.688514  0.311486  0.311486  1
  Dy  Dy1  1  0.690225  0.688352  0.311542  1
  Dy  Dy2  1  0.309881  0.688352  0.311542  1
  Dy  Dy3  1  0.936144  0.940395  0.561882  1
  Dy  Dy4  1  0.150615  0.151046  0.547725  1
  Dy  Dy5  1  0.561579  0.940395  0.561882  1
  Dy  Dy6  1  0.149991  0.150160  0.150160  1
  Dy  Dy7  1  0.309881  0.311542  0.688352  1
  Dy  Dy8  1  0.939324  0.560676  0.560676  1
  Dy  Dy9  1  0.561579  0.561882  0.940395  1
  Dy  Dy10  1  0.562857  0.937143  0.937143  1
  Dy  Dy11  1  0.936144  0.561882  0.940395  1
  Dy  Dy12  1  0.150615  0.547725  0.151046  1
  Dy  Dy13  1  0.309600  0.690400  0.690400  1
  Dy  Dy14  1  0.690225  0.311542  0.688352  1
  Dy  Dy15  1  0.549689  0.150160  0.150160  1
  Hg  Hg16  1  0.915075  0.915743  0.254106  1
  Hg  Hg17  1  0.253994  0.915542  0.915542  1
  Hg  Hg18  1  0.915075  0.254106  0.915743  1
  Hg  Hg19  1  0.914922  0.915542  0.915542  1
  Ru  Ru20  1  0.361794  0.357575  0.357575  1
  Ru  Ru21  1  0.923058  0.357575  0.357575  1
  Rh  Rh22  1  0.359611  0.355855  0.924925  1
  Rh  Rh23  1  0.359611  0.924925  0.355855  1
