# generated using pymatgen
data_Ca2TbNd(Ru2O7)2
_symmetry_space_group_name_H-M   'P 1'
_cell_length_a   7.30743906
_cell_length_b   7.35320350
_cell_length_c   7.30743916
_cell_angle_alpha   59.76305038
_cell_angle_beta   59.59771125
_cell_angle_gamma   59.76304852
_symmetry_Int_Tables_number   1
_chemical_formula_structural   Ca2TbNd(Ru2O7)2
_chemical_formula_sum   'Ca2 Tb1 Nd1 Ru4 O14'
_cell_volume   275.80295798
_cell_formula_units_Z   1
loop_
 _symmetry_equiv_pos_site_id
 _symmetry_equiv_pos_as_xyz
  1  'x, y, z'
loop_
 _atom_site_type_symbol
 _atom_site_label
 _atom_site_symmetry_multiplicity
 _atom_site_fract_x
 _atom_site_fract_y
 _atom_site_fract_z
 _atom_site_occupancy
  Ca  Ca0  1  0.625000  0.625000  0.125000  1
  Ca  Ca1  1  0.125000  0.625000  0.625000  1
  Tb  Tb2  1  0.625000  0.125000  0.625000  1
  Nd  Nd3  1  0.625000  0.625000  0.625000  1
  Ru  Ru4  1  0.625000  0.125000  0.125000  1
  Ru  Ru5  1  0.125000  0.625000  0.125000  1
  Ru  Ru6  1  0.125000  0.125000  0.625000  1
  Ru  Ru7  1  0.125000  0.125000  0.125000  1
  O  O8  1  0.202353  0.196288  0.799778  1
  O  O9  1  0.191965  0.807939  0.191965  1
  O  O10  1  0.450222  0.053712  0.047647  1
  O  O11  1  0.198929  0.801147  0.798785  1
  O  O12  1  0.051071  0.448853  0.451215  1
  O  O13  1  0.798785  0.801147  0.198929  1
  O  O14  1  0.451215  0.448853  0.051071  1
  O  O15  1  0.500825  0.492003  0.500825  1
  O  O16  1  0.047647  0.053712  0.450222  1
  O  O17  1  0.456503  0.047426  0.456503  1
  O  O18  1  0.058035  0.442061  0.058035  1
  O  O19  1  0.749175  0.757997  0.749175  1
  O  O20  1  0.793497  0.202574  0.793497  1
  O  O21  1  0.799778  0.196288  0.202353  1
