# generated using pymatgen
data_Rb3BaZr6BI18
_symmetry_space_group_name_H-M   'P 1'
_cell_length_a   11.48359993
_cell_length_b   11.48858266
_cell_length_c   11.25742229
_cell_angle_alpha   77.28914565
_cell_angle_beta   77.63269795
_cell_angle_gamma   117.45067410
_symmetry_Int_Tables_number   1
_chemical_formula_structural   Rb3BaZr6BI18
_chemical_formula_sum   'Rb3 Ba1 Zr6 B1 I18'
_cell_volume   1197.18011377
_cell_formula_units_Z   1
loop_
 _symmetry_equiv_pos_site_id
 _symmetry_equiv_pos_as_xyz
  1  'x, y, z'
loop_
 _atom_site_type_symbol
 _atom_site_label
 _atom_site_symmetry_multiplicity
 _atom_site_fract_x
 _atom_site_fract_y
 _atom_site_fract_z
 _atom_site_occupancy
  Rb  Rb0  1  0.552911  0.228893  0.320216  1
  Rb  Rb1  1  0.235492  0.557063  0.317724  1
  Rb  Rb2  1  0.445126  0.770072  0.676794  1
  Ba  Ba3  1  0.770095  0.441622  0.674406  1
  Zr  Zr4  1  0.116734  0.118335  0.130554  1
  Zr  Zr5  1  0.885987  0.882845  0.870721  1
  Zr  Zr6  1  0.953996  0.782367  0.139134  1
  Zr  Zr7  1  0.219574  0.049061  0.862892  1
  Zr  Zr8  1  0.044555  0.217736  0.862061  1
  Zr  Zr9  1  0.779296  0.952296  0.138161  1
  B  B10  1  0.999753  0.000576  0.001388  1
  I  I11  1  0.806928  0.595275  0.011491  1
  I  I12  1  0.406366  0.197846  0.989865  1
  I  I13  1  0.193447  0.404328  0.988558  1
  I  I14  1  0.598412  0.805128  0.006110  1
  I  I15  1  0.207735  0.793288  0.000458  1
  I  I16  1  0.790165  0.207566  0.998846  1
  I  I17  1  0.319095  0.322912  0.670250  1
  I  I18  1  0.679078  0.679168  0.328075  1
  I  I19  1  0.884009  0.485499  0.344431  1
  I  I20  1  0.522377  0.122677  0.673870  1
  I  I21  1  0.095948  0.511685  0.672024  1
  I  I22  1  0.488235  0.888228  0.327402  1
  I  I23  1  0.267725  0.268401  0.301961  1
  I  I24  1  0.731994  0.715160  0.695625  1
  I  I25  1  0.084548  0.878376  0.319085  1
  I  I26  1  0.127751  0.920505  0.679807  1
  I  I27  1  0.917079  0.120445  0.679210  1
  I  I28  1  0.875593  0.082650  0.318880  1
