# generated using pymatgen
data_Gd3Dy5(Lu3Si4)4
_symmetry_space_group_name_H-M   'P 1'
_cell_length_a   7.62794105
_cell_length_b   7.63141458
_cell_length_c   14.02738200
_cell_angle_alpha   89.97674057
_cell_angle_beta   89.90248821
_cell_angle_gamma   90.04089335
_symmetry_Int_Tables_number   1
_chemical_formula_structural   Gd3Dy5(Lu3Si4)4
_chemical_formula_sum   'Gd3 Dy5 Lu12 Si16'
_cell_volume   816.56022912
_cell_formula_units_Z   1
loop_
 _symmetry_equiv_pos_site_id
 _symmetry_equiv_pos_as_xyz
  1  'x, y, z'
loop_
 _atom_site_type_symbol
 _atom_site_label
 _atom_site_symmetry_multiplicity
 _atom_site_fract_x
 _atom_site_fract_y
 _atom_site_fract_z
 _atom_site_occupancy
  Gd  Gd0  1  0.506766  0.143181  0.209039  1
  Gd  Gd1  1  0.493931  0.856341  0.709961  1
  Gd  Gd2  1  0.356119  0.006060  0.459502  1
  Dy  Dy3  1  0.993938  0.642324  0.040506  1
  Dy  Dy4  1  0.005861  0.358119  0.540900  1
  Dy  Dy5  1  0.642924  0.994819  0.959322  1
  Dy  Dy6  1  0.141782  0.506338  0.791053  1
  Dy  Dy7  1  0.858214  0.493566  0.290728  1
  Lu  Lu8  1  0.358406  0.492054  0.376190  1
  Lu  Lu9  1  0.858453  0.006860  0.373728  1
  Lu  Lu10  1  0.992417  0.140874  0.125754  1
  Lu  Lu11  1  0.007261  0.858754  0.626251  1
  Lu  Lu12  1  0.641456  0.508213  0.876151  1
  Lu  Lu13  1  0.492902  0.358465  0.623986  1
  Lu  Lu14  1  0.507465  0.641096  0.123519  1
  Lu  Lu15  1  0.140693  0.993544  0.874091  1
  Lu  Lu16  1  0.681490  0.680992  0.500130  1
  Lu  Lu17  1  0.818640  0.181813  0.749935  1
  Lu  Lu18  1  0.181805  0.818265  0.249862  1
  Lu  Lu19  1  0.318879  0.318604  0.999957  1
  Si  Si20  1  0.057219  0.705640  0.437162  1
  Si  Si21  1  0.942274  0.294200  0.937255  1
  Si  Si22  1  0.708209  0.059350  0.562520  1
  Si  Si23  1  0.205994  0.442314  0.187209  1
  Si  Si24  1  0.794067  0.557586  0.687343  1
  Si  Si25  1  0.440995  0.208457  0.812921  1
  Si  Si26  1  0.559638  0.790929  0.312317  1
  Si  Si27  1  0.292578  0.940780  0.062098  1
  Si  Si28  1  0.849202  0.797580  0.815359  1
  Si  Si29  1  0.150053  0.203379  0.313870  1
  Si  Si30  1  0.798214  0.846415  0.185493  1
  Si  Si31  1  0.296379  0.650034  0.564619  1
  Si  Si32  1  0.703593  0.348975  0.063612  1
  Si  Si33  1  0.653129  0.297814  0.435876  1
  Si  Si34  1  0.347499  0.703032  0.935748  1
  Si  Si35  1  0.201555  0.153235  0.686032  1
