# generated using pymatgen
data_Sc3BeP2IrRh2
_symmetry_space_group_name_H-M   'P 1'
_cell_length_a   6.48680900
_cell_length_b   6.48904649
_cell_length_c   3.67958700
_cell_angle_alpha   90.00000000
_cell_angle_beta   90.00000000
_cell_angle_gamma   119.98860972
_symmetry_Int_Tables_number   1
_chemical_formula_structural   Sc3BeP2IrRh2
_chemical_formula_sum   'Sc3 Be1 P2 Ir1 Rh2'
_cell_volume   134.15026623
_cell_formula_units_Z   1
loop_
 _symmetry_equiv_pos_site_id
 _symmetry_equiv_pos_as_xyz
  1  'x, y, z'
loop_
 _atom_site_type_symbol
 _atom_site_label
 _atom_site_symmetry_multiplicity
 _atom_site_fract_x
 _atom_site_fract_y
 _atom_site_fract_z
 _atom_site_occupancy
  Sc  Sc0  1  0.999832  0.408267  0.500000  1
  Sc  Sc1  1  0.591565  0.591733  0.500000  1
  Sc  Sc2  1  0.408523  0.000000  0.500000  1
  Be  Be3  1  0.996761  0.000000  0.500000  1
  P  P4  1  0.667069  0.332869  0.000000  1
  P  P5  1  0.334198  0.667131  0.000000  1
  Ir  Ir6  1  0.757286  0.000000  0.000000  1
  Rh  Rh7  1  0.000594  0.756422  0.000000  1
  Rh  Rh8  1  0.244172  0.243578  0.000000  1
