# generated using pymatgen
data_La5Nd11(CdPd)4
_symmetry_space_group_name_H-M   'P 1'
_cell_length_a   10.07142570
_cell_length_b   10.08353776
_cell_length_c   10.08353808
_cell_angle_alpha   59.98752925
_cell_angle_beta   60.03973137
_cell_angle_gamma   60.03972777
_symmetry_Int_Tables_number   1
_chemical_formula_structural   La5Nd11(CdPd)4
_chemical_formula_sum   'La5 Nd11 Cd4 Pd4'
_cell_volume   724.47160463
_cell_formula_units_Z   1
loop_
 _symmetry_equiv_pos_site_id
 _symmetry_equiv_pos_as_xyz
  1  'x, y, z'
loop_
 _atom_site_type_symbol
 _atom_site_label
 _atom_site_symmetry_multiplicity
 _atom_site_fract_x
 _atom_site_fract_y
 _atom_site_fract_z
 _atom_site_occupancy
  La  La0  1  0.350672  0.351897  0.351897  1
  La  La1  1  0.351640  0.351678  0.945041  1
  La  La2  1  0.351640  0.945041  0.351678  1
  La  La3  1  0.945534  0.351897  0.351897  1
  La  La4  1  0.808122  0.191878  0.191878  1
  Nd  Nd5  1  0.191662  0.808338  0.808338  1
  Nd  Nd6  1  0.192555  0.807433  0.191559  1
  Nd  Nd7  1  0.808453  0.191559  0.807433  1
  Nd  Nd8  1  0.192555  0.191559  0.807433  1
  Nd  Nd9  1  0.808453  0.807433  0.191559  1
  Nd  Nd10  1  0.934215  0.565785  0.565785  1
  Nd  Nd11  1  0.565879  0.934121  0.934121  1
  Nd  Nd12  1  0.565224  0.933860  0.566338  1
  Nd  Nd13  1  0.934578  0.566338  0.933860  1
  Nd  Nd14  1  0.565224  0.566338  0.933860  1
  Nd  Nd15  1  0.934578  0.933860  0.566338  1
  Cd  Cd16  1  0.580702  0.580650  0.580650  1
  Cd  Cd17  1  0.580298  0.581157  0.258247  1
  Cd  Cd18  1  0.580298  0.258247  0.581157  1
  Cd  Cd19  1  0.257999  0.580650  0.580650  1
  Pd  Pd20  1  0.142925  0.143314  0.143314  1
  Pd  Pd21  1  0.143173  0.143301  0.570351  1
  Pd  Pd22  1  0.143173  0.570351  0.143301  1
  Pd  Pd23  1  0.570445  0.143314  0.143314  1
