# generated using pymatgen
data_Bi2IF17
_symmetry_space_group_name_H-M   'P 1'
_cell_length_a   9.09065000
_cell_length_b   12.76202467
_cell_length_c   16.94101300
_cell_angle_alpha   49.21183594
_cell_angle_beta   90.00000000
_cell_angle_gamma   90.00000000
_symmetry_Int_Tables_number   1
_chemical_formula_structural   Bi2IF17
_chemical_formula_sum   'Bi8 I4 F68'
_cell_volume   1488.07341965
_cell_formula_units_Z   4
loop_
 _symmetry_equiv_pos_site_id
 _symmetry_equiv_pos_as_xyz
  1  'x, y, z'
loop_
 _atom_site_type_symbol
 _atom_site_label
 _atom_site_symmetry_multiplicity
 _atom_site_fract_x
 _atom_site_fract_y
 _atom_site_fract_z
 _atom_site_occupancy
  Bi  Bi0  1  0.521758  0.533264  0.157079  1
  Bi  Bi1  1  0.978242  0.533264  0.657079  1
  Bi  Bi2  1  0.478242  0.466736  0.842921  1
  Bi  Bi3  1  0.021758  0.466736  0.342921  1
  Bi  Bi4  1  0.502695  0.917528  0.856321  1
  Bi  Bi5  1  0.997305  0.917528  0.356321  1
  Bi  Bi6  1  0.497305  0.082472  0.143679  1
  Bi  Bi7  1  0.002695  0.082472  0.643679  1
  I  I8  1  0.500000  0.500000  0.500000  1
  I  I9  1  0.000000  0.500000  0.000000  1
  I  I10  1  0.500000  0.000000  0.500000  1
  I  I11  1  0.000000  0.000000  0.000000  1
  F  F12  1  0.331331  0.451209  0.155373  1
  F  F13  1  0.168669  0.451209  0.655373  1
  F  F14  1  0.668669  0.548791  0.844627  1
  F  F15  1  0.831331  0.548791  0.344627  1
  F  F16  1  0.408309  0.658044  0.170543  1
  F  F17  1  0.091691  0.658044  0.670543  1
  F  F18  1  0.591691  0.341956  0.829457  1
  F  F19  1  0.908309  0.341956  0.329457  1
  F  F20  1  0.710876  0.635771  0.132408  1
  F  F21  1  0.789124  0.635771  0.632408  1
  F  F22  1  0.289124  0.364229  0.867592  1
  F  F23  1  0.210876  0.364229  0.367592  1
  F  F24  1  0.632924  0.432655  0.119882  1
  F  F25  1  0.867076  0.432655  0.619882  1
  F  F26  1  0.367076  0.567345  0.880118  1
  F  F27  1  0.132924  0.567345  0.380118  1
  F  F28  1  0.519961  0.123222  0.731686  1
  F  F29  1  0.980039  0.123222  0.231686  1
  F  F30  1  0.480039  0.876778  0.268314  1
  F  F31  1  0.019961  0.876778  0.768314  1
  F  F32  1  0.550982  0.381997  0.313921  1
  F  F33  1  0.949018  0.381997  0.813921  1
  F  F34  1  0.449018  0.618003  0.686079  1
  F  F35  1  0.050982  0.618003  0.186079  1
  F  F36  1  0.426083  0.871983  0.769181  1
  F  F37  1  0.073917  0.871983  0.269181  1
  F  F38  1  0.573917  0.128017  0.230819  1
  F  F39  1  0.926083  0.128017  0.730819  1
  F  F40  1  0.482599  0.693185  0.988330  1
  F  F41  1  0.017401  0.693185  0.488330  1
  F  F42  1  0.517401  0.306815  0.011670  1
  F  F43  1  0.982599  0.306815  0.511670  1
  F  F44  1  0.293109  0.922797  0.895828  1
  F  F45  1  0.206891  0.922797  0.395828  1
  F  F46  1  0.706891  0.077203  0.104172  1
  F  F47  1  0.793109  0.077203  0.604172  1
  F  F48  1  0.581423  0.935767  0.958855  1
  F  F49  1  0.918577  0.935767  0.458855  1
  F  F50  1  0.418577  0.064233  0.041145  1
  F  F51  1  0.081423  0.064233  0.541145  1
  F  F52  1  0.709529  0.867564  0.844722  1
  F  F53  1  0.790471  0.867564  0.344722  1
  F  F54  1  0.290471  0.132436  0.155278  1
  F  F55  1  0.209529  0.132436  0.655278  1
  F  F56  1  0.647744  0.625774  0.453667  1
  F  F57  1  0.852256  0.625774  0.953667  1
  F  F58  1  0.352256  0.374226  0.546333  1
  F  F59  1  0.147744  0.374226  0.046333  1
  F  F60  1  0.528386  0.431999  0.633233  1
  F  F61  1  0.971614  0.431999  0.133233  1
  F  F62  1  0.471614  0.568001  0.366767  1
  F  F63  1  0.028386  0.568001  0.866767  1
  F  F64  1  0.632212  0.374327  0.522848  1
  F  F65  1  0.867788  0.374327  0.022848  1
  F  F66  1  0.367788  0.625673  0.477152  1
  F  F67  1  0.132212  0.625673  0.977152  1
  F  F68  1  0.521235  0.895600  0.462109  1
  F  F69  1  0.978765  0.895600  0.962109  1
  F  F70  1  0.478765  0.104400  0.537891  1
  F  F71  1  0.021235  0.104400  0.037891  1
  F  F72  1  0.662248  0.100168  0.423251  1
  F  F73  1  0.837752  0.100168  0.923251  1
  F  F74  1  0.337752  0.899832  0.576749  1
  F  F75  1  0.162248  0.899832  0.076749  1
  F  F76  1  0.616797  0.878215  0.613449  1
  F  F77  1  0.883203  0.878215  0.113449  1
  F  F78  1  0.383203  0.121785  0.386551  1
  F  F79  1  0.116797  0.121785  0.886551  1
