# generated using pymatgen
data_HoTm7Re(TcB8)3
_symmetry_space_group_name_H-M   'P 1'
_cell_length_a   3.64809200
_cell_length_b   9.10670113
_cell_length_c   11.47532700
_cell_angle_alpha   90.02879247
_cell_angle_beta   90.00000000
_cell_angle_gamma   90.00000000
_symmetry_Int_Tables_number   1
_chemical_formula_structural   HoTm7Re(TcB8)3
_chemical_formula_sum   'Ho1 Tm7 Re1 Tc3 B24'
_cell_volume   381.23422423
_cell_formula_units_Z   1
loop_
 _symmetry_equiv_pos_site_id
 _symmetry_equiv_pos_as_xyz
  1  'x, y, z'
loop_
 _atom_site_type_symbol
 _atom_site_label
 _atom_site_symmetry_multiplicity
 _atom_site_fract_x
 _atom_site_fract_y
 _atom_site_fract_z
 _atom_site_occupancy
  Ho  Ho0  1  0.000000  0.323832  0.414015  1
  Tm  Tm1  1  0.000000  0.676288  0.585916  1
  Tm  Tm2  1  0.000000  0.823771  0.086116  1
  Tm  Tm3  1  0.000000  0.176556  0.914171  1
  Tm  Tm4  1  0.000000  0.942845  0.369345  1
  Tm  Tm5  1  0.000000  0.057460  0.629854  1
  Tm  Tm6  1  0.000000  0.443056  0.130536  1
  Tm  Tm7  1  0.000000  0.556018  0.869882  1
  Re  Re8  1  0.000000  0.860991  0.820556  1
  Tc  Tc9  1  0.000000  0.639585  0.320312  1
  Tc  Tc10  1  0.000000  0.360897  0.679859  1
  Tc  Tc11  1  0.000000  0.138973  0.179306  1
  B  B12  1  0.500000  0.553772  0.433283  1
  B  B13  1  0.500000  0.446831  0.567041  1
  B  B14  1  0.500000  0.053372  0.066755  1
  B  B15  1  0.500000  0.946828  0.933552  1
  B  B16  1  0.500000  0.749900  0.419215  1
  B  B17  1  0.500000  0.250290  0.581220  1
  B  B18  1  0.500000  0.249791  0.080773  1
  B  B19  1  0.500000  0.749796  0.919366  1
  B  B20  1  0.500000  0.792764  0.264961  1
  B  B21  1  0.500000  0.207277  0.734949  1
  B  B22  1  0.500000  0.292584  0.234748  1
  B  B23  1  0.500000  0.706879  0.765045  1
  B  B24  1  0.500000  0.630945  0.184929  1
  B  B25  1  0.500000  0.368931  0.815039  1
  B  B26  1  0.500000  0.130628  0.314840  1
  B  B27  1  0.500000  0.869236  0.684762  1
  B  B28  1  0.500000  0.981659  0.211709  1
  B  B29  1  0.500000  0.018639  0.788083  1
  B  B30  1  0.500000  0.482113  0.288022  1
  B  B31  1  0.500000  0.518220  0.711891  1
  B  B32  1  0.500000  0.599658  0.027907  1
  B  B33  1  0.500000  0.399890  0.972291  1
  B  B34  1  0.500000  0.099444  0.472047  1
  B  B35  1  0.500000  0.900283  0.527704  1
