# generated using pymatgen
data_Pr8In3Co
_symmetry_space_group_name_H-M   'P 1'
_cell_length_a   10.82960700
_cell_length_b   10.82959792
_cell_length_c   7.18158400
_cell_angle_alpha   90.00000000
_cell_angle_beta   90.00000000
_cell_angle_gamma   120.00003609
_symmetry_Int_Tables_number   1
_chemical_formula_structural   Pr8In3Co
_chemical_formula_sum   'Pr16 In6 Co2'
_cell_volume   729.41677587
_cell_formula_units_Z   2
loop_
 _symmetry_equiv_pos_site_id
 _symmetry_equiv_pos_as_xyz
  1  'x, y, z'
loop_
 _atom_site_type_symbol
 _atom_site_label
 _atom_site_symmetry_multiplicity
 _atom_site_fract_x
 _atom_site_fract_y
 _atom_site_fract_z
 _atom_site_occupancy
  Pr  Pr0  1  0.536586  0.073172  0.509353  1
  Pr  Pr1  1  0.926827  0.463414  0.509353  1
  Pr  Pr2  1  0.536585  0.463415  0.509353  1
  Pr  Pr3  1  0.463414  0.926828  0.009353  1
  Pr  Pr4  1  0.073173  0.536586  0.009353  1
  Pr  Pr5  1  0.463415  0.536585  0.009353  1
  Pr  Pr6  1  0.176669  0.353339  0.723786  1
  Pr  Pr7  1  0.646662  0.823330  0.723785  1
  Pr  Pr8  1  0.176669  0.823331  0.723786  1
  Pr  Pr9  1  0.823331  0.646661  0.223786  1
  Pr  Pr10  1  0.353338  0.176670  0.223785  1
  Pr  Pr11  1  0.823331  0.176669  0.223786  1
  Pr  Pr12  1  0.666667  0.333333  0.902824  1
  Pr  Pr13  1  0.333333  0.666667  0.402824  1
  Pr  Pr14  1  0.000000  0.000000  0.507080  1
  Pr  Pr15  1  0.000000  0.000000  0.007080  1
  In  In16  1  0.836442  0.672886  0.760757  1
  In  In17  1  0.327114  0.163558  0.760758  1
  In  In18  1  0.836442  0.163557  0.760758  1
  In  In19  1  0.163558  0.327114  0.260757  1
  In  In20  1  0.672886  0.836442  0.260758  1
  In  In21  1  0.163558  0.836443  0.260758  1
  Co  Co22  1  0.666667  0.333334  0.287407  1
  Co  Co23  1  0.333333  0.666666  0.787407  1
