# generated using pymatgen
data_HoErCo9P6Ru
_symmetry_space_group_name_H-M   'P 1'
_cell_length_a   3.66835200
_cell_length_b   10.32493900
_cell_length_c   11.74915500
_cell_angle_alpha   90.00000000
_cell_angle_beta   90.00000000
_cell_angle_gamma   90.00000000
_symmetry_Int_Tables_number   1
_chemical_formula_structural   HoErCo9P6Ru
_chemical_formula_sum   'Ho2 Er2 Co18 P12 Ru2'
_cell_volume   445.00524510
_cell_formula_units_Z   2
loop_
 _symmetry_equiv_pos_site_id
 _symmetry_equiv_pos_as_xyz
  1  'x, y, z'
loop_
 _atom_site_type_symbol
 _atom_site_label
 _atom_site_symmetry_multiplicity
 _atom_site_fract_x
 _atom_site_fract_y
 _atom_site_fract_z
 _atom_site_occupancy
  Ho  Ho0  1  0.250000  0.582259  0.702152  1
  Ho  Ho1  1  0.250000  0.917741  0.202152  1
  Er  Er2  1  0.750000  0.413942  0.295554  1
  Er  Er3  1  0.750000  0.086058  0.795554  1
  Co  Co4  1  0.750000  0.283353  0.008381  1
  Co  Co5  1  0.750000  0.216647  0.508381  1
  Co  Co6  1  0.250000  0.406134  0.487349  1
  Co  Co7  1  0.250000  0.093866  0.987349  1
  Co  Co8  1  0.750000  0.590578  0.510413  1
  Co  Co9  1  0.750000  0.909422  0.010413  1
  Co  Co10  1  0.250000  0.220855  0.176788  1
  Co  Co11  1  0.250000  0.279145  0.676788  1
  Co  Co12  1  0.750000  0.778472  0.822976  1
  Co  Co13  1  0.750000  0.721528  0.322976  1
  Co  Co14  1  0.250000  0.886983  0.702022  1
  Co  Co15  1  0.250000  0.613017  0.202022  1
  Co  Co16  1  0.750000  0.116643  0.300778  1
  Co  Co17  1  0.750000  0.383357  0.800778  1
  Co  Co18  1  0.250000  0.464379  0.932379  1
  Co  Co19  1  0.250000  0.035621  0.432379  1
  Co  Co20  1  0.750000  0.532585  0.069260  1
  Co  Co21  1  0.750000  0.967415  0.569260  1
  P  P22  1  0.250000  0.417031  0.112515  1
  P  P23  1  0.250000  0.082969  0.612515  1
  P  P24  1  0.750000  0.578629  0.886828  1
  P  P25  1  0.750000  0.921371  0.386828  1
  P  P26  1  0.250000  0.269704  0.869111  1
  P  P27  1  0.250000  0.230296  0.369111  1
  P  P28  1  0.750000  0.729105  0.132759  1
  P  P29  1  0.750000  0.770895  0.632759  1
  P  P30  1  0.250000  0.594265  0.390192  1
  P  P31  1  0.250000  0.905735  0.890192  1
  P  P32  1  0.750000  0.397295  0.608742  1
  P  P33  1  0.750000  0.102705  0.108742  1
  Ru  Ru34  1  0.250000  0.715555  0.991801  1
  Ru  Ru35  1  0.250000  0.784445  0.491801  1
