# generated using pymatgen
data_La3ThMg2(Zn4Sn)2
_symmetry_space_group_name_H-M   'P 1'
_cell_length_a   8.86628811
_cell_length_b   8.86628947
_cell_length_c   9.25960800
_cell_angle_alpha   90.00000000
_cell_angle_beta   90.00000000
_cell_angle_gamma   150.30298435
_symmetry_Int_Tables_number   1
_chemical_formula_structural   La3ThMg2(Zn4Sn)2
_chemical_formula_sum   'La3 Th1 Mg2 Zn8 Sn2'
_cell_volume   360.61527349
_cell_formula_units_Z   1
loop_
 _symmetry_equiv_pos_site_id
 _symmetry_equiv_pos_as_xyz
  1  'x, y, z'
loop_
 _atom_site_type_symbol
 _atom_site_label
 _atom_site_symmetry_multiplicity
 _atom_site_fract_x
 _atom_site_fract_y
 _atom_site_fract_z
 _atom_site_occupancy
  La  La0  1  0.793480  0.206520  0.750000  1
  La  La1  1  0.000665  0.999335  0.501993  1
  La  La2  1  0.000665  0.999335  0.998007  1
  Th  Th3  1  0.206665  0.793335  0.250000  1
  Mg  Mg4  1  0.399184  0.600816  0.250000  1
  Mg  Mg5  1  0.601220  0.398780  0.750000  1
  Zn  Zn6  1  0.814030  0.185970  0.390222  1
  Zn  Zn7  1  0.184308  0.815692  0.607620  1
  Zn  Zn8  1  0.814030  0.185970  0.109778  1
  Zn  Zn9  1  0.184308  0.815692  0.892380  1
  Zn  Zn10  1  0.663521  0.336479  0.477674  1
  Zn  Zn11  1  0.337245  0.662755  0.518720  1
  Zn  Zn12  1  0.663521  0.336479  0.022326  1
  Zn  Zn13  1  0.337245  0.662755  0.981280  1
  Sn  Sn14  1  0.562522  0.437478  0.250000  1
  Sn  Sn15  1  0.437389  0.562611  0.750000  1
