# generated using pymatgen
data_Pr2Nd2ErSn3
_symmetry_space_group_name_H-M   'P 1'
_cell_length_a   9.25907496
_cell_length_b   9.25180773
_cell_length_c   6.78469902
_cell_angle_alpha   89.99169649
_cell_angle_beta   90.00414881
_cell_angle_gamma   119.97403501
_symmetry_Int_Tables_number   1
_chemical_formula_structural   Pr2Nd2ErSn3
_chemical_formula_sum   'Pr4 Nd4 Er2 Sn6'
_cell_volume   503.46464900
_cell_formula_units_Z   2
loop_
 _symmetry_equiv_pos_site_id
 _symmetry_equiv_pos_as_xyz
  1  'x, y, z'
loop_
 _atom_site_type_symbol
 _atom_site_label
 _atom_site_symmetry_multiplicity
 _atom_site_fract_x
 _atom_site_fract_y
 _atom_site_fract_z
 _atom_site_occupancy
  Pr  Pr0  1  0.000000  0.243617  0.252332  1
  Pr  Pr1  1  0.243724  0.243618  0.747697  1
  Pr  Pr2  1  0.756276  0.999894  0.747697  1
  Pr  Pr3  1  0.000000  0.756493  0.747682  1
  Nd  Nd4  1  0.333426  0.666743  0.000132  1
  Nd  Nd5  1  0.666574  0.333315  0.000132  1
  Nd  Nd6  1  0.756008  0.755992  0.252470  1
  Nd  Nd7  1  0.243992  0.999983  0.252470  1
  Er  Er8  1  0.666604  0.333333  0.499879  1
  Er  Er9  1  0.333396  0.666729  0.499879  1
  Sn  Sn10  1  0.396911  0.396322  0.260007  1
  Sn  Sn11  1  0.603089  0.999411  0.260007  1
  Sn  Sn12  1  0.000000  0.604661  0.259961  1
  Sn  Sn13  1  0.603371  0.603319  0.739839  1
  Sn  Sn14  1  0.396629  0.999949  0.739839  1
  Sn  Sn15  1  0.000000  0.396621  0.739976  1
