# generated using pymatgen
data_Tm2CrSbO7
_symmetry_space_group_name_H-M   'P 1'
_cell_length_a   7.21656687
_cell_length_b   7.18621287
_cell_length_c   7.28052400
_cell_angle_alpha   90.00003829
_cell_angle_beta   59.70634665
_cell_angle_gamma   119.86109679
_symmetry_Int_Tables_number   1
_chemical_formula_structural   Tm2CrSbO7
_chemical_formula_sum   'Tm4 Cr2 Sb2 O14'
_cell_volume   266.35036913
_cell_formula_units_Z   2
loop_
 _symmetry_equiv_pos_site_id
 _symmetry_equiv_pos_as_xyz
  1  'x, y, z'
loop_
 _atom_site_type_symbol
 _atom_site_label
 _atom_site_symmetry_multiplicity
 _atom_site_fract_x
 _atom_site_fract_y
 _atom_site_fract_z
 _atom_site_occupancy
  Tm  Tm0  1  0.500008  0.500002  0.999994  1
  Tm  Tm1  1  0.500012  0.000003  0.999986  1
  Tm  Tm2  1  0.000017  0.000010  0.499988  1
  Tm  Tm3  1  0.000021  0.000007  0.999987  1
  Cr  Cr4  1  0.499931  0.999968  0.500112  1
  Cr  Cr5  1  0.499724  0.499937  0.500131  1
  Sb  Sb6  1  0.000030  0.500012  0.999978  1
  Sb  Sb7  1  0.000021  0.499998  0.499990  1
  O  O8  1  0.255660  0.127825  0.122167  1
  O  O9  1  0.744371  0.872182  0.877812  1
  O  O10  1  0.684817  0.842403  0.407589  1
  O  O11  1  0.832871  0.416432  0.833563  1
  O  O12  1  0.252806  0.833995  0.838327  1
  O  O13  1  0.252812  0.418806  0.408859  1
  O  O14  1  0.252806  0.418802  0.838327  1
  O  O15  1  0.252803  0.833994  0.408858  1
  O  O16  1  0.315221  0.157604  0.592384  1
  O  O17  1  0.167153  0.583574  0.166421  1
  O  O18  1  0.747226  0.166016  0.161650  1
  O  O19  1  0.747234  0.581205  0.591119  1
  O  O20  1  0.747235  0.581206  0.161642  1
  O  O21  1  0.747222  0.166015  0.591119  1
