# generated using pymatgen
data_ZrPaSnRh5
_symmetry_space_group_name_H-M   'P 1'
_cell_length_a   5.75910897
_cell_length_b   5.75910904
_cell_length_c   8.36389300
_cell_angle_alpha   90.00000000
_cell_angle_beta   90.00000000
_cell_angle_gamma   97.52493300
_symmetry_Int_Tables_number   1
_chemical_formula_structural   ZrPaSnRh5
_chemical_formula_sum   'Zr2 Pa2 Sn2 Rh10'
_cell_volume   275.01900632
_cell_formula_units_Z   2
loop_
 _symmetry_equiv_pos_site_id
 _symmetry_equiv_pos_as_xyz
  1  'x, y, z'
loop_
 _atom_site_type_symbol
 _atom_site_label
 _atom_site_symmetry_multiplicity
 _atom_site_fract_x
 _atom_site_fract_y
 _atom_site_fract_z
 _atom_site_occupancy
  Zr  Zr0  1  0.216922  0.783078  0.500000  1
  Zr  Zr1  1  0.783078  0.216922  0.000000  1
  Pa  Pa2  1  0.790644  0.209356  0.500000  1
  Pa  Pa3  1  0.209356  0.790644  0.000000  1
  Sn  Sn4  1  0.500901  0.500901  0.750000  1
  Sn  Sn5  1  0.499099  0.499099  0.250000  1
  Rh  Rh6  1  0.725475  0.726746  0.000544  1
  Rh  Rh7  1  0.726746  0.725475  0.499456  1
  Rh  Rh8  1  0.273254  0.274525  0.999456  1
  Rh  Rh9  1  0.274525  0.273254  0.500544  1
  Rh  Rh10  1  0.499994  0.000430  0.749905  1
  Rh  Rh11  1  0.500006  0.999570  0.249905  1
  Rh  Rh12  1  0.000199  0.000199  0.250000  1
  Rh  Rh13  1  0.999801  0.999801  0.750000  1
  Rh  Rh14  1  0.000430  0.499994  0.750095  1
  Rh  Rh15  1  0.999570  0.500006  0.250095  1
