# generated using pymatgen
data_Nd16Er4Si15P
_symmetry_space_group_name_H-M   'P 1'
_cell_length_a   7.81363479
_cell_length_b   7.81252929
_cell_length_c   15.30189700
_cell_angle_alpha   89.87918969
_cell_angle_beta   89.80384736
_cell_angle_gamma   90.11885591
_symmetry_Int_Tables_number   1
_chemical_formula_structural   Nd16Er4Si15P
_chemical_formula_sum   'Nd16 Er4 Si15 P1'
_cell_volume   934.08326217
_cell_formula_units_Z   1
loop_
 _symmetry_equiv_pos_site_id
 _symmetry_equiv_pos_as_xyz
  1  'x, y, z'
loop_
 _atom_site_type_symbol
 _atom_site_label
 _atom_site_symmetry_multiplicity
 _atom_site_fract_x
 _atom_site_fract_y
 _atom_site_fract_z
 _atom_site_occupancy
  Nd  Nd0  1  0.380411  0.009747  0.442841  1
  Nd  Nd1  1  0.485139  0.879772  0.695667  1
  Nd  Nd2  1  0.512880  0.120468  0.194655  1
  Nd  Nd3  1  0.878393  0.486198  0.304647  1
  Nd  Nd4  1  0.123753  0.510607  0.804536  1
  Nd  Nd5  1  0.623172  0.987436  0.944847  1
  Nd  Nd6  1  0.010548  0.377064  0.555247  1
  Nd  Nd7  1  0.988157  0.620873  0.055334  1
  Nd  Nd8  1  0.128827  0.981177  0.876387  1
  Nd  Nd9  1  0.523210  0.626348  0.127862  1
  Nd  Nd10  1  0.471819  0.369785  0.629580  1
  Nd  Nd11  1  0.626728  0.523422  0.871663  1
  Nd  Nd12  1  0.372671  0.474804  0.372563  1
  Nd  Nd13  1  0.875462  0.023009  0.378781  1
  Nd  Nd14  1  0.977232  0.125355  0.121621  1
  Nd  Nd15  1  0.026290  0.880386  0.622073  1
  Er  Er16  1  0.311517  0.310399  0.999890  1
  Er  Er17  1  0.189471  0.808354  0.249838  1
  Er  Er18  1  0.808428  0.190731  0.749906  1
  Er  Er19  1  0.688934  0.689255  0.500044  1
  Si  Si20  1  0.327716  0.688943  0.956802  1
  Si  Si21  1  0.671410  0.312233  0.458814  1
  Si  Si22  1  0.689561  0.329157  0.042657  1
  Si  Si23  1  0.311578  0.671136  0.543384  1
  Si  Si24  1  0.813137  0.827487  0.208122  1
  Si  Si25  1  0.172715  0.186497  0.291399  1
  Si  Si26  1  0.830336  0.812728  0.791536  1
  Si  Si27  1  0.286229  0.921944  0.062809  1
  Si  Si28  1  0.578619  0.784266  0.313232  1
  Si  Si29  1  0.427971  0.213565  0.816351  1
  Si  Si30  1  0.786464  0.579403  0.685508  1
  Si  Si31  1  0.213621  0.422099  0.186460  1
  Si  Si32  1  0.709803  0.076175  0.563786  1
  Si  Si33  1  0.923873  0.287748  0.936547  1
  Si  Si34  1  0.077848  0.712721  0.437057  1
  P  P35  1  0.176071  0.178710  0.707556  1
