# generated using pymatgen
data_Tb8Lu12Si15Ir
_symmetry_space_group_name_H-M   'P 1'
_cell_length_a   7.27146085
_cell_length_b   7.66301720
_cell_length_c   14.37427800
_cell_angle_alpha   90.00000000
_cell_angle_beta   90.00000000
_cell_angle_gamma   90.07679926
_symmetry_Int_Tables_number   1
_chemical_formula_structural   Tb8Lu12Si15Ir
_chemical_formula_sum   'Tb8 Lu12 Si15 Ir1'
_cell_volume   800.95316279
_cell_formula_units_Z   1
loop_
 _symmetry_equiv_pos_site_id
 _symmetry_equiv_pos_as_xyz
  1  'x, y, z'
loop_
 _atom_site_type_symbol
 _atom_site_label
 _atom_site_symmetry_multiplicity
 _atom_site_fract_x
 _atom_site_fract_y
 _atom_site_fract_z
 _atom_site_occupancy
  Tb  Tb0  1  0.015926  0.182368  0.097403  1
  Tb  Tb1  1  0.986896  0.824233  0.904154  1
  Tb  Tb2  1  0.484983  0.678317  0.904677  1
  Tb  Tb3  1  0.986896  0.824233  0.595846  1
  Tb  Tb4  1  0.515238  0.321265  0.096735  1
  Tb  Tb5  1  0.015926  0.182368  0.402597  1
  Tb  Tb6  1  0.515238  0.321265  0.403265  1
  Tb  Tb7  1  0.484983  0.678317  0.595323  1
  Lu  Lu8  1  0.155300  0.507512  0.750000  1
  Lu  Lu9  1  0.839745  0.490646  0.250000  1
  Lu  Lu10  1  0.341201  0.011564  0.250000  1
  Lu  Lu11  1  0.666882  0.991149  0.750000  1
  Lu  Lu12  1  0.315833  0.172771  0.626323  1
  Lu  Lu13  1  0.675387  0.825159  0.374339  1
  Lu  Lu14  1  0.174771  0.678882  0.375009  1
  Lu  Lu15  1  0.675387  0.825159  0.125661  1
  Lu  Lu16  1  0.833726  0.316539  0.625942  1
  Lu  Lu17  1  0.315833  0.172771  0.873677  1
  Lu  Lu18  1  0.833726  0.316539  0.874058  1
  Lu  Lu19  1  0.174771  0.678882  0.124991  1
  Si  Si20  1  0.972592  0.891271  0.250000  1
  Si  Si21  1  0.471646  0.609646  0.250000  1
  Si  Si22  1  0.528155  0.393944  0.750000  1
  Si  Si23  1  0.280520  0.866184  0.750000  1
  Si  Si24  1  0.718090  0.132532  0.250000  1
  Si  Si25  1  0.218070  0.370393  0.250000  1
  Si  Si26  1  0.771589  0.623919  0.750000  1
  Si  Si27  1  0.157910  0.471514  0.537402  1
  Si  Si28  1  0.844990  0.533716  0.461923  1
  Si  Si29  1  0.346686  0.968671  0.460548  1
  Si  Si30  1  0.844990  0.533716  0.038077  1
  Si  Si31  1  0.652538  0.031499  0.537775  1
  Si  Si32  1  0.157910  0.471514  0.962598  1
  Si  Si33  1  0.652538  0.031499  0.962225  1
  Si  Si34  1  0.346686  0.968671  0.039452  1
  Ir  Ir35  1  0.026442  0.101370  0.750000  1
