# generated using pymatgen
data_Zr7Co16As12Ru
_symmetry_space_group_name_H-M   'P 1'
_cell_length_a   12.48528392
_cell_length_b   12.48528422
_cell_length_c   3.77963300
_cell_angle_alpha   90.00000000
_cell_angle_beta   90.00000000
_cell_angle_gamma   119.96957618
_symmetry_Int_Tables_number   1
_chemical_formula_structural   Zr7Co16As12Ru
_chemical_formula_sum   'Zr7 Co16 As12 Ru1'
_cell_volume   510.39942942
_cell_formula_units_Z   1
loop_
 _symmetry_equiv_pos_site_id
 _symmetry_equiv_pos_as_xyz
  1  'x, y, z'
loop_
 _atom_site_type_symbol
 _atom_site_label
 _atom_site_symmetry_multiplicity
 _atom_site_fract_x
 _atom_site_fract_y
 _atom_site_fract_z
 _atom_site_occupancy
  Zr  Zr0  1  0.558346  0.000032  0.000000  1
  Zr  Zr1  1  0.000032  0.558346  0.000000  1
  Zr  Zr2  1  0.666951  0.334356  0.000000  1
  Zr  Zr3  1  0.334356  0.666951  0.000000  1
  Zr  Zr4  1  0.818710  0.818710  0.500000  1
  Zr  Zr5  1  0.173363  0.996824  0.500000  1
  Zr  Zr6  1  0.996824  0.173363  0.500000  1
  Co  Co7  1  0.200043  0.374310  0.000000  1
  Co  Co8  1  0.179393  0.807169  0.000000  1
  Co  Co9  1  0.817356  0.625393  0.000000  1
  Co  Co10  1  0.807169  0.179393  0.000000  1
  Co  Co11  1  0.374310  0.200043  0.000000  1
  Co  Co12  1  0.127799  0.479941  0.500000  1
  Co  Co13  1  0.356285  0.878298  0.500000  1
  Co  Co14  1  0.517105  0.639859  0.500000  1
  Co  Co15  1  0.639859  0.517105  0.500000  1
  Co  Co16  1  0.878298  0.356285  0.500000  1
  Co  Co17  1  0.479941  0.127799  0.500000  1
  Co  Co18  1  0.001165  0.001165  0.000000  1
  Co  Co19  1  0.721095  0.001609  0.500000  1
  Co  Co20  1  0.001609  0.721095  0.500000  1
  Co  Co21  1  0.625393  0.817356  0.000000  1
  Co  Co22  1  0.282429  0.282429  0.500000  1
  As  As23  1  0.641236  0.641236  0.000000  1
  As  As24  1  0.348554  0.004746  0.000000  1
  As  As25  1  0.004746  0.348554  0.000000  1
  As  As26  1  0.482033  0.316328  0.500000  1
  As  As27  1  0.690724  0.176334  0.500000  1
  As  As28  1  0.824055  0.515234  0.500000  1
  As  As29  1  0.515234  0.824055  0.500000  1
  As  As30  1  0.176334  0.690724  0.500000  1
  As  As31  1  0.822727  0.996897  0.000000  1
  As  As32  1  0.996897  0.822727  0.000000  1
  As  As33  1  0.316328  0.482033  0.500000  1
  As  As34  1  0.176878  0.176878  0.000000  1
  Ru  Ru35  1  0.446424  0.446424  0.000000  1
