# generated using pymatgen
data_Hf3Pa3FeBr15
_symmetry_space_group_name_H-M   'P 1'
_cell_length_a   9.68402472
_cell_length_b   9.68402557
_cell_length_c   9.76543700
_cell_angle_alpha   109.64160958
_cell_angle_beta   109.64161138
_cell_angle_gamma   109.30029788
_symmetry_Int_Tables_number   1
_chemical_formula_structural   Hf3Pa3FeBr15
_chemical_formula_sum   'Hf3 Pa3 Fe1 Br15'
_cell_volume   703.49986130
_cell_formula_units_Z   1
loop_
 _symmetry_equiv_pos_site_id
 _symmetry_equiv_pos_as_xyz
  1  'x, y, z'
loop_
 _atom_site_type_symbol
 _atom_site_label
 _atom_site_symmetry_multiplicity
 _atom_site_fract_x
 _atom_site_fract_y
 _atom_site_fract_z
 _atom_site_occupancy
  Hf  Hf0  1  0.212360  0.212360  0.996640  1
  Hf  Hf1  1  0.787640  0.000000  0.784279  1
  Hf  Hf2  1  0.000000  0.787640  0.784279  1
  Pa  Pa3  1  0.756970  0.756970  0.997281  1
  Pa  Pa4  1  0.243030  0.000000  0.240311  1
  Pa  Pa5  1  0.000000  0.243030  0.240311  1
  Fe  Fe6  1  0.000000  0.000000  0.008773  1
  Br  Br7  1  0.254484  0.254484  0.508616  1
  Br  Br8  1  0.745516  0.000000  0.254130  1
  Br  Br9  1  0.000000  0.745516  0.254130  1
  Br  Br10  1  0.744610  0.236999  0.978041  1
  Br  Br11  1  0.255390  0.492392  0.233432  1
  Br  Br12  1  0.000000  0.239359  0.758913  1
  Br  Br13  1  0.236999  0.744610  0.978041  1
  Br  Br14  1  0.239359  0.000000  0.758913  1
  Br  Br15  1  0.492392  0.255390  0.233432  1
  Br  Br16  1  0.760641  0.760641  0.519553  1
  Br  Br17  1  0.763001  0.507608  0.741042  1
  Br  Br18  1  0.507608  0.763001  0.741042  1
  Br  Br19  1  0.496346  0.496346  0.993845  1
  Br  Br20  1  0.503654  0.000000  0.497499  1
  Br  Br21  1  0.000000  0.503654  0.497499  1
