# generated using pymatgen
data_Sm4MoOsC4
_symmetry_space_group_name_H-M   'P 1'
_cell_length_a   5.26173700
_cell_length_b   6.68211301
_cell_length_c   10.12085450
_cell_angle_alpha   89.27823794
_cell_angle_beta   90.00000000
_cell_angle_gamma   90.00000000
_symmetry_Int_Tables_number   1
_chemical_formula_structural   Sm4MoOsC4
_chemical_formula_sum   'Sm8 Mo2 Os2 C8'
_cell_volume   355.81616544
_cell_formula_units_Z   2
loop_
 _symmetry_equiv_pos_site_id
 _symmetry_equiv_pos_as_xyz
  1  'x, y, z'
loop_
 _atom_site_type_symbol
 _atom_site_label
 _atom_site_symmetry_multiplicity
 _atom_site_fract_x
 _atom_site_fract_y
 _atom_site_fract_z
 _atom_site_occupancy
  Sm  Sm0  1  0.250000  0.682226  0.554454  1
  Sm  Sm1  1  0.750000  0.317774  0.445546  1
  Sm  Sm2  1  0.750000  0.819583  0.054656  1
  Sm  Sm3  1  0.250000  0.180417  0.945344  1
  Sm  Sm4  1  0.250000  0.535467  0.216778  1
  Sm  Sm5  1  0.750000  0.464533  0.783222  1
  Sm  Sm6  1  0.750000  0.971586  0.714155  1
  Sm  Sm7  1  0.250000  0.028414  0.285845  1
  Mo  Mo8  1  0.250000  0.720357  0.862262  1
  Mo  Mo9  1  0.750000  0.279643  0.137738  1
  Os  Os10  1  0.750000  0.776958  0.361851  1
  Os  Os11  1  0.250000  0.223042  0.638149  1
  C  C12  1  0.250000  0.453035  0.755958  1
  C  C13  1  0.750000  0.546965  0.244042  1
  C  C14  1  0.750000  0.040645  0.259797  1
  C  C15  1  0.250000  0.959355  0.740203  1
  C  C16  1  0.250000  0.817434  0.044089  1
  C  C17  1  0.750000  0.182566  0.955911  1
  C  C18  1  0.750000  0.683283  0.541338  1
  C  C19  1  0.250000  0.316717  0.458662  1
