# generated using pymatgen
data_CsTmUS4
_symmetry_space_group_name_H-M   'P 1'
_cell_length_a   4.09548700
_cell_length_b   6.85082249
_cell_length_c   8.62418500
_cell_angle_alpha   74.60241005
_cell_angle_beta   90.00000000
_cell_angle_gamma   90.00000000
_symmetry_Int_Tables_number   1
_chemical_formula_structural   CsTmUS4
_chemical_formula_sum   'Cs1 Tm1 U1 S4'
_cell_volume   233.28744938
_cell_formula_units_Z   1
loop_
 _symmetry_equiv_pos_site_id
 _symmetry_equiv_pos_as_xyz
  1  'x, y, z'
loop_
 _atom_site_type_symbol
 _atom_site_label
 _atom_site_symmetry_multiplicity
 _atom_site_fract_x
 _atom_site_fract_y
 _atom_site_fract_z
 _atom_site_occupancy
  Cs  Cs0  1  0.000000  0.500000  0.500000  1
  Tm  Tm1  1  0.500000  0.500000  0.000000  1
  U  U2  1  0.000000  0.000000  0.000000  1
  S  S3  1  0.500000  0.778363  0.172877  1
  S  S4  1  0.000000  0.276381  0.169073  1
  S  S5  1  0.500000  0.221637  0.827123  1
  S  S6  1  0.000000  0.723619  0.830927  1
