# generated using pymatgen
data_Yb5PrHo2(Cu2Sn5)2
_symmetry_space_group_name_H-M   'P 1'
_cell_length_a   4.43773800
_cell_length_b   8.81220000
_cell_length_c   14.06145300
_cell_angle_alpha   90.00000000
_cell_angle_beta   90.00000000
_cell_angle_gamma   90.00000000
_symmetry_Int_Tables_number   1
_chemical_formula_structural   Yb5PrHo2(Cu2Sn5)2
_chemical_formula_sum   'Yb5 Pr1 Ho2 Cu4 Sn10'
_cell_volume   549.89048270
_cell_formula_units_Z   1
loop_
 _symmetry_equiv_pos_site_id
 _symmetry_equiv_pos_as_xyz
  1  'x, y, z'
loop_
 _atom_site_type_symbol
 _atom_site_label
 _atom_site_symmetry_multiplicity
 _atom_site_fract_x
 _atom_site_fract_y
 _atom_site_fract_z
 _atom_site_occupancy
  Yb  Yb0  1  0.500000  0.791206  0.741110  1
  Yb  Yb1  1  0.000000  0.204921  0.753875  1
  Yb  Yb2  1  0.000000  0.204921  0.246125  1
  Yb  Yb3  1  0.000000  0.864789  0.500000  1
  Yb  Yb4  1  0.500000  0.791206  0.258890  1
  Pr  Pr5  1  0.500000  0.141679  0.000000  1
  Ho  Ho6  1  0.500000  0.696772  0.000000  1
  Ho  Ho7  1  0.000000  0.295777  0.500000  1
  Cu  Cu8  1  0.500000  0.376326  0.642780  1
  Cu  Cu9  1  0.000000  0.626189  0.852392  1
  Cu  Cu10  1  0.000000  0.626189  0.147608  1
  Cu  Cu11  1  0.500000  0.376326  0.357220  1
  Sn  Sn12  1  0.500000  0.082718  0.395739  1
  Sn  Sn13  1  0.000000  0.551376  0.662093  1
  Sn  Sn14  1  0.000000  0.418001  0.000000  1
  Sn  Sn15  1  0.500000  0.446037  0.164900  1
  Sn  Sn16  1  0.500000  0.592647  0.500000  1
  Sn  Sn17  1  0.500000  0.446037  0.835100  1
  Sn  Sn18  1  0.000000  0.916393  0.895734  1
  Sn  Sn19  1  0.000000  0.551376  0.337907  1
  Sn  Sn20  1  0.500000  0.082718  0.604261  1
  Sn  Sn21  1  0.000000  0.916393  0.104266  1
