# generated using pymatgen
data_Ta4MnB2P
_symmetry_space_group_name_H-M   'P 1'
_cell_length_a   7.18710143
_cell_length_b   7.18710188
_cell_length_c   7.18710051
_cell_angle_alpha   130.76162645
_cell_angle_beta   130.76163248
_cell_angle_gamma   72.19207703
_symmetry_Int_Tables_number   1
_chemical_formula_structural   Ta4MnB2P
_chemical_formula_sum   'Ta8 Mn2 B4 P2'
_cell_volume   208.23648536
_cell_formula_units_Z   2
loop_
 _symmetry_equiv_pos_site_id
 _symmetry_equiv_pos_as_xyz
  1  'x, y, z'
loop_
 _atom_site_type_symbol
 _atom_site_label
 _atom_site_symmetry_multiplicity
 _atom_site_fract_x
 _atom_site_fract_y
 _atom_site_fract_z
 _atom_site_occupancy
  Ta  Ta0  1  0.191171  0.691171  0.158237  1
  Ta  Ta1  1  0.467066  0.967066  0.158237  1
  Ta  Ta2  1  0.532934  0.032934  0.841763  1
  Ta  Ta3  1  0.032934  0.191171  0.500000  1
  Ta  Ta4  1  0.691171  0.532934  0.500000  1
  Ta  Ta5  1  0.967066  0.808829  0.500000  1
  Ta  Ta6  1  0.308829  0.467066  0.500000  1
  Ta  Ta7  1  0.808829  0.308829  0.841763  1
  Mn  Mn8  1  0.000000  0.000000  0.000000  1
  Mn  Mn9  1  0.500000  0.500000  0.000000  1
  B  B10  1  0.881409  0.381409  0.262817  1
  B  B11  1  0.381409  0.118591  0.500000  1
  B  B12  1  0.618591  0.881409  0.500000  1
  B  B13  1  0.118591  0.618591  0.737183  1
  P  P14  1  0.750000  0.750000  0.000000  1
  P  P15  1  0.250000  0.250000  0.000000  1
