# generated using pymatgen
data_Er4Si4Ru3Rh
_symmetry_space_group_name_H-M   'P 1'
_cell_length_a   4.29690600
_cell_length_b   6.92914679
_cell_length_c   7.15237384
_cell_angle_alpha   89.88076547
_cell_angle_beta   90.00000000
_cell_angle_gamma   90.00000000
_symmetry_Int_Tables_number   1
_chemical_formula_structural   Er4Si4Ru3Rh
_chemical_formula_sum   'Er4 Si4 Ru3 Rh1'
_cell_volume   212.95354787
_cell_formula_units_Z   1
loop_
 _symmetry_equiv_pos_site_id
 _symmetry_equiv_pos_as_xyz
  1  'x, y, z'
loop_
 _atom_site_type_symbol
 _atom_site_label
 _atom_site_symmetry_multiplicity
 _atom_site_fract_x
 _atom_site_fract_y
 _atom_site_fract_z
 _atom_site_occupancy
  Er  Er0  1  0.250000  0.988118  0.813166  1
  Er  Er1  1  0.750000  0.013186  0.187652  1
  Er  Er2  1  0.250000  0.488282  0.687607  1
  Er  Er3  1  0.750000  0.508685  0.312196  1
  Si  Si4  1  0.250000  0.302055  0.106879  1
  Si  Si5  1  0.750000  0.698564  0.897401  1
  Si  Si6  1  0.250000  0.801600  0.387536  1
  Si  Si7  1  0.750000  0.200056  0.606962  1
  Ru  Ru8  1  0.250000  0.152918  0.435275  1
  Ru  Ru9  1  0.750000  0.345482  0.933273  1
  Ru  Ru10  1  0.250000  0.655134  0.065665  1
  Rh  Rh11  1  0.750000  0.845918  0.566388  1
