# generated using pymatgen
data_SmEr5FeBr10
_symmetry_space_group_name_H-M   'P 1'
_cell_length_a   7.34739881
_cell_length_b   8.96370762
_cell_length_c   9.28884861
_cell_angle_alpha   108.38860999
_cell_angle_beta   96.99617052
_cell_angle_gamma   104.37560577
_symmetry_Int_Tables_number   1
_chemical_formula_structural   SmEr5FeBr10
_chemical_formula_sum   'Sm1 Er5 Fe1 Br10'
_cell_volume   548.85994849
_cell_formula_units_Z   1
loop_
 _symmetry_equiv_pos_site_id
 _symmetry_equiv_pos_as_xyz
  1  'x, y, z'
loop_
 _atom_site_type_symbol
 _atom_site_label
 _atom_site_symmetry_multiplicity
 _atom_site_fract_x
 _atom_site_fract_y
 _atom_site_fract_z
 _atom_site_occupancy
  Sm  Sm0  1  0.030927  0.724093  0.416027  1
  Er  Er1  1  0.969401  0.272097  0.583037  1
  Er  Er2  1  0.878455  0.953751  0.746363  1
  Er  Er3  1  0.122745  0.046364  0.254000  1
  Er  Er4  1  0.358664  0.133922  0.678657  1
  Er  Er5  1  0.641236  0.868290  0.321703  1
  Fe  Fe6  1  0.001642  0.994839  0.498562  1
  Br  Br7  1  0.456281  0.822023  0.585682  1
  Br  Br8  1  0.551986  0.182951  0.419370  1
  Br  Br9  1  0.910477  0.629368  0.677132  1
  Br  Br10  1  0.084936  0.366745  0.330720  1
  Br  Br11  1  0.250916  0.086117  0.957694  1
  Br  Br12  1  0.750527  0.916018  0.042688  1
  Br  Br13  1  0.342637  0.451569  0.769772  1
  Br  Br14  1  0.641719  0.546885  0.225140  1
  Br  Br15  1  0.788098  0.257879  0.842997  1
  Br  Br16  1  0.219355  0.747087  0.150457  1
