# generated using pymatgen
data_HoErTm2Ga12Fe
_symmetry_space_group_name_H-M   'P 1'
_cell_length_a   7.41088389
_cell_length_b   7.41088327
_cell_length_c   7.39032302
_cell_angle_alpha   109.46160177
_cell_angle_beta   109.46160412
_cell_angle_gamma   109.55991712
_symmetry_Int_Tables_number   1
_chemical_formula_structural   HoErTm2Ga12Fe
_chemical_formula_sum   'Ho1 Er1 Tm2 Ga12 Fe1'
_cell_volume   312.18234425
_cell_formula_units_Z   1
loop_
 _symmetry_equiv_pos_site_id
 _symmetry_equiv_pos_as_xyz
  1  'x, y, z'
loop_
 _atom_site_type_symbol
 _atom_site_label
 _atom_site_symmetry_multiplicity
 _atom_site_fract_x
 _atom_site_fract_y
 _atom_site_fract_z
 _atom_site_occupancy
  Ho  Ho0  1  0.000000  0.000000  0.500000  1
  Er  Er1  1  0.500000  0.500000  0.500000  1
  Tm  Tm2  1  0.000000  0.500000  0.000000  1
  Tm  Tm3  1  0.500000  0.000000  0.000000  1
  Ga  Ga4  1  0.749893  0.250107  0.500000  1
  Ga  Ga5  1  0.749891  0.499241  0.249398  1
  Ga  Ga6  1  0.500759  0.250109  0.750602  1
  Ga  Ga7  1  0.250109  0.500759  0.750602  1
  Ga  Ga8  1  0.250107  0.749893  0.500000  1
  Ga  Ga9  1  0.499241  0.749891  0.249398  1
  Ga  Ga10  1  0.716911  0.716911  0.999707  1
  Ga  Ga11  1  0.283088  0.999664  0.282436  1
  Ga  Ga12  1  0.999664  0.283088  0.282436  1
  Ga  Ga13  1  0.283089  0.283089  0.000293  1
  Ga  Ga14  1  0.716912  0.000336  0.717564  1
  Ga  Ga15  1  0.000336  0.716912  0.717564  1
  Fe  Fe16  1  0.000000  0.000000  0.000000  1
