# generated using pymatgen
data_Sm(Eu2Rh)2
_symmetry_space_group_name_H-M   'P 1'
_cell_length_a   9.03781958
_cell_length_b   9.03781989
_cell_length_c   7.65825500
_cell_angle_alpha   82.84817885
_cell_angle_beta   82.84817860
_cell_angle_gamma   44.05312060
_symmetry_Int_Tables_number   1
_chemical_formula_structural   Sm(Eu2Rh)2
_chemical_formula_sum   'Sm2 Eu8 Rh4'
_cell_volume   431.01520639
_cell_formula_units_Z   2
loop_
 _symmetry_equiv_pos_site_id
 _symmetry_equiv_pos_as_xyz
  1  'x, y, z'
loop_
 _atom_site_type_symbol
 _atom_site_label
 _atom_site_symmetry_multiplicity
 _atom_site_fract_x
 _atom_site_fract_y
 _atom_site_fract_z
 _atom_site_occupancy
  Sm  Sm0  1  0.564817  0.435183  0.250000  1
  Sm  Sm1  1  0.435183  0.564817  0.750000  1
  Eu  Eu2  1  0.016992  0.804412  0.417660  1
  Eu  Eu3  1  0.195588  0.983008  0.082340  1
  Eu  Eu4  1  0.983008  0.195588  0.582340  1
  Eu  Eu5  1  0.804412  0.016992  0.917660  1
  Eu  Eu6  1  0.361952  0.205180  0.318709  1
  Eu  Eu7  1  0.794820  0.638048  0.181291  1
  Eu  Eu8  1  0.638048  0.794820  0.681291  1
  Eu  Eu9  1  0.205180  0.361952  0.818709  1
  Rh  Rh10  1  0.195394  0.596074  0.074730  1
  Rh  Rh11  1  0.403926  0.804606  0.425270  1
  Rh  Rh12  1  0.804606  0.403926  0.925270  1
  Rh  Rh13  1  0.596074  0.195394  0.574730  1
