# generated using pymatgen
data_Tb5NdHo10(CdIr)4
_symmetry_space_group_name_H-M   'P 1'
_cell_length_a   9.63711154
_cell_length_b   9.63711163
_cell_length_c   9.64270000
_cell_angle_alpha   59.98080899
_cell_angle_beta   59.98080869
_cell_angle_gamma   59.83555532
_symmetry_Int_Tables_number   1
_chemical_formula_structural   Tb5NdHo10(CdIr)4
_chemical_formula_sum   'Tb5 Nd1 Ho10 Cd4 Ir4'
_cell_volume   632.27944178
_cell_formula_units_Z   1
loop_
 _symmetry_equiv_pos_site_id
 _symmetry_equiv_pos_as_xyz
  1  'x, y, z'
loop_
 _atom_site_type_symbol
 _atom_site_label
 _atom_site_symmetry_multiplicity
 _atom_site_fract_x
 _atom_site_fract_y
 _atom_site_fract_z
 _atom_site_occupancy
  Tb  Tb0  1  0.939427  0.558825  0.561245  1
  Tb  Tb1  1  0.558825  0.939427  0.940502  1
  Tb  Tb2  1  0.558825  0.939427  0.561245  1
  Tb  Tb3  1  0.939427  0.558825  0.940502  1
  Tb  Tb4  1  0.561574  0.561574  0.938426  1
  Nd  Nd5  1  0.938113  0.938113  0.561887  1
  Ho  Ho6  1  0.348997  0.348997  0.347085  1
  Ho  Ho7  1  0.348997  0.348997  0.954920  1
  Ho  Ho8  1  0.350438  0.954002  0.347779  1
  Ho  Ho9  1  0.954002  0.350438  0.347779  1
  Ho  Ho10  1  0.810337  0.188708  0.188659  1
  Ho  Ho11  1  0.188708  0.810337  0.812296  1
  Ho  Ho12  1  0.188708  0.810337  0.188659  1
  Ho  Ho13  1  0.810337  0.188708  0.812296  1
  Ho  Ho14  1  0.189200  0.189200  0.810800  1
  Ho  Ho15  1  0.810997  0.810997  0.189003  1
  Cd  Cd16  1  0.580701  0.580701  0.580901  1
  Cd  Cd17  1  0.580701  0.580701  0.257697  1
  Cd  Cd18  1  0.578697  0.258773  0.581265  1
  Cd  Cd19  1  0.258773  0.578697  0.581265  1
  Ir  Ir20  1  0.143019  0.143019  0.138510  1
  Ir  Ir21  1  0.143019  0.143019  0.575452  1
  Ir  Ir22  1  0.142346  0.575829  0.140912  1
  Ir  Ir23  1  0.575829  0.142346  0.140912  1
