# generated using pymatgen
data_Ho2AlGaIrPt
_symmetry_space_group_name_H-M   'P 1'
_cell_length_a   4.34994600
_cell_length_b   6.80586200
_cell_length_c   7.83806200
_cell_angle_alpha   90.00000000
_cell_angle_beta   90.00000000
_cell_angle_gamma   90.00000000
_symmetry_Int_Tables_number   1
_chemical_formula_structural   Ho2AlGaIrPt
_chemical_formula_sum   'Ho4 Al2 Ga2 Ir2 Pt2'
_cell_volume   232.04686157
_cell_formula_units_Z   2
loop_
 _symmetry_equiv_pos_site_id
 _symmetry_equiv_pos_as_xyz
  1  'x, y, z'
loop_
 _atom_site_type_symbol
 _atom_site_label
 _atom_site_symmetry_multiplicity
 _atom_site_fract_x
 _atom_site_fract_y
 _atom_site_fract_z
 _atom_site_occupancy
  Ho  Ho0  1  0.250000  0.032202  0.679531  1
  Ho  Ho1  1  0.250000  0.532202  0.820469  1
  Ho  Ho2  1  0.750000  0.972758  0.317786  1
  Ho  Ho3  1  0.750000  0.472758  0.182214  1
  Al  Al4  1  0.750000  0.854924  0.939634  1
  Al  Al5  1  0.750000  0.354924  0.560366  1
  Ga  Ga6  1  0.250000  0.143261  0.064929  1
  Ga  Ga7  1  0.250000  0.643261  0.435071  1
  Ir  Ir8  1  0.250000  0.265597  0.383863  1
  Ir  Ir9  1  0.250000  0.765597  0.116137  1
  Pt  Pt10  1  0.750000  0.731258  0.623103  1
  Pt  Pt11  1  0.750000  0.231258  0.876897  1
