# generated using pymatgen
data_YEr19Sn16
_symmetry_space_group_name_H-M   'P 1'
_cell_length_a   8.00014097
_cell_length_b   8.10112339
_cell_length_c   15.34468881
_cell_angle_alpha   90.03822872
_cell_angle_beta   89.75572567
_cell_angle_gamma   89.87385228
_symmetry_Int_Tables_number   1
_chemical_formula_structural   YEr19Sn16
_chemical_formula_sum   'Y1 Er19 Sn16'
_cell_volume   994.47958657
_cell_formula_units_Z   1
loop_
 _symmetry_equiv_pos_site_id
 _symmetry_equiv_pos_as_xyz
  1  'x, y, z'
loop_
 _atom_site_type_symbol
 _atom_site_label
 _atom_site_symmetry_multiplicity
 _atom_site_fract_x
 _atom_site_fract_y
 _atom_site_fract_z
 _atom_site_occupancy
  Y  Y0  1  0.020902  0.178665  0.903777  1
  Er  Er1  1  0.368386  0.837529  0.877092  1
  Er  Er2  1  0.869006  0.662054  0.621998  1
  Er  Er3  1  0.630510  0.162256  0.377404  1
  Er  Er4  1  0.132132  0.338017  0.122736  1
  Er  Er5  1  0.631756  0.162434  0.122930  1
  Er  Er6  1  0.130794  0.338050  0.377715  1
  Er  Er7  1  0.369694  0.837690  0.622410  1
  Er  Er8  1  0.868452  0.662114  0.877457  1
  Er  Er9  1  0.522286  0.322079  0.903224  1
  Er  Er10  1  0.022628  0.178752  0.597049  1
  Er  Er11  1  0.477122  0.678425  0.402728  1
  Er  Er12  1  0.978547  0.821217  0.096723  1
  Er  Er13  1  0.478165  0.678346  0.096906  1
  Er  Er14  1  0.977536  0.821630  0.403009  1
  Er  Er15  1  0.522718  0.321668  0.596801  1
  Er  Er16  1  0.199857  0.504047  0.749651  1
  Er  Er17  1  0.699634  0.996002  0.749674  1
  Er  Er18  1  0.800166  0.496040  0.250163  1
  Er  Er19  1  0.300120  0.003884  0.250280  1
  Sn  Sn20  1  0.293565  0.036267  0.041906  1
  Sn  Sn21  1  0.791392  0.462624  0.458266  1
  Sn  Sn22  1  0.708464  0.963188  0.541491  1
  Sn  Sn23  1  0.208043  0.537740  0.958793  1
  Sn  Sn24  1  0.705879  0.961541  0.959102  1
  Sn  Sn25  1  0.208600  0.537085  0.541199  1
  Sn  Sn26  1  0.291298  0.036917  0.458699  1
  Sn  Sn27  1  0.792576  0.462786  0.041606  1
  Sn  Sn28  1  0.566103  0.618171  0.749999  1
  Sn  Sn29  1  0.065637  0.881567  0.749744  1
  Sn  Sn30  1  0.433428  0.382763  0.250225  1
  Sn  Sn31  1  0.934303  0.117536  0.250006  1
  Sn  Sn32  1  0.334098  0.149430  0.750038  1
  Sn  Sn33  1  0.832477  0.351226  0.749591  1
  Sn  Sn34  1  0.667019  0.850961  0.249857  1
  Sn  Sn35  1  0.166708  0.649298  0.249749  1
