# generated using pymatgen
data_Tb2Yb4Si24Os3Ru5
_symmetry_space_group_name_H-M   'P 1'
_cell_length_a   10.15143138
_cell_length_b   10.15143219
_cell_length_c   8.14609501
_cell_angle_alpha   90.01950729
_cell_angle_beta   90.01950772
_cell_angle_gamma   132.68203724
_symmetry_Int_Tables_number   1
_chemical_formula_structural   Tb2Yb4Si24Os3Ru5
_chemical_formula_sum   'Tb2 Yb4 Si24 Os3 Ru5'
_cell_volume   617.11540712
_cell_formula_units_Z   1
loop_
 _symmetry_equiv_pos_site_id
 _symmetry_equiv_pos_as_xyz
  1  'x, y, z'
loop_
 _atom_site_type_symbol
 _atom_site_label
 _atom_site_symmetry_multiplicity
 _atom_site_fract_x
 _atom_site_fract_y
 _atom_site_fract_z
 _atom_site_occupancy
  Tb  Tb0  1  0.499864  0.000023  0.249949  1
  Tb  Tb1  1  0.999977  0.500136  0.750051  1
  Yb  Yb2  1  0.500126  0.499874  0.500000  1
  Yb  Yb3  1  0.999848  0.000152  0.000000  1
  Yb  Yb4  1  0.500572  0.000356  0.749938  1
  Yb  Yb5  1  0.999644  0.499428  0.250062  1
  Si  Si6  1  0.795868  0.204132  0.500000  1
  Si  Si7  1  0.295473  0.704527  0.000000  1
  Si  Si8  1  0.204579  0.795421  0.500000  1
  Si  Si9  1  0.704641  0.295359  0.000000  1
  Si  Si10  1  0.331969  0.335144  0.832034  1
  Si  Si11  1  0.664856  0.668031  0.167966  1
  Si  Si12  1  0.168255  0.164589  0.331751  1
  Si  Si13  1  0.835411  0.831745  0.668249  1
  Si  Si14  1  0.122700  0.890459  0.730105  1
  Si  Si15  1  0.109541  0.877300  0.269895  1
  Si  Si16  1  0.608835  0.376331  0.229086  1
  Si  Si17  1  0.623669  0.391165  0.770914  1
  Si  Si18  1  0.875916  0.108393  0.269220  1
  Si  Si19  1  0.891607  0.124084  0.730780  1
  Si  Si20  1  0.391342  0.623779  0.770217  1
  Si  Si21  1  0.376221  0.608658  0.229783  1
  Si  Si22  1  0.346292  0.113386  0.506542  1
  Si  Si23  1  0.886614  0.653708  0.493458  1
  Si  Si24  1  0.387010  0.154143  0.007637  1
  Si  Si25  1  0.845857  0.612990  0.992363  1
  Si  Si26  1  0.653882  0.886444  0.491283  1
  Si  Si27  1  0.113556  0.346118  0.508717  1
  Si  Si28  1  0.613706  0.847339  0.993501  1
  Si  Si29  1  0.152661  0.386294  0.006499  1
  Os  Os30  1  0.670893  0.329107  0.500000  1
  Os  Os31  1  0.170356  0.829644  0.000000  1
  Os  Os32  1  0.329768  0.670232  0.500000  1
  Ru  Ru33  1  0.828975  0.171025  0.000000  1
  Ru  Ru34  1  0.126327  0.126571  0.624798  1
  Ru  Ru35  1  0.873429  0.873673  0.375202  1
  Ru  Ru36  1  0.373530  0.373771  0.124645  1
  Ru  Ru37  1  0.626229  0.626470  0.875355  1
