# generated using pymatgen
data_Yb17Cd3(IrPd3)3
_symmetry_space_group_name_H-M   'P 1'
_cell_length_a   6.02478100
_cell_length_b   11.08253827
_cell_length_c   11.06171427
_cell_angle_alpha   90.02529944
_cell_angle_beta   90.00005442
_cell_angle_gamma   90.00003452
_symmetry_Int_Tables_number   1
_chemical_formula_structural   Yb17Cd3(IrPd3)3
_chemical_formula_sum   'Yb17 Cd3 Ir3 Pd9'
_cell_volume   738.58910752
_cell_formula_units_Z   1
loop_
 _symmetry_equiv_pos_site_id
 _symmetry_equiv_pos_as_xyz
  1  'x, y, z'
loop_
 _atom_site_type_symbol
 _atom_site_label
 _atom_site_symmetry_multiplicity
 _atom_site_fract_x
 _atom_site_fract_y
 _atom_site_fract_z
 _atom_site_occupancy
  Yb  Yb0  1  0.344396  0.831496  0.535446  1
  Yb  Yb1  1  0.829671  0.668388  0.531753  1
  Yb  Yb2  1  0.829671  0.831612  0.968248  1
  Yb  Yb3  1  0.344396  0.668504  0.964553  1
  Yb  Yb4  1  0.831940  0.534512  0.832824  1
  Yb  Yb5  1  0.340417  0.957085  0.831875  1
  Yb  Yb6  1  0.340417  0.542915  0.668125  1
  Yb  Yb7  1  0.831939  0.965487  0.667176  1
  Yb  Yb8  1  0.661758  0.170551  0.454232  1
  Yb  Yb9  1  0.159570  0.331376  0.462045  1
  Yb  Yb10  1  0.159570  0.168625  0.037955  1
  Yb  Yb11  1  0.661759  0.329449  0.045769  1
  Yb  Yb12  1  0.161751  0.462843  0.170276  1
  Yb  Yb13  1  0.657969  0.040616  0.170838  1
  Yb  Yb14  1  0.657969  0.459385  0.329162  1
  Yb  Yb15  1  0.161750  0.037157  0.329724  1
  Yb  Yb16  1  0.500610  0.250000  0.750000  1
  Cd  Cd17  1  0.503844  0.750000  0.250000  1
  Cd  Cd18  1  0.004303  0.750000  0.250000  1
  Cd  Cd19  1  0.000740  0.250000  0.750000  1
  Ir  Ir20  1  0.593675  0.750000  0.750000  1
  Ir  Ir21  1  0.919044  0.250000  0.250000  1
  Ir  Ir22  1  0.405356  0.250000  0.250000  1
  Pd  Pd23  1  0.252161  0.904662  0.090570  1
  Pd  Pd24  1  0.753294  0.592682  0.093685  1
  Pd  Pd25  1  0.753295  0.907319  0.406315  1
  Pd  Pd26  1  0.252161  0.595338  0.409431  1
  Pd  Pd27  1  0.746061  0.091599  0.907563  1
  Pd  Pd28  1  0.256369  0.410313  0.906159  1
  Pd  Pd29  1  0.256367  0.089686  0.593842  1
  Pd  Pd30  1  0.746061  0.408401  0.592437  1
  Pd  Pd31  1  0.081717  0.750000  0.750000  1
