# generated using pymatgen
data_Hf2MnV2Os
_symmetry_space_group_name_H-M   'P 1'
_cell_length_a   5.07555875
_cell_length_b   5.04121746
_cell_length_c   8.52372300
_cell_angle_alpha   90.00000000
_cell_angle_beta   90.00000000
_cell_angle_gamma   119.77643541
_symmetry_Int_Tables_number   1
_chemical_formula_structural   Hf2MnV2Os
_chemical_formula_sum   'Hf4 Mn2 V4 Os2'
_cell_volume   189.30113659
_cell_formula_units_Z   2
loop_
 _symmetry_equiv_pos_site_id
 _symmetry_equiv_pos_as_xyz
  1  'x, y, z'
loop_
 _atom_site_type_symbol
 _atom_site_label
 _atom_site_symmetry_multiplicity
 _atom_site_fract_x
 _atom_site_fract_y
 _atom_site_fract_z
 _atom_site_occupancy
  Hf  Hf0  1  0.332817  0.666480  0.439142  1
  Hf  Hf1  1  0.667183  0.333662  0.939142  1
  Hf  Hf2  1  0.667183  0.333662  0.560858  1
  Hf  Hf3  1  0.332817  0.666480  0.060858  1
  Mn  Mn4  1  0.827179  0.653642  0.250000  1
  Mn  Mn5  1  0.172821  0.826462  0.750000  1
  V  V6  1  0.167993  0.343432  0.750000  1
  V  V7  1  0.832007  0.175439  0.250000  1
  V  V8  1  0.341379  0.173841  0.250000  1
  V  V9  1  0.658621  0.832463  0.750000  1
  Os  Os10  1  0.000000  0.997218  0.000000  1
  Os  Os11  1  0.000000  0.997218  0.500000  1
