# generated using pymatgen
data_Nd4PdRh3O14
_symmetry_space_group_name_H-M   'P 1'
_cell_length_a   7.41266868
_cell_length_b   7.38883213
_cell_length_c   7.41266800
_cell_angle_alpha   59.89322058
_cell_angle_beta   59.99999409
_cell_angle_gamma   59.89322256
_symmetry_Int_Tables_number   1
_chemical_formula_structural   Nd4PdRh3O14
_chemical_formula_sum   'Nd4 Pd1 Rh3 O14'
_cell_volume   286.62040161
_cell_formula_units_Z   1
loop_
 _symmetry_equiv_pos_site_id
 _symmetry_equiv_pos_as_xyz
  1  'x, y, z'
loop_
 _atom_site_type_symbol
 _atom_site_label
 _atom_site_symmetry_multiplicity
 _atom_site_fract_x
 _atom_site_fract_y
 _atom_site_fract_z
 _atom_site_occupancy
  Nd  Nd0  1  0.625000  0.625000  0.125000  1
  Nd  Nd1  1  0.625000  0.125000  0.625000  1
  Nd  Nd2  1  0.125000  0.625000  0.625000  1
  Nd  Nd3  1  0.625000  0.625000  0.625000  1
  Pd  Pd4  1  0.125000  0.625000  0.125000  1
  Rh  Rh5  1  0.125000  0.125000  0.625000  1
  Rh  Rh6  1  0.625000  0.125000  0.125000  1
  Rh  Rh7  1  0.125000  0.125000  0.125000  1
  O  O8  1  0.499947  0.500160  0.499947  1
  O  O9  1  0.750053  0.749840  0.750053  1
  O  O10  1  0.456155  0.045092  0.456155  1
  O  O11  1  0.209262  0.792720  0.209262  1
  O  O12  1  0.461244  0.457280  0.040738  1
  O  O13  1  0.040738  0.457280  0.461244  1
  O  O14  1  0.456155  0.045092  0.042598  1
  O  O15  1  0.042598  0.045092  0.456155  1
  O  O16  1  0.040738  0.457280  0.040738  1
  O  O17  1  0.793845  0.204908  0.207402  1
  O  O18  1  0.209262  0.792720  0.788756  1
  O  O19  1  0.793845  0.204908  0.793845  1
  O  O20  1  0.207402  0.204908  0.793845  1
  O  O21  1  0.788756  0.792720  0.209262  1
