# generated using pymatgen
data_Zr5SiSnSb
_symmetry_space_group_name_H-M   'P 1'
_cell_length_a   8.34945308
_cell_length_b   8.34956315
_cell_length_c   8.34945230
_cell_angle_alpha   96.19660385
_cell_angle_beta   96.24293001
_cell_angle_gamma   141.56404603
_symmetry_Int_Tables_number   1
_chemical_formula_structural   Zr5SiSnSb
_chemical_formula_sum   'Zr10 Si2 Sn2 Sb2'
_cell_volume   341.67940587
_cell_formula_units_Z   2
loop_
 _symmetry_equiv_pos_site_id
 _symmetry_equiv_pos_as_xyz
  1  'x, y, z'
loop_
 _atom_site_type_symbol
 _atom_site_label
 _atom_site_symmetry_multiplicity
 _atom_site_fract_x
 _atom_site_fract_y
 _atom_site_fract_z
 _atom_site_occupancy
  Zr  Zr0  1  0.425454  0.292596  0.718049  1
  Zr  Zr1  1  0.207433  0.074538  0.281961  1
  Zr  Zr2  1  0.574373  0.707434  0.281809  1
  Zr  Zr3  1  0.250186  0.750000  0.500186  1
  Zr  Zr4  1  0.292498  0.574319  0.866801  1
  Zr  Zr5  1  0.707421  0.425462  0.132893  1
  Zr  Zr6  1  0.750153  0.250000  0.500153  1
  Zr  Zr7  1  0.925454  0.207404  0.132858  1
  Zr  Zr8  1  0.792481  0.925681  0.718178  1
  Zr  Zr9  1  0.074374  0.792566  0.866939  1
  Si  Si10  1  0.249985  0.250000  0.999985  1
  Si  Si11  1  0.749987  0.750000  0.999987  1
  Sn  Sn12  1  0.836007  0.664018  0.499996  1
  Sn  Sn13  1  0.335977  0.835982  0.171988  1
  Sb  Sb14  1  0.164094  0.335768  0.499891  1
  Sb  Sb15  1  0.664123  0.164232  0.828327  1
