# generated using pymatgen
data_Ac8Lu10ScSi16Ag
_symmetry_space_group_name_H-M   'P 1'
_cell_length_a   7.52865986
_cell_length_b   7.95562638
_cell_length_c   14.87441600
_cell_angle_alpha   90.00000000
_cell_angle_beta   90.00000000
_cell_angle_gamma   89.73738327
_symmetry_Int_Tables_number   1
_chemical_formula_structural   Ac8Lu10ScSi16Ag
_chemical_formula_sum   'Ac8 Lu10 Sc1 Si16 Ag1'
_cell_volume   890.89683677
_cell_formula_units_Z   1
loop_
 _symmetry_equiv_pos_site_id
 _symmetry_equiv_pos_as_xyz
  1  'x, y, z'
loop_
 _atom_site_type_symbol
 _atom_site_label
 _atom_site_symmetry_multiplicity
 _atom_site_fract_x
 _atom_site_fract_y
 _atom_site_fract_z
 _atom_site_occupancy
  Ac  Ac0  1  0.012912  0.166517  0.097758  1
  Ac  Ac1  1  0.987407  0.817351  0.896571  1
  Ac  Ac2  1  0.473776  0.674461  0.895031  1
  Ac  Ac3  1  0.987407  0.817351  0.603429  1
  Ac  Ac4  1  0.514186  0.327906  0.097780  1
  Ac  Ac5  1  0.012912  0.166517  0.402242  1
  Ac  Ac6  1  0.514186  0.327906  0.402220  1
  Ac  Ac7  1  0.473776  0.674461  0.604969  1
  Lu  Lu8  1  0.845791  0.501739  0.250000  1
  Lu  Lu9  1  0.346233  0.998263  0.250000  1
  Lu  Lu10  1  0.323054  0.190407  0.625002  1
  Lu  Lu11  1  0.678129  0.825473  0.377125  1
  Lu  Lu12  1  0.179870  0.675398  0.373773  1
  Lu  Lu13  1  0.678129  0.825473  0.122875  1
  Lu  Lu14  1  0.833641  0.326153  0.624611  1
  Lu  Lu15  1  0.323054  0.190407  0.874998  1
  Lu  Lu16  1  0.833641  0.326153  0.875389  1
  Lu  Lu17  1  0.179870  0.675398  0.126227  1
  Sc  Sc18  1  0.648777  0.017514  0.750000  1
  Si  Si19  1  0.025911  0.115468  0.750000  1
  Si  Si20  1  0.974550  0.866312  0.250000  1
  Si  Si21  1  0.479252  0.635720  0.250000  1
  Si  Si22  1  0.544525  0.371759  0.750000  1
  Si  Si23  1  0.290245  0.920739  0.750000  1
  Si  Si24  1  0.709192  0.113928  0.250000  1
  Si  Si25  1  0.207684  0.379463  0.250000  1
  Si  Si26  1  0.774583  0.604226  0.750000  1
  Si  Si27  1  0.146479  0.460619  0.530722  1
  Si  Si28  1  0.855915  0.534858  0.460046  1
  Si  Si29  1  0.355139  0.965131  0.463344  1
  Si  Si30  1  0.855915  0.534858  0.039954  1
  Si  Si31  1  0.646834  0.033460  0.544158  1
  Si  Si32  1  0.146479  0.460619  0.969278  1
  Si  Si33  1  0.646834  0.033460  0.955842  1
  Si  Si34  1  0.355139  0.965131  0.036656  1
  Ag  Ag35  1  0.138569  0.479397  0.750000  1
