# generated using pymatgen
data_Pr5Si6P6Ir19
_symmetry_space_group_name_H-M   'P 1'
_cell_length_a   12.90932900
_cell_length_b   12.90932887
_cell_length_c   4.00678500
_cell_angle_alpha   90.00000000
_cell_angle_beta   90.00000000
_cell_angle_gamma   119.99999777
_symmetry_Int_Tables_number   1
_chemical_formula_structural   Pr5Si6P6Ir19
_chemical_formula_sum   'Pr5 Si6 P6 Ir19'
_cell_volume   578.27446391
_cell_formula_units_Z   1
loop_
 _symmetry_equiv_pos_site_id
 _symmetry_equiv_pos_as_xyz
  1  'x, y, z'
loop_
 _atom_site_type_symbol
 _atom_site_label
 _atom_site_symmetry_multiplicity
 _atom_site_fract_x
 _atom_site_fract_y
 _atom_site_fract_z
 _atom_site_occupancy
  Pr  Pr0  1  0.333333  0.666667  0.500000  1
  Pr  Pr1  1  0.666667  0.333333  0.500000  1
  Pr  Pr2  1  0.001244  0.815759  0.000000  1
  Pr  Pr3  1  0.184241  0.185486  0.000000  1
  Pr  Pr4  1  0.814514  0.998756  0.000000  1
  Si  Si5  1  0.001039  0.633690  0.500000  1
  Si  Si6  1  0.366310  0.367350  0.500000  1
  Si  Si7  1  0.632650  0.998961  0.500000  1
  Si  Si8  1  0.520702  0.682343  0.000000  1
  Si  Si9  1  0.317657  0.838359  0.000000  1
  Si  Si10  1  0.161641  0.479298  0.000000  1
  P  P11  1  0.481904  0.176940  0.000000  1
  P  P12  1  0.695036  0.518096  0.000000  1
  P  P13  1  0.823060  0.304964  0.000000  1
  P  P14  1  0.996930  0.179154  0.500000  1
  P  P15  1  0.820846  0.817776  0.500000  1
  P  P16  1  0.182224  0.003070  0.500000  1
  Ir  Ir17  1  0.516457  0.870670  0.000000  1
  Ir  Ir18  1  0.129330  0.645788  0.000000  1
  Ir  Ir19  1  0.354212  0.483543  0.000000  1
  Ir  Ir20  1  0.492881  0.368906  0.000000  1
  Ir  Ir21  1  0.876025  0.507119  0.000000  1
  Ir  Ir22  1  0.631094  0.123975  0.000000  1
  Ir  Ir23  1  0.014865  0.457531  0.500000  1
  Ir  Ir24  1  0.542469  0.557333  0.500000  1
  Ir  Ir25  1  0.442667  0.985135  0.500000  1
  Ir  Ir26  1  0.993925  0.280550  0.000000  1
  Ir  Ir27  1  0.719450  0.713375  0.000000  1
  Ir  Ir28  1  0.286625  0.006075  0.000000  1
  Ir  Ir29  1  0.629853  0.806298  0.500000  1
  Ir  Ir30  1  0.193702  0.823555  0.500000  1
  Ir  Ir31  1  0.176445  0.370147  0.500000  1
  Ir  Ir32  1  0.382413  0.181681  0.500000  1
  Ir  Ir33  1  0.799267  0.617587  0.500000  1
  Ir  Ir34  1  0.818319  0.200733  0.500000  1
  Ir  Ir35  1  0.000000  0.000000  0.500000  1
