# generated using pymatgen
data_Pr3Th5Se12
_symmetry_space_group_name_H-M   'P 1'
_cell_length_a   11.43051782
_cell_length_b   4.08725300
_cell_length_c   11.49982639
_cell_angle_alpha   90.00000000
_cell_angle_beta   89.38038707
_cell_angle_gamma   90.00000000
_symmetry_Int_Tables_number   1
_chemical_formula_structural   Pr3Th5Se12
_chemical_formula_sum   'Pr3 Th5 Se12'
_cell_volume   537.23378319
_cell_formula_units_Z   1
loop_
 _symmetry_equiv_pos_site_id
 _symmetry_equiv_pos_as_xyz
  1  'x, y, z'
loop_
 _atom_site_type_symbol
 _atom_site_label
 _atom_site_symmetry_multiplicity
 _atom_site_fract_x
 _atom_site_fract_y
 _atom_site_fract_z
 _atom_site_occupancy
  Pr  Pr0  1  0.478622  0.250000  0.186723  1
  Pr  Pr1  1  0.980089  0.250000  0.316014  1
  Pr  Pr2  1  0.523434  0.750000  0.815374  1
  Th  Th3  1  0.019434  0.750000  0.681674  1
  Th  Th4  1  0.692372  0.750000  0.487883  1
  Th  Th5  1  0.194984  0.750000  0.001355  1
  Th  Th6  1  0.303268  0.250000  0.516090  1
  Th  Th7  1  0.805215  0.250000  0.994233  1
  Se  Se8  1  0.551472  0.250000  0.621968  1
  Se  Se9  1  0.050959  0.250000  0.872570  1
  Se  Se10  1  0.445752  0.750000  0.380276  1
  Se  Se11  1  0.950604  0.750000  0.120325  1
  Se  Se12  1  0.625083  0.750000  0.056721  1
  Se  Se13  1  0.126627  0.750000  0.444015  1
  Se  Se14  1  0.378306  0.250000  0.944805  1
  Se  Se15  1  0.874726  0.250000  0.557956  1
  Se  Se16  1  0.718243  0.250000  0.300768  1
  Se  Se17  1  0.215803  0.250000  0.191526  1
  Se  Se18  1  0.278342  0.750000  0.706149  1
  Se  Se19  1  0.786665  0.750000  0.803574  1
