# generated using pymatgen
data_DyAl4(ZnCu)4
_symmetry_space_group_name_H-M   'P 1'
_cell_length_a   6.71919143
_cell_length_b   6.71919190
_cell_length_c   6.71919174
_cell_angle_alpha   98.12324151
_cell_angle_beta   98.12323984
_cell_angle_gamma   135.83977917
_symmetry_Int_Tables_number   1
_chemical_formula_structural   DyAl4(ZnCu)4
_chemical_formula_sum   'Dy1 Al4 Zn4 Cu4'
_cell_volume   195.83777795
_cell_formula_units_Z   1
loop_
 _symmetry_equiv_pos_site_id
 _symmetry_equiv_pos_as_xyz
  1  'x, y, z'
loop_
 _atom_site_type_symbol
 _atom_site_label
 _atom_site_symmetry_multiplicity
 _atom_site_fract_x
 _atom_site_fract_y
 _atom_site_fract_z
 _atom_site_occupancy
  Dy  Dy0  1  0.000000  0.000000  0.000000  1
  Al  Al1  1  0.000000  0.347869  0.347869  1
  Al  Al2  1  0.000000  0.652130  0.652130  1
  Al  Al3  1  0.652130  0.000000  0.652130  1
  Al  Al4  1  0.347869  0.000000  0.347869  1
  Zn  Zn5  1  0.500001  0.282074  0.782075  1
  Zn  Zn6  1  0.499998  0.717925  0.217927  1
  Zn  Zn7  1  0.717925  0.499998  0.217927  1
  Zn  Zn8  1  0.282074  0.500001  0.782075  1
  Cu  Cu9  1  0.500000  0.500000  0.499999  1
  Cu  Cu10  1  0.000000  0.000000  0.499999  1
  Cu  Cu11  1  0.499998  0.999999  0.000000  1
  Cu  Cu12  1  0.999999  0.499998  0.000000  1
