# generated using pymatgen
data_Ca12Sc7Ti12CrO48
_symmetry_space_group_name_H-M   'P 1'
_cell_length_a   11.06545413
_cell_length_b   11.06558219
_cell_length_c   11.06544526
_cell_angle_alpha   109.48333448
_cell_angle_beta   109.48311593
_cell_angle_gamma   109.48406896
_symmetry_Int_Tables_number   1
_chemical_formula_structural   Ca12Sc7Ti12CrO48
_chemical_formula_sum   'Ca12 Sc7 Ti12 Cr1 O48'
_cell_volume   1042.54019613
_cell_formula_units_Z   1
loop_
 _symmetry_equiv_pos_site_id
 _symmetry_equiv_pos_as_xyz
  1  'x, y, z'
loop_
 _atom_site_type_symbol
 _atom_site_label
 _atom_site_symmetry_multiplicity
 _atom_site_fract_x
 _atom_site_fract_y
 _atom_site_fract_z
 _atom_site_occupancy
  Ca  Ca0  1  0.252016  0.375595  0.127331  1
  Ca  Ca1  1  0.747984  0.624405  0.872669  1
  Ca  Ca2  1  0.750417  0.125318  0.375538  1
  Ca  Ca3  1  0.127331  0.252020  0.375596  1
  Ca  Ca4  1  0.375537  0.750413  0.125314  1
  Ca  Ca5  1  0.249583  0.874682  0.624462  1
  Ca  Ca6  1  0.872669  0.747980  0.624404  1
  Ca  Ca7  1  0.624463  0.249587  0.874686  1
  Ca  Ca8  1  0.375597  0.127336  0.252023  1
  Ca  Ca9  1  0.624403  0.872664  0.747977  1
  Ca  Ca10  1  0.125315  0.375536  0.750416  1
  Ca  Ca11  1  0.874685  0.624464  0.249584  1
  Sc  Sc12  1  0.000000  0.000000  0.000000  1
  Sc  Sc13  1  0.500000  0.000000  0.500000  1
  Sc  Sc14  1  0.000000  0.500000  0.500000  1
  Sc  Sc15  1  0.500000  0.000000  0.000000  1
  Sc  Sc16  1  0.500000  0.500000  0.000000  1
  Sc  Sc17  1  0.000000  0.000000  0.500000  1
  Sc  Sc18  1  0.000000  0.500000  0.000000  1
  Ti  Ti19  1  0.252845  0.624546  0.377107  1
  Ti  Ti20  1  0.747155  0.375454  0.622893  1
  Ti  Ti21  1  0.749873  0.874928  0.125063  1
  Ti  Ti22  1  0.377110  0.252845  0.624546  1
  Ti  Ti23  1  0.622890  0.747155  0.375454  1
  Ti  Ti24  1  0.250127  0.125072  0.874937  1
  Ti  Ti25  1  0.125062  0.749873  0.874929  1
  Ti  Ti26  1  0.874938  0.250127  0.125071  1
  Ti  Ti27  1  0.624546  0.377107  0.252844  1
  Ti  Ti28  1  0.375454  0.622893  0.747156  1
  Ti  Ti29  1  0.874929  0.125061  0.749875  1
  Ti  Ti30  1  0.125071  0.874939  0.250125  1
  Cr  Cr31  1  0.500000  0.500000  0.500000  1
  O  O32  1  0.481678  0.383534  0.301040  1
  O  O33  1  0.518322  0.616466  0.698960  1
  O  O34  1  0.584379  0.187410  0.206687  1
  O  O35  1  0.914818  0.121735  0.600638  1
  O  O36  1  0.301043  0.481679  0.383527  1
  O  O37  1  0.313848  0.914434  0.293127  1
  O  O38  1  0.415621  0.812590  0.793313  1
  O  O39  1  0.085182  0.878265  0.399362  1
  O  O40  1  0.698957  0.518321  0.616473  1
  O  O41  1  0.686152  0.085566  0.706873  1
  O  O42  1  0.020159  0.313724  0.899515  1
  O  O43  1  0.206688  0.584383  0.187409  1
  O  O44  1  0.121533  0.021247  0.207543  1
  O  O45  1  0.979841  0.686276  0.100485  1
  O  O46  1  0.793312  0.415617  0.812591  1
  O  O47  1  0.878467  0.978753  0.792457  1
  O  O48  1  0.600636  0.914816  0.121734  1
  O  O49  1  0.185574  0.479045  0.600098  1
  O  O50  1  0.399364  0.085184  0.878266  1
  O  O51  1  0.814426  0.520955  0.399902  1
  O  O52  1  0.899513  0.020160  0.313724  1
  O  O53  1  0.380398  0.585389  0.898008  1
  O  O54  1  0.100487  0.979840  0.686276  1
  O  O55  1  0.619602  0.414611  0.101992  1
  O  O56  1  0.383528  0.301037  0.481670  1
  O  O57  1  0.585390  0.898006  0.380399  1
  O  O58  1  0.616472  0.698963  0.518330  1
  O  O59  1  0.414610  0.101994  0.619601  1
  O  O60  1  0.121733  0.600637  0.914816  1
  O  O61  1  0.021250  0.207545  0.121534  1
  O  O62  1  0.878267  0.399363  0.085184  1
  O  O63  1  0.978750  0.792455  0.878466  1
  O  O64  1  0.313722  0.899515  0.020158  1
  O  O65  1  0.914427  0.293124  0.313846  1
  O  O66  1  0.686278  0.100485  0.979842  1
  O  O67  1  0.085573  0.706876  0.686154  1
  O  O68  1  0.187411  0.206688  0.584382  1
  O  O69  1  0.479044  0.600099  0.185575  1
  O  O70  1  0.812589  0.793312  0.415618  1
  O  O71  1  0.520956  0.399901  0.814425  1
  O  O72  1  0.293125  0.313846  0.914429  1
  O  O73  1  0.706875  0.686154  0.085571  1
  O  O74  1  0.207545  0.121535  0.021248  1
  O  O75  1  0.792455  0.878465  0.978752  1
  O  O76  1  0.898009  0.380402  0.585393  1
  O  O77  1  0.101991  0.619598  0.414607  1
  O  O78  1  0.600101  0.185576  0.479049  1
  O  O79  1  0.399899  0.814424  0.520951  1
