# generated using pymatgen
data_Ho4In3Ru
_symmetry_space_group_name_H-M   'P 1'
_cell_length_a   3.44631700
_cell_length_b   3.44631700
_cell_length_c   16.59428100
_cell_angle_alpha   90.00000000
_cell_angle_beta   90.00000000
_cell_angle_gamma   90.00000000
_symmetry_Int_Tables_number   1
_chemical_formula_structural   Ho4In3Ru
_chemical_formula_sum   'Ho4 In3 Ru1'
_cell_volume   197.09194921
_cell_formula_units_Z   1
loop_
 _symmetry_equiv_pos_site_id
 _symmetry_equiv_pos_as_xyz
  1  'x, y, z'
loop_
 _atom_site_type_symbol
 _atom_site_label
 _atom_site_symmetry_multiplicity
 _atom_site_fract_x
 _atom_site_fract_y
 _atom_site_fract_z
 _atom_site_occupancy
  Ho  Ho0  1  0.500000  0.500000  0.099545  1
  Ho  Ho1  1  0.500000  0.500000  0.368512  1
  Ho  Ho2  1  0.500000  0.500000  0.631488  1
  Ho  Ho3  1  0.500000  0.500000  0.900455  1
  In  In4  1  0.000000  0.000000  0.238101  1
  In  In5  1  0.000000  0.000000  0.500000  1
  In  In6  1  0.000000  0.000000  0.761899  1
  Ru  Ru7  1  0.000000  0.000000  0.000000  1
