# generated using pymatgen
data_Hf3ZrNbSn3N
_symmetry_space_group_name_H-M   'P 1'
_cell_length_a   8.37793534
_cell_length_b   8.37793502
_cell_length_c   5.66111201
_cell_angle_alpha   90.00282951
_cell_angle_beta   90.00284020
_cell_angle_gamma   120.11658666
_symmetry_Int_Tables_number   1
_chemical_formula_structural   Hf3ZrNbSn3N
_chemical_formula_sum   'Hf6 Zr2 Nb2 Sn6 N2'
_cell_volume   343.71220835
_cell_formula_units_Z   2
loop_
 _symmetry_equiv_pos_site_id
 _symmetry_equiv_pos_as_xyz
  1  'x, y, z'
loop_
 _atom_site_type_symbol
 _atom_site_label
 _atom_site_symmetry_multiplicity
 _atom_site_fract_x
 _atom_site_fract_y
 _atom_site_fract_z
 _atom_site_occupancy
  Hf  Hf0  1  0.333427  0.666334  0.500137  1
  Hf  Hf1  1  0.666334  0.333427  0.500137  1
  Hf  Hf2  1  0.781000  0.781000  0.749636  1
  Hf  Hf3  1  0.221673  0.000815  0.749269  1
  Hf  Hf4  1  0.000815  0.221673  0.749269  1
  Hf  Hf5  1  0.218913  0.218913  0.250910  1
  Zr  Zr6  1  0.774733  0.999398  0.251076  1
  Zr  Zr7  1  0.999398  0.774733  0.251076  1
  Nb  Nb8  1  0.665960  0.333218  0.000139  1
  Nb  Nb9  1  0.333218  0.665960  0.000139  1
  Sn  Sn10  1  0.407535  0.407535  0.755949  1
  Sn  Sn11  1  0.593061  0.000049  0.755950  1
  Sn  Sn12  1  0.000049  0.593061  0.755950  1
  Sn  Sn13  1  0.591807  0.591807  0.243624  1
  Sn  Sn14  1  0.405637  0.999844  0.243601  1
  Sn  Sn15  1  0.999844  0.405637  0.243601  1
  N  N16  1  0.003564  0.003564  0.995336  1
  N  N17  1  0.003031  0.003031  0.504202  1
