# generated using pymatgen
data_DyHf(Co5As3)2
_symmetry_space_group_name_H-M   'P 1'
_cell_length_a   3.75565800
_cell_length_b   10.64428700
_cell_length_c   12.12205700
_cell_angle_alpha   90.00000000
_cell_angle_beta   90.00000000
_cell_angle_gamma   90.00000000
_symmetry_Int_Tables_number   1
_chemical_formula_structural   DyHf(Co5As3)2
_chemical_formula_sum   'Dy2 Hf2 Co20 As12'
_cell_volume   484.59500696
_cell_formula_units_Z   2
loop_
 _symmetry_equiv_pos_site_id
 _symmetry_equiv_pos_as_xyz
  1  'x, y, z'
loop_
 _atom_site_type_symbol
 _atom_site_label
 _atom_site_symmetry_multiplicity
 _atom_site_fract_x
 _atom_site_fract_y
 _atom_site_fract_z
 _atom_site_occupancy
  Dy  Dy0  1  0.750000  0.418156  0.297234  1
  Dy  Dy1  1  0.750000  0.081844  0.797234  1
  Hf  Hf2  1  0.250000  0.576625  0.698561  1
  Hf  Hf3  1  0.250000  0.923375  0.198561  1
  Co  Co4  1  0.250000  0.716853  0.994942  1
  Co  Co5  1  0.250000  0.783147  0.494942  1
  Co  Co6  1  0.750000  0.285327  0.008221  1
  Co  Co7  1  0.750000  0.214673  0.508221  1
  Co  Co8  1  0.250000  0.410202  0.491133  1
  Co  Co9  1  0.250000  0.089798  0.991133  1
  Co  Co10  1  0.750000  0.592134  0.518199  1
  Co  Co11  1  0.750000  0.907866  0.018199  1
  Co  Co12  1  0.250000  0.216374  0.179792  1
  Co  Co13  1  0.250000  0.283626  0.679792  1
  Co  Co14  1  0.750000  0.783427  0.821686  1
  Co  Co15  1  0.750000  0.716573  0.321686  1
  Co  Co16  1  0.250000  0.882958  0.696918  1
  Co  Co17  1  0.250000  0.617042  0.196918  1
  Co  Co18  1  0.750000  0.111246  0.301035  1
  Co  Co19  1  0.750000  0.388754  0.801035  1
  Co  Co20  1  0.250000  0.473614  0.926647  1
  Co  Co21  1  0.250000  0.026386  0.426647  1
  Co  Co22  1  0.750000  0.533444  0.066117  1
  Co  Co23  1  0.750000  0.966556  0.566117  1
  As  As24  1  0.250000  0.415532  0.110913  1
  As  As25  1  0.250000  0.084468  0.610913  1
  As  As26  1  0.750000  0.587126  0.882175  1
  As  As27  1  0.750000  0.912874  0.382175  1
  As  As28  1  0.250000  0.269179  0.872991  1
  As  As29  1  0.250000  0.230821  0.372991  1
  As  As30  1  0.750000  0.734158  0.131625  1
  As  As31  1  0.750000  0.765842  0.631625  1
  As  As32  1  0.250000  0.600227  0.390449  1
  As  As33  1  0.250000  0.899773  0.890449  1
  As  As34  1  0.750000  0.399797  0.611364  1
  As  As35  1  0.750000  0.100203  0.111364  1
