# generated using pymatgen
data_Tb3(Th2Au5)2
_symmetry_space_group_name_H-M   'P 1'
_cell_length_a   8.93009094
_cell_length_b   8.93010692
_cell_length_c   10.55988700
_cell_angle_alpha   90.00023098
_cell_angle_beta   89.99991018
_cell_angle_gamma   107.72409045
_symmetry_Int_Tables_number   1
_chemical_formula_structural   Tb3(Th2Au5)2
_chemical_formula_sum   'Tb6 Th8 Au20'
_cell_volume   802.14355550
_cell_formula_units_Z   2
loop_
 _symmetry_equiv_pos_site_id
 _symmetry_equiv_pos_as_xyz
  1  'x, y, z'
loop_
 _atom_site_type_symbol
 _atom_site_label
 _atom_site_symmetry_multiplicity
 _atom_site_fract_x
 _atom_site_fract_y
 _atom_site_fract_z
 _atom_site_occupancy
  Tb  Tb0  1  0.502840  0.002841  0.250000  1
  Tb  Tb1  1  0.997160  0.497159  0.750000  1
  Tb  Tb2  1  0.000000  0.000000  0.000000  1
  Tb  Tb3  1  0.002840  0.502841  0.250000  1
  Tb  Tb4  1  0.497160  0.997159  0.750000  1
  Tb  Tb5  1  0.500000  0.500000  0.500000  1
  Th  Th6  1  0.695783  0.304218  0.000001  1
  Th  Th7  1  0.195782  0.804217  0.499999  1
  Th  Th8  1  0.807979  0.807982  0.305706  1
  Th  Th9  1  0.307979  0.307982  0.194294  1
  Th  Th10  1  0.804218  0.195783  0.500001  1
  Th  Th11  1  0.304217  0.695782  0.999999  1
  Th  Th12  1  0.692021  0.692018  0.805706  1
  Th  Th13  1  0.192021  0.192018  0.694294  1
  Au  Au14  1  0.146950  0.438611  0.497948  1
  Au  Au15  1  0.898056  0.898059  0.598551  1
  Au  Au16  1  0.561388  0.853052  0.502052  1
  Au  Au17  1  0.860618  0.150356  0.207455  1
  Au  Au18  1  0.360618  0.650356  0.292545  1
  Au  Au19  1  0.650355  0.360616  0.292545  1
  Au  Au20  1  0.398056  0.398059  0.901449  1
  Au  Au21  1  0.938612  0.646948  0.002052  1
  Au  Au22  1  0.349645  0.639384  0.707455  1
  Au  Au23  1  0.353051  0.061389  0.997948  1
  Au  Au24  1  0.601944  0.601941  0.098551  1
  Au  Au25  1  0.646949  0.938611  0.002052  1
  Au  Au26  1  0.101944  0.101941  0.401449  1
  Au  Au27  1  0.639382  0.349644  0.707455  1
  Au  Au28  1  0.139382  0.849644  0.792545  1
  Au  Au29  1  0.061388  0.353052  0.997948  1
  Au  Au30  1  0.853050  0.561389  0.502052  1
  Au  Au31  1  0.150354  0.860616  0.207455  1
  Au  Au32  1  0.438612  0.146948  0.497948  1
  Au  Au33  1  0.849646  0.139384  0.792545  1
