# generated using pymatgen
data_YbDy3(Pt2O7)2
_symmetry_space_group_name_H-M   'P 1'
_cell_length_a   7.26359270
_cell_length_b   7.26421731
_cell_length_c   7.26359300
_cell_angle_alpha   60.00284748
_cell_angle_beta   60.00000318
_cell_angle_gamma   60.00285168
_symmetry_Int_Tables_number   1
_chemical_formula_structural   YbDy3(Pt2O7)2
_chemical_formula_sum   'Yb1 Dy3 Pt4 O14'
_cell_volume   271.01637324
_cell_formula_units_Z   1
loop_
 _symmetry_equiv_pos_site_id
 _symmetry_equiv_pos_as_xyz
  1  'x, y, z'
loop_
 _atom_site_type_symbol
 _atom_site_label
 _atom_site_symmetry_multiplicity
 _atom_site_fract_x
 _atom_site_fract_y
 _atom_site_fract_z
 _atom_site_occupancy
  Yb  Yb0  1  0.125000  0.625000  0.125000  1
  Dy  Dy1  1  0.125000  0.125000  0.625000  1
  Dy  Dy2  1  0.625000  0.125000  0.125000  1
  Dy  Dy3  1  0.125000  0.125000  0.125000  1
  Pt  Pt4  1  0.625000  0.625000  0.625000  1
  Pt  Pt5  1  0.125000  0.625000  0.625000  1
  Pt  Pt6  1  0.625000  0.125000  0.625000  1
  Pt  Pt7  1  0.625000  0.625000  0.125000  1
  O  O8  1  0.288562  0.715887  0.706989  1
  O  O9  1  0.535444  0.965240  0.963872  1
  O  O10  1  0.714556  0.284760  0.714556  1
  O  O11  1  0.286128  0.284760  0.714556  1
  O  O12  1  0.706989  0.715887  0.288562  1
  O  O13  1  0.997857  0.006430  0.997857  1
  O  O14  1  0.288562  0.715887  0.288562  1
  O  O15  1  0.961438  0.534113  0.961438  1
  O  O16  1  0.963872  0.965240  0.535444  1
  O  O17  1  0.543011  0.534113  0.961438  1
  O  O18  1  0.252143  0.243570  0.252143  1
  O  O19  1  0.535444  0.965240  0.535444  1
  O  O20  1  0.714556  0.284760  0.286128  1
  O  O21  1  0.961438  0.534113  0.543011  1
