# generated using pymatgen
data_Cs10Mg3Ti3Se14
_symmetry_space_group_name_H-M   'P 1'
_cell_length_a   11.62045078
_cell_length_b   11.62044411
_cell_length_c   9.65701611
_cell_angle_alpha   76.43429934
_cell_angle_beta   76.43446851
_cell_angle_gamma   70.21092631
_symmetry_Int_Tables_number   1
_chemical_formula_structural   Cs10Mg3Ti3Se14
_chemical_formula_sum   'Cs10 Mg3 Ti3 Se14'
_cell_volume   1175.50911110
_cell_formula_units_Z   1
loop_
 _symmetry_equiv_pos_site_id
 _symmetry_equiv_pos_as_xyz
  1  'x, y, z'
loop_
 _atom_site_type_symbol
 _atom_site_label
 _atom_site_symmetry_multiplicity
 _atom_site_fract_x
 _atom_site_fract_y
 _atom_site_fract_z
 _atom_site_occupancy
  Cs  Cs0  1  0.028855  0.425899  0.731872  1
  Cs  Cs1  1  0.425899  0.028854  0.731872  1
  Cs  Cs2  1  0.975148  0.563136  0.271427  1
  Cs  Cs3  1  0.563136  0.975149  0.271427  1
  Cs  Cs4  1  0.291492  0.714073  0.006104  1
  Cs  Cs5  1  0.714073  0.291492  0.006104  1
  Cs  Cs6  1  0.851522  0.158218  0.490390  1
  Cs  Cs7  1  0.158218  0.851522  0.490390  1
  Cs  Cs8  1  0.429471  0.429468  0.698735  1
  Cs  Cs9  1  0.570787  0.570790  0.305477  1
  Mg  Mg10  1  0.210392  0.210391  0.179608  1
  Mg  Mg11  1  0.787391  0.787392  0.817706  1
  Mg  Mg12  1  0.071489  0.071489  0.060138  1
  Ti  Ti13  1  0.927315  0.927315  0.936199  1
  Ti  Ti14  1  0.343909  0.343909  0.334497  1
  Ti  Ti15  1  0.657272  0.657272  0.669021  1
  Se  Se16  1  0.988897  0.291530  0.120498  1
  Se  Se17  1  0.291530  0.988897  0.120498  1
  Se  Se18  1  0.009500  0.718167  0.879800  1
  Se  Se19  1  0.718167  0.009500  0.879800  1
  Se  Se20  1  0.214198  0.214198  0.451418  1
  Se  Se21  1  0.787203  0.787203  0.549875  1
  Se  Se22  1  0.053615  0.053615  0.797246  1
  Se  Se23  1  0.927534  0.927534  0.183648  1
  Se  Se24  1  0.356437  0.356438  0.077472  1
  Se  Se25  1  0.645641  0.645640  0.926943  1
  Se  Se26  1  0.253761  0.545403  0.401941  1
  Se  Se27  1  0.545403  0.253761  0.401941  1
  Se  Se28  1  0.746066  0.455678  0.603977  1
  Se  Se29  1  0.455678  0.746066  0.603977  1
