# generated using pymatgen
data_Er14Tm2Cd4NiRu3
_symmetry_space_group_name_H-M   'P 1'
_cell_length_a   9.47438253
_cell_length_b   9.54121479
_cell_length_c   9.56582800
_cell_angle_alpha   59.91462838
_cell_angle_beta   59.68020191
_cell_angle_gamma   59.58480001
_symmetry_Int_Tables_number   1
_chemical_formula_structural   Er14Tm2Cd4NiRu3
_chemical_formula_sum   'Er14 Tm2 Cd4 Ni1 Ru3'
_cell_volume   607.64350092
_cell_formula_units_Z   1
loop_
 _symmetry_equiv_pos_site_id
 _symmetry_equiv_pos_as_xyz
  1  'x, y, z'
loop_
 _atom_site_type_symbol
 _atom_site_label
 _atom_site_symmetry_multiplicity
 _atom_site_fract_x
 _atom_site_fract_y
 _atom_site_fract_z
 _atom_site_occupancy
  Er  Er0  1  0.351591  0.958904  0.344752  1
  Er  Er1  1  0.961128  0.346313  0.346280  1
  Er  Er2  1  0.809949  0.188842  0.189354  1
  Er  Er3  1  0.186254  0.810819  0.812016  1
  Er  Er4  1  0.186254  0.810819  0.190912  1
  Er  Er5  1  0.809949  0.188842  0.811855  1
  Er  Er6  1  0.187524  0.189497  0.811490  1
  Er  Er7  1  0.809832  0.810662  0.189753  1
  Er  Er8  1  0.938927  0.560589  0.560788  1
  Er  Er9  1  0.557987  0.937825  0.937325  1
  Er  Er10  1  0.557987  0.937825  0.566863  1
  Er  Er11  1  0.938927  0.560589  0.939696  1
  Er  Er12  1  0.557606  0.566608  0.937893  1
  Er  Er13  1  0.938827  0.939457  0.560858  1
  Tm  Tm14  1  0.350971  0.345853  0.344605  1
  Tm  Tm15  1  0.350971  0.345853  0.958572  1
  Cd  Cd16  1  0.579064  0.580639  0.581332  1
  Cd  Cd17  1  0.579064  0.580639  0.258964  1
  Cd  Cd18  1  0.579165  0.258753  0.581040  1
  Cd  Cd19  1  0.255978  0.581167  0.581427  1
  Ni  Ni20  1  0.577579  0.142332  0.140044  1
  Ru  Ru21  1  0.144553  0.139954  0.137593  1
  Ru  Ru22  1  0.144553  0.139954  0.577900  1
  Ru  Ru23  1  0.145359  0.577267  0.138688  1
