# generated using pymatgen
data_La3Hg2Pb3
_symmetry_space_group_name_H-M   'P 1'
_cell_length_a   6.82546361
_cell_length_b   6.82546320
_cell_length_c   10.67718400
_cell_angle_alpha   90.00000000
_cell_angle_beta   90.00000000
_cell_angle_gamma   103.05489071
_symmetry_Int_Tables_number   1
_chemical_formula_structural   La3Hg2Pb3
_chemical_formula_sum   'La6 Hg4 Pb6'
_cell_volume   484.56124728
_cell_formula_units_Z   2
loop_
 _symmetry_equiv_pos_site_id
 _symmetry_equiv_pos_as_xyz
  1  'x, y, z'
loop_
 _atom_site_type_symbol
 _atom_site_label
 _atom_site_symmetry_multiplicity
 _atom_site_fract_x
 _atom_site_fract_y
 _atom_site_fract_z
 _atom_site_occupancy
  La  La0  1  0.604447  0.604447  0.250000  1
  La  La1  1  0.395553  0.395553  0.750000  1
  La  La2  1  0.792246  0.207754  0.000000  1
  La  La3  1  0.207754  0.792246  0.000000  1
  La  La4  1  0.207754  0.792246  0.500000  1
  La  La5  1  0.792246  0.207754  0.500000  1
  Hg  Hg6  1  0.304361  0.304361  0.039046  1
  Hg  Hg7  1  0.695639  0.695639  0.960954  1
  Hg  Hg8  1  0.695639  0.695639  0.539046  1
  Hg  Hg9  1  0.304361  0.304361  0.460954  1
  Pb  Pb10  1  0.055770  0.490482  0.250000  1
  Pb  Pb11  1  0.944230  0.509518  0.750000  1
  Pb  Pb12  1  0.490482  0.055770  0.250000  1
  Pb  Pb13  1  0.509518  0.944230  0.750000  1
  Pb  Pb14  1  0.003147  0.003147  0.250000  1
  Pb  Pb15  1  0.996853  0.996853  0.750000  1
