# generated using pymatgen
data_LaTh2(GeRh)3
_symmetry_space_group_name_H-M   'P 1'
_cell_length_a   7.34350230
_cell_length_b   7.34350295
_cell_length_c   3.99574700
_cell_angle_alpha   90.00000000
_cell_angle_beta   90.00000000
_cell_angle_gamma   119.80565661
_symmetry_Int_Tables_number   1
_chemical_formula_structural   LaTh2(GeRh)3
_chemical_formula_sum   'La1 Th2 Ge3 Rh3'
_cell_volume   186.97446048
_cell_formula_units_Z   1
loop_
 _symmetry_equiv_pos_site_id
 _symmetry_equiv_pos_as_xyz
  1  'x, y, z'
loop_
 _atom_site_type_symbol
 _atom_site_label
 _atom_site_symmetry_multiplicity
 _atom_site_fract_x
 _atom_site_fract_y
 _atom_site_fract_z
 _atom_site_occupancy
  La  La0  1  0.412440  0.412440  0.500000  1
  Th  Th1  1  0.586817  0.001923  0.500000  1
  Th  Th2  1  0.001923  0.586817  0.500000  1
  Ge  Ge3  1  0.748317  0.748317  0.000000  1
  Ge  Ge4  1  0.243648  0.003351  0.000000  1
  Ge  Ge5  1  0.003351  0.243648  0.000000  1
  Rh  Rh6  1  0.683010  0.333019  0.000000  1
  Rh  Rh7  1  0.333019  0.683010  0.000000  1
  Rh  Rh8  1  0.987478  0.987478  0.500000  1
