# generated using pymatgen
data_Li8Dy8Sn5Bi3
_symmetry_space_group_name_H-M   'P 1'
_cell_length_a   9.47760700
_cell_length_b   9.47760688
_cell_length_c   7.24633700
_cell_angle_alpha   90.00000000
_cell_angle_beta   90.00000000
_cell_angle_gamma   120.00000391
_symmetry_Int_Tables_number   1
_chemical_formula_structural   Li8Dy8Sn5Bi3
_chemical_formula_sum   'Li8 Dy8 Sn5 Bi3'
_cell_volume   563.69804549
_cell_formula_units_Z   1
loop_
 _symmetry_equiv_pos_site_id
 _symmetry_equiv_pos_as_xyz
  1  'x, y, z'
loop_
 _atom_site_type_symbol
 _atom_site_label
 _atom_site_symmetry_multiplicity
 _atom_site_fract_x
 _atom_site_fract_y
 _atom_site_fract_z
 _atom_site_occupancy
  Li  Li0  1  0.167290  0.334581  0.281613  1
  Li  Li1  1  0.167290  0.832710  0.281613  1
  Li  Li2  1  0.665419  0.832710  0.281613  1
  Li  Li3  1  0.831569  0.663139  0.789479  1
  Li  Li4  1  0.831569  0.168431  0.789479  1
  Li  Li5  1  0.336861  0.168431  0.789479  1
  Li  Li6  1  0.333333  0.666667  0.668762  1
  Li  Li7  1  0.666667  0.333333  0.177357  1
  Dy  Dy8  1  0.514616  0.029232  0.488747  1
  Dy  Dy9  1  0.514616  0.485384  0.488747  1
  Dy  Dy10  1  0.970768  0.485384  0.488747  1
  Dy  Dy11  1  0.490935  0.981871  0.999449  1
  Dy  Dy12  1  0.490935  0.509065  0.999449  1
  Dy  Dy13  1  0.018129  0.509065  0.999449  1
  Dy  Dy14  1  0.000000  0.000000  0.493294  1
  Dy  Dy15  1  0.000000  0.000000  0.008553  1
  Sn  Sn16  1  0.833531  0.667061  0.232676  1
  Sn  Sn17  1  0.833531  0.166469  0.232676  1
  Sn  Sn18  1  0.332939  0.166469  0.232676  1
  Sn  Sn19  1  0.333333  0.666667  0.257449  1
  Sn  Sn20  1  0.666667  0.333333  0.759511  1
  Bi  Bi21  1  0.166775  0.333551  0.733726  1
  Bi  Bi22  1  0.166775  0.833225  0.733726  1
  Bi  Bi23  1  0.666449  0.833225  0.733726  1
