# generated using pymatgen
data_TbTh2Mg2AlIr3
_symmetry_space_group_name_H-M   'P 1'
_cell_length_a   7.33611815
_cell_length_b   7.47063802
_cell_length_c   4.06006400
_cell_angle_alpha   90.00000000
_cell_angle_beta   90.00000000
_cell_angle_gamma   119.70062439
_symmetry_Int_Tables_number   1
_chemical_formula_structural   TbTh2Mg2AlIr3
_chemical_formula_sum   'Tb1 Th2 Mg2 Al1 Ir3'
_cell_volume   193.28127085
_cell_formula_units_Z   1
loop_
 _symmetry_equiv_pos_site_id
 _symmetry_equiv_pos_as_xyz
  1  'x, y, z'
loop_
 _atom_site_type_symbol
 _atom_site_label
 _atom_site_symmetry_multiplicity
 _atom_site_fract_x
 _atom_site_fract_y
 _atom_site_fract_z
 _atom_site_occupancy
  Tb  Tb0  1  0.408759  0.008643  0.500000  1
  Th  Th1  1  0.004522  0.415406  0.500000  1
  Th  Th2  1  0.573623  0.571241  0.500000  1
  Mg  Mg3  1  0.749380  0.998118  0.000000  1
  Mg  Mg4  1  0.007539  0.767936  0.000000  1
  Al  Al5  1  0.237188  0.231283  0.000000  1
  Ir  Ir6  1  0.329412  0.636901  0.000000  1
  Ir  Ir7  1  0.668044  0.344158  0.000000  1
  Ir  Ir8  1  0.021533  0.026315  0.500000  1
