# generated using pymatgen
data_Dy5Ho11Cd4Ir3Pt
_symmetry_space_group_name_H-M   'P 1'
_cell_length_a   9.61082388
_cell_length_b   9.60856921
_cell_length_c   9.60857050
_cell_angle_alpha   60.09705327
_cell_angle_beta   60.08533662
_cell_angle_gamma   60.08534106
_symmetry_Int_Tables_number   1
_chemical_formula_structural   Dy5Ho11Cd4Ir3Pt
_chemical_formula_sum   'Dy5 Ho11 Cd4 Ir3 Pt1'
_cell_volume   628.69567306
_cell_formula_units_Z   1
loop_
 _symmetry_equiv_pos_site_id
 _symmetry_equiv_pos_as_xyz
  1  'x, y, z'
loop_
 _atom_site_type_symbol
 _atom_site_label
 _atom_site_symmetry_multiplicity
 _atom_site_fract_x
 _atom_site_fract_y
 _atom_site_fract_z
 _atom_site_occupancy
  Dy  Dy0  1  0.813385  0.187763  0.187763  1
  Dy  Dy1  1  0.812913  0.188268  0.812611  1
  Dy  Dy2  1  0.187755  0.813423  0.187449  1
  Dy  Dy3  1  0.812913  0.812611  0.188268  1
  Dy  Dy4  1  0.187755  0.187449  0.813423  1
  Ho  Ho5  1  0.597825  0.597858  0.597858  1
  Ho  Ho6  1  0.602214  0.602401  0.199417  1
  Ho  Ho7  1  0.602214  0.199417  0.602401  1
  Ho  Ho8  1  0.199285  0.602347  0.602347  1
  Ho  Ho9  1  0.056176  0.440277  0.440277  1
  Ho  Ho10  1  0.437547  0.060723  0.060723  1
  Ho  Ho11  1  0.440125  0.056150  0.440449  1
  Ho  Ho12  1  0.060770  0.437732  0.060603  1
  Ho  Ho13  1  0.440125  0.440449  0.056150  1
  Ho  Ho14  1  0.060770  0.060603  0.437732  1
  Ho  Ho15  1  0.188641  0.812432  0.812432  1
  Cd  Cd16  1  0.831036  0.830679  0.830679  1
  Cd  Cd17  1  0.830792  0.830847  0.506400  1
  Cd  Cd18  1  0.830792  0.506400  0.830847  1
  Cd  Cd19  1  0.506124  0.830827  0.830827  1
  Ir  Ir20  1  0.391738  0.392168  0.824477  1
  Ir  Ir21  1  0.391738  0.824477  0.392168  1
  Ir  Ir22  1  0.824547  0.391873  0.391873  1
  Pt  Pt23  1  0.392818  0.392825  0.392825  1
