# generated using pymatgen
data_Li2Co9Mo3P7
_symmetry_space_group_name_H-M   'P 1'
_cell_length_a   8.96953500
_cell_length_b   8.96953424
_cell_length_c   3.65269900
_cell_angle_alpha   90.00000000
_cell_angle_beta   90.00000000
_cell_angle_gamma   120.00000650
_symmetry_Int_Tables_number   1
_chemical_formula_structural   Li2Co9Mo3P7
_chemical_formula_sum   'Li2 Co9 Mo3 P7'
_cell_volume   254.49796250
_cell_formula_units_Z   1
loop_
 _symmetry_equiv_pos_site_id
 _symmetry_equiv_pos_as_xyz
  1  'x, y, z'
loop_
 _atom_site_type_symbol
 _atom_site_label
 _atom_site_symmetry_multiplicity
 _atom_site_fract_x
 _atom_site_fract_y
 _atom_site_fract_z
 _atom_site_occupancy
  Li  Li0  1  0.333333  0.666667  0.000000  1
  Li  Li1  1  0.000000  0.000000  0.500000  1
  Co  Co2  1  0.275157  0.379791  0.500000  1
  Co  Co3  1  0.620209  0.895365  0.500000  1
  Co  Co4  1  0.104635  0.724843  0.500000  1
  Co  Co5  1  0.501798  0.451337  0.000000  1
  Co  Co6  1  0.548663  0.050461  0.000000  1
  Co  Co7  1  0.949539  0.498202  0.000000  1
  Co  Co8  1  0.723974  0.765639  0.000000  1
  Co  Co9  1  0.234361  0.958335  0.000000  1
  Co  Co10  1  0.041665  0.276026  0.000000  1
  Mo  Mo11  1  0.761872  0.554515  0.500000  1
  Mo  Mo12  1  0.445485  0.207357  0.500000  1
  Mo  Mo13  1  0.792643  0.238128  0.500000  1
  P  P14  1  0.966278  0.755903  0.000000  1
  P  P15  1  0.244097  0.210374  0.000000  1
  P  P16  1  0.789626  0.033722  0.000000  1
  P  P17  1  0.666667  0.333333  0.000000  1
  P  P18  1  0.535796  0.621064  0.500000  1
  P  P19  1  0.378936  0.914732  0.500000  1
  P  P20  1  0.085268  0.464204  0.500000  1
