# generated using pymatgen
data_Sc4Fe17(P4Ru)3
_symmetry_space_group_name_H-M   'P 1'
_cell_length_a   3.65041300
_cell_length_b   10.20981745
_cell_length_c   11.69313074
_cell_angle_alpha   89.37665519
_cell_angle_beta   90.00000000
_cell_angle_gamma   90.00000000
_symmetry_Int_Tables_number   1
_chemical_formula_structural   Sc4Fe17(P4Ru)3
_chemical_formula_sum   'Sc4 Fe17 P12 Ru3'
_cell_volume   435.77778027
_cell_formula_units_Z   1
loop_
 _symmetry_equiv_pos_site_id
 _symmetry_equiv_pos_as_xyz
  1  'x, y, z'
loop_
 _atom_site_type_symbol
 _atom_site_label
 _atom_site_symmetry_multiplicity
 _atom_site_fract_x
 _atom_site_fract_y
 _atom_site_fract_z
 _atom_site_occupancy
  Sc  Sc0  1  0.250000  0.574554  0.702031  1
  Sc  Sc1  1  0.250000  0.914888  0.204860  1
  Sc  Sc2  1  0.750000  0.424098  0.295367  1
  Sc  Sc3  1  0.750000  0.084880  0.795789  1
  Fe  Fe4  1  0.750000  0.207533  0.509878  1
  Fe  Fe5  1  0.250000  0.405248  0.488469  1
  Fe  Fe6  1  0.250000  0.095539  0.987277  1
  Fe  Fe7  1  0.750000  0.590717  0.511527  1
  Fe  Fe8  1  0.750000  0.905706  0.013944  1
  Fe  Fe9  1  0.250000  0.216868  0.177603  1
  Fe  Fe10  1  0.250000  0.276265  0.672291  1
  Fe  Fe11  1  0.750000  0.783148  0.822998  1
  Fe  Fe12  1  0.750000  0.724473  0.326226  1
  Fe  Fe13  1  0.250000  0.875107  0.705005  1
  Fe  Fe14  1  0.250000  0.618284  0.202987  1
  Fe  Fe15  1  0.750000  0.127537  0.297355  1
  Fe  Fe16  1  0.750000  0.380331  0.796301  1
  Fe  Fe17  1  0.250000  0.463273  0.932305  1
  Fe  Fe18  1  0.250000  0.039949  0.432213  1
  Fe  Fe19  1  0.750000  0.537116  0.066709  1
  Fe  Fe20  1  0.750000  0.963732  0.569554  1
  P  P21  1  0.250000  0.423871  0.117777  1
  P  P22  1  0.250000  0.077609  0.616094  1
  P  P23  1  0.750000  0.575450  0.881234  1
  P  P24  1  0.750000  0.925759  0.383792  1
  P  P25  1  0.250000  0.265728  0.861826  1
  P  P26  1  0.250000  0.241323  0.370332  1
  P  P27  1  0.750000  0.734186  0.137922  1
  P  P28  1  0.750000  0.758681  0.631249  1
  P  P29  1  0.250000  0.595720  0.390440  1
  P  P30  1  0.250000  0.908987  0.895318  1
  P  P31  1  0.750000  0.398449  0.607305  1
  P  P32  1  0.750000  0.092480  0.106280  1
  Ru  Ru33  1  0.250000  0.708960  0.988267  1
  Ru  Ru34  1  0.250000  0.791967  0.489588  1
  Ru  Ru35  1  0.750000  0.291586  0.011887  1
