# generated using pymatgen
data_PrZnCdCuPt2
_symmetry_space_group_name_H-M   'P 1'
_cell_length_a   5.34648758
_cell_length_b   5.32775016
_cell_length_c   5.58881900
_cell_angle_alpha   58.36535939
_cell_angle_beta   58.48897773
_cell_angle_gamma   59.40769694
_symmetry_Int_Tables_number   1
_chemical_formula_structural   PrZnCdCuPt2
_chemical_formula_sum   'Pr1 Zn1 Cd1 Cu1 Pt2'
_cell_volume   109.34212301
_cell_formula_units_Z   1
loop_
 _symmetry_equiv_pos_site_id
 _symmetry_equiv_pos_as_xyz
  1  'x, y, z'
loop_
 _atom_site_type_symbol
 _atom_site_label
 _atom_site_symmetry_multiplicity
 _atom_site_fract_x
 _atom_site_fract_y
 _atom_site_fract_z
 _atom_site_occupancy
  Pr  Pr0  1  0.997911  0.992736  0.004677  1
  Zn  Zn1  1  0.628724  0.130173  0.620551  1
  Cd  Cd2  1  0.247467  0.240964  0.255785  1
  Cu  Cu3  1  0.127548  0.631649  0.620401  1
  Pt  Pt4  1  0.624176  0.627238  0.622384  1
  Pt  Pt5  1  0.624176  0.627238  0.126203  1
