# generated using pymatgen
data_CeCoPH2
_symmetry_space_group_name_H-M   'P 1'
_cell_length_a   3.99841600
_cell_length_b   3.99841578
_cell_length_c   8.08982700
_cell_angle_alpha   90.00000000
_cell_angle_beta   90.00000000
_cell_angle_gamma   120.00001836
_symmetry_Int_Tables_number   1
_chemical_formula_structural   CeCoPH2
_chemical_formula_sum   'Ce2 Co2 P2 H4'
_cell_volume   112.00714183
_cell_formula_units_Z   2
loop_
 _symmetry_equiv_pos_site_id
 _symmetry_equiv_pos_as_xyz
  1  'x, y, z'
loop_
 _atom_site_type_symbol
 _atom_site_label
 _atom_site_symmetry_multiplicity
 _atom_site_fract_x
 _atom_site_fract_y
 _atom_site_fract_z
 _atom_site_occupancy
  Ce  Ce0  1  0.000000  0.000000  0.000000  1
  Ce  Ce1  1  0.000000  0.000000  0.500000  1
  Co  Co2  1  0.666667  0.333333  0.250000  1
  Co  Co3  1  0.333333  0.666667  0.750000  1
  P  P4  1  0.333333  0.666667  0.250000  1
  P  P5  1  0.666667  0.333333  0.750000  1
  H  H6  1  0.333333  0.666667  0.945077  1
  H  H7  1  0.666667  0.333333  0.054923  1
  H  H8  1  0.333333  0.666667  0.554923  1
  H  H9  1  0.666667  0.333333  0.445077  1
