# generated using pymatgen
data_Tb2Th2(Ga8Pd3)3
_symmetry_space_group_name_H-M   'P 1'
_cell_length_a   7.62317845
_cell_length_b   7.63117041
_cell_length_c   13.41059735
_cell_angle_alpha   84.70660111
_cell_angle_beta   100.70686771
_cell_angle_gamma   119.94058613
_symmetry_Int_Tables_number   1
_chemical_formula_structural   Tb2Th2(Ga8Pd3)3
_chemical_formula_sum   'Tb2 Th2 Ga24 Pd9'
_cell_volume   664.26015348
_cell_formula_units_Z   1
loop_
 _symmetry_equiv_pos_site_id
 _symmetry_equiv_pos_as_xyz
  1  'x, y, z'
loop_
 _atom_site_type_symbol
 _atom_site_label
 _atom_site_symmetry_multiplicity
 _atom_site_fract_x
 _atom_site_fract_y
 _atom_site_fract_z
 _atom_site_occupancy
  Tb  Tb0  1  0.770894  0.503175  0.809503  1
  Tb  Tb1  1  0.229106  0.496825  0.190497  1
  Th  Th2  1  0.436759  0.831531  0.808715  1
  Th  Th3  1  0.563241  0.168469  0.191285  1
  Ga  Ga4  1  0.480628  0.170284  0.940061  1
  Ga  Ga5  1  0.519372  0.829716  0.059939  1
  Ga  Ga6  1  0.021982  0.164602  0.559320  1
  Ga  Ga7  1  0.978018  0.835398  0.440680  1
  Ga  Ga8  1  0.354041  0.832719  0.556421  1
  Ga  Ga9  1  0.645959  0.167281  0.443579  1
  Ga  Ga10  1  0.612317  0.831450  0.327348  1
  Ga  Ga11  1  0.387683  0.168550  0.672652  1
  Ga  Ga12  1  0.056159  0.493033  0.672612  1
  Ga  Ga13  1  0.943841  0.506967  0.327388  1
  Ga  Ga14  1  0.732419  0.836941  0.671323  1
  Ga  Ga15  1  0.267581  0.163059  0.328677  1
  Ga  Ga16  1  0.142858  0.497202  0.942576  1
  Ga  Ga17  1  0.857142  0.502798  0.057424  1
  Ga  Ga18  1  0.817009  0.832075  0.946816  1
  Ga  Ga19  1  0.182991  0.167925  0.053184  1
  Ga  Ga20  1  0.311436  0.498744  0.442263  1
  Ga  Ga21  1  0.688564  0.501256  0.557737  1
  Ga  Ga22  1  0.099253  0.833586  0.182493  1
  Ga  Ga23  1  0.900747  0.166414  0.817507  1
  Ga  Ga24  1  0.307301  0.367148  0.816002  1
  Ga  Ga25  1  0.692699  0.632852  0.183998  1
  Ga  Ga26  1  0.099336  0.960375  0.816238  1
  Ga  Ga27  1  0.900664  0.039625  0.183762  1
  Pd  Pd28  1  0.385392  0.503172  0.638255  1
  Pd  Pd29  1  0.614608  0.496828  0.361745  1
  Pd  Pd30  1  0.172470  0.831483  0.998971  1
  Pd  Pd31  1  0.827530  0.168517  0.001029  1
  Pd  Pd32  1  0.289931  0.833316  0.361030  1
  Pd  Pd33  1  0.710069  0.166684  0.638970  1
  Pd  Pd34  1  0.048466  0.828106  0.638334  1
  Pd  Pd35  1  0.951534  0.171894  0.361666  1
  Pd  Pd36  1  0.500000  0.500000  0.000000  1
