# generated using pymatgen
data_Hf18TiRe7PIr
_symmetry_space_group_name_H-M   'P 1'
_cell_length_a   8.61690300
_cell_length_b   8.61690197
_cell_length_c   8.58559200
_cell_angle_alpha   90.00000000
_cell_angle_beta   90.00000000
_cell_angle_gamma   120.00000011
_symmetry_Int_Tables_number   1
_chemical_formula_structural   Hf18TiRe7PIr
_chemical_formula_sum   'Hf18 Ti1 Re7 P1 Ir1'
_cell_volume   552.08155028
_cell_formula_units_Z   1
loop_
 _symmetry_equiv_pos_site_id
 _symmetry_equiv_pos_as_xyz
  1  'x, y, z'
loop_
 _atom_site_type_symbol
 _atom_site_label
 _atom_site_symmetry_multiplicity
 _atom_site_fract_x
 _atom_site_fract_y
 _atom_site_fract_z
 _atom_site_occupancy
  Hf  Hf0  1  0.195976  0.804024  0.447455  1
  Hf  Hf1  1  0.195976  0.391953  0.447455  1
  Hf  Hf2  1  0.608047  0.804024  0.447455  1
  Hf  Hf3  1  0.803644  0.196356  0.549420  1
  Hf  Hf4  1  0.803644  0.607287  0.549420  1
  Hf  Hf5  1  0.392713  0.196356  0.549420  1
  Hf  Hf6  1  0.805846  0.194154  0.950039  1
  Hf  Hf7  1  0.805846  0.611693  0.950039  1
  Hf  Hf8  1  0.388307  0.194154  0.950039  1
  Hf  Hf9  1  0.195867  0.804133  0.053819  1
  Hf  Hf10  1  0.195867  0.391733  0.053819  1
  Hf  Hf11  1  0.608267  0.804133  0.053819  1
  Hf  Hf12  1  0.541978  0.458022  0.249017  1
  Hf  Hf13  1  0.541978  0.083956  0.249017  1
  Hf  Hf14  1  0.916044  0.458022  0.249017  1
  Hf  Hf15  1  0.458877  0.541123  0.750761  1
  Hf  Hf16  1  0.458877  0.917755  0.750761  1
  Hf  Hf17  1  0.082245  0.541123  0.750761  1
  Ti  Ti18  1  0.000000  0.000000  0.497924  1
  Re  Re19  1  0.888488  0.111512  0.251478  1
  Re  Re20  1  0.888488  0.776976  0.251478  1
  Re  Re21  1  0.223024  0.111512  0.251478  1
  Re  Re22  1  0.110401  0.889599  0.748408  1
  Re  Re23  1  0.110401  0.220802  0.748408  1
  Re  Re24  1  0.779198  0.889599  0.748408  1
  Re  Re25  1  0.000000  0.000000  0.999678  1
  P  P26  1  0.666667  0.333333  0.752080  1
  Ir  Ir27  1  0.333333  0.666667  0.249131  1
