# generated using pymatgen
data_Tb3HoCoHg
_symmetry_space_group_name_H-M   'P 1'
_cell_length_a   9.47083842
_cell_length_b   9.46970946
_cell_length_c   9.47508389
_cell_angle_alpha   60.10859552
_cell_angle_beta   60.14841189
_cell_angle_gamma   60.17657736
_symmetry_Int_Tables_number   1
_chemical_formula_structural   Tb3HoCoHg
_chemical_formula_sum   'Tb12 Ho4 Co4 Hg4'
_cell_volume   602.85423908
_cell_formula_units_Z   4
loop_
 _symmetry_equiv_pos_site_id
 _symmetry_equiv_pos_as_xyz
  1  'x, y, z'
loop_
 _atom_site_type_symbol
 _atom_site_label
 _atom_site_symmetry_multiplicity
 _atom_site_fract_x
 _atom_site_fract_y
 _atom_site_fract_z
 _atom_site_occupancy
  Tb  Tb0  1  0.436502  0.061308  0.061357  1
  Tb  Tb1  1  0.811317  0.189411  0.811025  1
  Tb  Tb2  1  0.438497  0.059991  0.438719  1
  Tb  Tb3  1  0.599561  0.205613  0.598886  1
  Tb  Tb4  1  0.811426  0.810887  0.189489  1
  Tb  Tb5  1  0.205445  0.599875  0.598849  1
  Tb  Tb6  1  0.809738  0.188995  0.188980  1
  Tb  Tb7  1  0.060241  0.438546  0.438501  1
  Tb  Tb8  1  0.188944  0.809954  0.188431  1
  Tb  Tb9  1  0.598642  0.599011  0.205568  1
  Tb  Tb10  1  0.188919  0.188471  0.809992  1
  Tb  Tb11  1  0.061533  0.436720  0.061087  1
  Ho  Ho12  1  0.439104  0.439422  0.059334  1
  Ho  Ho13  1  0.596788  0.597514  0.598079  1
  Ho  Ho14  1  0.189951  0.810737  0.811046  1
  Ho  Ho15  1  0.060977  0.060330  0.437405  1
  Co  Co16  1  0.391042  0.390839  0.390726  1
  Co  Co17  1  0.827272  0.392649  0.392933  1
  Co  Co18  1  0.392315  0.827101  0.393520  1
  Co  Co19  1  0.392781  0.393612  0.827040  1
  Hg  Hg20  1  0.834381  0.834421  0.497050  1
  Hg  Hg21  1  0.834293  0.833555  0.833219  1
  Hg  Hg22  1  0.496349  0.833983  0.834374  1
  Hg  Hg23  1  0.833981  0.497056  0.834387  1
