# generated using pymatgen
data_Tb20Bi8Ru3Au
_symmetry_space_group_name_H-M   'P 1'
_cell_length_a   8.05798041
_cell_length_b   9.09993500
_cell_length_c   12.49545150
_cell_angle_alpha   90.00000000
_cell_angle_beta   90.04290661
_cell_angle_gamma   90.00000000
_symmetry_Int_Tables_number   1
_chemical_formula_structural   Tb20Bi8Ru3Au
_chemical_formula_sum   'Tb20 Bi8 Ru3 Au1'
_cell_volume   916.25493951
_cell_formula_units_Z   1
loop_
 _symmetry_equiv_pos_site_id
 _symmetry_equiv_pos_as_xyz
  1  'x, y, z'
loop_
 _atom_site_type_symbol
 _atom_site_label
 _atom_site_symmetry_multiplicity
 _atom_site_fract_x
 _atom_site_fract_y
 _atom_site_fract_z
 _atom_site_occupancy
  Tb  Tb0  1  0.832765  0.750000  0.782386  1
  Tb  Tb1  1  0.158311  0.250000  0.207490  1
  Tb  Tb2  1  0.343078  0.250000  0.706616  1
  Tb  Tb3  1  0.654975  0.750000  0.296009  1
  Tb  Tb4  1  0.375488  0.750000  0.696259  1
  Tb  Tb5  1  0.621084  0.250000  0.305712  1
  Tb  Tb6  1  0.877319  0.250000  0.806748  1
  Tb  Tb7  1  0.132741  0.750000  0.202798  1
  Tb  Tb8  1  0.949666  0.750000  0.501511  1
  Tb  Tb9  1  0.055533  0.250000  0.496246  1
  Tb  Tb10  1  0.452592  0.250000  0.997877  1
  Tb  Tb11  1  0.541751  0.750000  0.001317  1
  Tb  Tb12  1  0.676262  0.039489  0.563050  1
  Tb  Tb13  1  0.323581  0.957552  0.437341  1
  Tb  Tb14  1  0.180640  0.967952  0.932790  1
  Tb  Tb15  1  0.323581  0.542448  0.437341  1
  Tb  Tb16  1  0.819979  0.053544  0.065978  1
  Tb  Tb17  1  0.676262  0.460511  0.563050  1
  Tb  Tb18  1  0.819979  0.446456  0.065978  1
  Tb  Tb19  1  0.180640  0.532048  0.932790  1
  Bi  Bi20  1  0.572409  0.491265  0.827600  1
  Bi  Bi21  1  0.429266  0.508463  0.172507  1
  Bi  Bi22  1  0.069364  0.508059  0.672262  1
  Bi  Bi23  1  0.429266  0.991537  0.172507  1
  Bi  Bi24  1  0.929133  0.491612  0.326172  1
  Bi  Bi25  1  0.572409  0.008735  0.827600  1
  Bi  Bi26  1  0.929133  0.008388  0.326172  1
  Bi  Bi27  1  0.069364  0.991941  0.672262  1
  Ru  Ru28  1  0.575728  0.750000  0.514274  1
  Ru  Ru29  1  0.426288  0.250000  0.488652  1
  Ru  Ru30  1  0.075125  0.250000  0.988986  1
  Au  Au31  1  0.926287  0.750000  0.011715  1
