# generated using pymatgen
data_TbSm2Co8P6Ru
_symmetry_space_group_name_H-M   'P 1'
_cell_length_a   3.73541800
_cell_length_b   10.58000500
_cell_length_c   12.33780800
_cell_angle_alpha   90.00000000
_cell_angle_beta   90.00000000
_cell_angle_gamma   90.00000000
_symmetry_Int_Tables_number   1
_chemical_formula_structural   TbSm2Co8P6Ru
_chemical_formula_sum   'Tb2 Sm4 Co16 P12 Ru2'
_cell_volume   487.59931592
_cell_formula_units_Z   2
loop_
 _symmetry_equiv_pos_site_id
 _symmetry_equiv_pos_as_xyz
  1  'x, y, z'
loop_
 _atom_site_type_symbol
 _atom_site_label
 _atom_site_symmetry_multiplicity
 _atom_site_fract_x
 _atom_site_fract_y
 _atom_site_fract_z
 _atom_site_occupancy
  Tb  Tb0  1  0.000000  0.683353  0.793581  1
  Tb  Tb1  1  0.000000  0.316647  0.793581  1
  Sm  Sm2  1  0.000000  0.500000  0.524269  1
  Sm  Sm3  1  0.500000  0.000000  0.476696  1
  Sm  Sm4  1  0.500000  0.816170  0.206442  1
  Sm  Sm5  1  0.500000  0.183830  0.206442  1
  Co  Co6  1  0.500000  0.500000  0.705620  1
  Co  Co7  1  0.000000  0.000000  0.294934  1
  Co  Co8  1  0.000000  0.500000  0.984894  1
  Co  Co9  1  0.500000  0.000000  0.012116  1
  Co  Co10  1  0.500000  0.333141  0.989858  1
  Co  Co11  1  0.500000  0.666859  0.989858  1
  Co  Co12  1  0.000000  0.168037  0.007553  1
  Co  Co13  1  0.000000  0.831963  0.007553  1
  Co  Co14  1  0.500000  0.297202  0.431753  1
  Co  Co15  1  0.500000  0.702798  0.431753  1
  Co  Co16  1  0.000000  0.203177  0.570738  1
  Co  Co17  1  0.000000  0.796823  0.570738  1
  Co  Co18  1  0.500000  0.879770  0.709488  1
  Co  Co19  1  0.500000  0.120230  0.709488  1
  Co  Co20  1  0.000000  0.619335  0.291763  1
  Co  Co21  1  0.000000  0.380665  0.291763  1
  P  P22  1  0.500000  0.500000  0.882308  1
  P  P23  1  0.000000  0.000000  0.114928  1
  P  P24  1  0.500000  0.500000  0.347463  1
  P  P25  1  0.000000  0.000000  0.652991  1
  P  P26  1  0.500000  0.309412  0.617218  1
  P  P27  1  0.500000  0.690588  0.617218  1
  P  P28  1  0.000000  0.191379  0.385489  1
  P  P29  1  0.000000  0.808621  0.385489  1
  P  P30  1  0.500000  0.846342  0.893867  1
  P  P31  1  0.500000  0.153658  0.893867  1
  P  P32  1  0.000000  0.651837  0.104345  1
  P  P33  1  0.000000  0.348163  0.104345  1
  Ru  Ru34  1  0.500000  0.500000  0.158221  1
  Ru  Ru35  1  0.000000  0.000000  0.841370  1
