# generated using pymatgen
data_Yb3NiBi3Pt2
_symmetry_space_group_name_H-M   'P 1'
_cell_length_a   7.73286400
_cell_length_b   7.73286342
_cell_length_c   3.98034700
_cell_angle_alpha   90.00000000
_cell_angle_beta   90.00000000
_cell_angle_gamma   120.00000247
_symmetry_Int_Tables_number   1
_chemical_formula_structural   Yb3NiBi3Pt2
_chemical_formula_sum   'Yb3 Ni1 Bi3 Pt2'
_cell_volume   206.12575887
_cell_formula_units_Z   1
loop_
 _symmetry_equiv_pos_site_id
 _symmetry_equiv_pos_as_xyz
  1  'x, y, z'
loop_
 _atom_site_type_symbol
 _atom_site_label
 _atom_site_symmetry_multiplicity
 _atom_site_fract_x
 _atom_site_fract_y
 _atom_site_fract_z
 _atom_site_occupancy
  Yb  Yb0  1  0.405973  0.000000  0.000000  1
  Yb  Yb1  1  0.000000  0.405973  0.000000  1
  Yb  Yb2  1  0.594027  0.594027  0.000000  1
  Ni  Ni3  1  0.000000  0.000000  0.000000  1
  Bi  Bi4  1  0.745640  0.000000  0.500000  1
  Bi  Bi5  1  0.000000  0.745640  0.500000  1
  Bi  Bi6  1  0.254360  0.254360  0.500000  1
  Pt  Pt7  1  0.333333  0.666667  0.500000  1
  Pt  Pt8  1  0.666667  0.333333  0.500000  1
