# generated using pymatgen
data_LaCe(Mg2Cu9)2
_symmetry_space_group_name_H-M   'P 1'
_cell_length_a   5.10605200
_cell_length_b   5.10605172
_cell_length_c   15.97657700
_cell_angle_alpha   90.00000000
_cell_angle_beta   90.00000000
_cell_angle_gamma   119.99998885
_symmetry_Int_Tables_number   1
_chemical_formula_structural   LaCe(Mg2Cu9)2
_chemical_formula_sum   'La1 Ce1 Mg4 Cu18'
_cell_volume   360.73215834
_cell_formula_units_Z   1
loop_
 _symmetry_equiv_pos_site_id
 _symmetry_equiv_pos_as_xyz
  1  'x, y, z'
loop_
 _atom_site_type_symbol
 _atom_site_label
 _atom_site_symmetry_multiplicity
 _atom_site_fract_x
 _atom_site_fract_y
 _atom_site_fract_z
 _atom_site_occupancy
  La  La0  1  0.333333  0.666667  0.750000  1
  Ce  Ce1  1  0.666667  0.333333  0.250000  1
  Mg  Mg2  1  0.333333  0.666667  0.530222  1
  Mg  Mg3  1  0.666667  0.333333  0.032225  1
  Mg  Mg4  1  0.666667  0.333333  0.467775  1
  Mg  Mg5  1  0.333333  0.666667  0.969778  1
  Cu  Cu6  1  0.000000  0.000000  0.000453  1
  Cu  Cu7  1  0.000000  0.000000  0.499547  1
  Cu  Cu8  1  0.000000  0.000000  0.250000  1
  Cu  Cu9  1  0.000000  0.000000  0.750000  1
  Cu  Cu10  1  0.333333  0.666667  0.250000  1
  Cu  Cu11  1  0.666667  0.333333  0.750000  1
  Cu  Cu12  1  0.168446  0.336891  0.122357  1
  Cu  Cu13  1  0.831612  0.168388  0.621389  1
  Cu  Cu14  1  0.336776  0.168388  0.621389  1
  Cu  Cu15  1  0.663109  0.831554  0.122357  1
  Cu  Cu16  1  0.168446  0.831554  0.122357  1
  Cu  Cu17  1  0.831612  0.663224  0.878611  1
  Cu  Cu18  1  0.831612  0.168388  0.878611  1
  Cu  Cu19  1  0.831612  0.663224  0.621389  1
  Cu  Cu20  1  0.336776  0.168388  0.878611  1
  Cu  Cu21  1  0.663109  0.831554  0.377643  1
  Cu  Cu22  1  0.168446  0.336891  0.377643  1
  Cu  Cu23  1  0.168446  0.831554  0.377643  1
