# generated using pymatgen
data_Er16Ga6RuRh
_symmetry_space_group_name_H-M   'P 1'
_cell_length_a   9.96893100
_cell_length_b   9.96893169
_cell_length_c   6.94000900
_cell_angle_alpha   90.00000000
_cell_angle_beta   90.00000000
_cell_angle_gamma   120.00000104
_symmetry_Int_Tables_number   1
_chemical_formula_structural   Er16Ga6RuRh
_chemical_formula_sum   'Er16 Ga6 Ru1 Rh1'
_cell_volume   597.29361313
_cell_formula_units_Z   1
loop_
 _symmetry_equiv_pos_site_id
 _symmetry_equiv_pos_as_xyz
  1  'x, y, z'
loop_
 _atom_site_type_symbol
 _atom_site_label
 _atom_site_symmetry_multiplicity
 _atom_site_fract_x
 _atom_site_fract_y
 _atom_site_fract_z
 _atom_site_occupancy
  Er  Er0  1  0.000000  0.000000  0.267301  1
  Er  Er1  1  0.000000  0.000000  0.766827  1
  Er  Er2  1  0.171370  0.828630  0.990971  1
  Er  Er3  1  0.829147  0.170853  0.490428  1
  Er  Er4  1  0.171370  0.342741  0.990971  1
  Er  Er5  1  0.657259  0.828630  0.990971  1
  Er  Er6  1  0.341705  0.170853  0.490428  1
  Er  Er7  1  0.829147  0.658295  0.490428  1
  Er  Er8  1  0.333333  0.666667  0.662453  1
  Er  Er9  1  0.666667  0.333333  0.162742  1
  Er  Er10  1  0.465299  0.534701  0.295193  1
  Er  Er11  1  0.533662  0.466338  0.796548  1
  Er  Er12  1  0.465299  0.930598  0.295193  1
  Er  Er13  1  0.069402  0.534701  0.295193  1
  Er  Er14  1  0.932678  0.466338  0.796548  1
  Er  Er15  1  0.533662  0.067322  0.796548  1
  Ga  Ga16  1  0.163419  0.836581  0.542427  1
  Ga  Ga17  1  0.836302  0.163698  0.042498  1
  Ga  Ga18  1  0.163419  0.326838  0.542427  1
  Ga  Ga19  1  0.673162  0.836581  0.542427  1
  Ga  Ga20  1  0.327397  0.163698  0.042498  1
  Ga  Ga21  1  0.836302  0.672603  0.042498  1
  Ru  Ru22  1  0.333333  0.666667  0.056192  1
  Rh  Rh23  1  0.666667  0.333333  0.556404  1
