# generated using pymatgen
data_Dy5Ti2Si12Ir17
_symmetry_space_group_name_H-M   'P 1'
_cell_length_a   12.89653700
_cell_length_b   12.89727713
_cell_length_c   3.99633000
_cell_angle_alpha   90.00000000
_cell_angle_beta   90.00000000
_cell_angle_gamma   119.99810424
_symmetry_Int_Tables_number   1
_chemical_formula_structural   Dy5Ti2Si12Ir17
_chemical_formula_sum   'Dy5 Ti2 Si12 Ir17'
_cell_volume   575.66710212
_cell_formula_units_Z   1
loop_
 _symmetry_equiv_pos_site_id
 _symmetry_equiv_pos_as_xyz
  1  'x, y, z'
loop_
 _atom_site_type_symbol
 _atom_site_label
 _atom_site_symmetry_multiplicity
 _atom_site_fract_x
 _atom_site_fract_y
 _atom_site_fract_z
 _atom_site_occupancy
  Dy  Dy0  1  0.331542  0.665290  0.500000  1
  Dy  Dy1  1  0.666253  0.334710  0.500000  1
  Dy  Dy2  1  0.003772  0.815141  0.000000  1
  Dy  Dy3  1  0.188630  0.184859  0.000000  1
  Dy  Dy4  1  0.814799  0.000000  0.000000  1
  Ti  Ti5  1  0.997447  0.437138  0.500000  1
  Ti  Ti6  1  0.560309  0.562862  0.500000  1
  Si  Si7  1  0.001980  0.636756  0.500000  1
  Si  Si8  1  0.365224  0.363244  0.500000  1
  Si  Si9  1  0.627594  0.000000  0.500000  1
  Si  Si10  1  0.517270  0.689955  0.000000  1
  Si  Si11  1  0.310840  0.830845  0.000000  1
  Si  Si12  1  0.172705  0.478906  0.000000  1
  Si  Si13  1  0.479994  0.169155  0.000000  1
  Si  Si14  1  0.693799  0.521094  0.000000  1
  Si  Si15  1  0.827313  0.310045  0.000000  1
  Si  Si16  1  0.998037  0.181383  0.500000  1
  Si  Si17  1  0.816655  0.818617  0.500000  1
  Si  Si18  1  0.180771  0.000000  0.500000  1
  Ir  Ir19  1  0.511363  0.875114  0.000000  1
  Ir  Ir20  1  0.129607  0.636822  0.000000  1
  Ir  Ir21  1  0.364946  0.486682  0.000000  1
  Ir  Ir22  1  0.492785  0.363178  0.000000  1
  Ir  Ir23  1  0.878265  0.513318  0.000000  1
  Ir  Ir24  1  0.636250  0.124886  0.000000  1
  Ir  Ir25  1  0.444468  0.000000  0.500000  1
  Ir  Ir26  1  0.997674  0.279421  0.000000  1
  Ir  Ir27  1  0.718253  0.720579  0.000000  1
  Ir  Ir28  1  0.282584  0.000000  0.000000  1
  Ir  Ir29  1  0.621360  0.806555  0.500000  1
  Ir  Ir30  1  0.193690  0.819471  0.500000  1
  Ir  Ir31  1  0.180160  0.373284  0.500000  1
  Ir  Ir32  1  0.374221  0.180529  0.500000  1
  Ir  Ir33  1  0.806876  0.626716  0.500000  1
  Ir  Ir34  1  0.814804  0.193445  0.500000  1
  Ir  Ir35  1  0.997760  0.000000  0.500000  1
