# generated using pymatgen
data_CeThCdPt2
_symmetry_space_group_name_H-M   'P 1'
_cell_length_a   7.93162900
_cell_length_b   7.94128800
_cell_length_c   3.77506900
_cell_angle_alpha   90.00000000
_cell_angle_beta   90.00000000
_cell_angle_gamma   90.00000000
_symmetry_Int_Tables_number   1
_chemical_formula_structural   CeThCdPt2
_chemical_formula_sum   'Ce2 Th2 Cd2 Pt4'
_cell_volume   237.78159313
_cell_formula_units_Z   2
loop_
 _symmetry_equiv_pos_site_id
 _symmetry_equiv_pos_as_xyz
  1  'x, y, z'
loop_
 _atom_site_type_symbol
 _atom_site_label
 _atom_site_symmetry_multiplicity
 _atom_site_fract_x
 _atom_site_fract_y
 _atom_site_fract_z
 _atom_site_occupancy
  Ce  Ce0  1  0.828340  0.670884  0.500000  1
  Ce  Ce1  1  0.671660  0.170884  0.500000  1
  Th  Th2  1  0.167902  0.329463  0.500000  1
  Th  Th3  1  0.332098  0.829463  0.500000  1
  Cd  Cd4  1  0.504430  0.498260  0.000000  1
  Cd  Cd5  1  0.995570  0.998260  0.000000  1
  Pt  Pt6  1  0.631030  0.869243  0.000000  1
  Pt  Pt7  1  0.131595  0.632150  0.000000  1
  Pt  Pt8  1  0.868970  0.369243  0.000000  1
  Pt  Pt9  1  0.368405  0.132150  0.000000  1
