# generated using pymatgen
data_Tm3Al12NiRu3
_symmetry_space_group_name_H-M   'P 1'
_cell_length_a   8.75039708
_cell_length_b   8.75039442
_cell_length_c   9.46987249
_cell_angle_alpha   90.28726710
_cell_angle_beta   89.71273406
_cell_angle_gamma   120.26506245
_symmetry_Int_Tables_number   1
_chemical_formula_structural   Tm3Al12NiRu3
_chemical_formula_sum   'Tm6 Al24 Ni2 Ru6'
_cell_volume   626.26293679
_cell_formula_units_Z   2
loop_
 _symmetry_equiv_pos_site_id
 _symmetry_equiv_pos_as_xyz
  1  'x, y, z'
loop_
 _atom_site_type_symbol
 _atom_site_label
 _atom_site_symmetry_multiplicity
 _atom_site_fract_x
 _atom_site_fract_y
 _atom_site_fract_z
 _atom_site_occupancy
  Tm  Tm0  1  0.197918  0.389255  0.250134  1
  Tm  Tm1  1  0.802082  0.610745  0.749866  1
  Tm  Tm2  1  0.610745  0.802082  0.250134  1
  Tm  Tm3  1  0.389255  0.197918  0.749866  1
  Tm  Tm4  1  0.193241  0.806759  0.250399  1
  Tm  Tm5  1  0.806759  0.193241  0.749601  1
  Al  Al6  1  0.332065  0.667935  0.023521  1
  Al  Al7  1  0.667935  0.332065  0.976479  1
  Al  Al8  1  0.666878  0.333122  0.519393  1
  Al  Al9  1  0.333122  0.666878  0.480607  1
  Al  Al10  1  0.162093  0.326228  0.578119  1
  Al  Al11  1  0.837907  0.673772  0.421881  1
  Al  Al12  1  0.673772  0.837907  0.578119  1
  Al  Al13  1  0.835959  0.672314  0.077153  1
  Al  Al14  1  0.326228  0.162093  0.421881  1
  Al  Al15  1  0.164041  0.327686  0.922847  1
  Al  Al16  1  0.162549  0.837451  0.579275  1
  Al  Al17  1  0.327686  0.164041  0.077153  1
  Al  Al18  1  0.837451  0.162549  0.420725  1
  Al  Al19  1  0.672314  0.835959  0.922847  1
  Al  Al20  1  0.836844  0.163156  0.077030  1
  Al  Al21  1  0.163156  0.836844  0.922970  1
  Al  Al22  1  0.560615  0.120360  0.245518  1
  Al  Al23  1  0.439385  0.879640  0.754482  1
  Al  Al24  1  0.879640  0.439385  0.245518  1
  Al  Al25  1  0.120360  0.560615  0.754482  1
  Al  Al26  1  0.562448  0.437552  0.247892  1
  Al  Al27  1  0.437552  0.562448  0.752108  1
  Al  Al28  1  0.000545  0.999455  0.249995  1
  Al  Al29  1  0.999455  0.000545  0.750005  1
  Ni  Ni30  1  0.500000  0.000000  0.000000  1
  Ni  Ni31  1  0.000000  0.500000  0.000000  1
  Ru  Ru32  1  0.500000  0.000000  0.500000  1
  Ru  Ru33  1  0.500000  0.500000  0.000000  1
  Ru  Ru34  1  0.000000  0.500000  0.500000  1
  Ru  Ru35  1  0.500000  0.500000  0.500000  1
  Ru  Ru36  1  0.000000  0.000000  0.000000  1
  Ru  Ru37  1  0.000000  0.000000  0.500000  1
