# generated using pymatgen
data_NdGd3Si2(SeO4)2
_symmetry_space_group_name_H-M   'P 1'
_cell_length_a   6.20990000
_cell_length_b   7.11147500
_cell_length_c   10.96365700
_cell_angle_alpha   90.00000000
_cell_angle_beta   90.00000000
_cell_angle_gamma   90.00000000
_symmetry_Int_Tables_number   1
_chemical_formula_structural   NdGd3Si2(SeO4)2
_chemical_formula_sum   'Nd2 Gd6 Si4 Se4 O16'
_cell_volume   484.17207147
_cell_formula_units_Z   2
loop_
 _symmetry_equiv_pos_site_id
 _symmetry_equiv_pos_as_xyz
  1  'x, y, z'
loop_
 _atom_site_type_symbol
 _atom_site_label
 _atom_site_symmetry_multiplicity
 _atom_site_fract_x
 _atom_site_fract_y
 _atom_site_fract_z
 _atom_site_occupancy
  Nd  Nd0  1  0.609954  0.249999  0.000000  1
  Nd  Nd1  1  0.390044  0.750000  0.499999  1
  Gd  Gd2  1  0.134862  0.465559  0.249763  1
  Gd  Gd3  1  0.865139  0.534442  0.749763  1
  Gd  Gd4  1  0.134862  0.034442  0.750237  1
  Gd  Gd5  1  0.865139  0.965557  0.250237  1
  Gd  Gd6  1  0.389806  0.750000  0.000000  1
  Gd  Gd7  1  0.610192  0.249999  0.499999  1
  Si  Si8  1  0.113724  0.249999  0.499999  1
  Si  Si9  1  0.886277  0.750000  0.000000  1
  Si  Si10  1  0.885149  0.750000  0.499999  1
  Si  Si11  1  0.114852  0.249999  0.000000  1
  Se  Se12  1  0.430069  0.119362  0.253127  1
  Se  Se13  1  0.569930  0.880638  0.753127  1
  Se  Se14  1  0.430069  0.380639  0.746873  1
  Se  Se15  1  0.569930  0.619362  0.246873  1
  O  O16  1  0.274610  0.425985  0.465446  1
  O  O17  1  0.725391  0.574015  0.965447  1
  O  O18  1  0.274610  0.074015  0.534553  1
  O  O19  1  0.725391  0.925986  0.034553  1
  O  O20  1  0.727583  0.570583  0.531632  1
  O  O21  1  0.272418  0.429417  0.031632  1
  O  O22  1  0.727583  0.929418  0.468367  1
  O  O23  1  0.272418  0.070583  0.968368  1
  O  O24  1  0.045243  0.734750  0.379677  1
  O  O25  1  0.954757  0.265249  0.879677  1
  O  O26  1  0.045243  0.765248  0.620324  1
  O  O27  1  0.954757  0.234752  0.120323  1
  O  O28  1  0.951027  0.264765  0.619482  1
  O  O29  1  0.048973  0.735234  0.119481  1
  O  O30  1  0.951027  0.235236  0.380519  1
  O  O31  1  0.048973  0.764764  0.880519  1
