# generated using pymatgen
data_Na2SrMnCo5As6
_symmetry_space_group_name_H-M   'P 1'
_cell_length_a   5.43644698
_cell_length_b   6.67246677
_cell_length_c   8.61367321
_cell_angle_alpha   66.90667828
_cell_angle_beta   71.74721014
_cell_angle_gamma   90.12147123
_symmetry_Int_Tables_number   1
_chemical_formula_structural   Na2SrMnCo5As6
_chemical_formula_sum   'Na2 Sr1 Mn1 Co5 As6'
_cell_volume   270.14952912
_cell_formula_units_Z   1
loop_
 _symmetry_equiv_pos_site_id
 _symmetry_equiv_pos_as_xyz
  1  'x, y, z'
loop_
 _atom_site_type_symbol
 _atom_site_label
 _atom_site_symmetry_multiplicity
 _atom_site_fract_x
 _atom_site_fract_y
 _atom_site_fract_z
 _atom_site_occupancy
  Na  Na0  1  0.328478  0.656631  0.341200  1
  Na  Na1  1  0.672376  0.341861  0.658660  1
  Sr  Sr2  1  0.997547  0.002499  0.001212  1
  Mn  Mn3  1  0.417142  0.833140  0.666335  1
  Co  Co4  1  0.750425  0.500919  0.999035  1
  Co  Co5  1  0.082682  0.165450  0.333684  1
  Co  Co6  1  0.249275  0.499669  0.000958  1
  Co  Co7  1  0.584548  0.166442  0.332051  1
  Co  Co8  1  0.917059  0.833951  0.667188  1
  As  As9  1  0.119995  0.523987  0.759957  1
  As  As10  1  0.450827  0.193894  0.096791  1
  As  As11  1  0.784381  0.852539  0.430666  1
  As  As12  1  0.548362  0.812763  0.903841  1
  As  As13  1  0.881273  0.472592  0.236870  1
  As  As14  1  0.215629  0.143664  0.571552  1
