# generated using pymatgen
data_Th2P7(IrRu5)2
_symmetry_space_group_name_H-M   'P 1'
_cell_length_a   9.55813531
_cell_length_b   9.58818004
_cell_length_c   3.93193600
_cell_angle_alpha   90.00000000
_cell_angle_beta   90.00000000
_cell_angle_gamma   120.12333404
_symmetry_Int_Tables_number   1
_chemical_formula_structural   Th2P7(IrRu5)2
_chemical_formula_sum   'Th2 P7 Ir2 Ru10'
_cell_volume   311.67742321
_cell_formula_units_Z   1
loop_
 _symmetry_equiv_pos_site_id
 _symmetry_equiv_pos_as_xyz
  1  'x, y, z'
loop_
 _atom_site_type_symbol
 _atom_site_label
 _atom_site_symmetry_multiplicity
 _atom_site_fract_x
 _atom_site_fract_y
 _atom_site_fract_z
 _atom_site_occupancy
  Th  Th0  1  0.668158  0.334424  0.500000  1
  Th  Th1  1  0.330452  0.665573  0.000000  1
  P  P2  1  0.603848  0.711337  0.500000  1
  P  P3  1  0.998760  0.000160  0.000000  1
  P  P4  1  0.284433  0.888441  0.500000  1
  P  P5  1  0.105228  0.398015  0.500000  1
  P  P6  1  0.891742  0.591477  0.000000  1
  P  P7  1  0.408882  0.293584  0.000000  1
  P  P8  1  0.705553  0.113353  0.000000  1
  Ir  Ir9  1  0.554542  0.938994  0.500000  1
  Ir  Ir10  1  0.384328  0.444844  0.500000  1
  Ru  Ru11  1  0.900011  0.130908  0.500000  1
  Ru  Ru12  1  0.236649  0.102264  0.500000  1
  Ru  Ru13  1  0.868346  0.771331  0.500000  1
  Ru  Ru14  1  0.729169  0.884979  0.000000  1
  Ru  Ru15  1  0.114989  0.848264  0.000000  1
  Ru  Ru16  1  0.155631  0.268325  0.000000  1
  Ru  Ru17  1  0.438748  0.066301  0.000000  1
  Ru  Ru18  1  0.934025  0.369021  0.000000  1
  Ru  Ru19  1  0.630270  0.562071  0.000000  1
  Ru  Ru20  1  0.056236  0.616334  0.500000  1
