# generated using pymatgen
data_Pa2BeSi3
_symmetry_space_group_name_H-M   'P 1'
_cell_length_a   7.89676204
_cell_length_b   7.82262147
_cell_length_c   5.62977737
_cell_angle_alpha   69.72002782
_cell_angle_beta   68.31097416
_cell_angle_gamma   41.96899449
_symmetry_Int_Tables_number   1
_chemical_formula_structural   Pa2BeSi3
_chemical_formula_sum   'Pa4 Be2 Si6'
_cell_volume   214.65045967
_cell_formula_units_Z   2
loop_
 _symmetry_equiv_pos_site_id
 _symmetry_equiv_pos_as_xyz
  1  'x, y, z'
loop_
 _atom_site_type_symbol
 _atom_site_label
 _atom_site_symmetry_multiplicity
 _atom_site_fract_x
 _atom_site_fract_y
 _atom_site_fract_z
 _atom_site_occupancy
  Pa  Pa0  1  0.249999  0.250001  0.250000  1
  Pa  Pa1  1  0.253161  0.746839  0.253162  1
  Pa  Pa2  1  0.746838  0.253162  0.746839  1
  Pa  Pa3  1  0.749999  0.750001  0.750000  1
  Be  Be4  1  0.832903  0.832903  0.167097  1
  Be  Be5  1  0.167097  0.167097  0.832903  1
  Si  Si6  1  0.847701  0.326005  0.152300  1
  Si  Si7  1  0.673995  0.152300  0.326005  1
  Si  Si8  1  0.672991  0.672992  0.327009  1
  Si  Si9  1  0.327008  0.327009  0.672992  1
  Si  Si10  1  0.326005  0.847700  0.673995  1
  Si  Si11  1  0.152300  0.673995  0.847700  1
