# generated using pymatgen
data_SbOsF8
_symmetry_space_group_name_H-M   'P 1'
_cell_length_a   6.39543397
_cell_length_b   6.04161586
_cell_length_c   7.24824133
_cell_angle_alpha   56.65700257
_cell_angle_beta   52.10334115
_cell_angle_gamma   81.81445047
_symmetry_Int_Tables_number   1
_chemical_formula_structural   SbOsF8
_chemical_formula_sum   'Sb1 Os1 F8'
_cell_volume   176.34244623
_cell_formula_units_Z   1
loop_
 _symmetry_equiv_pos_site_id
 _symmetry_equiv_pos_as_xyz
  1  'x, y, z'
loop_
 _atom_site_type_symbol
 _atom_site_label
 _atom_site_symmetry_multiplicity
 _atom_site_fract_x
 _atom_site_fract_y
 _atom_site_fract_z
 _atom_site_occupancy
  Sb  Sb0  1  0.242028  0.241993  0.758013  1
  Os  Os1  1  0.512853  0.512939  0.987092  1
  F  F2  1  0.728375  0.268473  0.035597  1
  F  F3  1  0.310319  0.242105  0.033985  1
  F  F4  1  0.634636  0.297502  0.496320  1
  F  F5  1  0.242046  0.310484  0.413599  1
  F  F6  1  0.764238  0.695386  0.585109  1
  F  F7  1  0.297728  0.634503  0.571482  1
  F  F8  1  0.268517  0.728514  0.967399  1
  F  F9  1  0.695296  0.764132  0.955372  1
