# generated using pymatgen
data_Dy10Ho2TcRu3
_symmetry_space_group_name_H-M   'P 1'
_cell_length_a   6.29487763
_cell_length_b   7.35129308
_cell_length_c   9.14870054
_cell_angle_alpha   90.00449888
_cell_angle_beta   90.03905760
_cell_angle_gamma   90.00819665
_symmetry_Int_Tables_number   1
_chemical_formula_structural   Dy10Ho2TcRu3
_chemical_formula_sum   'Dy10 Ho2 Tc1 Ru3'
_cell_volume   423.36049961
_cell_formula_units_Z   1
loop_
 _symmetry_equiv_pos_site_id
 _symmetry_equiv_pos_as_xyz
  1  'x, y, z'
loop_
 _atom_site_type_symbol
 _atom_site_label
 _atom_site_symmetry_multiplicity
 _atom_site_fract_x
 _atom_site_fract_y
 _atom_site_fract_z
 _atom_site_occupancy
  Dy  Dy0  1  0.332797  0.676196  0.064562  1
  Dy  Dy1  1  0.167723  0.175942  0.435727  1
  Dy  Dy2  1  0.668019  0.323762  0.564067  1
  Dy  Dy3  1  0.834304  0.824721  0.937119  1
  Dy  Dy4  1  0.668142  0.323603  0.935929  1
  Dy  Dy5  1  0.834192  0.824580  0.562890  1
  Dy  Dy6  1  0.867697  0.539776  0.250012  1
  Dy  Dy7  1  0.628420  0.041469  0.249980  1
  Dy  Dy8  1  0.134660  0.458035  0.749985  1
  Dy  Dy9  1  0.365723  0.958424  0.750009  1
  Ho  Ho10  1  0.332809  0.676092  0.435456  1
  Ho  Ho11  1  0.167655  0.175805  0.064258  1
  Tc  Tc12  1  0.037601  0.884927  0.250031  1
  Ru  Ru13  1  0.461253  0.384115  0.249982  1
  Ru  Ru14  1  0.960477  0.117162  0.750149  1
  Ru  Ru15  1  0.538528  0.615391  0.749843  1
