# generated using pymatgen
data_Pr8Ho12Bi7Pb9
_symmetry_space_group_name_H-M   'P 1'
_cell_length_a   8.38621361
_cell_length_b   8.37904852
_cell_length_c   15.73010610
_cell_angle_alpha   90.04049575
_cell_angle_beta   90.04326632
_cell_angle_gamma   90.00230966
_symmetry_Int_Tables_number   1
_chemical_formula_structural   Pr8Ho12Bi7Pb9
_chemical_formula_sum   'Pr8 Ho12 Bi7 Pb9'
_cell_volume   1105.33022218
_cell_formula_units_Z   1
loop_
 _symmetry_equiv_pos_site_id
 _symmetry_equiv_pos_as_xyz
  1  'x, y, z'
loop_
 _atom_site_type_symbol
 _atom_site_label
 _atom_site_symmetry_multiplicity
 _atom_site_fract_x
 _atom_site_fract_y
 _atom_site_fract_z
 _atom_site_occupancy
  Pr  Pr0  1  0.469537  0.674557  0.599338  1
  Pr  Pr1  1  0.971865  0.823960  0.900564  1
  Pr  Pr2  1  0.528276  0.323976  0.099557  1
  Pr  Pr3  1  0.028175  0.177686  0.400175  1
  Pr  Pr4  1  0.525163  0.325256  0.400782  1
  Pr  Pr5  1  0.028050  0.176278  0.099395  1
  Pr  Pr6  1  0.471890  0.676462  0.900500  1
  Pr  Pr7  1  0.973339  0.822551  0.599224  1
  Ho  Ho8  1  0.635057  0.157127  0.625423  1
  Ho  Ho9  1  0.135052  0.342744  0.874804  1
  Ho  Ho10  1  0.365284  0.842887  0.125141  1
  Ho  Ho11  1  0.868336  0.656460  0.374766  1
  Ho  Ho12  1  0.363303  0.840312  0.375206  1
  Ho  Ho13  1  0.864852  0.657516  0.125191  1
  Ho  Ho14  1  0.634991  0.157335  0.874532  1
  Ho  Ho15  1  0.135735  0.344479  0.624269  1
  Ho  Ho16  1  0.802124  0.499894  0.750150  1
  Ho  Ho17  1  0.302069  0.000127  0.749792  1
  Ho  Ho18  1  0.197728  0.500630  0.251895  1
  Ho  Ho19  1  0.697750  0.999650  0.250473  1
  Bi  Bi20  1  0.708004  0.960395  0.455759  1
  Bi  Bi21  1  0.207931  0.539849  0.044371  1
  Bi  Bi22  1  0.292265  0.039780  0.955794  1
  Bi  Bi23  1  0.792798  0.460264  0.544022  1
  Bi  Bi24  1  0.292477  0.039489  0.544503  1
  Bi  Bi25  1  0.791939  0.460385  0.955851  1
  Bi  Bi26  1  0.707856  0.960618  0.044065  1
  Pb  Pb27  1  0.208211  0.539061  0.456191  1
  Pb  Pb28  1  0.440046  0.369763  0.750259  1
  Pb  Pb29  1  0.940478  0.130564  0.749685  1
  Pb  Pb30  1  0.560469  0.630354  0.249547  1
  Pb  Pb31  1  0.059969  0.870336  0.249387  1
  Pb  Pb32  1  0.660891  0.850074  0.749766  1
  Pb  Pb33  1  0.160842  0.649669  0.750440  1
  Pb  Pb34  1  0.338815  0.149070  0.249630  1
  Pb  Pb35  1  0.838435  0.350443  0.249552  1
