# generated using pymatgen
data_Er3Th5(CdPt2)4
_symmetry_space_group_name_H-M   'P 1'
_cell_length_a   7.92352100
_cell_length_b   7.92352087
_cell_length_c   7.47484400
_cell_angle_alpha   90.00000000
_cell_angle_beta   90.00000000
_cell_angle_gamma   90.14641549
_symmetry_Int_Tables_number   1
_chemical_formula_structural   Er3Th5(CdPt2)4
_chemical_formula_sum   'Er3 Th5 Cd4 Pt8'
_cell_volume   469.28549923
_cell_formula_units_Z   1
loop_
 _symmetry_equiv_pos_site_id
 _symmetry_equiv_pos_as_xyz
  1  'x, y, z'
loop_
 _atom_site_type_symbol
 _atom_site_label
 _atom_site_symmetry_multiplicity
 _atom_site_fract_x
 _atom_site_fract_y
 _atom_site_fract_z
 _atom_site_occupancy
  Er  Er0  1  0.667793  0.330045  0.500000  1
  Er  Er1  1  0.330045  0.667793  0.500000  1
  Er  Er2  1  0.170868  0.170868  0.000000  1
  Th  Th3  1  0.829744  0.829744  0.000000  1
  Th  Th4  1  0.831839  0.831839  0.500000  1
  Th  Th5  1  0.172681  0.172681  0.500000  1
  Th  Th6  1  0.328293  0.668268  0.000000  1
  Th  Th7  1  0.668268  0.328293  0.000000  1
  Cd  Cd8  1  0.496832  0.001470  0.253354  1
  Cd  Cd9  1  0.001470  0.496832  0.746646  1
  Cd  Cd10  1  0.496832  0.001470  0.746646  1
  Cd  Cd11  1  0.001470  0.496832  0.253354  1
  Pt  Pt12  1  0.870076  0.130464  0.250008  1
  Pt  Pt13  1  0.130464  0.870076  0.250008  1
  Pt  Pt14  1  0.371218  0.371218  0.749493  1
  Pt  Pt15  1  0.630174  0.630174  0.743861  1
  Pt  Pt16  1  0.130464  0.870076  0.749992  1
  Pt  Pt17  1  0.870076  0.130464  0.749992  1
  Pt  Pt18  1  0.630174  0.630174  0.256139  1
  Pt  Pt19  1  0.371218  0.371218  0.250507  1
