# generated using pymatgen
data_Ho16Er4Sn9Pb7
_symmetry_space_group_name_H-M   'P 1'
_cell_length_a   8.10997251
_cell_length_b   8.16125905
_cell_length_c   15.49139659
_cell_angle_alpha   89.99922371
_cell_angle_beta   89.96492898
_cell_angle_gamma   90.02443257
_symmetry_Int_Tables_number   1
_chemical_formula_structural   Ho16Er4Sn9Pb7
_chemical_formula_sum   'Ho16 Er4 Sn9 Pb7'
_cell_volume   1025.33786768
_cell_formula_units_Z   1
loop_
 _symmetry_equiv_pos_site_id
 _symmetry_equiv_pos_as_xyz
  1  'x, y, z'
loop_
 _atom_site_type_symbol
 _atom_site_label
 _atom_site_symmetry_multiplicity
 _atom_site_fract_x
 _atom_site_fract_y
 _atom_site_fract_z
 _atom_site_occupancy
  Ho  Ho0  1  0.380149  0.839756  0.878315  1
  Ho  Ho1  1  0.880349  0.660811  0.623184  1
  Ho  Ho2  1  0.618880  0.161399  0.376667  1
  Ho  Ho3  1  0.120591  0.335905  0.122562  1
  Ho  Ho4  1  0.617334  0.161459  0.122657  1
  Ho  Ho5  1  0.119032  0.338630  0.376770  1
  Ho  Ho6  1  0.380295  0.838703  0.622972  1
  Ho  Ho7  1  0.879991  0.661136  0.876910  1
  Ho  Ho8  1  0.536089  0.323531  0.897233  1
  Ho  Ho9  1  0.037477  0.175511  0.603620  1
  Ho  Ho10  1  0.461850  0.675699  0.395831  1
  Ho  Ho11  1  0.966197  0.826690  0.102833  1
  Ho  Ho12  1  0.461783  0.678357  0.103282  1
  Ho  Ho13  1  0.962215  0.824489  0.395944  1
  Ho  Ho14  1  0.538134  0.325064  0.603830  1
  Ho  Ho15  1  0.039697  0.173982  0.897705  1
  Er  Er16  1  0.210617  0.503555  0.750057  1
  Er  Er17  1  0.710758  0.996155  0.750073  1
  Er  Er18  1  0.789399  0.496105  0.249621  1
  Er  Er19  1  0.289011  0.003776  0.248656  1
  Sn  Sn20  1  0.282048  0.031694  0.042122  1
  Sn  Sn21  1  0.576039  0.622484  0.750534  1
  Sn  Sn22  1  0.076402  0.877389  0.750148  1
  Sn  Sn23  1  0.423262  0.378340  0.250013  1
  Sn  Sn24  1  0.922901  0.122094  0.250003  1
  Sn  Sn25  1  0.345596  0.149098  0.750152  1
  Sn  Sn26  1  0.845840  0.350199  0.750692  1
  Sn  Sn27  1  0.655212  0.851426  0.249682  1
  Sn  Sn28  1  0.154454  0.648594  0.249629  1
  Pb  Pb29  1  0.780544  0.468504  0.458498  1
  Pb  Pb30  1  0.718931  0.967893  0.541152  1
  Pb  Pb31  1  0.218482  0.532291  0.959071  1
  Pb  Pb32  1  0.719608  0.967593  0.958766  1
  Pb  Pb33  1  0.219138  0.531884  0.541383  1
  Pb  Pb34  1  0.280501  0.031768  0.458193  1
  Pb  Pb35  1  0.781194  0.468034  0.041241  1
