# generated using pymatgen
data_Dy3Er5Lu8(Tl3Co)2
_symmetry_space_group_name_H-M   'P 1'
_cell_length_a   10.16262100
_cell_length_b   10.16492651
_cell_length_c   7.11054403
_cell_angle_alpha   89.98196023
_cell_angle_beta   89.99687341
_cell_angle_gamma   119.99735813
_symmetry_Int_Tables_number   1
_chemical_formula_structural   Dy3Er5Lu8(Tl3Co)2
_chemical_formula_sum   'Dy3 Er5 Lu8 Tl6 Co2'
_cell_volume   636.14330480
_cell_formula_units_Z   1
loop_
 _symmetry_equiv_pos_site_id
 _symmetry_equiv_pos_as_xyz
  1  'x, y, z'
loop_
 _atom_site_type_symbol
 _atom_site_label
 _atom_site_symmetry_multiplicity
 _atom_site_fract_x
 _atom_site_fract_y
 _atom_site_fract_z
 _atom_site_occupancy
  Dy  Dy0  1  0.537807  0.075632  0.711605  1
  Dy  Dy1  1  0.999816  0.999814  0.227623  1
  Dy  Dy2  1  0.000122  0.000034  0.727957  1
  Er  Er3  1  0.461815  0.538390  0.211609  1
  Er  Er4  1  0.076534  0.538187  0.211581  1
  Er  Er5  1  0.461417  0.922855  0.211372  1
  Er  Er6  1  0.538380  0.461806  0.711447  1
  Er  Er7  1  0.923380  0.461960  0.711362  1
  Lu  Lu8  1  0.179375  0.819671  0.512902  1
  Lu  Lu9  1  0.640407  0.819973  0.512857  1
  Lu  Lu10  1  0.179894  0.359823  0.513683  1
  Lu  Lu11  1  0.820422  0.180188  0.013563  1
  Lu  Lu12  1  0.359621  0.179840  0.013700  1
  Lu  Lu13  1  0.820105  0.640288  0.012981  1
  Lu  Lu14  1  0.333125  0.665999  0.818130  1
  Lu  Lu15  1  0.666710  0.333727  0.317861  1
  Tl  Tl16  1  0.163551  0.836789  0.958070  1
  Tl  Tl17  1  0.674114  0.837593  0.957827  1
  Tl  Tl18  1  0.163557  0.326293  0.959625  1
  Tl  Tl19  1  0.837633  0.163551  0.457403  1
  Tl  Tl20  1  0.325193  0.162883  0.457826  1
  Tl  Tl21  1  0.836896  0.674329  0.457640  1
  Co  Co22  1  0.333185  0.666411  0.443024  1
  Co  Co23  1  0.666938  0.333967  0.943187  1
