# generated using pymatgen
data_U2Ni6As7Ru6
_symmetry_space_group_name_H-M   'P 1'
_cell_length_a   9.76847900
_cell_length_b   9.76847903
_cell_length_c   3.79346600
_cell_angle_alpha   90.00000000
_cell_angle_beta   90.00000000
_cell_angle_gamma   119.99999988
_symmetry_Int_Tables_number   1
_chemical_formula_structural   U2Ni6As7Ru6
_chemical_formula_sum   'U2 Ni6 As7 Ru6'
_cell_volume   313.48785759
_cell_formula_units_Z   1
loop_
 _symmetry_equiv_pos_site_id
 _symmetry_equiv_pos_as_xyz
  1  'x, y, z'
loop_
 _atom_site_type_symbol
 _atom_site_label
 _atom_site_symmetry_multiplicity
 _atom_site_fract_x
 _atom_site_fract_y
 _atom_site_fract_z
 _atom_site_occupancy
  U  U0  1  0.333333  0.666667  0.000000  1
  U  U1  1  0.666667  0.333333  0.500000  1
  Ni  Ni2  1  0.126533  0.906123  0.000000  1
  Ni  Ni3  1  0.093877  0.220410  0.000000  1
  Ni  Ni4  1  0.779590  0.873467  0.000000  1
  Ni  Ni5  1  0.268904  0.151542  0.500000  1
  Ni  Ni6  1  0.848458  0.117362  0.500000  1
  Ni  Ni7  1  0.882638  0.731096  0.500000  1
  As  As8  1  0.000000  0.000000  0.500000  1
  As  As9  1  0.289137  0.400605  0.500000  1
  As  As10  1  0.599395  0.888532  0.500000  1
  As  As11  1  0.111468  0.710863  0.500000  1
  As  As12  1  0.398669  0.110874  0.000000  1
  As  As13  1  0.889126  0.287795  0.000000  1
  As  As14  1  0.712205  0.601331  0.000000  1
  Ru  Ru15  1  0.440619  0.378392  0.000000  1
  Ru  Ru16  1  0.621608  0.062227  0.000000  1
  Ru  Ru17  1  0.937773  0.559381  0.000000  1
  Ru  Ru18  1  0.372925  0.934639  0.500000  1
  Ru  Ru19  1  0.065361  0.438285  0.500000  1
  Ru  Ru20  1  0.561715  0.627075  0.500000  1
