# generated using pymatgen
data_Tb16Ho3ErSn16
_symmetry_space_group_name_H-M   'P 1'
_cell_length_a   8.05100301
_cell_length_b   8.20088801
_cell_length_c   15.52528600
_cell_angle_alpha   90.00000000
_cell_angle_beta   90.00000000
_cell_angle_gamma   89.99378104
_symmetry_Int_Tables_number   1
_chemical_formula_structural   Tb16Ho3ErSn16
_chemical_formula_sum   'Tb16 Ho3 Er1 Sn16'
_cell_volume   1025.06280989
_cell_formula_units_Z   1
loop_
 _symmetry_equiv_pos_site_id
 _symmetry_equiv_pos_as_xyz
  1  'x, y, z'
loop_
 _atom_site_type_symbol
 _atom_site_label
 _atom_site_symmetry_multiplicity
 _atom_site_fract_x
 _atom_site_fract_y
 _atom_site_fract_z
 _atom_site_occupancy
  Tb  Tb0  1  0.367691  0.835571  0.878487  1
  Tb  Tb1  1  0.867788  0.664346  0.621512  1
  Tb  Tb2  1  0.632277  0.164379  0.378489  1
  Tb  Tb3  1  0.132275  0.335606  0.121497  1
  Tb  Tb4  1  0.632277  0.164379  0.121511  1
  Tb  Tb5  1  0.132275  0.335606  0.378503  1
  Tb  Tb6  1  0.367691  0.835571  0.621513  1
  Tb  Tb7  1  0.867788  0.664346  0.878488  1
  Tb  Tb8  1  0.520175  0.319609  0.902208  1
  Tb  Tb9  1  0.020223  0.180429  0.597787  1
  Tb  Tb10  1  0.479806  0.680404  0.402216  1
  Tb  Tb11  1  0.979797  0.819592  0.097794  1
  Tb  Tb12  1  0.479806  0.680404  0.097784  1
  Tb  Tb13  1  0.979797  0.819592  0.402206  1
  Tb  Tb14  1  0.520175  0.319609  0.597792  1
  Tb  Tb15  1  0.020223  0.180429  0.902213  1
  Ho  Ho16  1  0.698272  0.997819  0.750000  1
  Ho  Ho17  1  0.801705  0.497794  0.250000  1
  Ho  Ho18  1  0.301717  0.002206  0.250000  1
  Er  Er19  1  0.198321  0.502279  0.750000  1
  Sn  Sn20  1  0.291936  0.033817  0.042331  1
  Sn  Sn21  1  0.791935  0.466164  0.457667  1
  Sn  Sn22  1  0.708070  0.966194  0.542318  1
  Sn  Sn23  1  0.208060  0.533814  0.957604  1
  Sn  Sn24  1  0.708070  0.966194  0.957682  1
  Sn  Sn25  1  0.208060  0.533814  0.542396  1
  Sn  Sn26  1  0.291936  0.033817  0.457669  1
  Sn  Sn27  1  0.791935  0.466164  0.042333  1
  Sn  Sn28  1  0.564943  0.618833  0.750000  1
  Sn  Sn29  1  0.065147  0.881017  0.750000  1
  Sn  Sn30  1  0.434875  0.381101  0.250000  1
  Sn  Sn31  1  0.934900  0.118911  0.250000  1
  Sn  Sn32  1  0.327896  0.146036  0.750000  1
  Sn  Sn33  1  0.827965  0.354189  0.750000  1
  Sn  Sn34  1  0.672088  0.854136  0.250000  1
  Sn  Sn35  1  0.172103  0.645828  0.250000  1
