# generated using pymatgen
data_LuSc(TaS2)6
_symmetry_space_group_name_H-M   'P 1'
_cell_length_a   5.78950600
_cell_length_b   5.78950663
_cell_length_c   12.88147000
_cell_angle_alpha   90.00000000
_cell_angle_beta   90.00000000
_cell_angle_gamma   119.99999639
_symmetry_Int_Tables_number   1
_chemical_formula_structural   LuSc(TaS2)6
_chemical_formula_sum   'Lu1 Sc1 Ta6 S12'
_cell_volume   373.92038131
_cell_formula_units_Z   1
loop_
 _symmetry_equiv_pos_site_id
 _symmetry_equiv_pos_as_xyz
  1  'x, y, z'
loop_
 _atom_site_type_symbol
 _atom_site_label
 _atom_site_symmetry_multiplicity
 _atom_site_fract_x
 _atom_site_fract_y
 _atom_site_fract_z
 _atom_site_occupancy
  Lu  Lu0  1  0.333333  0.666667  0.250000  1
  Sc  Sc1  1  0.666667  0.333333  0.750000  1
  Ta  Ta2  1  0.000000  0.000000  0.506975  1
  Ta  Ta3  1  0.000000  0.000000  0.993025  1
  Ta  Ta4  1  0.333333  0.666667  0.992844  1
  Ta  Ta5  1  0.666667  0.333333  0.993207  1
  Ta  Ta6  1  0.666667  0.333333  0.506793  1
  Ta  Ta7  1  0.333333  0.666667  0.507156  1
  S  S8  1  0.332773  0.328070  0.385049  1
  S  S9  1  0.671930  0.004705  0.385049  1
  S  S10  1  0.995295  0.667227  0.385049  1
  S  S11  1  0.326708  0.332685  0.628299  1
  S  S12  1  0.005978  0.673292  0.628299  1
  S  S13  1  0.667315  0.994022  0.628299  1
  S  S14  1  0.667315  0.673292  0.871701  1
  S  S15  1  0.326708  0.994022  0.871701  1
  S  S16  1  0.005978  0.332685  0.871701  1
  S  S17  1  0.671930  0.667227  0.114951  1
  S  S18  1  0.995295  0.328070  0.114951  1
  S  S19  1  0.332773  0.004705  0.114951  1
