# generated using pymatgen
data_Ho3Er(Ga3Ir)6
_symmetry_space_group_name_H-M   'P 1'
_cell_length_a   7.58259040
_cell_length_b   7.58348116
_cell_length_c   9.47210100
_cell_angle_alpha   90.00000000
_cell_angle_beta   90.00000000
_cell_angle_gamma   119.99047432
_symmetry_Int_Tables_number   1
_chemical_formula_structural   Ho3Er(Ga3Ir)6
_chemical_formula_sum   'Ho3 Er1 Ga18 Ir6'
_cell_volume   471.74232068
_cell_formula_units_Z   1
loop_
 _symmetry_equiv_pos_site_id
 _symmetry_equiv_pos_as_xyz
  1  'x, y, z'
loop_
 _atom_site_type_symbol
 _atom_site_label
 _atom_site_symmetry_multiplicity
 _atom_site_fract_x
 _atom_site_fract_y
 _atom_site_fract_z
 _atom_site_occupancy
  Ho  Ho0  1  0.997241  0.668083  0.750000  1
  Ho  Ho1  1  0.002955  0.332143  0.250000  1
  Ho  Ho2  1  0.668054  0.997322  0.750000  1
  Er  Er3  1  0.332153  0.002845  0.250000  1
  Ga  Ga4  1  0.127053  0.127040  0.750000  1
  Ga  Ga5  1  0.873120  0.872992  0.250000  1
  Ga  Ga6  1  0.998952  0.333897  0.581070  1
  Ga  Ga7  1  0.001195  0.666358  0.419018  1
  Ga  Ga8  1  0.001195  0.666358  0.080982  1
  Ga  Ga9  1  0.333910  0.998952  0.919109  1
  Ga  Ga10  1  0.998952  0.333897  0.918930  1
  Ga  Ga11  1  0.665805  0.000945  0.080970  1
  Ga  Ga12  1  0.665805  0.000945  0.419030  1
  Ga  Ga13  1  0.333910  0.998952  0.580891  1
  Ga  Ga14  1  0.332446  0.332208  0.064870  1
  Ga  Ga15  1  0.667616  0.667620  0.934847  1
  Ga  Ga16  1  0.667616  0.667620  0.565153  1
  Ga  Ga17  1  0.332446  0.332208  0.435130  1
  Ga  Ga18  1  0.339386  0.546556  0.750000  1
  Ga  Ga19  1  0.660432  0.453327  0.250000  1
  Ga  Ga20  1  0.546459  0.339317  0.750000  1
  Ga  Ga21  1  0.453465  0.660716  0.250000  1
  Ir  Ir22  1  0.671451  0.328325  0.499711  1
  Ir  Ir23  1  0.328320  0.671496  0.499719  1
  Ir  Ir24  1  0.328320  0.671496  0.000281  1
  Ir  Ir25  1  0.671451  0.328325  0.000289  1
  Ir  Ir26  1  0.000146  0.000029  0.499764  1
  Ir  Ir27  1  0.000146  0.000029  0.000236  1
