# generated using pymatgen
data_Na2As7Pd12
_symmetry_space_group_name_H-M   'P 1'
_cell_length_a   10.23229600
_cell_length_b   10.23229576
_cell_length_c   4.01319900
_cell_angle_alpha   90.00000000
_cell_angle_beta   90.00000000
_cell_angle_gamma   120.00000077
_symmetry_Int_Tables_number   1
_chemical_formula_structural   Na2As7Pd12
_chemical_formula_sum   'Na2 As7 Pd12'
_cell_volume   363.88780680
_cell_formula_units_Z   1
loop_
 _symmetry_equiv_pos_site_id
 _symmetry_equiv_pos_as_xyz
  1  'x, y, z'
loop_
 _atom_site_type_symbol
 _atom_site_label
 _atom_site_symmetry_multiplicity
 _atom_site_fract_x
 _atom_site_fract_y
 _atom_site_fract_z
 _atom_site_occupancy
  Na  Na0  1  0.666667  0.333333  0.248227  1
  Na  Na1  1  0.000000  0.000000  0.750153  1
  As  As2  1  0.333333  0.666667  0.474668  1
  As  As3  1  0.745584  0.787650  0.250861  1
  As  As4  1  0.042065  0.254416  0.250861  1
  As  As5  1  0.212350  0.957935  0.250861  1
  As  As6  1  0.920946  0.546985  0.746358  1
  As  As7  1  0.626039  0.079054  0.746358  1
  As  As8  1  0.453015  0.373961  0.746358  1
  Pd  Pd9  1  0.770345  0.047417  0.248787  1
  Pd  Pd10  1  0.277072  0.229655  0.248787  1
  Pd  Pd11  1  0.952583  0.722928  0.248787  1
  Pd  Pd12  1  0.897712  0.286139  0.747762  1
  Pd  Pd13  1  0.388426  0.102288  0.747762  1
  Pd  Pd14  1  0.713861  0.611574  0.747762  1
  Pd  Pd15  1  0.481748  0.557721  0.235582  1
  Pd  Pd16  1  0.075972  0.518252  0.235582  1
  Pd  Pd17  1  0.442279  0.924028  0.235582  1
  Pd  Pd18  1  0.188439  0.772095  0.763472  1
  Pd  Pd19  1  0.583655  0.811561  0.763472  1
  Pd  Pd20  1  0.227905  0.416345  0.763472  1
