# generated using pymatgen
data_Dy3SiI3
_symmetry_space_group_name_H-M   'P 1'
_cell_length_a   10.48102043
_cell_length_b   10.48101979
_cell_length_c   10.48102000
_cell_angle_alpha   109.47121910
_cell_angle_beta   109.47121786
_cell_angle_gamma   109.47122191
_symmetry_Int_Tables_number   1
_chemical_formula_structural   Dy3SiI3
_chemical_formula_sum   'Dy12 Si4 I12'
_cell_volume   886.31639741
_cell_formula_units_Z   4
loop_
 _symmetry_equiv_pos_site_id
 _symmetry_equiv_pos_as_xyz
  1  'x, y, z'
loop_
 _atom_site_type_symbol
 _atom_site_label
 _atom_site_symmetry_multiplicity
 _atom_site_fract_x
 _atom_site_fract_y
 _atom_site_fract_z
 _atom_site_occupancy
  Dy  Dy0  1  0.461114  0.480557  0.230557  1
  Dy  Dy1  1  0.750000  0.230557  0.269443  1
  Dy  Dy2  1  0.750000  0.019443  0.480557  1
  Dy  Dy3  1  0.230557  0.461114  0.480557  1
  Dy  Dy4  1  0.269443  0.750000  0.230557  1
  Dy  Dy5  1  0.038886  0.269443  0.019443  1
  Dy  Dy6  1  0.019443  0.038886  0.269443  1
  Dy  Dy7  1  0.480557  0.750000  0.019443  1
  Dy  Dy8  1  0.480557  0.230557  0.461114  1
  Dy  Dy9  1  0.019443  0.480557  0.750000  1
  Dy  Dy10  1  0.269443  0.019443  0.038886  1
  Dy  Dy11  1  0.230557  0.269443  0.750000  1
  Si  Si12  1  0.250000  0.250000  0.250000  1
  Si  Si13  1  0.500000  0.000000  0.250000  1
  Si  Si14  1  0.000000  0.250000  0.500000  1
  Si  Si15  1  0.250000  0.500000  0.000000  1
  I  I16  1  0.250000  0.756818  0.743182  1
  I  I17  1  0.513635  0.506818  0.756818  1
  I  I18  1  0.986365  0.743182  0.993182  1
  I  I19  1  0.743182  0.250000  0.756818  1
  I  I20  1  0.993182  0.986365  0.743182  1
  I  I21  1  0.250000  0.993182  0.506818  1
  I  I22  1  0.756818  0.513635  0.506818  1
  I  I23  1  0.506818  0.250000  0.993182  1
  I  I24  1  0.756818  0.743182  0.250000  1
  I  I25  1  0.743182  0.993182  0.986365  1
  I  I26  1  0.993182  0.506818  0.250000  1
  I  I27  1  0.506818  0.756818  0.513635  1
