# generated using pymatgen
data_Ho4TcNiRu6
_symmetry_space_group_name_H-M   'P 1'
_cell_length_a   5.24015598
_cell_length_b   5.33984299
_cell_length_c   8.89292600
_cell_angle_alpha   90.00000000
_cell_angle_beta   90.00000000
_cell_angle_gamma   121.72729712
_symmetry_Int_Tables_number   1
_chemical_formula_structural   Ho4TcNiRu6
_chemical_formula_sum   'Ho4 Tc1 Ni1 Ru6'
_cell_volume   211.65214552
_cell_formula_units_Z   1
loop_
 _symmetry_equiv_pos_site_id
 _symmetry_equiv_pos_as_xyz
  1  'x, y, z'
loop_
 _atom_site_type_symbol
 _atom_site_label
 _atom_site_symmetry_multiplicity
 _atom_site_fract_x
 _atom_site_fract_y
 _atom_site_fract_z
 _atom_site_occupancy
  Ho  Ho0  1  0.330324  0.662750  0.431098  1
  Ho  Ho1  1  0.658634  0.328060  0.562550  1
  Ho  Ho2  1  0.658634  0.328060  0.937450  1
  Ho  Ho3  1  0.330324  0.662750  0.068902  1
  Tc  Tc4  1  0.677362  0.839261  0.750000  1
  Ni  Ni5  1  0.835084  0.166648  0.250000  1
  Ru  Ru6  1  0.988535  0.991346  0.497724  1
  Ru  Ru7  1  0.988535  0.991346  0.002276  1
  Ru  Ru8  1  0.828671  0.667566  0.250000  1
  Ru  Ru9  1  0.348306  0.178931  0.250000  1
  Ru  Ru10  1  0.174174  0.828822  0.750000  1
  Ru  Ru11  1  0.181418  0.354457  0.750000  1
