# generated using pymatgen
data_Rb4Li2LuInP4
_symmetry_space_group_name_H-M   'P 1'
_cell_length_a   9.18136085
_cell_length_b   9.18136111
_cell_length_c   9.18136093
_cell_angle_alpha   138.45139093
_cell_angle_beta   60.50091834
_cell_angle_gamma   138.07468247
_symmetry_Int_Tables_number   1
_chemical_formula_structural   Rb4Li2LuInP4
_chemical_formula_sum   'Rb4 Li2 Lu1 In1 P4'
_cell_volume   339.34964692
_cell_formula_units_Z   1
loop_
 _symmetry_equiv_pos_site_id
 _symmetry_equiv_pos_as_xyz
  1  'x, y, z'
loop_
 _atom_site_type_symbol
 _atom_site_label
 _atom_site_symmetry_multiplicity
 _atom_site_fract_x
 _atom_site_fract_y
 _atom_site_fract_z
 _atom_site_occupancy
  Rb  Rb0  1  0.817646  0.268145  0.098096  1
  Rb  Rb1  1  0.682354  0.780450  0.450500  1
  Rb  Rb2  1  0.329951  0.231855  0.549500  1
  Rb  Rb3  1  0.170049  0.719550  0.901904  1
  Li  Li4  1  0.750000  0.250000  0.500000  1
  Li  Li5  1  0.250000  0.750000  0.500000  1
  Lu  Lu6  1  0.250000  0.250000  0.000000  1
  In  In7  1  0.750000  0.750000  0.000000  1
  P  P8  1  0.411879  0.740406  0.149809  1
  P  P9  1  0.088121  0.237929  0.328527  1
  P  P10  1  0.909402  0.759594  0.671473  1
  P  P11  1  0.590598  0.262071  0.850191  1
