# generated using pymatgen
data_Tb6Dy10Cd4Ni3Ir
_symmetry_space_group_name_H-M   'P 1'
_cell_length_a   9.60069945
_cell_length_b   9.60069998
_cell_length_c   9.60069937
_cell_angle_alpha   59.80551736
_cell_angle_beta   59.80552400
_cell_angle_gamma   59.80551964
_symmetry_Int_Tables_number   1
_chemical_formula_structural   Tb6Dy10Cd4Ni3Ir
_chemical_formula_sum   'Tb6 Dy10 Cd4 Ni3 Ir1'
_cell_volume   622.97715259
_cell_formula_units_Z   1
loop_
 _symmetry_equiv_pos_site_id
 _symmetry_equiv_pos_as_xyz
  1  'x, y, z'
loop_
 _atom_site_type_symbol
 _atom_site_label
 _atom_site_symmetry_multiplicity
 _atom_site_fract_x
 _atom_site_fract_y
 _atom_site_fract_z
 _atom_site_occupancy
  Tb  Tb0  1  0.935908  0.565742  0.565742  1
  Tb  Tb1  1  0.559934  0.937812  0.937812  1
  Tb  Tb2  1  0.565742  0.935908  0.565742  1
  Tb  Tb3  1  0.937812  0.559934  0.937812  1
  Tb  Tb4  1  0.565742  0.565742  0.935908  1
  Tb  Tb5  1  0.937812  0.937812  0.559934  1
  Dy  Dy6  1  0.346978  0.346978  0.346978  1
  Dy  Dy7  1  0.351196  0.351196  0.953337  1
  Dy  Dy8  1  0.351196  0.953337  0.351196  1
  Dy  Dy9  1  0.953337  0.351196  0.351196  1
  Dy  Dy10  1  0.808577  0.189160  0.189160  1
  Dy  Dy11  1  0.186566  0.811415  0.811415  1
  Dy  Dy12  1  0.189160  0.808577  0.189160  1
  Dy  Dy13  1  0.811415  0.186566  0.811415  1
  Dy  Dy14  1  0.189160  0.189160  0.808577  1
  Dy  Dy15  1  0.811415  0.811415  0.186566  1
  Cd  Cd16  1  0.580322  0.580322  0.580322  1
  Cd  Cd17  1  0.580117  0.580117  0.256685  1
  Cd  Cd18  1  0.580117  0.256685  0.580117  1
  Cd  Cd19  1  0.256685  0.580117  0.580117  1
  Ni  Ni20  1  0.141650  0.141650  0.574602  1
  Ni  Ni21  1  0.141650  0.574602  0.141650  1
  Ni  Ni22  1  0.574602  0.141650  0.141650  1
  Ir  Ir23  1  0.142904  0.142904  0.142904  1
