# generated using pymatgen
data_Rb3HoSi2O7
_symmetry_space_group_name_H-M   'P 1'
_cell_length_a   5.90452400
_cell_length_b   5.90452469
_cell_length_c   14.25212500
_cell_angle_alpha   90.00000000
_cell_angle_beta   90.00000000
_cell_angle_gamma   120.00000734
_symmetry_Int_Tables_number   1
_chemical_formula_structural   Rb3HoSi2O7
_chemical_formula_sum   'Rb6 Ho2 Si4 O14'
_cell_volume   430.30863130
_cell_formula_units_Z   2
loop_
 _symmetry_equiv_pos_site_id
 _symmetry_equiv_pos_as_xyz
  1  'x, y, z'
loop_
 _atom_site_type_symbol
 _atom_site_label
 _atom_site_symmetry_multiplicity
 _atom_site_fract_x
 _atom_site_fract_y
 _atom_site_fract_z
 _atom_site_occupancy
  Rb  Rb0  1  0.333333  0.666667  0.404328  1
  Rb  Rb1  1  0.000000  0.000000  0.250000  1
  Rb  Rb2  1  0.666667  0.333333  0.595672  1
  Rb  Rb3  1  0.333333  0.666667  0.095672  1
  Rb  Rb4  1  0.666667  0.333333  0.904328  1
  Rb  Rb5  1  0.000000  0.000000  0.750000  1
  Ho  Ho6  1  0.000000  0.000000  0.500000  1
  Ho  Ho7  1  0.000000  0.000000  0.000000  1
  Si  Si8  1  0.333333  0.666667  0.631390  1
  Si  Si9  1  0.666667  0.333333  0.368610  1
  Si  Si10  1  0.666667  0.333333  0.131390  1
  Si  Si11  1  0.333333  0.666667  0.868610  1
  O  O12  1  0.361596  0.180798  0.405533  1
  O  O13  1  0.819202  0.180798  0.094467  1
  O  O14  1  0.180798  0.361596  0.594467  1
  O  O15  1  0.180798  0.819202  0.905533  1
  O  O16  1  0.638404  0.819202  0.905533  1
  O  O17  1  0.638404  0.819202  0.594467  1
  O  O18  1  0.361596  0.180798  0.094467  1
  O  O19  1  0.180798  0.819202  0.594467  1
  O  O20  1  0.819202  0.180798  0.405533  1
  O  O21  1  0.180798  0.361596  0.905533  1
  O  O22  1  0.819202  0.638404  0.094467  1
  O  O23  1  0.819202  0.638404  0.405533  1
  O  O24  1  0.666667  0.333333  0.250000  1
  O  O25  1  0.333333  0.666667  0.750000  1
