# generated using pymatgen
data_Dy8Ti3Si16Mo5W4
_symmetry_space_group_name_H-M   'P 1'
_cell_length_a   6.90714301
_cell_length_b   6.90814538
_cell_length_c   12.81539689
_cell_angle_alpha   90.02108608
_cell_angle_beta   89.98789987
_cell_angle_gamma   89.83805995
_symmetry_Int_Tables_number   1
_chemical_formula_structural   Dy8Ti3Si16Mo5W4
_chemical_formula_sum   'Dy8 Ti3 Si16 Mo5 W4'
_cell_volume   611.49118950
_cell_formula_units_Z   1
loop_
 _symmetry_equiv_pos_site_id
 _symmetry_equiv_pos_as_xyz
  1  'x, y, z'
loop_
 _atom_site_type_symbol
 _atom_site_label
 _atom_site_symmetry_multiplicity
 _atom_site_fract_x
 _atom_site_fract_y
 _atom_site_fract_z
 _atom_site_occupancy
  Dy  Dy0  1  0.998064  0.660665  0.031329  1
  Dy  Dy1  1  0.000602  0.340340  0.531224  1
  Dy  Dy2  1  0.660639  0.997759  0.968384  1
  Dy  Dy3  1  0.161162  0.503184  0.780859  1
  Dy  Dy4  1  0.838551  0.500232  0.282537  1
  Dy  Dy5  1  0.503606  0.161291  0.219188  1
  Dy  Dy6  1  0.500703  0.838661  0.717229  1
  Dy  Dy7  1  0.339939  0.001163  0.468716  1
  Ti  Ti8  1  0.829061  0.168513  0.748345  1
  Ti  Ti9  1  0.168008  0.829508  0.251849  1
  Ti  Ti10  1  0.330512  0.330729  0.000197  1
  Si  Si11  1  0.036997  0.711696  0.438255  1
  Si  Si12  1  0.958477  0.289274  0.935991  1
  Si  Si13  1  0.712063  0.036316  0.562128  1
  Si  Si14  1  0.209317  0.460282  0.186214  1
  Si  Si15  1  0.788935  0.541865  0.685270  1
  Si  Si16  1  0.459946  0.209329  0.813922  1
  Si  Si17  1  0.540683  0.790088  0.314235  1
  Si  Si18  1  0.289923  0.958215  0.063911  1
  Si  Si19  1  0.800230  0.871086  0.183563  1
  Si  Si20  1  0.303177  0.625878  0.565873  1
  Si  Si21  1  0.700894  0.371667  0.066219  1
  Si  Si22  1  0.626195  0.302279  0.433839  1
  Si  Si23  1  0.371667  0.700506  0.934090  1
  Si  Si24  1  0.127965  0.203102  0.315945  1
  Si  Si25  1  0.202659  0.127708  0.684812  1
  Si  Si26  1  0.871318  0.800113  0.816006  1
  Mo  Mo27  1  0.997992  0.843084  0.626695  1
  Mo  Mo28  1  0.505869  0.333579  0.625243  1
  Mo  Mo29  1  0.159239  0.006293  0.874316  1
  Mo  Mo30  1  0.494416  0.659678  0.125244  1
  Mo  Mo31  1  0.659723  0.493771  0.875216  1
  W  W32  1  0.334828  0.505824  0.374893  1
  W  W33  1  0.842054  0.997173  0.373544  1
  W  W34  1  0.006696  0.160174  0.125611  1
  W  W35  1  0.667892  0.668976  0.499110  1
