# generated using pymatgen
data_Tb2Pa(InIr)3
_symmetry_space_group_name_H-M   'P 1'
_cell_length_a   7.81456000
_cell_length_b   7.56769901
_cell_length_c   3.85773300
_cell_angle_alpha   90.00000000
_cell_angle_beta   90.00000000
_cell_angle_gamma   121.08506916
_symmetry_Int_Tables_number   1
_chemical_formula_structural   Tb2Pa(InIr)3
_chemical_formula_sum   'Tb2 Pa1 In3 Ir3'
_cell_volume   195.37907425
_cell_formula_units_Z   1
loop_
 _symmetry_equiv_pos_site_id
 _symmetry_equiv_pos_as_xyz
  1  'x, y, z'
loop_
 _atom_site_type_symbol
 _atom_site_label
 _atom_site_symmetry_multiplicity
 _atom_site_fract_x
 _atom_site_fract_y
 _atom_site_fract_z
 _atom_site_occupancy
  Tb  Tb0  1  0.000436  0.595747  0.000000  1
  Tb  Tb1  1  0.404690  0.404253  0.000000  1
  Pa  Pa2  1  0.584001  0.000000  0.000000  1
  In  In3  1  0.243867  0.000000  0.500000  1
  In  In4  1  0.010868  0.269139  0.500000  1
  In  In5  1  0.741727  0.730861  0.500000  1
  Ir  Ir6  1  0.362993  0.699975  0.500000  1
  Ir  Ir7  1  0.663017  0.300025  0.500000  1
  Ir  Ir8  1  0.988303  0.000000  0.000000  1
