# generated using pymatgen
data_Tb7Er3Th6(MgRu)4
_symmetry_space_group_name_H-M   'P 1'
_cell_length_a   9.73031577
_cell_length_b   9.82729104
_cell_length_c   9.82743311
_cell_angle_alpha   59.34773577
_cell_angle_beta   60.32539424
_cell_angle_gamma   60.35917370
_symmetry_Int_Tables_number   1
_chemical_formula_structural   Tb7Er3Th6(MgRu)4
_chemical_formula_sum   'Tb7 Er3 Th6 Mg4 Ru4'
_cell_volume   664.51553801
_cell_formula_units_Z   1
loop_
 _symmetry_equiv_pos_site_id
 _symmetry_equiv_pos_as_xyz
  1  'x, y, z'
loop_
 _atom_site_type_symbol
 _atom_site_label
 _atom_site_symmetry_multiplicity
 _atom_site_fract_x
 _atom_site_fract_y
 _atom_site_fract_z
 _atom_site_occupancy
  Tb  Tb0  1  0.061519  0.061519  0.438481  1
  Tb  Tb1  1  0.184932  0.815057  0.816423  1
  Tb  Tb2  1  0.815057  0.184932  0.183589  1
  Tb  Tb3  1  0.811608  0.188801  0.813159  1
  Tb  Tb4  1  0.188801  0.811608  0.186432  1
  Tb  Tb5  1  0.812351  0.812351  0.187649  1
  Tb  Tb6  1  0.187660  0.187660  0.812340  1
  Er  Er7  1  0.439122  0.061181  0.438991  1
  Er  Er8  1  0.061181  0.439122  0.060706  1
  Er  Er9  1  0.439111  0.439111  0.060889  1
  Th  Th10  1  0.590777  0.599961  0.599301  1
  Th  Th11  1  0.599961  0.590777  0.209963  1
  Th  Th12  1  0.599161  0.209524  0.591642  1
  Th  Th13  1  0.209524  0.599161  0.599675  1
  Th  Th14  1  0.066795  0.433803  0.432984  1
  Th  Th15  1  0.433803  0.066795  0.066418  1
  Mg  Mg16  1  0.831949  0.828276  0.829828  1
  Mg  Mg17  1  0.828276  0.831949  0.509947  1
  Mg  Mg18  1  0.828370  0.509841  0.832522  1
  Mg  Mg19  1  0.509841  0.828370  0.829268  1
  Ru  Ru20  1  0.378853  0.397727  0.398469  1
  Ru  Ru21  1  0.397727  0.378853  0.824952  1
  Ru  Ru22  1  0.399244  0.824381  0.377964  1
  Ru  Ru23  1  0.824381  0.399244  0.398411  1
