# generated using pymatgen
data_ErTa(SnPt)2
_symmetry_space_group_name_H-M   'P 1'
_cell_length_a   6.43531200
_cell_length_b   4.53604900
_cell_length_c   9.07995700
_cell_angle_alpha   90.00000000
_cell_angle_beta   90.00000000
_cell_angle_gamma   90.00000000
_symmetry_Int_Tables_number   1
_chemical_formula_structural   ErTa(SnPt)2
_chemical_formula_sum   'Er2 Ta2 Sn4 Pt4'
_cell_volume   265.05203110
_cell_formula_units_Z   2
loop_
 _symmetry_equiv_pos_site_id
 _symmetry_equiv_pos_as_xyz
  1  'x, y, z'
loop_
 _atom_site_type_symbol
 _atom_site_label
 _atom_site_symmetry_multiplicity
 _atom_site_fract_x
 _atom_site_fract_y
 _atom_site_fract_z
 _atom_site_occupancy
  Er  Er0  1  0.004582  0.000000  0.376665  1
  Er  Er1  1  0.504583  0.500001  0.623336  1
  Ta  Ta2  1  0.496830  0.500001  0.122859  1
  Ta  Ta3  1  0.996831  0.000000  0.877140  1
  Sn  Sn4  1  0.984855  0.500001  0.126214  1
  Sn  Sn5  1  0.511327  0.000000  0.373010  1
  Sn  Sn6  1  0.011327  0.500001  0.626992  1
  Sn  Sn7  1  0.484856  0.000000  0.873788  1
  Pt  Pt8  1  0.735279  0.000000  0.110648  1
  Pt  Pt9  1  0.267123  0.500001  0.356531  1
  Pt  Pt10  1  0.767124  0.000000  0.643470  1
  Pt  Pt11  1  0.235279  0.500001  0.889353  1
