# generated using pymatgen
data_Zr2Ta4Ti3Al13Ir7
_symmetry_space_group_name_H-M   'P 1'
_cell_length_a   8.68941690
_cell_length_b   8.68941721
_cell_length_c   8.66665218
_cell_angle_alpha   59.95015783
_cell_angle_beta   59.95015775
_cell_angle_gamma   59.70172628
_symmetry_Int_Tables_number   1
_chemical_formula_structural   Zr2Ta4Ti3Al13Ir7
_chemical_formula_sum   'Zr2 Ta4 Ti3 Al13 Ir7'
_cell_volume   461.32072950
_cell_formula_units_Z   1
loop_
 _symmetry_equiv_pos_site_id
 _symmetry_equiv_pos_as_xyz
  1  'x, y, z'
loop_
 _atom_site_type_symbol
 _atom_site_label
 _atom_site_symmetry_multiplicity
 _atom_site_fract_x
 _atom_site_fract_y
 _atom_site_fract_z
 _atom_site_occupancy
  Zr  Zr0  1  0.691338  0.306275  0.689711  1
  Zr  Zr1  1  0.306275  0.691338  0.689711  1
  Ta  Ta2  1  0.681975  0.681975  0.313387  1
  Ta  Ta3  1  0.324920  0.674264  0.321909  1
  Ta  Ta4  1  0.674264  0.324920  0.321909  1
  Ta  Ta5  1  0.317008  0.317008  0.678582  1
  Ti  Ti6  1  0.880377  0.880377  0.357943  1
  Ti  Ti7  1  0.880229  0.360691  0.880703  1
  Ti  Ti8  1  0.360691  0.880229  0.880703  1
  Al  Al9  1  0.878655  0.878655  0.885040  1
  Al  Al10  1  0.121827  0.121827  0.637796  1
  Al  Al11  1  0.118903  0.640589  0.121320  1
  Al  Al12  1  0.640589  0.118903  0.121320  1
  Al  Al13  1  0.119850  0.119850  0.121017  1
  Al  Al14  1  0.663147  0.663147  0.012392  1
  Al  Al15  1  0.662312  0.013689  0.661249  1
  Al  Al16  1  0.013689  0.662312  0.661249  1
  Al  Al17  1  0.661772  0.661772  0.657108  1
  Al  Al18  1  0.336936  0.336936  0.986442  1
  Al  Al19  1  0.338902  0.986702  0.335854  1
  Al  Al20  1  0.986702  0.338902  0.335854  1
  Al  Al21  1  0.337598  0.337598  0.335001  1
  Ir  Ir22  1  0.002439  0.002439  0.999397  1
  Ir  Ir23  1  0.998946  0.998946  0.495353  1
  Ir  Ir24  1  0.502285  0.001757  0.498820  1
  Ir  Ir25  1  0.001757  0.502285  0.498820  1
  Ir  Ir26  1  0.502556  0.502556  0.001104  1
  Ir  Ir27  1  0.995799  0.498260  0.000154  1
  Ir  Ir28  1  0.498260  0.995799  0.000154  1
