# generated using pymatgen
data_CaY4(RuO6)2
_symmetry_space_group_name_H-M   'P 1'
_cell_length_a   6.86739210
_cell_length_b   6.86739268
_cell_length_c   7.49313677
_cell_angle_alpha   73.94297686
_cell_angle_beta   73.94297820
_cell_angle_gamma   49.88524794
_symmetry_Int_Tables_number   1
_chemical_formula_structural   CaY4(RuO6)2
_chemical_formula_sum   'Ca1 Y4 Ru2 O12'
_cell_volume   257.37185525
_cell_formula_units_Z   1
loop_
 _symmetry_equiv_pos_site_id
 _symmetry_equiv_pos_as_xyz
  1  'x, y, z'
loop_
 _atom_site_type_symbol
 _atom_site_label
 _atom_site_symmetry_multiplicity
 _atom_site_fract_x
 _atom_site_fract_y
 _atom_site_fract_z
 _atom_site_occupancy
  Ca  Ca0  1  0.186591  0.186591  0.176069  1
  Y  Y1  1  0.503437  0.503437  0.499360  1
  Y  Y2  1  0.811664  0.811664  0.824902  1
  Y  Y3  1  0.800826  0.800826  0.362658  1
  Y  Y4  1  0.198441  0.198441  0.636805  1
  Ru  Ru5  1  0.727409  0.271776  0.000137  1
  Ru  Ru6  1  0.271776  0.727409  0.000137  1
  O  O7  1  0.998165  0.998165  0.170322  1
  O  O8  1  0.000986  0.000986  0.825459  1
  O  O9  1  0.495390  0.495390  0.806568  1
  O  O10  1  0.500675  0.500675  0.196018  1
  O  O11  1  0.601450  0.096663  0.573670  1
  O  O12  1  0.899188  0.406551  0.436571  1
  O  O13  1  0.406551  0.899188  0.436571  1
  O  O14  1  0.412984  0.911584  0.909792  1
  O  O15  1  0.078595  0.597623  0.080748  1
  O  O16  1  0.597623  0.078595  0.080748  1
  O  O17  1  0.911584  0.412984  0.909792  1
  O  O18  1  0.096663  0.601450  0.573670  1
