# generated using pymatgen
data_Ta5Sn(B2Ru5)2
_symmetry_space_group_name_H-M   'P 1'
_cell_length_a   9.46341000
_cell_length_b   9.46341000
_cell_length_c   3.02515700
_cell_angle_alpha   90.00000000
_cell_angle_beta   90.00000000
_cell_angle_gamma   90.00000000
_symmetry_Int_Tables_number   1
_chemical_formula_structural   Ta5Sn(B2Ru5)2
_chemical_formula_sum   'Ta5 Sn1 B4 Ru10'
_cell_volume   270.92135002
_cell_formula_units_Z   1
loop_
 _symmetry_equiv_pos_site_id
 _symmetry_equiv_pos_as_xyz
  1  'x, y, z'
loop_
 _atom_site_type_symbol
 _atom_site_label
 _atom_site_symmetry_multiplicity
 _atom_site_fract_x
 _atom_site_fract_y
 _atom_site_fract_z
 _atom_site_occupancy
  Ta  Ta0  1  0.824188  0.676933  0.000000  1
  Ta  Ta1  1  0.175812  0.323067  0.000000  1
  Ta  Ta2  1  0.323067  0.824188  0.000000  1
  Ta  Ta3  1  0.676933  0.175812  0.000000  1
  Ta  Ta4  1  0.000000  0.000000  0.000000  1
  Sn  Sn5  1  0.500000  0.500000  0.000000  1
  B  B6  1  0.619657  0.876585  0.000000  1
  B  B7  1  0.380343  0.123415  0.000000  1
  B  B8  1  0.123415  0.619657  0.000000  1
  B  B9  1  0.876585  0.380343  0.000000  1
  Ru  Ru10  1  0.574455  0.721051  0.500000  1
  Ru  Ru11  1  0.425545  0.278949  0.500000  1
  Ru  Ru12  1  0.068737  0.781522  0.500000  1
  Ru  Ru13  1  0.931263  0.218478  0.500000  1
  Ru  Ru14  1  0.278949  0.574455  0.500000  1
  Ru  Ru15  1  0.721051  0.425545  0.500000  1
  Ru  Ru16  1  0.218478  0.068737  0.500000  1
  Ru  Ru17  1  0.781522  0.931263  0.500000  1
  Ru  Ru18  1  0.500000  0.000000  0.500000  1
  Ru  Ru19  1  0.000000  0.500000  0.500000  1
