# generated using pymatgen
data_HfZrU6(Bi2Sb3)2
_symmetry_space_group_name_H-M   'P 1'
_cell_length_a   9.35183000
_cell_length_b   9.35183106
_cell_length_c   6.27988800
_cell_angle_alpha   90.00000000
_cell_angle_beta   90.00000000
_cell_angle_gamma   120.00000332
_symmetry_Int_Tables_number   1
_chemical_formula_structural   HfZrU6(Bi2Sb3)2
_chemical_formula_sum   'Hf1 Zr1 U6 Bi4 Sb6'
_cell_volume   475.63715392
_cell_formula_units_Z   1
loop_
 _symmetry_equiv_pos_site_id
 _symmetry_equiv_pos_as_xyz
  1  'x, y, z'
loop_
 _atom_site_type_symbol
 _atom_site_label
 _atom_site_symmetry_multiplicity
 _atom_site_fract_x
 _atom_site_fract_y
 _atom_site_fract_z
 _atom_site_occupancy
  Hf  Hf0  1  0.000000  0.000000  0.000000  1
  Zr  Zr1  1  0.000000  0.000000  0.500000  1
  U  U2  1  0.381259  0.000000  0.749984  1
  U  U3  1  0.381259  0.381259  0.250016  1
  U  U4  1  0.000000  0.618741  0.250016  1
  U  U5  1  0.000000  0.381259  0.749984  1
  U  U6  1  0.618741  0.618741  0.749984  1
  U  U7  1  0.618741  0.000000  0.250016  1
  Bi  Bi8  1  0.333333  0.666667  0.500000  1
  Bi  Bi9  1  0.666667  0.333333  0.000000  1
  Bi  Bi10  1  0.666667  0.333333  0.500000  1
  Bi  Bi11  1  0.333333  0.666667  0.000000  1
  Sb  Sb12  1  0.729372  0.000000  0.751049  1
  Sb  Sb13  1  0.729372  0.729372  0.248951  1
  Sb  Sb14  1  0.000000  0.270628  0.248951  1
  Sb  Sb15  1  0.000000  0.729372  0.751049  1
  Sb  Sb16  1  0.270628  0.000000  0.248951  1
  Sb  Sb17  1  0.270628  0.270628  0.751049  1
