# generated using pymatgen
data_Pr3NdTmSn15Rh8
_symmetry_space_group_name_H-M   'P 1'
_cell_length_a   4.53841000
_cell_length_b   7.26504095
_cell_length_c   18.71473228
_cell_angle_alpha   89.96539437
_cell_angle_beta   90.00000000
_cell_angle_gamma   90.00000000
_symmetry_Int_Tables_number   1
_chemical_formula_structural   Pr3NdTmSn15Rh8
_chemical_formula_sum   'Pr3 Nd1 Tm1 Sn15 Rh8'
_cell_volume   617.05707168
_cell_formula_units_Z   1
loop_
 _symmetry_equiv_pos_site_id
 _symmetry_equiv_pos_as_xyz
  1  'x, y, z'
loop_
 _atom_site_type_symbol
 _atom_site_label
 _atom_site_symmetry_multiplicity
 _atom_site_fract_x
 _atom_site_fract_y
 _atom_site_fract_z
 _atom_site_occupancy
  Pr  Pr0  1  0.500000  0.000391  0.856392  1
  Pr  Pr1  1  0.500000  0.501022  0.357540  1
  Pr  Pr2  1  0.000000  0.000951  0.142632  1
  Nd  Nd3  1  0.000000  0.499758  0.641935  1
  Tm  Tm4  1  0.500000  0.491106  0.930938  1
  Sn  Sn5  1  0.000000  0.717610  0.806944  1
  Sn  Sn6  1  0.000000  0.780711  0.305722  1
  Sn  Sn7  1  0.500000  0.279008  0.194008  1
  Sn  Sn8  1  0.500000  0.219681  0.693652  1
  Sn  Sn9  1  0.000000  0.852523  0.969140  1
  Sn  Sn10  1  0.000000  0.632202  0.468422  1
  Sn  Sn11  1  0.500000  0.135655  0.030728  1
  Sn  Sn12  1  0.500000  0.366117  0.531186  1
  Sn  Sn13  1  0.000000  0.306707  0.820710  1
  Sn  Sn14  1  0.000000  0.199956  0.317677  1
  Sn  Sn15  1  0.500000  0.698119  0.184532  1
  Sn  Sn16  1  0.500000  0.804824  0.679768  1
  Sn  Sn17  1  0.500000  0.019513  0.433229  1
  Sn  Sn18  1  0.000000  0.511376  0.065952  1
  Sn  Sn19  1  0.000000  0.980691  0.568247  1
  Rh  Rh20  1  0.000000  0.235563  0.964869  1
  Rh  Rh21  1  0.000000  0.247780  0.465059  1
  Rh  Rh22  1  0.500000  0.758564  0.041515  1
  Rh  Rh23  1  0.500000  0.749628  0.533364  1
  Rh  Rh24  1  0.000000  0.019012  0.715742  1
  Rh  Rh25  1  0.000000  0.483919  0.212910  1
  Rh  Rh26  1  0.500000  0.987589  0.288958  1
  Rh  Rh27  1  0.500000  0.520022  0.778232  1
