# generated using pymatgen
data_Ho3Er(Zn4Ru)2
_symmetry_space_group_name_H-M   'P 1'
_cell_length_a   6.95713400
_cell_length_b   6.95713400
_cell_length_c   5.28293100
_cell_angle_alpha   90.00000000
_cell_angle_beta   90.00000000
_cell_angle_gamma   90.00000000
_symmetry_Int_Tables_number   1
_chemical_formula_structural   Ho3Er(Zn4Ru)2
_chemical_formula_sum   'Ho3 Er1 Zn8 Ru2'
_cell_volume   255.70291267
_cell_formula_units_Z   1
loop_
 _symmetry_equiv_pos_site_id
 _symmetry_equiv_pos_as_xyz
  1  'x, y, z'
loop_
 _atom_site_type_symbol
 _atom_site_label
 _atom_site_symmetry_multiplicity
 _atom_site_fract_x
 _atom_site_fract_y
 _atom_site_fract_z
 _atom_site_occupancy
  Ho  Ho0  1  0.000000  0.500000  0.765057  1
  Ho  Ho1  1  0.000000  0.000000  0.000000  1
  Ho  Ho2  1  0.500000  0.000000  0.234943  1
  Er  Er3  1  0.500000  0.500000  0.000000  1
  Zn  Zn4  1  0.188075  0.687624  0.288126  1
  Zn  Zn5  1  0.811925  0.687624  0.288126  1
  Zn  Zn6  1  0.811925  0.312376  0.288126  1
  Zn  Zn7  1  0.312376  0.188075  0.711874  1
  Zn  Zn8  1  0.188075  0.312376  0.288126  1
  Zn  Zn9  1  0.687624  0.188075  0.711874  1
  Zn  Zn10  1  0.687624  0.811925  0.711874  1
  Zn  Zn11  1  0.312376  0.811925  0.711874  1
  Ru  Ru12  1  0.500000  0.500000  0.500000  1
  Ru  Ru13  1  0.000000  0.000000  0.500000  1
