# generated using pymatgen
data_Tb3MgZn2Ir2Pd
_symmetry_space_group_name_H-M   'P 1'
_cell_length_a   7.28077299
_cell_length_b   7.28077215
_cell_length_c   3.94306300
_cell_angle_alpha   90.00000000
_cell_angle_beta   90.00000000
_cell_angle_gamma   120.16981077
_symmetry_Int_Tables_number   1
_chemical_formula_structural   Tb3MgZn2Ir2Pd
_chemical_formula_sum   'Tb3 Mg1 Zn2 Ir2 Pd1'
_cell_volume   180.70642727
_cell_formula_units_Z   1
loop_
 _symmetry_equiv_pos_site_id
 _symmetry_equiv_pos_as_xyz
  1  'x, y, z'
loop_
 _atom_site_type_symbol
 _atom_site_label
 _atom_site_symmetry_multiplicity
 _atom_site_fract_x
 _atom_site_fract_y
 _atom_site_fract_z
 _atom_site_occupancy
  Tb  Tb0  1  0.581835  0.006607  0.000000  1
  Tb  Tb1  1  0.006607  0.581835  0.000000  1
  Tb  Tb2  1  0.401269  0.401269  0.000000  1
  Mg  Mg3  1  0.755696  0.755696  0.500000  1
  Zn  Zn4  1  0.249858  0.996348  0.500000  1
  Zn  Zn5  1  0.996348  0.249858  0.500000  1
  Ir  Ir6  1  0.335439  0.667361  0.500000  1
  Ir  Ir7  1  0.667361  0.335439  0.500000  1
  Pd  Pd8  1  0.005587  0.005587  0.000000  1
