# generated using pymatgen
data_YErB(Pt2Rh)2
_symmetry_space_group_name_H-M   'P 1'
_cell_length_a   4.22836600
_cell_length_b   4.22836600
_cell_length_c   8.13015300
_cell_angle_alpha   90.00000000
_cell_angle_beta   90.00000000
_cell_angle_gamma   90.00000000
_symmetry_Int_Tables_number   1
_chemical_formula_structural   YErB(Pt2Rh)2
_chemical_formula_sum   'Y1 Er1 B1 Pt4 Rh2'
_cell_volume   145.35964801
_cell_formula_units_Z   1
loop_
 _symmetry_equiv_pos_site_id
 _symmetry_equiv_pos_as_xyz
  1  'x, y, z'
loop_
 _atom_site_type_symbol
 _atom_site_label
 _atom_site_symmetry_multiplicity
 _atom_site_fract_x
 _atom_site_fract_y
 _atom_site_fract_z
 _atom_site_occupancy
  Y  Y0  1  0.000000  0.000000  0.999194  1
  Er  Er1  1  0.000000  0.000000  0.502210  1
  B  B2  1  0.500000  0.500000  0.247417  1
  Pt  Pt3  1  0.500000  0.500000  0.989086  1
  Pt  Pt4  1  0.500000  0.500000  0.508491  1
  Pt  Pt5  1  0.500000  0.000000  0.747886  1
  Pt  Pt6  1  0.000000  0.500000  0.747886  1
  Rh  Rh7  1  0.500000  0.000000  0.253915  1
  Rh  Rh8  1  0.000000  0.500000  0.253915  1
