# generated using pymatgen
data_Tm16Sc4(Ir3Ru)3
_symmetry_space_group_name_H-M   'P 1'
_cell_length_a   10.58860000
_cell_length_b   10.58860000
_cell_length_c   6.26288900
_cell_angle_alpha   90.00000000
_cell_angle_beta   90.00000000
_cell_angle_gamma   90.00000000
_symmetry_Int_Tables_number   1
_chemical_formula_structural   Tm16Sc4(Ir3Ru)3
_chemical_formula_sum   'Tm16 Sc4 Ir9 Ru3'
_cell_volume   702.18540695
_cell_formula_units_Z   1
loop_
 _symmetry_equiv_pos_site_id
 _symmetry_equiv_pos_as_xyz
  1  'x, y, z'
loop_
 _atom_site_type_symbol
 _atom_site_label
 _atom_site_symmetry_multiplicity
 _atom_site_fract_x
 _atom_site_fract_y
 _atom_site_fract_z
 _atom_site_occupancy
  Tm  Tm0  1  0.290556  0.085060  0.375323  1
  Tm  Tm1  1  0.290599  0.915178  0.875453  1
  Tm  Tm2  1  0.709401  0.084822  0.875453  1
  Tm  Tm3  1  0.709444  0.914940  0.375323  1
  Tm  Tm4  1  0.584822  0.790599  0.875453  1
  Tm  Tm5  1  0.585060  0.209444  0.375323  1
  Tm  Tm6  1  0.414940  0.790556  0.375323  1
  Tm  Tm7  1  0.415178  0.209401  0.875453  1
  Tm  Tm8  1  0.210842  0.414562  0.625907  1
  Tm  Tm9  1  0.210662  0.585558  0.122963  1
  Tm  Tm10  1  0.789338  0.414442  0.122963  1
  Tm  Tm11  1  0.789158  0.585438  0.625907  1
  Tm  Tm12  1  0.914442  0.710662  0.122963  1
  Tm  Tm13  1  0.914562  0.289158  0.625907  1
  Tm  Tm14  1  0.085438  0.710842  0.625907  1
  Tm  Tm15  1  0.085558  0.289338  0.122963  1
  Sc  Sc16  1  0.000000  0.000000  0.499836  1
  Sc  Sc17  1  0.000000  0.000000  0.999906  1
  Sc  Sc18  1  0.500000  0.500000  0.999906  1
  Sc  Sc19  1  0.500000  0.500000  0.499836  1
  Ir  Ir20  1  0.851925  0.148392  0.250077  1
  Ir  Ir21  1  0.851767  0.851655  0.749742  1
  Ir  Ir22  1  0.148233  0.148345  0.749742  1
  Ir  Ir23  1  0.148075  0.851608  0.250077  1
  Ir  Ir24  1  0.648345  0.351767  0.749742  1
  Ir  Ir25  1  0.648392  0.648075  0.250077  1
  Ir  Ir26  1  0.351608  0.351925  0.250077  1
  Ir  Ir27  1  0.351655  0.648233  0.749742  1
  Ir  Ir28  1  0.000000  0.500000  0.376897  1
  Ru  Ru29  1  0.500000  0.000000  0.124676  1
  Ru  Ru30  1  0.500000  0.000000  0.624635  1
  Ru  Ru31  1  0.000000  0.500000  0.876449  1
