# generated using pymatgen
data_Hf8Nb2Si4Ge2CN
_symmetry_space_group_name_H-M   'P 1'
_cell_length_a   7.83450409
_cell_length_b   7.81805958
_cell_length_c   5.48848000
_cell_angle_alpha   90.02098191
_cell_angle_beta   89.95813157
_cell_angle_gamma   120.06959590
_symmetry_Int_Tables_number   1
_chemical_formula_structural   Hf8Nb2Si4Ge2CN
_chemical_formula_sum   'Hf8 Nb2 Si4 Ge2 C1 N1'
_cell_volume   290.92972305
_cell_formula_units_Z   1
loop_
 _symmetry_equiv_pos_site_id
 _symmetry_equiv_pos_as_xyz
  1  'x, y, z'
loop_
 _atom_site_type_symbol
 _atom_site_label
 _atom_site_symmetry_multiplicity
 _atom_site_fract_x
 _atom_site_fract_y
 _atom_site_fract_z
 _atom_site_occupancy
  Hf  Hf0  1  0.232326  0.000000  0.249198  1
  Hf  Hf1  1  0.767674  0.000000  0.750802  1
  Hf  Hf2  1  0.001940  0.236845  0.248915  1
  Hf  Hf3  1  0.998060  0.763155  0.751085  1
  Hf  Hf4  1  0.765095  0.763155  0.248915  1
  Hf  Hf5  1  0.234905  0.236845  0.751085  1
  Hf  Hf6  1  0.330898  0.661798  0.000000  1
  Hf  Hf7  1  0.669102  0.338202  0.000000  1
  Nb  Nb8  1  0.668928  0.337854  0.500000  1
  Nb  Nb9  1  0.331072  0.662146  0.500000  1
  Si  Si10  1  0.000990  0.594043  0.260471  1
  Si  Si11  1  0.999010  0.405957  0.739529  1
  Si  Si12  1  0.406947  0.405957  0.260471  1
  Si  Si13  1  0.593053  0.594043  0.739529  1
  Ge  Ge14  1  0.594788  0.000000  0.256104  1
  Ge  Ge15  1  0.405212  0.000000  0.743896  1
  C  C16  1  0.000000  0.000000  0.500000  1
  N  N17  1  0.000000  0.000000  0.000000  1
