# generated using pymatgen
data_Th8Si11Pd4Pt
_symmetry_space_group_name_H-M   'P 1'
_cell_length_a   8.36681612
_cell_length_b   8.36681338
_cell_length_c   8.35555800
_cell_angle_alpha   90.00120664
_cell_angle_beta   89.99880729
_cell_angle_gamma   120.11370886
_symmetry_Int_Tables_number   1
_chemical_formula_structural   Th8Si11Pd4Pt
_chemical_formula_sum   'Th8 Si11 Pd4 Pt1'
_cell_volume   505.97334421
_cell_formula_units_Z   1
loop_
 _symmetry_equiv_pos_site_id
 _symmetry_equiv_pos_as_xyz
  1  'x, y, z'
loop_
 _atom_site_type_symbol
 _atom_site_label
 _atom_site_symmetry_multiplicity
 _atom_site_fract_x
 _atom_site_fract_y
 _atom_site_fract_z
 _atom_site_occupancy
  Th  Th0  1  0.499376  0.500623  0.751033  1
  Th  Th1  1  0.499522  0.500480  0.248957  1
  Th  Th2  1  0.996804  0.496078  0.755893  1
  Th  Th3  1  0.996528  0.495961  0.244112  1
  Th  Th4  1  0.503922  0.003193  0.755893  1
  Th  Th5  1  0.504039  0.003473  0.244112  1
  Th  Th6  1  0.001600  0.998400  0.748437  1
  Th  Th7  1  0.001599  0.998402  0.251554  1
  Si  Si8  1  0.165100  0.834900  0.000114  1
  Si  Si9  1  0.328771  0.165205  0.999876  1
  Si  Si10  1  0.166535  0.833465  0.499861  1
  Si  Si11  1  0.668327  0.831289  0.000102  1
  Si  Si12  1  0.834487  0.165513  0.500101  1
  Si  Si13  1  0.834795  0.671229  0.999876  1
  Si  Si14  1  0.667487  0.833296  0.499876  1
  Si  Si15  1  0.168711  0.331673  0.000102  1
  Si  Si16  1  0.331224  0.165359  0.500108  1
  Si  Si17  1  0.166704  0.332513  0.499876  1
  Si  Si18  1  0.834641  0.668776  0.500108  1
  Pd  Pd19  1  0.656515  0.343484  0.999840  1
  Pd  Pd20  1  0.332686  0.667314  0.000231  1
  Pd  Pd21  1  0.333047  0.666953  0.499785  1
  Pd  Pd22  1  0.666545  0.333455  0.500247  1
  Pt  Pt23  1  0.841036  0.158965  0.999903  1
