# generated using pymatgen
data_La2Zn3In5Au4
_symmetry_space_group_name_H-M   'P 1'
_cell_length_a   4.67153100
_cell_length_b   7.08915257
_cell_length_c   18.83463678
_cell_angle_alpha   88.84339933
_cell_angle_beta   90.00000000
_cell_angle_gamma   90.00000000
_symmetry_Int_Tables_number   1
_chemical_formula_structural   La2Zn3In5Au4
_chemical_formula_sum   'La4 Zn6 In10 Au8'
_cell_volume   623.62327496
_cell_formula_units_Z   2
loop_
 _symmetry_equiv_pos_site_id
 _symmetry_equiv_pos_as_xyz
  1  'x, y, z'
loop_
 _atom_site_type_symbol
 _atom_site_label
 _atom_site_symmetry_multiplicity
 _atom_site_fract_x
 _atom_site_fract_y
 _atom_site_fract_z
 _atom_site_occupancy
  La  La0  1  0.750000  0.969573  0.646439  1
  La  La1  1  0.250000  0.030427  0.353561  1
  La  La2  1  0.250000  0.492758  0.853227  1
  La  La3  1  0.750000  0.507242  0.146773  1
  Zn  Zn4  1  0.250000  0.282730  0.690885  1
  Zn  Zn5  1  0.750000  0.717270  0.309115  1
  Zn  Zn6  1  0.750000  0.771615  0.806999  1
  Zn  Zn7  1  0.250000  0.228385  0.193001  1
  Zn  Zn8  1  0.250000  0.661539  0.685736  1
  Zn  Zn9  1  0.750000  0.338461  0.314264  1
  In  In10  1  0.750000  0.166284  0.813490  1
  In  In11  1  0.250000  0.833716  0.186510  1
  In  In12  1  0.250000  0.169506  0.541320  1
  In  In13  1  0.750000  0.830494  0.458680  1
  In  In14  1  0.750000  0.669750  0.958797  1
  In  In15  1  0.250000  0.330250  0.041203  1
  In  In16  1  0.250000  0.503330  0.425456  1
  In  In17  1  0.750000  0.496670  0.574544  1
  In  In18  1  0.750000  0.995159  0.076849  1
  In  In19  1  0.250000  0.004841  0.923151  1
  Au  Au20  1  0.250000  0.754093  0.545263  1
  Au  Au21  1  0.750000  0.245907  0.454737  1
  Au  Au22  1  0.750000  0.257995  0.959353  1
  Au  Au23  1  0.250000  0.742005  0.040647  1
  Au  Au24  1  0.250000  0.956342  0.772553  1
  Au  Au25  1  0.750000  0.043658  0.227447  1
  Au  Au26  1  0.750000  0.480092  0.721496  1
  Au  Au27  1  0.250000  0.519908  0.278504  1
