# generated using pymatgen
data_Ac3BiO7
_symmetry_space_group_name_H-M   'P 1'
_cell_length_a   7.03393076
_cell_length_b   7.05856138
_cell_length_c   8.29624874
_cell_angle_alpha   106.90921994
_cell_angle_beta   89.92198980
_cell_angle_gamma   97.81710789
_symmetry_Int_Tables_number   1
_chemical_formula_structural   Ac3BiO7
_chemical_formula_sum   'Ac6 Bi2 O14'
_cell_volume   390.11671881
_cell_formula_units_Z   2
loop_
 _symmetry_equiv_pos_site_id
 _symmetry_equiv_pos_as_xyz
  1  'x, y, z'
loop_
 _atom_site_type_symbol
 _atom_site_label
 _atom_site_symmetry_multiplicity
 _atom_site_fract_x
 _atom_site_fract_y
 _atom_site_fract_z
 _atom_site_occupancy
  Ac  Ac0  1  0.465997  0.002125  0.252951  1
  Ac  Ac1  1  0.534003  0.997875  0.747049  1
  Ac  Ac2  1  0.262478  0.528134  0.880164  1
  Ac  Ac3  1  0.737522  0.471866  0.119836  1
  Ac  Ac4  1  0.746338  0.489701  0.619209  1
  Ac  Ac5  1  0.253662  0.510299  0.380791  1
  Bi  Bi6  1  0.000000  0.000000  0.500000  1
  Bi  Bi7  1  0.000000  0.000000  0.000000  1
  O  O8  1  0.435059  0.637435  0.164990  1
  O  O9  1  0.564941  0.362565  0.835010  1
  O  O10  1  0.288310  0.932674  0.957565  1
  O  O11  1  0.711690  0.067326  0.042435  1
  O  O12  1  0.284049  0.927047  0.508587  1
  O  O13  1  0.715951  0.072953  0.491413  1
  O  O14  1  0.551132  0.364418  0.346050  1
  O  O15  1  0.448868  0.635582  0.653950  1
  O  O16  1  0.924325  0.682839  0.951766  1
  O  O17  1  0.075675  0.317161  0.048234  1
  O  O18  1  0.077366  0.323459  0.608487  1
  O  O19  1  0.922634  0.676541  0.391513  1
  O  O20  1  0.904073  0.927243  0.731200  1
  O  O21  1  0.095927  0.072757  0.268800  1
