# generated using pymatgen
data_Gd5(Sn5Ru2)2
_symmetry_space_group_name_H-M   'P 1'
_cell_length_a   14.18867800
_cell_length_b   14.18867800
_cell_length_c   4.53777800
_cell_angle_alpha   90.00000000
_cell_angle_beta   90.00000000
_cell_angle_gamma   90.00000000
_symmetry_Int_Tables_number   1
_chemical_formula_structural   Gd5(Sn5Ru2)2
_chemical_formula_sum   'Gd10 Sn20 Ru8'
_cell_volume   913.53903869
_cell_formula_units_Z   2
loop_
 _symmetry_equiv_pos_site_id
 _symmetry_equiv_pos_as_xyz
  1  'x, y, z'
loop_
 _atom_site_type_symbol
 _atom_site_label
 _atom_site_symmetry_multiplicity
 _atom_site_fract_x
 _atom_site_fract_y
 _atom_site_fract_z
 _atom_site_occupancy
  Gd  Gd0  1  0.500000  0.500000  0.000000  1
  Gd  Gd1  1  0.000000  0.000000  0.000000  1
  Gd  Gd2  1  0.675044  0.175044  0.500000  1
  Gd  Gd3  1  0.324956  0.824956  0.500000  1
  Gd  Gd4  1  0.175044  0.324956  0.500000  1
  Gd  Gd5  1  0.824956  0.675044  0.500000  1
  Gd  Gd6  1  0.888077  0.388077  0.500000  1
  Gd  Gd7  1  0.111923  0.611923  0.500000  1
  Gd  Gd8  1  0.388077  0.111923  0.500000  1
  Gd  Gd9  1  0.611923  0.888077  0.500000  1
  Sn  Sn10  1  0.568970  0.068970  0.000000  1
  Sn  Sn11  1  0.431030  0.931030  0.000000  1
  Sn  Sn12  1  0.068970  0.431030  0.000000  1
  Sn  Sn13  1  0.931030  0.568970  0.000000  1
  Sn  Sn14  1  0.655340  0.697562  0.000000  1
  Sn  Sn15  1  0.344660  0.302438  0.000000  1
  Sn  Sn16  1  0.155340  0.802438  0.000000  1
  Sn  Sn17  1  0.844660  0.197562  0.000000  1
  Sn  Sn18  1  0.302438  0.655340  0.000000  1
  Sn  Sn19  1  0.697562  0.344660  0.000000  1
  Sn  Sn20  1  0.197562  0.155340  0.000000  1
  Sn  Sn21  1  0.802438  0.844660  0.000000  1
  Sn  Sn22  1  0.660544  0.507528  0.500000  1
  Sn  Sn23  1  0.339456  0.492472  0.500000  1
  Sn  Sn24  1  0.160544  0.992472  0.500000  1
  Sn  Sn25  1  0.839456  0.007528  0.500000  1
  Sn  Sn26  1  0.492472  0.660544  0.500000  1
  Sn  Sn27  1  0.507528  0.339456  0.500000  1
  Sn  Sn28  1  0.007528  0.160544  0.500000  1
  Sn  Sn29  1  0.992472  0.839456  0.500000  1
  Ru  Ru30  1  0.748965  0.526629  0.000000  1
  Ru  Ru31  1  0.251035  0.473371  0.000000  1
  Ru  Ru32  1  0.248965  0.973371  0.000000  1
  Ru  Ru33  1  0.751035  0.026629  0.000000  1
  Ru  Ru34  1  0.473371  0.748965  0.000000  1
  Ru  Ru35  1  0.526629  0.251035  0.000000  1
  Ru  Ru36  1  0.026629  0.248965  0.000000  1
  Ru  Ru37  1  0.973371  0.751035  0.000000  1
