# generated using pymatgen
data_Nd9Dy(InSi2)2
_symmetry_space_group_name_H-M   'P 1'
_cell_length_a   9.22073455
_cell_length_b   9.22055954
_cell_length_c   9.21732200
_cell_angle_alpha   129.25824820
_cell_angle_beta   129.26933364
_cell_angle_gamma   74.60651744
_symmetry_Int_Tables_number   1
_chemical_formula_structural   Nd9Dy(InSi2)2
_chemical_formula_sum   'Nd9 Dy1 In2 Si4'
_cell_volume   457.67644338
_cell_formula_units_Z   1
loop_
 _symmetry_equiv_pos_site_id
 _symmetry_equiv_pos_as_xyz
  1  'x, y, z'
loop_
 _atom_site_type_symbol
 _atom_site_label
 _atom_site_symmetry_multiplicity
 _atom_site_fract_x
 _atom_site_fract_y
 _atom_site_fract_z
 _atom_site_occupancy
  Nd  Nd0  1  0.536680  0.039743  0.852818  1
  Nd  Nd1  1  0.186937  0.683882  0.147250  1
  Nd  Nd2  1  0.039869  0.186863  0.503035  1
  Nd  Nd3  1  0.683854  0.536856  0.497005  1
  Nd  Nd4  1  0.463320  0.960257  0.147182  1
  Nd  Nd5  1  0.813063  0.316118  0.852750  1
  Nd  Nd6  1  0.960131  0.813137  0.496965  1
  Nd  Nd7  1  0.316146  0.463144  0.502995  1
  Nd  Nd8  1  0.000000  0.000000  0.000000  1
  Dy  Dy9  1  0.500000  0.500000  0.000000  1
  In  In10  1  0.249848  0.249871  0.000006  1
  In  In11  1  0.750152  0.750129  0.999994  1
  Si  Si12  1  0.880912  0.384112  0.265029  1
  Si  Si13  1  0.119088  0.615888  0.734971  1
  Si  Si14  1  0.384196  0.118953  0.503151  1
  Si  Si15  1  0.615804  0.881047  0.496849  1
