# generated using pymatgen
data_Yb3ErMoOs7
_symmetry_space_group_name_H-M   'P 1'
_cell_length_a   5.38333600
_cell_length_b   5.38333487
_cell_length_c   8.58634300
_cell_angle_alpha   90.00000000
_cell_angle_beta   90.00000000
_cell_angle_gamma   119.99999468
_symmetry_Int_Tables_number   1
_chemical_formula_structural   Yb3ErMoOs7
_chemical_formula_sum   'Yb3 Er1 Mo1 Os7'
_cell_volume   215.49726908
_cell_formula_units_Z   1
loop_
 _symmetry_equiv_pos_site_id
 _symmetry_equiv_pos_as_xyz
  1  'x, y, z'
loop_
 _atom_site_type_symbol
 _atom_site_label
 _atom_site_symmetry_multiplicity
 _atom_site_fract_x
 _atom_site_fract_y
 _atom_site_fract_z
 _atom_site_occupancy
  Yb  Yb0  1  0.666667  0.333333  0.573759  1
  Yb  Yb1  1  0.666667  0.333333  0.935615  1
  Yb  Yb2  1  0.333333  0.666667  0.059267  1
  Er  Er3  1  0.333333  0.666667  0.427575  1
  Mo  Mo4  1  0.000000  0.000000  0.500899  1
  Os  Os5  1  0.000000  0.000000  0.001505  1
  Os  Os6  1  0.826978  0.173022  0.251229  1
  Os  Os7  1  0.826978  0.653956  0.251229  1
  Os  Os8  1  0.346044  0.173022  0.251229  1
  Os  Os9  1  0.172536  0.827464  0.749231  1
  Os  Os10  1  0.172536  0.345072  0.749231  1
  Os  Os11  1  0.654928  0.827464  0.749231  1
