# generated using pymatgen
data_Tb2Ga2(SiPt)3
_symmetry_space_group_name_H-M   'P 1'
_cell_length_a   8.32867243
_cell_length_b   8.32867364
_cell_length_c   8.32867300
_cell_angle_alpha   138.05858651
_cell_angle_beta   104.85954250
_cell_angle_gamma   89.98401540
_symmetry_Int_Tables_number   1
_chemical_formula_structural   Tb2Ga2(SiPt)3
_chemical_formula_sum   'Tb4 Ga4 Si6 Pt6'
_cell_volume   356.63443819
_cell_formula_units_Z   2
loop_
 _symmetry_equiv_pos_site_id
 _symmetry_equiv_pos_as_xyz
  1  'x, y, z'
loop_
 _atom_site_type_symbol
 _atom_site_label
 _atom_site_symmetry_multiplicity
 _atom_site_fract_x
 _atom_site_fract_y
 _atom_site_fract_z
 _atom_site_occupancy
  Tb  Tb0  1  0.634994  0.368263  0.266732  1
  Tb  Tb1  1  0.365006  0.631737  0.733268  1
  Tb  Tb2  1  0.101530  0.868263  0.233268  1
  Tb  Tb3  1  0.898470  0.131737  0.766732  1
  Ga  Ga4  1  0.269932  0.519932  0.250000  1
  Ga  Ga5  1  0.730068  0.480068  0.750000  1
  Ga  Ga6  1  0.730068  0.980068  0.250000  1
  Ga  Ga7  1  0.269932  0.019932  0.750000  1
  Si  Si8  1  0.455826  0.107060  0.348766  1
  Si  Si9  1  0.544174  0.892940  0.651234  1
  Si  Si10  1  0.758294  0.607060  0.151234  1
  Si  Si11  1  0.241706  0.392940  0.848766  1
  Si  Si12  1  0.000000  0.250000  0.250000  1
  Si  Si13  1  0.000000  0.750000  0.750000  1
  Pt  Pt14  1  0.246998  0.128081  0.118915  1
  Pt  Pt15  1  0.753002  0.871919  0.881085  1
  Pt  Pt16  1  0.009166  0.628081  0.381085  1
  Pt  Pt17  1  0.990834  0.371919  0.618915  1
  Pt  Pt18  1  0.500000  0.250000  0.750000  1
  Pt  Pt19  1  0.500000  0.750000  0.250000  1
