# generated using pymatgen
data_Y5HoAl24(OsRh)4
_symmetry_space_group_name_H-M   'P 1'
_cell_length_a   8.78357298
_cell_length_b   8.81781220
_cell_length_c   9.58047600
_cell_angle_alpha   90.00000000
_cell_angle_beta   90.00000000
_cell_angle_gamma   119.35462432
_symmetry_Int_Tables_number   1
_chemical_formula_structural   Y5HoAl24(OsRh)4
_chemical_formula_sum   'Y5 Ho1 Al24 Os4 Rh4'
_cell_volume   646.75161142
_cell_formula_units_Z   1
loop_
 _symmetry_equiv_pos_site_id
 _symmetry_equiv_pos_as_xyz
  1  'x, y, z'
loop_
 _atom_site_type_symbol
 _atom_site_label
 _atom_site_symmetry_multiplicity
 _atom_site_fract_x
 _atom_site_fract_y
 _atom_site_fract_z
 _atom_site_occupancy
  Y  Y0  1  0.190393  0.382187  0.250000  1
  Y  Y1  1  0.809584  0.617673  0.750000  1
  Y  Y2  1  0.614462  0.813581  0.250000  1
  Y  Y3  1  0.385812  0.186418  0.750000  1
  Y  Y4  1  0.198104  0.812477  0.250000  1
  Ho  Ho5  1  0.801095  0.187417  0.750000  1
  Al  Al6  1  0.333186  0.667610  0.024678  1
  Al  Al7  1  0.667022  0.332336  0.974996  1
  Al  Al8  1  0.667022  0.332336  0.525004  1
  Al  Al9  1  0.333186  0.667610  0.475322  1
  Al  Al10  1  0.162921  0.325621  0.577471  1
  Al  Al11  1  0.836789  0.674212  0.422740  1
  Al  Al12  1  0.672263  0.836806  0.576837  1
  Al  Al13  1  0.836789  0.674212  0.077260  1
  Al  Al14  1  0.327911  0.163426  0.423387  1
  Al  Al15  1  0.162921  0.325621  0.922529  1
  Al  Al16  1  0.164805  0.836447  0.576865  1
  Al  Al17  1  0.327911  0.163426  0.076613  1
  Al  Al18  1  0.835230  0.163573  0.423450  1
  Al  Al19  1  0.672263  0.836806  0.923163  1
  Al  Al20  1  0.835230  0.163573  0.076550  1
  Al  Al21  1  0.164805  0.836447  0.923135  1
  Al  Al22  1  0.562951  0.127374  0.250000  1
  Al  Al23  1  0.437364  0.872778  0.750000  1
  Al  Al24  1  0.878278  0.440596  0.250000  1
  Al  Al25  1  0.121431  0.558986  0.750000  1
  Al  Al26  1  0.562030  0.439916  0.250000  1
  Al  Al27  1  0.437964  0.560096  0.750000  1
  Al  Al28  1  0.000669  0.002260  0.250000  1
  Al  Al29  1  0.998968  0.998107  0.750000  1
  Os  Os30  1  0.500341  0.000196  0.999717  1
  Os  Os31  1  0.500341  0.000196  0.500283  1
  Os  Os32  1  0.000012  0.999979  0.000012  1
  Os  Os33  1  0.000012  0.999979  0.499988  1
  Rh  Rh34  1  0.999949  0.499888  0.999924  1
  Rh  Rh35  1  0.500018  0.499973  0.999988  1
  Rh  Rh36  1  0.999949  0.499888  0.500076  1
  Rh  Rh37  1  0.500018  0.499973  0.500012  1
