# generated using pymatgen
data_Eu2BeH6
_symmetry_space_group_name_H-M   'P 1'
_cell_length_a   4.99703366
_cell_length_b   4.99703372
_cell_length_c   4.99703300
_cell_angle_alpha   59.99999817
_cell_angle_beta   59.99999778
_cell_angle_gamma   60.00000273
_symmetry_Int_Tables_number   1
_chemical_formula_structural   Eu2BeH6
_chemical_formula_sum   'Eu2 Be1 H6'
_cell_volume   88.23111567
_cell_formula_units_Z   1
loop_
 _symmetry_equiv_pos_site_id
 _symmetry_equiv_pos_as_xyz
  1  'x, y, z'
loop_
 _atom_site_type_symbol
 _atom_site_label
 _atom_site_symmetry_multiplicity
 _atom_site_fract_x
 _atom_site_fract_y
 _atom_site_fract_z
 _atom_site_occupancy
  Eu  Eu0  1  0.750000  0.750000  0.750000  1
  Eu  Eu1  1  0.250000  0.250000  0.250000  1
  Be  Be2  1  0.000000  0.000000  0.000000  1
  H  H3  1  0.770263  0.770263  0.229737  1
  H  H4  1  0.229737  0.770263  0.229737  1
  H  H5  1  0.770263  0.229737  0.229737  1
  H  H6  1  0.229737  0.229737  0.770263  1
  H  H7  1  0.770263  0.229737  0.770263  1
  H  H8  1  0.229737  0.770263  0.770263  1
