# generated using pymatgen
data_Pr2GaSiBr2
_symmetry_space_group_name_H-M   'P 1'
_cell_length_a   4.16284800
_cell_length_b   4.16284876
_cell_length_c   11.85490900
_cell_angle_alpha   90.00000000
_cell_angle_beta   90.00000000
_cell_angle_gamma   119.99999394
_symmetry_Int_Tables_number   1
_chemical_formula_structural   Pr2GaSiBr2
_chemical_formula_sum   'Pr2 Ga1 Si1 Br2'
_cell_volume   177.91397769
_cell_formula_units_Z   1
loop_
 _symmetry_equiv_pos_site_id
 _symmetry_equiv_pos_as_xyz
  1  'x, y, z'
loop_
 _atom_site_type_symbol
 _atom_site_label
 _atom_site_symmetry_multiplicity
 _atom_site_fract_x
 _atom_site_fract_y
 _atom_site_fract_z
 _atom_site_occupancy
  Pr  Pr0  1  0.000000  0.000000  0.178753  1
  Pr  Pr1  1  0.000000  0.000000  0.820516  1
  Ga  Ga2  1  0.333333  0.666667  0.015356  1
  Si  Si3  1  0.666667  0.333333  0.985482  1
  Br  Br4  1  0.333333  0.666667  0.661047  1
  Br  Br5  1  0.666667  0.333333  0.338845  1
