# generated using pymatgen
data_TbDy(AlSi)2
_symmetry_space_group_name_H-M   'P 1'
_cell_length_a   5.52991698
_cell_length_b   5.52991678
_cell_length_c   5.70422800
_cell_angle_alpha   90.00000000
_cell_angle_beta   90.00000000
_cell_angle_gamma   137.22188539
_symmetry_Int_Tables_number   1
_chemical_formula_structural   TbDy(AlSi)2
_chemical_formula_sum   'Tb1 Dy1 Al2 Si2'
_cell_volume   118.46957096
_cell_formula_units_Z   1
loop_
 _symmetry_equiv_pos_site_id
 _symmetry_equiv_pos_as_xyz
  1  'x, y, z'
loop_
 _atom_site_type_symbol
 _atom_site_label
 _atom_site_symmetry_multiplicity
 _atom_site_fract_x
 _atom_site_fract_y
 _atom_site_fract_z
 _atom_site_occupancy
  Tb  Tb0  1  0.694371  0.305629  0.250000  1
  Dy  Dy1  1  0.305727  0.694273  0.750000  1
  Al  Al2  1  0.999965  0.000035  0.999969  1
  Al  Al3  1  0.999965  0.000035  0.500031  1
  Si  Si4  1  0.400161  0.599839  0.250000  1
  Si  Si5  1  0.599811  0.400189  0.750000  1
