# generated using pymatgen
data_Zr14Nb2Co5Ir3N4
_symmetry_space_group_name_H-M   'P 1'
_cell_length_a   8.63251642
_cell_length_b   8.66516537
_cell_length_c   8.73228300
_cell_angle_alpha   59.74343851
_cell_angle_beta   59.61694931
_cell_angle_gamma   59.47427227
_symmetry_Int_Tables_number   1
_chemical_formula_structural   Zr14Nb2Co5Ir3N4
_chemical_formula_sum   'Zr14 Nb2 Co5 Ir3 N4'
_cell_volume   457.79506265
_cell_formula_units_Z   1
loop_
 _symmetry_equiv_pos_site_id
 _symmetry_equiv_pos_as_xyz
  1  'x, y, z'
loop_
 _atom_site_type_symbol
 _atom_site_label
 _atom_site_symmetry_multiplicity
 _atom_site_fract_x
 _atom_site_fract_y
 _atom_site_fract_z
 _atom_site_occupancy
  Zr  Zr0  1  0.178681  0.606665  0.607327  1
  Zr  Zr1  1  0.607985  0.165250  0.613383  1
  Zr  Zr2  1  0.810520  0.811308  0.189086  1
  Zr  Zr3  1  0.183212  0.182267  0.817260  1
  Zr  Zr4  1  0.812421  0.185087  0.816592  1
  Zr  Zr5  1  0.185882  0.813816  0.183798  1
  Zr  Zr6  1  0.185882  0.813816  0.816503  1
  Zr  Zr7  1  0.812421  0.185087  0.185899  1
  Zr  Zr8  1  0.436814  0.436875  0.063156  1
  Zr  Zr9  1  0.061962  0.062497  0.437771  1
  Zr  Zr10  1  0.436503  0.061023  0.438080  1
  Zr  Zr11  1  0.059455  0.437485  0.063710  1
  Zr  Zr12  1  0.059455  0.437485  0.439351  1
  Zr  Zr13  1  0.436503  0.061023  0.064396  1
  Nb  Nb14  1  0.610074  0.615385  0.153475  1
  Nb  Nb15  1  0.610074  0.615385  0.621065  1
  Co  Co16  1  0.772569  0.425786  0.400822  1
  Co  Co17  1  0.424350  0.785401  0.395125  1
  Co  Co18  1  0.409208  0.403396  0.801653  1
  Co  Co19  1  0.409208  0.403396  0.385743  1
  Co  Co20  1  0.509474  0.827102  0.831712  1
  Ir  Ir21  1  0.829795  0.506648  0.831779  1
  Ir  Ir22  1  0.830435  0.830313  0.505767  1
  Ir  Ir23  1  0.830435  0.830313  0.833485  1
  N  N24  1  0.627085  0.122370  0.125272  1
  N  N25  1  0.122208  0.626468  0.125662  1
  N  N26  1  0.123693  0.124177  0.625819  1
  N  N27  1  0.123693  0.124177  0.126312  1
