# generated using pymatgen
data_Dy2Lu2TcB12Rh
_symmetry_space_group_name_H-M   'P 1'
_cell_length_a   3.64362000
_cell_length_b   9.07801350
_cell_length_c   11.47888625
_cell_angle_alpha   90.31020959
_cell_angle_beta   90.00000000
_cell_angle_gamma   90.00000000
_symmetry_Int_Tables_number   1
_chemical_formula_structural   Dy2Lu2TcB12Rh
_chemical_formula_sum   'Dy4 Lu4 Tc2 B24 Rh2'
_cell_volume   379.67962199
_cell_formula_units_Z   2
loop_
 _symmetry_equiv_pos_site_id
 _symmetry_equiv_pos_as_xyz
  1  'x, y, z'
loop_
 _atom_site_type_symbol
 _atom_site_label
 _atom_site_symmetry_multiplicity
 _atom_site_fract_x
 _atom_site_fract_y
 _atom_site_fract_z
 _atom_site_occupancy
  Dy  Dy0  1  0.500000  0.318431  0.411458  1
  Dy  Dy1  1  0.500000  0.681569  0.588542  1
  Dy  Dy2  1  0.500000  0.174395  0.916845  1
  Dy  Dy3  1  0.500000  0.825605  0.083155  1
  Lu  Lu4  1  0.500000  0.441898  0.126629  1
  Lu  Lu5  1  0.500000  0.558102  0.873371  1
  Lu  Lu6  1  0.500000  0.053478  0.628361  1
  Lu  Lu7  1  0.500000  0.946522  0.371639  1
  Tc  Tc8  1  0.500000  0.139854  0.180704  1
  Tc  Tc9  1  0.500000  0.860146  0.819296  1
  B  B10  1  0.000000  0.104223  0.472218  1
  B  B11  1  0.000000  0.895777  0.527782  1
  B  B12  1  0.000000  0.396895  0.971382  1
  B  B13  1  0.000000  0.603105  0.028618  1
  B  B14  1  0.000000  0.131487  0.315621  1
  B  B15  1  0.000000  0.868513  0.684379  1
  B  B16  1  0.000000  0.368459  0.817158  1
  B  B17  1  0.000000  0.631541  0.182842  1
  B  B18  1  0.000000  0.053600  0.067759  1
  B  B19  1  0.000000  0.946400  0.932241  1
  B  B20  1  0.000000  0.444961  0.566156  1
  B  B21  1  0.000000  0.555039  0.433844  1
  B  B22  1  0.000000  0.483378  0.287003  1
  B  B23  1  0.000000  0.516622  0.712997  1
  B  B24  1  0.000000  0.017066  0.786205  1
  B  B25  1  0.000000  0.982934  0.213795  1
  B  B26  1  0.000000  0.249958  0.081583  1
  B  B27  1  0.000000  0.750042  0.918417  1
  B  B28  1  0.000000  0.249122  0.579290  1
  B  B29  1  0.000000  0.750878  0.420710  1
  B  B30  1  0.000000  0.293697  0.234905  1
  B  B31  1  0.000000  0.706303  0.765095  1
  B  B32  1  0.000000  0.207627  0.735037  1
  B  B33  1  0.000000  0.792373  0.264963  1
  Rh  Rh34  1  0.500000  0.361009  0.679571  1
  Rh  Rh35  1  0.500000  0.638991  0.320429  1
