# generated using pymatgen
data_La16Pr4Si15Pd
_symmetry_space_group_name_H-M   'P 1'
_cell_length_a   8.01745492
_cell_length_b   8.03227512
_cell_length_c   15.50052600
_cell_angle_alpha   89.93894698
_cell_angle_beta   89.59842733
_cell_angle_gamma   90.10087529
_symmetry_Int_Tables_number   1
_chemical_formula_structural   La16Pr4Si15Pd
_chemical_formula_sum   'La16 Pr4 Si15 Pd1'
_cell_volume   998.18248564
_cell_formula_units_Z   1
loop_
 _symmetry_equiv_pos_site_id
 _symmetry_equiv_pos_as_xyz
  1  'x, y, z'
loop_
 _atom_site_type_symbol
 _atom_site_label
 _atom_site_symmetry_multiplicity
 _atom_site_fract_x
 _atom_site_fract_y
 _atom_site_fract_z
 _atom_site_occupancy
  La  La0  1  0.307442  0.306935  0.998304  1
  La  La1  1  0.192793  0.807719  0.249116  1
  La  La2  1  0.809433  0.186434  0.752169  1
  La  La3  1  0.692568  0.685253  0.498723  1
  La  La4  1  0.374378  0.010192  0.447191  1
  La  La5  1  0.492207  0.871420  0.697626  1
  La  La6  1  0.509460  0.123722  0.197930  1
  La  La7  1  0.876779  0.488658  0.301106  1
  La  La8  1  0.122801  0.515009  0.800759  1
  La  La9  1  0.628422  0.988780  0.949384  1
  La  La10  1  0.000698  0.379525  0.549720  1
  La  La11  1  0.990020  0.624493  0.053210  1
  La  La12  1  0.135291  0.988037  0.875682  1
  La  La13  1  0.515449  0.630399  0.127444  1
  La  La14  1  0.476192  0.366484  0.627302  1
  La  La15  1  0.629945  0.518575  0.874281  1
  Pr  Pr16  1  0.370420  0.483187  0.373046  1
  Pr  Pr17  1  0.872279  0.017591  0.376987  1
  Pr  Pr18  1  0.982991  0.126333  0.125357  1
  Pr  Pr19  1  0.018206  0.874110  0.621393  1
  Si  Si20  1  0.332534  0.697373  0.951933  1
  Si  Si21  1  0.661707  0.300875  0.451144  1
  Si  Si22  1  0.700230  0.334679  0.050495  1
  Si  Si23  1  0.301555  0.668652  0.547044  1
  Si  Si24  1  0.804564  0.833439  0.203983  1
  Si  Si25  1  0.165566  0.197591  0.299110  1
  Si  Si26  1  0.837301  0.803402  0.795874  1
  Si  Si27  1  0.288024  0.922650  0.058689  1
  Si  Si28  1  0.579952  0.788512  0.309999  1
  Si  Si29  1  0.431971  0.208359  0.812326  1
  Si  Si30  1  0.788965  0.580796  0.689890  1
  Si  Si31  1  0.210746  0.418725  0.191453  1
  Si  Si32  1  0.705011  0.076167  0.558193  1
  Si  Si33  1  0.920166  0.288895  0.943041  1
  Si  Si34  1  0.079333  0.714013  0.440918  1
  Pd  Pd35  1  0.194604  0.173012  0.699181  1
