# generated using pymatgen
data_SrTbNd5CoI12
_symmetry_space_group_name_H-M   'P 1'
_cell_length_a   10.01060754
_cell_length_b   9.90632360
_cell_length_c   10.02181215
_cell_angle_alpha   106.20736805
_cell_angle_beta   106.17010842
_cell_angle_gamma   106.40604146
_symmetry_Int_Tables_number   1
_chemical_formula_structural   SrTbNd5CoI12
_chemical_formula_sum   'Sr1 Tb1 Nd5 Co1 I12'
_cell_volume   843.80742571
_cell_formula_units_Z   1
loop_
 _symmetry_equiv_pos_site_id
 _symmetry_equiv_pos_as_xyz
  1  'x, y, z'
loop_
 _atom_site_type_symbol
 _atom_site_label
 _atom_site_symmetry_multiplicity
 _atom_site_fract_x
 _atom_site_fract_y
 _atom_site_fract_z
 _atom_site_occupancy
  Sr  Sr0  1  0.499713  0.500241  0.500015  1
  Tb  Tb1  1  0.707609  0.979370  0.906073  1
  Nd  Nd2  1  0.020225  0.096189  0.299232  1
  Nd  Nd3  1  0.090134  0.285504  0.019709  1
  Nd  Nd4  1  0.300371  0.020369  0.095658  1
  Nd  Nd5  1  0.979002  0.903862  0.700442  1
  Nd  Nd6  1  0.906984  0.714042  0.979542  1
  Co  Co7  1  0.999438  0.999529  0.999721  1
  I  I8  1  0.142565  0.454545  0.371751  1
  I  I9  1  0.451642  0.373025  0.141406  1
  I  I10  1  0.371004  0.140564  0.452650  1
  I  I11  1  0.857068  0.545346  0.628385  1
  I  I12  1  0.548854  0.634725  0.859245  1
  I  I13  1  0.628884  0.863124  0.555292  1
  I  I14  1  0.676510  0.071280  0.217204  1
  I  I15  1  0.074199  0.227207  0.677932  1
  I  I16  1  0.222674  0.675986  0.072618  1
  I  I17  1  0.325838  0.927025  0.775536  1
  I  I18  1  0.925487  0.772746  0.322080  1
  I  I19  1  0.771796  0.315320  0.925509  1
