# generated using pymatgen
data_Ho20Os4Au7Se
_symmetry_space_group_name_H-M   'P 1'
_cell_length_a   7.56805538
_cell_length_b   9.09020889
_cell_length_c   11.83957000
_cell_angle_alpha   90.25984924
_cell_angle_beta   89.96538657
_cell_angle_gamma   89.89465697
_symmetry_Int_Tables_number   1
_chemical_formula_structural   Ho20Os4Au7Se
_chemical_formula_sum   'Ho20 Os4 Au7 Se1'
_cell_volume   814.49573158
_cell_formula_units_Z   1
loop_
 _symmetry_equiv_pos_site_id
 _symmetry_equiv_pos_as_xyz
  1  'x, y, z'
loop_
 _atom_site_type_symbol
 _atom_site_label
 _atom_site_symmetry_multiplicity
 _atom_site_fract_x
 _atom_site_fract_y
 _atom_site_fract_z
 _atom_site_occupancy
  Ho  Ho0  1  0.837996  0.749436  0.779678  1
  Ho  Ho1  1  0.162431  0.246252  0.221749  1
  Ho  Ho2  1  0.339692  0.252343  0.721879  1
  Ho  Ho3  1  0.664041  0.751086  0.275702  1
  Ho  Ho4  1  0.369589  0.748622  0.693520  1
  Ho  Ho5  1  0.643824  0.247997  0.309849  1
  Ho  Ho6  1  0.852616  0.249974  0.811853  1
  Ho  Ho7  1  0.140219  0.750915  0.191169  1
  Ho  Ho8  1  0.958290  0.754507  0.493416  1
  Ho  Ho9  1  0.045397  0.247442  0.502569  1
  Ho  Ho10  1  0.453091  0.250409  0.001946  1
  Ho  Ho11  1  0.543489  0.748193  0.995736  1
  Ho  Ho12  1  0.671244  0.033134  0.582990  1
  Ho  Ho13  1  0.331202  0.970398  0.412640  1
  Ho  Ho14  1  0.174780  0.968668  0.923943  1
  Ho  Ho15  1  0.326408  0.532851  0.416616  1
  Ho  Ho16  1  0.819769  0.030462  0.079296  1
  Ho  Ho17  1  0.679744  0.469712  0.581519  1
  Ho  Ho18  1  0.823213  0.468168  0.084463  1
  Ho  Ho19  1  0.170599  0.529099  0.916323  1
  Os  Os20  1  0.572509  0.752060  0.502727  1
  Os  Os21  1  0.428264  0.250947  0.495683  1
  Os  Os22  1  0.066320  0.249762  0.996560  1
  Os  Os23  1  0.928632  0.749214  0.004990  1
  Au  Au24  1  0.567032  0.492426  0.833460  1
  Au  Au25  1  0.434096  0.506832  0.164605  1
  Au  Au26  1  0.069296  0.509768  0.662739  1
  Au  Au27  1  0.432034  0.992461  0.161623  1
  Au  Au28  1  0.936141  0.491815  0.338538  1
  Au  Au29  1  0.563642  0.004951  0.834631  1
  Au  Au30  1  0.935958  0.007921  0.334208  1
  Se  Se31  1  0.058446  0.992176  0.673378  1
