# generated using pymatgen
data_Lu3AgSn3Ir2
_symmetry_space_group_name_H-M   'P 1'
_cell_length_a   7.62599600
_cell_length_b   7.62599527
_cell_length_c   3.82380700
_cell_angle_alpha   90.00000000
_cell_angle_beta   90.00000000
_cell_angle_gamma   120.00000200
_symmetry_Int_Tables_number   1
_chemical_formula_structural   Lu3AgSn3Ir2
_chemical_formula_sum   'Lu3 Ag1 Sn3 Ir2'
_cell_volume   192.58377328
_cell_formula_units_Z   1
loop_
 _symmetry_equiv_pos_site_id
 _symmetry_equiv_pos_as_xyz
  1  'x, y, z'
loop_
 _atom_site_type_symbol
 _atom_site_label
 _atom_site_symmetry_multiplicity
 _atom_site_fract_x
 _atom_site_fract_y
 _atom_site_fract_z
 _atom_site_occupancy
  Lu  Lu0  1  0.975303  0.383488  0.500000  1
  Lu  Lu1  1  0.616512  0.591815  0.500000  1
  Lu  Lu2  1  0.408185  0.024697  0.500000  1
  Ag  Ag3  1  0.333333  0.666667  0.000000  1
  Sn  Sn4  1  0.003315  0.740165  0.000000  1
  Sn  Sn5  1  0.259835  0.263150  0.000000  1
  Sn  Sn6  1  0.736850  0.996685  0.000000  1
  Ir  Ir7  1  0.666667  0.333333  0.000000  1
  Ir  Ir8  1  0.000000  0.000000  0.500000  1
