# generated using pymatgen
data_Li2Nd3ThSi6
_symmetry_space_group_name_H-M   'P 1'
_cell_length_a   10.98573029
_cell_length_b   9.27329628
_cell_length_c   8.31245200
_cell_angle_alpha   77.10507388
_cell_angle_beta   55.36949746
_cell_angle_gamma   47.52541576
_symmetry_Int_Tables_number   1
_chemical_formula_structural   Li2Nd3ThSi6
_chemical_formula_sum   'Li4 Nd6 Th2 Si12'
_cell_volume   495.62399502
_cell_formula_units_Z   2
loop_
 _symmetry_equiv_pos_site_id
 _symmetry_equiv_pos_as_xyz
  1  'x, y, z'
loop_
 _atom_site_type_symbol
 _atom_site_label
 _atom_site_symmetry_multiplicity
 _atom_site_fract_x
 _atom_site_fract_y
 _atom_site_fract_z
 _atom_site_occupancy
  Li  Li0  1  0.832842  0.167158  0.832842  1
  Li  Li1  1  0.167158  0.832842  0.167158  1
  Li  Li2  1  0.416862  0.083138  0.416862  1
  Li  Li3  1  0.083138  0.416862  0.083138  1
  Nd  Nd4  1  0.627016  0.627016  0.872984  1
  Nd  Nd5  1  0.872984  0.872984  0.627016  1
  Nd  Nd6  1  0.124013  0.124013  0.875987  1
  Nd  Nd7  1  0.875987  0.875987  0.124013  1
  Nd  Nd8  1  0.126179  0.126179  0.373821  1
  Nd  Nd9  1  0.373821  0.373821  0.126179  1
  Th  Th10  1  0.623051  0.623051  0.376949  1
  Th  Th11  1  0.376949  0.376949  0.623051  1
  Si  Si12  1  0.171964  0.835365  0.661017  1
  Si  Si13  1  0.331653  0.661017  0.835365  1
  Si  Si14  1  0.661017  0.331653  0.171964  1
  Si  Si15  1  0.835365  0.171964  0.331653  1
  Si  Si16  1  0.078734  0.413495  0.588900  1
  Si  Si17  1  0.918872  0.588900  0.413495  1
  Si  Si18  1  0.588900  0.918872  0.078734  1
  Si  Si19  1  0.413495  0.078734  0.918872  1
  Si  Si20  1  0.666850  0.333150  0.666850  1
  Si  Si21  1  0.333150  0.666850  0.333150  1
  Si  Si22  1  0.582693  0.917307  0.582693  1
  Si  Si23  1  0.917307  0.582693  0.917307  1
