# generated using pymatgen
data_Tb3Ho(AlRu)4
_symmetry_space_group_name_H-M   'P 1'
_cell_length_a   4.03266900
_cell_length_b   7.06006549
_cell_length_c   8.09921522
_cell_angle_alpha   89.94805825
_cell_angle_beta   90.00000000
_cell_angle_gamma   90.00000000
_symmetry_Int_Tables_number   1
_chemical_formula_structural   Tb3Ho(AlRu)4
_chemical_formula_sum   'Tb3 Ho1 Al4 Ru4'
_cell_volume   230.59191051
_cell_formula_units_Z   1
loop_
 _symmetry_equiv_pos_site_id
 _symmetry_equiv_pos_as_xyz
  1  'x, y, z'
loop_
 _atom_site_type_symbol
 _atom_site_label
 _atom_site_symmetry_multiplicity
 _atom_site_fract_x
 _atom_site_fract_y
 _atom_site_fract_z
 _atom_site_occupancy
  Tb  Tb0  1  0.250000  0.531865  0.179874  1
  Tb  Tb1  1  0.750000  0.467749  0.819700  1
  Tb  Tb2  1  0.750000  0.968209  0.679109  1
  Ho  Ho3  1  0.250000  0.032636  0.320740  1
  Al  Al4  1  0.250000  0.638438  0.558504  1
  Al  Al5  1  0.750000  0.361363  0.440598  1
  Al  Al6  1  0.750000  0.862629  0.059753  1
  Al  Al7  1  0.250000  0.137470  0.941751  1
  Ru  Ru8  1  0.250000  0.770184  0.875269  1
  Ru  Ru9  1  0.750000  0.227999  0.125939  1
  Ru  Ru10  1  0.750000  0.731056  0.374524  1
  Ru  Ru11  1  0.250000  0.270402  0.624238  1
