# generated using pymatgen
data_CePr2Pt2RhPb3
_symmetry_space_group_name_H-M   'P 1'
_cell_length_a   7.79987281
_cell_length_b   7.81029070
_cell_length_c   4.15152400
_cell_angle_alpha   90.00000000
_cell_angle_beta   90.00000000
_cell_angle_gamma   120.04417897
_symmetry_Int_Tables_number   1
_chemical_formula_structural   CePr2Pt2RhPb3
_chemical_formula_sum   'Ce1 Pr2 Pt2 Rh1 Pb3'
_cell_volume   218.92703424
_cell_formula_units_Z   1
loop_
 _symmetry_equiv_pos_site_id
 _symmetry_equiv_pos_as_xyz
  1  'x, y, z'
loop_
 _atom_site_type_symbol
 _atom_site_label
 _atom_site_symmetry_multiplicity
 _atom_site_fract_x
 _atom_site_fract_y
 _atom_site_fract_z
 _atom_site_occupancy
  Ce  Ce0  1  0.000000  0.588488  0.500000  1
  Pr  Pr1  1  0.410740  0.410099  0.500000  1
  Pr  Pr2  1  0.589260  0.999360  0.500000  1
  Pt  Pt3  1  0.680649  0.345695  0.000000  1
  Pt  Pt4  1  0.319351  0.665046  0.000000  1
  Rh  Rh5  1  0.000000  0.990208  0.500000  1
  Pb  Pb6  1  0.743777  0.747584  0.000000  1
  Pb  Pb7  1  0.256223  0.003808  0.000000  1
  Pb  Pb8  1  0.000000  0.249711  0.000000  1
