# generated using pymatgen
data_Na3Zn8
_symmetry_space_group_name_H-M   'P 1'
_cell_length_a   8.06395530
_cell_length_b   8.06395533
_cell_length_c   8.06395500
_cell_angle_alpha   109.47121980
_cell_angle_beta   109.47121989
_cell_angle_gamma   109.47122130
_symmetry_Int_Tables_number   1
_chemical_formula_structural   Na3Zn8
_chemical_formula_sum   'Na6 Zn16'
_cell_volume   403.66624491
_cell_formula_units_Z   2
loop_
 _symmetry_equiv_pos_site_id
 _symmetry_equiv_pos_as_xyz
  1  'x, y, z'
loop_
 _atom_site_type_symbol
 _atom_site_label
 _atom_site_symmetry_multiplicity
 _atom_site_fract_x
 _atom_site_fract_y
 _atom_site_fract_z
 _atom_site_occupancy
  Na  Na0  1  0.258704  0.258704  0.000000  1
  Na  Na1  1  0.741296  0.741296  0.000000  1
  Na  Na2  1  0.258704  0.000000  0.258704  1
  Na  Na3  1  0.000000  0.258704  0.258704  1
  Na  Na4  1  0.741296  0.000000  0.741296  1
  Na  Na5  1  0.000000  0.741296  0.741296  1
  Zn  Zn6  1  0.500000  0.000000  0.000000  1
  Zn  Zn7  1  0.653893  0.346106  0.000000  1
  Zn  Zn8  1  0.000000  0.500000  0.000000  1
  Zn  Zn9  1  0.346106  0.653893  0.000000  1
  Zn  Zn10  1  0.653893  0.653893  0.307786  1
  Zn  Zn11  1  0.653893  0.000000  0.346106  1
  Zn  Zn12  1  0.692213  0.346106  0.346106  1
  Zn  Zn13  1  0.000000  0.653893  0.346106  1
  Zn  Zn14  1  0.346106  0.692213  0.346106  1
  Zn  Zn15  1  0.000000  0.000000  0.500000  1
  Zn  Zn16  1  0.500000  0.500000  0.500000  1
  Zn  Zn17  1  0.346106  0.000000  0.653893  1
  Zn  Zn18  1  0.653893  0.307786  0.653893  1
  Zn  Zn19  1  0.000000  0.346106  0.653893  1
  Zn  Zn20  1  0.307786  0.653893  0.653893  1
  Zn  Zn21  1  0.346106  0.346106  0.692213  1
