# generated using pymatgen
data_Yb6Ti2MoH27
_symmetry_space_group_name_H-M   'P 1'
_cell_length_a   8.56726600
_cell_length_b   8.56726787
_cell_length_c   4.93616900
_cell_angle_alpha   90.00000000
_cell_angle_beta   90.00000000
_cell_angle_gamma   120.00000823
_symmetry_Int_Tables_number   1
_chemical_formula_structural   Yb6Ti2MoH27
_chemical_formula_sum   'Yb6 Ti2 Mo1 H27'
_cell_volume   313.76551737
_cell_formula_units_Z   1
loop_
 _symmetry_equiv_pos_site_id
 _symmetry_equiv_pos_as_xyz
  1  'x, y, z'
loop_
 _atom_site_type_symbol
 _atom_site_label
 _atom_site_symmetry_multiplicity
 _atom_site_fract_x
 _atom_site_fract_y
 _atom_site_fract_z
 _atom_site_occupancy
  Yb  Yb0  1  0.000527  0.259499  0.500000  1
  Yb  Yb1  1  0.740501  0.741029  0.500000  1
  Yb  Yb2  1  0.258971  0.999473  0.500000  1
  Yb  Yb3  1  0.971482  0.597160  0.000000  1
  Yb  Yb4  1  0.402840  0.374323  0.000000  1
  Yb  Yb5  1  0.625677  0.028518  0.000000  1
  Ti  Ti6  1  0.666667  0.333333  0.500000  1
  Ti  Ti7  1  0.000000  0.000000  0.000000  1
  Mo  Mo8  1  0.333333  0.666667  0.500000  1
  H  H9  1  0.822436  0.328476  0.753098  1
  H  H10  1  0.671524  0.493958  0.753098  1
  H  H11  1  0.506042  0.177564  0.753098  1
  H  H12  1  0.188335  0.524434  0.241242  1
  H  H13  1  0.506042  0.177564  0.246902  1
  H  H14  1  0.822436  0.328476  0.246902  1
  H  H15  1  0.671524  0.493958  0.246902  1
  H  H16  1  0.336097  0.811665  0.758758  1
  H  H17  1  0.475566  0.663903  0.758758  1
  H  H18  1  0.218566  0.006960  0.000000  1
  H  H19  1  0.788392  0.781434  0.000000  1
  H  H20  1  0.993040  0.211608  0.000000  1
  H  H21  1  0.841496  0.000272  0.251025  1
  H  H22  1  0.158776  0.158504  0.748975  1
  H  H23  1  0.999728  0.841224  0.748975  1
  H  H24  1  0.999728  0.841224  0.251025  1
  H  H25  1  0.158776  0.158504  0.251025  1
  H  H26  1  0.841496  0.000272  0.748975  1
  H  H27  1  0.132986  0.670262  0.500000  1
  H  H28  1  0.537277  0.867014  0.500000  1
  H  H29  1  0.329738  0.462723  0.500000  1
  H  H30  1  0.452495  0.327036  0.500000  1
  H  H31  1  0.874541  0.547505  0.500000  1
  H  H32  1  0.672964  0.125459  0.500000  1
  H  H33  1  0.188335  0.524434  0.758758  1
  H  H34  1  0.336097  0.811665  0.241242  1
  H  H35  1  0.475566  0.663903  0.241242  1
