# generated using pymatgen
data_Ho4NbMoRu6
_symmetry_space_group_name_H-M   'P 1'
_cell_length_a   5.58747460
_cell_length_b   5.18612961
_cell_length_c   9.16548500
_cell_angle_alpha   90.00000000
_cell_angle_beta   90.00000000
_cell_angle_gamma   122.76119417
_symmetry_Int_Tables_number   1
_chemical_formula_structural   Ho4NbMoRu6
_chemical_formula_sum   'Ho4 Nb1 Mo1 Ru6'
_cell_volume   223.34484418
_cell_formula_units_Z   1
loop_
 _symmetry_equiv_pos_site_id
 _symmetry_equiv_pos_as_xyz
  1  'x, y, z'
loop_
 _atom_site_type_symbol
 _atom_site_label
 _atom_site_symmetry_multiplicity
 _atom_site_fract_x
 _atom_site_fract_y
 _atom_site_fract_z
 _atom_site_occupancy
  Ho  Ho0  1  0.670174  0.340279  0.568873  1
  Ho  Ho1  1  0.329421  0.659038  0.435775  1
  Ho  Ho2  1  0.329421  0.659038  0.064225  1
  Ho  Ho3  1  0.670174  0.340279  0.931127  1
  Nb  Nb4  1  0.845029  0.689748  0.250000  1
  Mo  Mo5  1  0.154306  0.308439  0.750000  1
  Ru  Ru6  1  0.002995  0.006015  0.503228  1
  Ru  Ru7  1  0.002995  0.006015  0.996772  1
  Ru  Ru8  1  0.169069  0.813144  0.750000  1
  Ru  Ru9  1  0.644479  0.813368  0.750000  1
  Ru  Ru10  1  0.829540  0.182276  0.250000  1
  Ru  Ru11  1  0.352395  0.182360  0.250000  1
