# generated using pymatgen
data_Yb12Er5Tm3Si16
_symmetry_space_group_name_H-M   'P 1'
_cell_length_a   7.36161103
_cell_length_b   7.77726802
_cell_length_c   15.02983403
_cell_angle_alpha   90.00100442
_cell_angle_beta   89.99290561
_cell_angle_gamma   90.00838696
_symmetry_Int_Tables_number   1
_chemical_formula_structural   Yb12Er5Tm3Si16
_chemical_formula_sum   'Yb12 Er5 Tm3 Si16'
_cell_volume   860.50640952
_cell_formula_units_Z   1
loop_
 _symmetry_equiv_pos_site_id
 _symmetry_equiv_pos_as_xyz
  1  'x, y, z'
loop_
 _atom_site_type_symbol
 _atom_site_label
 _atom_site_symmetry_multiplicity
 _atom_site_fract_x
 _atom_site_fract_y
 _atom_site_fract_z
 _atom_site_occupancy
  Yb  Yb0  1  0.972913  0.816403  0.403771  1
  Yb  Yb1  1  0.472964  0.683567  0.096234  1
  Yb  Yb2  1  0.527069  0.316473  0.596269  1
  Yb  Yb3  1  0.027029  0.183556  0.903762  1
  Yb  Yb4  1  0.027175  0.183598  0.596267  1
  Yb  Yb5  1  0.527209  0.316437  0.903755  1
  Yb  Yb6  1  0.472833  0.683562  0.403755  1
  Yb  Yb7  1  0.972783  0.816413  0.096228  1
  Yb  Yb8  1  0.352528  0.019699  0.749988  1
  Yb  Yb9  1  0.852526  0.480297  0.750012  1
  Yb  Yb10  1  0.147435  0.519786  0.249982  1
  Yb  Yb11  1  0.647532  0.980255  0.249961  1
  Er  Er12  1  0.314330  0.176468  0.121077  1
  Er  Er13  1  0.814343  0.323559  0.378916  1
  Er  Er14  1  0.185661  0.676501  0.878888  1
  Er  Er15  1  0.685683  0.823480  0.621137  1
  Er  Er16  1  0.314280  0.176452  0.378912  1
  Tm  Tm17  1  0.814306  0.323539  0.121074  1
  Tm  Tm18  1  0.185716  0.676511  0.621092  1
  Tm  Tm19  1  0.685714  0.823515  0.878911  1
  Si  Si20  1  0.857254  0.533920  0.538478  1
  Si  Si21  1  0.357263  0.966146  0.961526  1
  Si  Si22  1  0.642950  0.033743  0.461602  1
  Si  Si23  1  0.142725  0.466135  0.038470  1
  Si  Si24  1  0.143113  0.466349  0.461725  1
  Si  Si25  1  0.643346  0.033816  0.038363  1
  Si  Si26  1  0.356745  0.966024  0.538481  1
  Si  Si27  1  0.856651  0.533823  0.961643  1
  Si  Si28  1  0.977834  0.880272  0.750055  1
  Si  Si29  1  0.477832  0.619734  0.749952  1
  Si  Si30  1  0.522336  0.380447  0.249893  1
  Si  Si31  1  0.022015  0.119654  0.249944  1
  Si  Si32  1  0.249122  0.395966  0.749910  1
  Si  Si33  1  0.749131  0.104037  0.750099  1
  Si  Si34  1  0.250753  0.895816  0.249982  1
  Si  Si35  1  0.750904  0.604045  0.249886  1
