# generated using pymatgen
data_Tb4Dy4Hf9Si16W3
_symmetry_space_group_name_H-M   'P 1'
_cell_length_a   7.19573069
_cell_length_b   7.19502356
_cell_length_c   13.17268316
_cell_angle_alpha   90.10189096
_cell_angle_beta   90.10097257
_cell_angle_gamma   90.09010809
_symmetry_Int_Tables_number   1
_chemical_formula_structural   Tb4Dy4Hf9Si16W3
_chemical_formula_sum   'Tb4 Dy4 Hf9 Si16 W3'
_cell_volume   681.99229342
_cell_formula_units_Z   1
loop_
 _symmetry_equiv_pos_site_id
 _symmetry_equiv_pos_as_xyz
  1  'x, y, z'
loop_
 _atom_site_type_symbol
 _atom_site_label
 _atom_site_symmetry_multiplicity
 _atom_site_fract_x
 _atom_site_fract_y
 _atom_site_fract_z
 _atom_site_occupancy
  Tb  Tb0  1  0.846066  0.502266  0.967795  1
  Tb  Tb1  1  0.497769  0.154022  0.532207  1
  Tb  Tb2  1  0.343425  0.996233  0.785209  1
  Tb  Tb3  1  0.655804  0.001094  0.284435  1
  Dy  Dy4  1  0.999369  0.344487  0.215421  1
  Dy  Dy5  1  0.003367  0.656309  0.714664  1
  Dy  Dy6  1  0.154609  0.499899  0.463932  1
  Dy  Dy7  1  0.500079  0.845303  0.036035  1
  Hf  Hf8  1  0.675551  0.324745  0.749990  1
  Hf  Hf9  1  0.146874  0.992970  0.373409  1
  Hf  Hf10  1  0.854631  0.004479  0.876508  1
  Hf  Hf11  1  0.505728  0.649506  0.621260  1
  Hf  Hf12  1  0.350370  0.494373  0.878747  1
  Hf  Hf13  1  0.492959  0.352394  0.125491  1
  Hf  Hf14  1  0.647710  0.506955  0.374478  1
  Hf  Hf15  1  0.995556  0.145334  0.623468  1
  Hf  Hf16  1  0.007001  0.853133  0.126555  1
  Si  Si17  1  0.360112  0.298445  0.316635  1
  Si  Si18  1  0.638343  0.705041  0.817167  1
  Si  Si19  1  0.202632  0.860710  0.565694  1
  Si  Si20  1  0.138932  0.796942  0.934452  1
  Si  Si21  1  0.797671  0.138454  0.067288  1
  Si  Si22  1  0.861938  0.202757  0.432865  1
  Si  Si23  1  0.294607  0.362315  0.682733  1
  Si  Si24  1  0.701897  0.639231  0.183241  1
  Si  Si25  1  0.295895  0.050603  0.183945  1
  Si  Si26  1  0.705161  0.947262  0.682081  1
  Si  Si27  1  0.448773  0.795094  0.432228  1
  Si  Si28  1  0.204598  0.550874  0.067946  1
  Si  Si29  1  0.547203  0.202504  0.936291  1
  Si  Si30  1  0.797778  0.453144  0.563866  1
  Si  Si31  1  0.052450  0.295427  0.817809  1
  Si  Si32  1  0.949746  0.703464  0.315938  1
  W  W33  1  0.176908  0.175413  0.001640  1
  W  W34  1  0.824798  0.822896  0.498586  1
  W  W35  1  0.323692  0.675924  0.249994  1
