# generated using pymatgen
data_Ho3Be2B4Ir9
_symmetry_space_group_name_H-M   'P 1'
_cell_length_a   5.49279862
_cell_length_b   5.48905451
_cell_length_c   9.59386000
_cell_angle_alpha   89.99990113
_cell_angle_beta   89.99975225
_cell_angle_gamma   119.96103293
_symmetry_Int_Tables_number   1
_chemical_formula_structural   Ho3Be2B4Ir9
_chemical_formula_sum   'Ho3 Be2 B4 Ir9'
_cell_volume   250.60262984
_cell_formula_units_Z   1
loop_
 _symmetry_equiv_pos_site_id
 _symmetry_equiv_pos_as_xyz
  1  'x, y, z'
loop_
 _atom_site_type_symbol
 _atom_site_label
 _atom_site_symmetry_multiplicity
 _atom_site_fract_x
 _atom_site_fract_y
 _atom_site_fract_z
 _atom_site_occupancy
  Ho  Ho0  1  0.999988  0.999997  0.999992  1
  Ho  Ho1  1  0.999993  0.999996  0.334839  1
  Ho  Ho2  1  0.999993  0.000000  0.665168  1
  Be  Be3  1  0.333519  0.666722  0.999994  1
  Be  Be4  1  0.666472  0.333279  0.999989  1
  B  B5  1  0.333390  0.666674  0.337653  1
  B  B6  1  0.666602  0.333326  0.337640  1
  B  B7  1  0.666588  0.333310  0.662371  1
  B  B8  1  0.333400  0.666689  0.662345  1
  Ir  Ir9  1  0.499959  0.999933  0.500004  1
  Ir  Ir10  1  0.499954  0.500036  0.499996  1
  Ir  Ir11  1  0.000070  0.500036  0.500003  1
  Ir  Ir12  1  0.499992  0.999992  0.184992  1
  Ir  Ir13  1  0.499992  0.500012  0.184965  1
  Ir  Ir14  1  0.000002  0.500006  0.185002  1
  Ir  Ir15  1  0.500010  0.000021  0.815020  1
  Ir  Ir16  1  0.500008  0.499984  0.815031  1
  Ir  Ir17  1  0.999969  0.499987  0.814997  1
