# generated using pymatgen
data_La2SiRhCl
_symmetry_space_group_name_H-M   'P 1'
_cell_length_a   4.16392900
_cell_length_b   4.16392986
_cell_length_c   8.20414100
_cell_angle_alpha   90.00000000
_cell_angle_beta   90.00000000
_cell_angle_gamma   120.00000110
_symmetry_Int_Tables_number   1
_chemical_formula_structural   La2SiRhCl
_chemical_formula_sum   'La2 Si1 Rh1 Cl1'
_cell_volume   123.18858417
_cell_formula_units_Z   1
loop_
 _symmetry_equiv_pos_site_id
 _symmetry_equiv_pos_as_xyz
  1  'x, y, z'
loop_
 _atom_site_type_symbol
 _atom_site_label
 _atom_site_symmetry_multiplicity
 _atom_site_fract_x
 _atom_site_fract_y
 _atom_site_fract_z
 _atom_site_occupancy
  La  La0  1  0.000000  0.000000  0.226307  1
  La  La1  1  0.000000  0.000000  0.773693  1
  Si  Si2  1  0.333333  0.666667  0.000000  1
  Rh  Rh3  1  0.666667  0.333333  0.000000  1
  Cl  Cl4  1  0.666667  0.333333  0.500000  1
