# generated using pymatgen
data_PrHf4N5
_symmetry_space_group_name_H-M   'P 1'
_cell_length_a   13.84512231
_cell_length_b   13.84512221
_cell_length_c   13.84512410
_cell_angle_alpha   13.53640053
_cell_angle_beta   13.53640179
_cell_angle_gamma   13.53640272
_symmetry_Int_Tables_number   1
_chemical_formula_structural   PrHf4N5
_chemical_formula_sum   'Pr1 Hf4 N5'
_cell_volume   126.50340379
_cell_formula_units_Z   1
loop_
 _symmetry_equiv_pos_site_id
 _symmetry_equiv_pos_as_xyz
  1  'x, y, z'
loop_
 _atom_site_type_symbol
 _atom_site_label
 _atom_site_symmetry_multiplicity
 _atom_site_fract_x
 _atom_site_fract_y
 _atom_site_fract_z
 _atom_site_occupancy
  Pr  Pr0  1  0.000000  0.000000  0.000000  1
  Hf  Hf1  1  0.595527  0.595527  0.595527  1
  Hf  Hf2  1  0.197543  0.197543  0.197543  1
  Hf  Hf3  1  0.802457  0.802457  0.802457  1
  Hf  Hf4  1  0.404473  0.404473  0.404473  1
  N  N5  1  0.710476  0.710476  0.710476  1
  N  N6  1  0.500000  0.500000  0.500000  1
  N  N7  1  0.103573  0.103573  0.103573  1
  N  N8  1  0.289524  0.289524  0.289524  1
  N  N9  1  0.896427  0.896427  0.896427  1
