# generated using pymatgen
data_Tb8Er12(GaBi3)3
_symmetry_space_group_name_H-M   'P 1'
_cell_length_a   8.10520960
_cell_length_b   9.34218600
_cell_length_c   12.00332000
_cell_angle_alpha   90.00000000
_cell_angle_beta   90.20642251
_cell_angle_gamma   90.00000000
_symmetry_Int_Tables_number   1
_chemical_formula_structural   Tb8Er12(GaBi3)3
_chemical_formula_sum   'Tb8 Er12 Ga3 Bi9'
_cell_volume   908.89000105
_cell_formula_units_Z   1
loop_
 _symmetry_equiv_pos_site_id
 _symmetry_equiv_pos_as_xyz
  1  'x, y, z'
loop_
 _atom_site_type_symbol
 _atom_site_label
 _atom_site_symmetry_multiplicity
 _atom_site_fract_x
 _atom_site_fract_y
 _atom_site_fract_z
 _atom_site_occupancy
  Tb  Tb0  1  0.177838  0.750000  0.713608  1
  Tb  Tb1  1  0.675867  0.750000  0.786731  1
  Tb  Tb2  1  0.808376  0.250000  0.277109  1
  Tb  Tb3  1  0.325462  0.250000  0.211119  1
  Tb  Tb4  1  0.349321  0.750000  0.205331  1
  Tb  Tb5  1  0.853090  0.750000  0.293037  1
  Tb  Tb6  1  0.650739  0.250000  0.794803  1
  Tb  Tb7  1  0.152784  0.250000  0.714535  1
  Er  Er8  1  0.035658  0.750000  0.990871  1
  Er  Er9  1  0.537972  0.750000  0.509562  1
  Er  Er10  1  0.964861  0.250000  0.008098  1
  Er  Er11  1  0.477833  0.250000  0.490391  1
  Er  Er12  1  0.316718  0.444942  0.944522  1
  Er  Er13  1  0.808782  0.048714  0.561754  1
  Er  Er14  1  0.682643  0.944407  0.056416  1
  Er  Er15  1  0.186623  0.569800  0.443606  1
  Er  Er16  1  0.682643  0.555593  0.056416  1
  Er  Er17  1  0.186623  0.930200  0.443606  1
  Er  Er18  1  0.316718  0.055058  0.944522  1
  Er  Er19  1  0.808782  0.451286  0.561754  1
  Ga  Ga20  1  0.409855  0.750000  0.960173  1
  Ga  Ga21  1  0.910060  0.750000  0.538989  1
  Ga  Ga22  1  0.592609  0.250000  0.038252  1
  Bi  Bi23  1  0.438682  0.002004  0.675725  1
  Bi  Bi24  1  0.940320  0.499242  0.824430  1
  Bi  Bi25  1  0.559624  0.503387  0.324966  1
  Bi  Bi26  1  0.060141  0.998693  0.174418  1
  Bi  Bi27  1  0.559624  0.996613  0.324966  1
  Bi  Bi28  1  0.060141  0.501307  0.174418  1
  Bi  Bi29  1  0.438682  0.497996  0.675725  1
  Bi  Bi30  1  0.940320  0.000758  0.824430  1
  Bi  Bi31  1  0.090611  0.250000  0.455719  1
