# generated using pymatgen
data_Nd5Dy11Cd4Ni3Ru
_symmetry_space_group_name_H-M   'P 1'
_cell_length_a   9.67143943
_cell_length_b   9.66935926
_cell_length_c   9.66935912
_cell_angle_alpha   59.76408373
_cell_angle_beta   59.67814386
_cell_angle_gamma   59.67814381
_symmetry_Int_Tables_number   1
_chemical_formula_structural   Nd5Dy11Cd4Ni3Ru
_chemical_formula_sum   'Nd5 Dy11 Cd4 Ni3 Ru1'
_cell_volume   635.13902107
_cell_formula_units_Z   1
loop_
 _symmetry_equiv_pos_site_id
 _symmetry_equiv_pos_as_xyz
  1  'x, y, z'
loop_
 _atom_site_type_symbol
 _atom_site_label
 _atom_site_symmetry_multiplicity
 _atom_site_fract_x
 _atom_site_fract_y
 _atom_site_fract_z
 _atom_site_occupancy
  Nd  Nd0  1  0.806167  0.190467  0.190467  1
  Nd  Nd1  1  0.814845  0.186222  0.813457  1
  Nd  Nd2  1  0.189745  0.806514  0.187638  1
  Nd  Nd3  1  0.814845  0.813457  0.186222  1
  Nd  Nd4  1  0.189745  0.187638  0.806514  1
  Dy  Dy5  1  0.597320  0.598407  0.598407  1
  Dy  Dy6  1  0.598283  0.599531  0.208843  1
  Dy  Dy7  1  0.598283  0.208843  0.599531  1
  Dy  Dy8  1  0.207808  0.599707  0.599707  1
  Dy  Dy9  1  0.062251  0.436845  0.436845  1
  Dy  Dy10  1  0.435270  0.062094  0.062094  1
  Dy  Dy11  1  0.435251  0.061980  0.438263  1
  Dy  Dy12  1  0.062868  0.435875  0.061434  1
  Dy  Dy13  1  0.435251  0.438263  0.061980  1
  Dy  Dy14  1  0.062868  0.061434  0.435875  1
  Dy  Dy15  1  0.189953  0.810533  0.810533  1
  Cd  Cd16  1  0.831742  0.828745  0.828745  1
  Cd  Cd17  1  0.828471  0.829460  0.511044  1
  Cd  Cd18  1  0.828471  0.511044  0.829460  1
  Cd  Cd19  1  0.508465  0.828806  0.828806  1
  Ni  Ni20  1  0.392272  0.394507  0.824987  1
  Ni  Ni21  1  0.392272  0.824987  0.394507  1
  Ni  Ni22  1  0.825962  0.392209  0.392209  1
  Ru  Ru23  1  0.391591  0.392431  0.392431  1
