# generated using pymatgen
data_Dy3Al10(SiOs2)2
_symmetry_space_group_name_H-M   'P 1'
_cell_length_a   8.69341800
_cell_length_b   8.69341764
_cell_length_c   9.63516100
_cell_angle_alpha   90.00000000
_cell_angle_beta   90.00000000
_cell_angle_gamma   119.99999374
_symmetry_Int_Tables_number   1
_chemical_formula_structural   Dy3Al10(SiOs2)2
_chemical_formula_sum   'Dy6 Al20 Si4 Os8'
_cell_volume   630.62435777
_cell_formula_units_Z   2
loop_
 _symmetry_equiv_pos_site_id
 _symmetry_equiv_pos_as_xyz
  1  'x, y, z'
loop_
 _atom_site_type_symbol
 _atom_site_label
 _atom_site_symmetry_multiplicity
 _atom_site_fract_x
 _atom_site_fract_y
 _atom_site_fract_z
 _atom_site_occupancy
  Dy  Dy0  1  0.195244  0.390487  0.250000  1
  Dy  Dy1  1  0.804756  0.609513  0.750000  1
  Dy  Dy2  1  0.609513  0.804756  0.250000  1
  Dy  Dy3  1  0.390487  0.195244  0.750000  1
  Dy  Dy4  1  0.195244  0.804756  0.250000  1
  Dy  Dy5  1  0.804756  0.195244  0.750000  1
  Al  Al6  1  0.164920  0.329839  0.576798  1
  Al  Al7  1  0.835080  0.670161  0.423202  1
  Al  Al8  1  0.670161  0.835080  0.576798  1
  Al  Al9  1  0.835080  0.670161  0.076798  1
  Al  Al10  1  0.329839  0.164920  0.423202  1
  Al  Al11  1  0.164920  0.329839  0.923202  1
  Al  Al12  1  0.164920  0.835080  0.576798  1
  Al  Al13  1  0.329839  0.164920  0.076798  1
  Al  Al14  1  0.835080  0.164920  0.423202  1
  Al  Al15  1  0.670161  0.835080  0.923202  1
  Al  Al16  1  0.835080  0.164920  0.076798  1
  Al  Al17  1  0.164920  0.835080  0.923202  1
  Al  Al18  1  0.563818  0.127637  0.250000  1
  Al  Al19  1  0.436182  0.872363  0.750000  1
  Al  Al20  1  0.872363  0.436182  0.250000  1
  Al  Al21  1  0.127637  0.563818  0.750000  1
  Al  Al22  1  0.563818  0.436182  0.250000  1
  Al  Al23  1  0.436182  0.563818  0.750000  1
  Al  Al24  1  0.000000  0.000000  0.250000  1
  Al  Al25  1  0.000000  0.000000  0.750000  1
  Si  Si26  1  0.333333  0.666667  0.037283  1
  Si  Si27  1  0.666667  0.333333  0.962717  1
  Si  Si28  1  0.666667  0.333333  0.537283  1
  Si  Si29  1  0.333333  0.666667  0.462717  1
  Os  Os30  1  0.500000  0.000000  0.000000  1
  Os  Os31  1  0.000000  0.500000  0.000000  1
  Os  Os32  1  0.500000  0.000000  0.500000  1
  Os  Os33  1  0.500000  0.500000  0.000000  1
  Os  Os34  1  0.000000  0.500000  0.500000  1
  Os  Os35  1  0.500000  0.500000  0.500000  1
  Os  Os36  1  0.000000  0.000000  0.000000  1
  Os  Os37  1  0.000000  0.000000  0.500000  1
