# generated using pymatgen
data_EuVGeO5
_symmetry_space_group_name_H-M   'P 1'
_cell_length_a   7.74525500
_cell_length_b   8.61190100
_cell_length_c   5.79580800
_cell_angle_alpha   90.00000000
_cell_angle_beta   90.00000000
_cell_angle_gamma   90.00000000
_symmetry_Int_Tables_number   1
_chemical_formula_structural   EuVGeO5
_chemical_formula_sum   'Eu4 V4 Ge4 O20'
_cell_volume   386.58832968
_cell_formula_units_Z   4
loop_
 _symmetry_equiv_pos_site_id
 _symmetry_equiv_pos_as_xyz
  1  'x, y, z'
loop_
 _atom_site_type_symbol
 _atom_site_label
 _atom_site_symmetry_multiplicity
 _atom_site_fract_x
 _atom_site_fract_y
 _atom_site_fract_z
 _atom_site_occupancy
  Eu  Eu0  1  0.146630  0.172097  0.000000  1
  Eu  Eu1  1  0.646630  0.327903  0.000000  1
  Eu  Eu2  1  0.353370  0.672097  0.000000  1
  Eu  Eu3  1  0.853369  0.827903  0.000000  1
  V  V4  1  0.500000  0.000000  0.259875  1
  V  V5  1  0.000000  0.499999  0.259875  1
  V  V6  1  0.500000  0.000000  0.740126  1
  V  V7  1  0.000000  0.499999  0.740126  1
  Ge  Ge8  1  0.890276  0.142304  0.499999  1
  Ge  Ge9  1  0.390275  0.357696  0.499999  1
  Ge  Ge10  1  0.609725  0.642304  0.499999  1
  Ge  Ge11  1  0.109725  0.857696  0.499999  1
  O  O12  1  0.656359  0.051499  0.000000  1
  O  O13  1  0.156359  0.448500  0.000000  1
  O  O14  1  0.843640  0.551500  0.000000  1
  O  O15  1  0.343641  0.948501  0.000000  1
  O  O16  1  0.400171  0.215315  0.260282  1
  O  O17  1  0.900171  0.284685  0.260282  1
  O  O18  1  0.099830  0.715315  0.260282  1
  O  O19  1  0.599830  0.784685  0.260282  1
  O  O20  1  0.000000  0.000000  0.290690  1
  O  O21  1  0.500000  0.499999  0.290690  1
  O  O22  1  0.668474  0.075424  0.499999  1
  O  O23  1  0.168475  0.424575  0.499999  1
  O  O24  1  0.831526  0.575425  0.499999  1
  O  O25  1  0.331526  0.924576  0.499999  1
  O  O26  1  0.000000  0.000000  0.709311  1
  O  O27  1  0.500000  0.499999  0.709311  1
  O  O28  1  0.400171  0.215315  0.739718  1
  O  O29  1  0.900171  0.284685  0.739718  1
  O  O30  1  0.099830  0.715315  0.739718  1
  O  O31  1  0.599830  0.784685  0.739718  1
