# generated using pymatgen
data_Ta6PtRh
_symmetry_space_group_name_H-M   'P 1'
_cell_length_a   5.18560900
_cell_length_b   5.18560900
_cell_length_c   5.18560900
_cell_angle_alpha   90.00000000
_cell_angle_beta   90.00000000
_cell_angle_gamma   90.00000000
_symmetry_Int_Tables_number   1
_chemical_formula_structural   Ta6PtRh
_chemical_formula_sum   'Ta6 Pt1 Rh1'
_cell_volume   139.44382987
_cell_formula_units_Z   1
loop_
 _symmetry_equiv_pos_site_id
 _symmetry_equiv_pos_as_xyz
  1  'x, y, z'
loop_
 _atom_site_type_symbol
 _atom_site_label
 _atom_site_symmetry_multiplicity
 _atom_site_fract_x
 _atom_site_fract_y
 _atom_site_fract_z
 _atom_site_occupancy
  Ta  Ta0  1  0.000000  0.500000  0.749487  1
  Ta  Ta1  1  0.500000  0.250513  0.000000  1
  Ta  Ta2  1  0.749487  0.000000  0.500000  1
  Ta  Ta3  1  0.000000  0.500000  0.250513  1
  Ta  Ta4  1  0.500000  0.749487  0.000000  1
  Ta  Ta5  1  0.250513  0.000000  0.500000  1
  Pt  Pt6  1  0.000000  0.000000  0.000000  1
  Rh  Rh7  1  0.500000  0.500000  0.500000  1
