# generated using pymatgen
data_Dy2Al4CoNi
_symmetry_space_group_name_H-M   'P 1'
_cell_length_a   5.44607306
_cell_length_b   5.44607401
_cell_length_c   6.94191200
_cell_angle_alpha   90.00000000
_cell_angle_beta   90.00000000
_cell_angle_gamma   136.54837477
_symmetry_Int_Tables_number   1
_chemical_formula_structural   Dy2Al4CoNi
_chemical_formula_sum   'Dy2 Al4 Co1 Ni1'
_cell_volume   141.60271777
_cell_formula_units_Z   1
loop_
 _symmetry_equiv_pos_site_id
 _symmetry_equiv_pos_as_xyz
  1  'x, y, z'
loop_
 _atom_site_type_symbol
 _atom_site_label
 _atom_site_symmetry_multiplicity
 _atom_site_fract_x
 _atom_site_fract_y
 _atom_site_fract_z
 _atom_site_occupancy
  Dy  Dy0  1  0.939900  0.060100  0.750000  1
  Dy  Dy1  1  0.058641  0.941359  0.250000  1
  Al  Al2  1  0.340508  0.659492  0.444101  1
  Al  Al3  1  0.658972  0.341028  0.946069  1
  Al  Al4  1  0.658972  0.341028  0.553931  1
  Al  Al5  1  0.340508  0.659492  0.055899  1
  Co  Co6  1  0.786239  0.213761  0.250000  1
  Ni  Ni7  1  0.216259  0.783741  0.750000  1
