# generated using pymatgen
data_CeEr2P4Pd7
_symmetry_space_group_name_H-M   'P 1'
_cell_length_a   7.93099586
_cell_length_b   7.93099638
_cell_length_c   9.46503288
_cell_angle_alpha   55.66754820
_cell_angle_beta   55.66754527
_cell_angle_gamma   29.20635795
_symmetry_Int_Tables_number   1
_chemical_formula_structural   CeEr2P4Pd7
_chemical_formula_sum   'Ce1 Er2 P4 Pd7'
_cell_volume   236.06713705
_cell_formula_units_Z   1
loop_
 _symmetry_equiv_pos_site_id
 _symmetry_equiv_pos_as_xyz
  1  'x, y, z'
loop_
 _atom_site_type_symbol
 _atom_site_label
 _atom_site_symmetry_multiplicity
 _atom_site_fract_x
 _atom_site_fract_y
 _atom_site_fract_z
 _atom_site_occupancy
  Ce  Ce0  1  0.500000  0.500000  0.500000  1
  Er  Er1  1  0.820484  0.820484  0.176236  1
  Er  Er2  1  0.179516  0.179516  0.823764  1
  P  P3  1  0.393852  0.393852  0.319276  1
  P  P4  1  0.606148  0.606148  0.680724  1
  P  P5  1  0.840272  0.840272  0.752830  1
  P  P6  1  0.159728  0.159728  0.247170  1
  Pd  Pd7  1  0.668968  0.668968  0.074161  1
  Pd  Pd8  1  0.009864  0.009864  0.212110  1
  Pd  Pd9  1  0.990136  0.990136  0.787890  1
  Pd  Pd10  1  0.500000  0.500000  0.000000  1
  Pd  Pd11  1  0.194847  0.194847  0.470251  1
  Pd  Pd12  1  0.805153  0.805153  0.529749  1
  Pd  Pd13  1  0.331032  0.331032  0.925839  1
