# generated using pymatgen
data_Ho16In3Hg(RuRh)2
_symmetry_space_group_name_H-M   'P 1'
_cell_length_a   9.61419773
_cell_length_b   9.62899035
_cell_length_c   9.61419830
_cell_angle_alpha   59.71613412
_cell_angle_beta   59.59697627
_cell_angle_gamma   59.71613570
_symmetry_Int_Tables_number   1
_chemical_formula_structural   Ho16In3Hg(RuRh)2
_chemical_formula_sum   'Ho16 In3 Hg1 Ru2 Rh2'
_cell_volume   624.72115346
_cell_formula_units_Z   1
loop_
 _symmetry_equiv_pos_site_id
 _symmetry_equiv_pos_as_xyz
  1  'x, y, z'
loop_
 _atom_site_type_symbol
 _atom_site_label
 _atom_site_symmetry_multiplicity
 _atom_site_fract_x
 _atom_site_fract_y
 _atom_site_fract_z
 _atom_site_occupancy
  Ho  Ho0  1  0.189225  0.190028  0.808451  1
  Ho  Ho1  1  0.598527  0.600222  0.202411  1
  Ho  Ho2  1  0.441045  0.057870  0.441045  1
  Ho  Ho3  1  0.441087  0.441302  0.059296  1
  Ho  Ho4  1  0.812341  0.185773  0.812341  1
  Ho  Ho5  1  0.190993  0.809225  0.190993  1
  Ho  Ho6  1  0.437972  0.057632  0.061175  1
  Ho  Ho7  1  0.186659  0.813221  0.808469  1
  Ho  Ho8  1  0.058832  0.439112  0.058832  1
  Ho  Ho9  1  0.808469  0.813221  0.186659  1
  Ho  Ho10  1  0.202411  0.600222  0.598527  1
  Ho  Ho11  1  0.059296  0.441302  0.441087  1
  Ho  Ho12  1  0.061175  0.057632  0.437972  1
  Ho  Ho13  1  0.808451  0.190028  0.189225  1
  Ho  Ho14  1  0.600218  0.200803  0.600218  1
  Ho  Ho15  1  0.598534  0.599736  0.598534  1
  In  In16  1  0.831726  0.832424  0.502432  1
  In  In17  1  0.502432  0.832424  0.831726  1
  In  In18  1  0.831626  0.503037  0.831626  1
  Hg  Hg19  1  0.835366  0.836538  0.835366  1
  Ru  Ru20  1  0.392703  0.826753  0.392703  1
  Ru  Ru21  1  0.391903  0.388954  0.391903  1
  Rh  Rh22  1  0.826853  0.391271  0.392158  1
  Rh  Rh23  1  0.392158  0.391271  0.826853  1
