# generated using pymatgen
data_Tb8TaNb11Si15Ge
_symmetry_space_group_name_H-M   'P 1'
_cell_length_a   6.90559912
_cell_length_b   7.10221274
_cell_length_c   13.48605302
_cell_angle_alpha   90.04551212
_cell_angle_beta   89.92694196
_cell_angle_gamma   90.02070546
_symmetry_Int_Tables_number   1
_chemical_formula_structural   Tb8TaNb11Si15Ge
_chemical_formula_sum   'Tb8 Ta1 Nb11 Si15 Ge1'
_cell_volume   661.42314085
_cell_formula_units_Z   1
loop_
 _symmetry_equiv_pos_site_id
 _symmetry_equiv_pos_as_xyz
  1  'x, y, z'
loop_
 _atom_site_type_symbol
 _atom_site_label
 _atom_site_symmetry_multiplicity
 _atom_site_fract_x
 _atom_site_fract_y
 _atom_site_fract_z
 _atom_site_occupancy
  Tb  Tb0  1  0.503434  0.329010  0.095853  1
  Tb  Tb1  1  0.002409  0.170515  0.403753  1
  Tb  Tb2  1  0.499588  0.672818  0.596664  1
  Tb  Tb3  1  0.996509  0.828874  0.904464  1
  Tb  Tb4  1  0.496399  0.670803  0.904326  1
  Tb  Tb5  1  0.996484  0.829600  0.596140  1
  Tb  Tb6  1  0.503847  0.327645  0.403316  1
  Tb  Tb7  1  0.003415  0.171239  0.095671  1
  Ta  Ta8  1  0.664241  0.009488  0.750188  1
  Nb  Nb9  1  0.164184  0.490321  0.751863  1
  Nb  Nb10  1  0.335262  0.991324  0.249771  1
  Nb  Nb11  1  0.835599  0.509232  0.249846  1
  Nb  Nb12  1  0.836090  0.324095  0.625993  1
  Nb  Nb13  1  0.338042  0.175311  0.874671  1
  Nb  Nb14  1  0.161920  0.675426  0.125335  1
  Nb  Nb15  1  0.661597  0.825056  0.374130  1
  Nb  Nb16  1  0.160341  0.677796  0.372907  1
  Nb  Nb17  1  0.661268  0.824372  0.125270  1
  Nb  Nb18  1  0.837758  0.324402  0.874612  1
  Nb  Nb19  1  0.340690  0.171843  0.626797  1
  Si  Si20  1  0.797156  0.624861  0.750208  1
  Si  Si21  1  0.296612  0.874696  0.750603  1
  Si  Si22  1  0.203252  0.375943  0.249716  1
  Si  Si23  1  0.703389  0.124205  0.249572  1
  Si  Si24  1  0.542822  0.375068  0.750386  1
  Si  Si25  1  0.042687  0.124625  0.750045  1
  Si  Si26  1  0.456684  0.624882  0.249890  1
  Si  Si27  1  0.956145  0.875915  0.249061  1
  Si  Si28  1  0.663081  0.037702  0.540626  1
  Si  Si29  1  0.162100  0.462448  0.959396  1
  Si  Si30  1  0.337431  0.962712  0.040675  1
  Si  Si31  1  0.833783  0.538329  0.458484  1
  Si  Si32  1  0.337159  0.962054  0.459444  1
  Si  Si33  1  0.837891  0.537468  0.040887  1
  Si  Si34  1  0.662387  0.037265  0.959013  1
  Ge  Ge35  1  0.168346  0.462659  0.540422  1
