# generated using pymatgen
data_Zr4Sc4Ta5Nb7Si15Ge
_symmetry_space_group_name_H-M   'P 1'
_cell_length_a   6.71540568
_cell_length_b   6.89519722
_cell_length_c   13.16617100
_cell_angle_alpha   89.93392268
_cell_angle_beta   90.10686325
_cell_angle_gamma   90.03958509
_symmetry_Int_Tables_number   1
_chemical_formula_structural   Zr4Sc4Ta5Nb7Si15Ge
_chemical_formula_sum   'Zr4 Sc4 Ta5 Nb7 Si15 Ge1'
_cell_volume   609.64538491
_cell_formula_units_Z   1
loop_
 _symmetry_equiv_pos_site_id
 _symmetry_equiv_pos_as_xyz
  1  'x, y, z'
loop_
 _atom_site_type_symbol
 _atom_site_label
 _atom_site_symmetry_multiplicity
 _atom_site_fract_x
 _atom_site_fract_y
 _atom_site_fract_z
 _atom_site_occupancy
  Zr  Zr0  1  0.498102  0.671450  0.595804  1
  Zr  Zr1  1  0.001110  0.826391  0.904733  1
  Zr  Zr2  1  0.498935  0.326211  0.094601  1
  Zr  Zr3  1  0.004575  0.176347  0.404069  1
  Sc  Sc4  1  0.500846  0.328213  0.406027  1
  Sc  Sc5  1  0.001376  0.173109  0.093707  1
  Sc  Sc6  1  0.498621  0.673353  0.906088  1
  Sc  Sc7  1  0.999853  0.825027  0.595218  1
  Ta  Ta8  1  0.661288  0.175643  0.625865  1
  Ta  Ta9  1  0.837971  0.494535  0.750767  1
  Ta  Ta10  1  0.338695  0.005881  0.748990  1
  Ta  Ta11  1  0.161533  0.505506  0.250680  1
  Ta  Ta12  1  0.661296  0.993746  0.247467  1
  Nb  Nb13  1  0.163818  0.327409  0.876346  1
  Nb  Nb14  1  0.335090  0.827744  0.123665  1
  Nb  Nb15  1  0.838163  0.667843  0.374874  1
  Nb  Nb16  1  0.333500  0.827848  0.375505  1
  Nb  Nb17  1  0.834855  0.671555  0.124052  1
  Nb  Nb18  1  0.665181  0.172240  0.875901  1
  Nb  Nb19  1  0.165298  0.328381  0.624551  1
  Si  Si20  1  0.167607  0.534352  0.039070  1
  Si  Si21  1  0.332367  0.034446  0.960597  1
  Si  Si22  1  0.830765  0.465075  0.539043  1
  Si  Si23  1  0.326190  0.034548  0.539609  1
  Si  Si24  1  0.830004  0.465733  0.960838  1
  Si  Si25  1  0.669396  0.965066  0.038882  1
  Si  Si26  1  0.171054  0.535267  0.461451  1
  Si  Si27  1  0.460023  0.386705  0.751684  1
  Si  Si28  1  0.960614  0.114226  0.749570  1
  Si  Si29  1  0.538875  0.614257  0.250306  1
  Si  Si30  1  0.038690  0.886075  0.249268  1
  Si  Si31  1  0.704774  0.862307  0.749798  1
  Si  Si32  1  0.205013  0.638088  0.750586  1
  Si  Si33  1  0.295704  0.138225  0.249687  1
  Si  Si34  1  0.794305  0.360905  0.249447  1
  Ge  Ge35  1  0.674515  0.966285  0.461253  1
