# generated using pymatgen
data_PaBiH
_symmetry_space_group_name_H-M   'P 1'
_cell_length_a   4.06847800
_cell_length_b   4.06847687
_cell_length_c   8.76524900
_cell_angle_alpha   90.00000000
_cell_angle_beta   90.00000000
_cell_angle_gamma   120.00000917
_symmetry_Int_Tables_number   1
_chemical_formula_structural   PaBiH
_chemical_formula_sum   'Pa2 Bi2 H2'
_cell_volume   125.64889478
_cell_formula_units_Z   2
loop_
 _symmetry_equiv_pos_site_id
 _symmetry_equiv_pos_as_xyz
  1  'x, y, z'
loop_
 _atom_site_type_symbol
 _atom_site_label
 _atom_site_symmetry_multiplicity
 _atom_site_fract_x
 _atom_site_fract_y
 _atom_site_fract_z
 _atom_site_occupancy
  Pa  Pa0  1  0.333333  0.666667  0.250000  1
  Pa  Pa1  1  0.666667  0.333333  0.750000  1
  Bi  Bi2  1  0.000000  0.000000  0.000000  1
  Bi  Bi3  1  0.000000  0.000000  0.500000  1
  H  H4  1  0.333333  0.666667  0.750000  1
  H  H5  1  0.666667  0.333333  0.250000  1
