# generated using pymatgen
data_Li4Tm4Pt3Rh
_symmetry_space_group_name_H-M   'P 1'
_cell_length_a   3.94547100
_cell_length_b   6.96647676
_cell_length_c   8.30017542
_cell_angle_alpha   90.03981146
_cell_angle_beta   90.00000000
_cell_angle_gamma   90.00000000
_symmetry_Int_Tables_number   1
_chemical_formula_structural   Li4Tm4Pt3Rh
_chemical_formula_sum   'Li4 Tm4 Pt3 Rh1'
_cell_volume   228.13883260
_cell_formula_units_Z   1
loop_
 _symmetry_equiv_pos_site_id
 _symmetry_equiv_pos_as_xyz
  1  'x, y, z'
loop_
 _atom_site_type_symbol
 _atom_site_label
 _atom_site_symmetry_multiplicity
 _atom_site_fract_x
 _atom_site_fract_y
 _atom_site_fract_z
 _atom_site_occupancy
  Li  Li0  1  0.250000  0.627653  0.558036  1
  Li  Li1  1  0.750000  0.372405  0.443200  1
  Li  Li2  1  0.750000  0.873705  0.058938  1
  Li  Li3  1  0.250000  0.127476  0.941584  1
  Tm  Tm4  1  0.250000  0.545533  0.178637  1
  Tm  Tm5  1  0.750000  0.451260  0.817827  1
  Tm  Tm6  1  0.750000  0.960681  0.677690  1
  Tm  Tm7  1  0.250000  0.047758  0.324422  1
  Pt  Pt8  1  0.250000  0.744596  0.873665  1
  Pt  Pt9  1  0.750000  0.254194  0.126133  1
  Pt  Pt10  1  0.750000  0.753715  0.373125  1
  Rh  Rh11  1  0.250000  0.241023  0.626743  1
