# generated using pymatgen
data_Lu3Ag(Ir2O7)2
_symmetry_space_group_name_H-M   'P 1'
_cell_length_a   7.24502054
_cell_length_b   7.11429744
_cell_length_c   7.24501900
_cell_angle_alpha   59.39028776
_cell_angle_beta   60.00000249
_cell_angle_gamma   59.39028961
_symmetry_Int_Tables_number   1
_chemical_formula_structural   Lu3Ag(Ir2O7)2
_chemical_formula_sum   'Lu3 Ag1 Ir4 O14'
_cell_volume   261.59637779
_cell_formula_units_Z   1
loop_
 _symmetry_equiv_pos_site_id
 _symmetry_equiv_pos_as_xyz
  1  'x, y, z'
loop_
 _atom_site_type_symbol
 _atom_site_label
 _atom_site_symmetry_multiplicity
 _atom_site_fract_x
 _atom_site_fract_y
 _atom_site_fract_z
 _atom_site_occupancy
  Lu  Lu0  1  0.625000  0.625000  0.125000  1
  Lu  Lu1  1  0.625000  0.625000  0.625000  1
  Lu  Lu2  1  0.125000  0.625000  0.625000  1
  Ag  Ag3  1  0.625000  0.125000  0.625000  1
  Ir  Ir4  1  0.125000  0.125000  0.125000  1
  Ir  Ir5  1  0.625000  0.125000  0.125000  1
  Ir  Ir6  1  0.125000  0.125000  0.625000  1
  Ir  Ir7  1  0.125000  0.625000  0.125000  1
  O  O8  1  0.035704  0.467218  0.461373  1
  O  O9  1  0.788627  0.782782  0.214296  1
  O  O10  1  0.795731  0.216677  0.191861  1
  O  O11  1  0.454269  0.033323  0.454269  1
  O  O12  1  0.753361  0.739917  0.753361  1
  O  O13  1  0.035704  0.467218  0.035704  1
  O  O14  1  0.058139  0.033323  0.454269  1
  O  O15  1  0.214296  0.782782  0.214296  1
  O  O16  1  0.191861  0.216677  0.795731  1
  O  O17  1  0.795731  0.216677  0.795731  1
  O  O18  1  0.496639  0.510083  0.496639  1
  O  O19  1  0.454269  0.033323  0.058139  1
  O  O20  1  0.461373  0.467218  0.035704  1
  O  O21  1  0.214296  0.782782  0.788627  1
