# generated using pymatgen
data_YbSc2Co9
_symmetry_space_group_name_H-M   'P 1'
_cell_length_a   8.29502869
_cell_length_b   8.29502798
_cell_length_c   8.29502813
_cell_angle_alpha   33.93110568
_cell_angle_beta   33.93111075
_cell_angle_gamma   33.93110255
_symmetry_Int_Tables_number   1
_chemical_formula_structural   YbSc2Co9
_chemical_formula_sum   'Yb1 Sc2 Co9'
_cell_volume   158.50309721
_cell_formula_units_Z   1
loop_
 _symmetry_equiv_pos_site_id
 _symmetry_equiv_pos_as_xyz
  1  'x, y, z'
loop_
 _atom_site_type_symbol
 _atom_site_label
 _atom_site_symmetry_multiplicity
 _atom_site_fract_x
 _atom_site_fract_y
 _atom_site_fract_z
 _atom_site_occupancy
  Yb  Yb0  1  0.000000  0.000000  0.000000  1
  Sc  Sc1  1  0.860728  0.860728  0.860728  1
  Sc  Sc2  1  0.139272  0.139272  0.139272  1
  Co  Co3  1  0.415137  0.918680  0.415137  1
  Co  Co4  1  0.415137  0.415137  0.918680  1
  Co  Co5  1  0.918680  0.415137  0.415137  1
  Co  Co6  1  0.584863  0.081320  0.584863  1
  Co  Co7  1  0.584863  0.584863  0.081320  1
  Co  Co8  1  0.081320  0.584863  0.584863  1
  Co  Co9  1  0.666604  0.666604  0.666604  1
  Co  Co10  1  0.333396  0.333396  0.333396  1
  Co  Co11  1  0.500000  0.500000  0.500000  1
