# generated using pymatgen
data_TbThZn14Cu3
_symmetry_space_group_name_H-M   'P 1'
_cell_length_a   8.96742300
_cell_length_b   8.96742314
_cell_length_c   8.63413700
_cell_angle_alpha   90.00000000
_cell_angle_beta   90.00000000
_cell_angle_gamma   120.00000316
_symmetry_Int_Tables_number   1
_chemical_formula_structural   TbThZn14Cu3
_chemical_formula_sum   'Tb2 Th2 Zn28 Cu6'
_cell_volume   601.29123423
_cell_formula_units_Z   2
loop_
 _symmetry_equiv_pos_site_id
 _symmetry_equiv_pos_as_xyz
  1  'x, y, z'
loop_
 _atom_site_type_symbol
 _atom_site_label
 _atom_site_symmetry_multiplicity
 _atom_site_fract_x
 _atom_site_fract_y
 _atom_site_fract_z
 _atom_site_occupancy
  Tb  Tb0  1  0.333333  0.666667  0.750000  1
  Tb  Tb1  1  0.666667  0.333333  0.250000  1
  Th  Th2  1  0.000000  0.000000  0.250000  1
  Th  Th3  1  0.000000  0.000000  0.750000  1
  Zn  Zn4  1  0.333333  0.666667  0.406565  1
  Zn  Zn5  1  0.666667  0.333333  0.593435  1
  Zn  Zn6  1  0.666667  0.333333  0.906565  1
  Zn  Zn7  1  0.333333  0.666667  0.093435  1
  Zn  Zn8  1  0.336013  0.373516  0.250000  1
  Zn  Zn9  1  0.626484  0.962498  0.250000  1
  Zn  Zn10  1  0.037502  0.663987  0.250000  1
  Zn  Zn11  1  0.626484  0.663987  0.250000  1
  Zn  Zn12  1  0.037502  0.373516  0.250000  1
  Zn  Zn13  1  0.336013  0.962498  0.250000  1
  Zn  Zn14  1  0.663987  0.626484  0.750000  1
  Zn  Zn15  1  0.373516  0.037502  0.750000  1
  Zn  Zn16  1  0.962498  0.336013  0.750000  1
  Zn  Zn17  1  0.373516  0.336013  0.750000  1
  Zn  Zn18  1  0.962498  0.626484  0.750000  1
  Zn  Zn19  1  0.663987  0.037502  0.750000  1
  Zn  Zn20  1  0.165316  0.834684  0.518820  1
  Zn  Zn21  1  0.165316  0.330634  0.518820  1
  Zn  Zn22  1  0.669366  0.834684  0.518820  1
  Zn  Zn23  1  0.834684  0.165316  0.481180  1
  Zn  Zn24  1  0.834684  0.669366  0.481180  1
  Zn  Zn25  1  0.330634  0.165316  0.481180  1
  Zn  Zn26  1  0.834684  0.165316  0.018820  1
  Zn  Zn27  1  0.834684  0.669366  0.018820  1
  Zn  Zn28  1  0.330634  0.165316  0.018820  1
  Zn  Zn29  1  0.165316  0.834684  0.981180  1
  Zn  Zn30  1  0.165316  0.330634  0.981180  1
  Zn  Zn31  1  0.669366  0.834684  0.981180  1
  Cu  Cu32  1  0.500000  0.500000  0.500000  1
  Cu  Cu33  1  0.500000  0.000000  0.500000  1
  Cu  Cu34  1  0.000000  0.500000  0.500000  1
  Cu  Cu35  1  0.500000  0.500000  0.000000  1
  Cu  Cu36  1  0.500000  0.000000  0.000000  1
  Cu  Cu37  1  0.000000  0.500000  0.000000  1
