# generated using pymatgen
data_Ba8Si3Pb
_symmetry_space_group_name_H-M   'P 1'
_cell_length_a   5.52075400
_cell_length_b   8.59741995
_cell_length_c   10.38080615
_cell_angle_alpha   89.21466761
_cell_angle_beta   90.00000000
_cell_angle_gamma   90.00000000
_symmetry_Int_Tables_number   1
_chemical_formula_structural   Ba8Si3Pb
_chemical_formula_sum   'Ba8 Si3 Pb1'
_cell_volume   492.67079733
_cell_formula_units_Z   1
loop_
 _symmetry_equiv_pos_site_id
 _symmetry_equiv_pos_as_xyz
  1  'x, y, z'
loop_
 _atom_site_type_symbol
 _atom_site_label
 _atom_site_symmetry_multiplicity
 _atom_site_fract_x
 _atom_site_fract_y
 _atom_site_fract_z
 _atom_site_occupancy
  Ba  Ba0  1  0.250000  0.022918  0.332087  1
  Ba  Ba1  1  0.750000  0.980539  0.664621  1
  Ba  Ba2  1  0.250000  0.524231  0.172789  1
  Ba  Ba3  1  0.750000  0.491616  0.824696  1
  Ba  Ba4  1  0.750000  0.363285  0.430592  1
  Ba  Ba5  1  0.250000  0.645830  0.582251  1
  Ba  Ba6  1  0.750000  0.837663  0.084509  1
  Ba  Ba7  1  0.250000  0.136928  0.903934  1
  Si  Si8  1  0.250000  0.250950  0.597773  1
  Si  Si9  1  0.750000  0.751581  0.403499  1
  Si  Si10  1  0.250000  0.745618  0.896809  1
  Pb  Pb11  1  0.750000  0.248840  0.106440  1
