# generated using pymatgen
data_Tb2Dy2YCoBi2
_symmetry_space_group_name_H-M   'P 1'
_cell_length_a   8.08263300
_cell_length_b   8.90172900
_cell_length_c   12.43252700
_cell_angle_alpha   90.00000000
_cell_angle_beta   90.00000000
_cell_angle_gamma   90.00000000
_symmetry_Int_Tables_number   1
_chemical_formula_structural   Tb2Dy2YCoBi2
_chemical_formula_sum   'Tb8 Dy8 Y4 Co4 Bi8'
_cell_volume   894.51296471
_cell_formula_units_Z   4
loop_
 _symmetry_equiv_pos_site_id
 _symmetry_equiv_pos_as_xyz
  1  'x, y, z'
loop_
 _atom_site_type_symbol
 _atom_site_label
 _atom_site_symmetry_multiplicity
 _atom_site_fract_x
 _atom_site_fract_y
 _atom_site_fract_z
 _atom_site_occupancy
  Tb  Tb0  1  0.846449  0.750000  0.801063  1
  Tb  Tb1  1  0.153551  0.250000  0.198937  1
  Tb  Tb2  1  0.346449  0.250000  0.698937  1
  Tb  Tb3  1  0.653551  0.750000  0.301063  1
  Tb  Tb4  1  0.378490  0.750000  0.689375  1
  Tb  Tb5  1  0.621510  0.250000  0.310625  1
  Tb  Tb6  1  0.878490  0.250000  0.810625  1
  Tb  Tb7  1  0.121510  0.750000  0.189375  1
  Dy  Dy8  1  0.674989  0.034880  0.563477  1
  Dy  Dy9  1  0.325011  0.965120  0.436523  1
  Dy  Dy10  1  0.174989  0.965120  0.936523  1
  Dy  Dy11  1  0.325011  0.534880  0.436523  1
  Dy  Dy12  1  0.825011  0.034880  0.063477  1
  Dy  Dy13  1  0.674989  0.465120  0.563477  1
  Dy  Dy14  1  0.825011  0.465120  0.063477  1
  Dy  Dy15  1  0.174989  0.534880  0.936523  1
  Y  Y16  1  0.952873  0.750000  0.502467  1
  Y  Y17  1  0.047127  0.250000  0.497533  1
  Y  Y18  1  0.452873  0.250000  0.997533  1
  Y  Y19  1  0.547127  0.750000  0.002467  1
  Co  Co20  1  0.560268  0.750000  0.508084  1
  Co  Co21  1  0.439732  0.250000  0.491916  1
  Co  Co22  1  0.060268  0.250000  0.991916  1
  Co  Co23  1  0.939732  0.750000  0.008084  1
  Bi  Bi24  1  0.569184  0.492288  0.826232  1
  Bi  Bi25  1  0.430816  0.507712  0.173768  1
  Bi  Bi26  1  0.069184  0.507712  0.673768  1
  Bi  Bi27  1  0.430816  0.992288  0.173768  1
  Bi  Bi28  1  0.930816  0.492288  0.326232  1
  Bi  Bi29  1  0.569184  0.007712  0.826232  1
  Bi  Bi30  1  0.930816  0.007712  0.326232  1
  Bi  Bi31  1  0.069184  0.992288  0.673768  1
