# generated using pymatgen
data_ErCd(Pd2Au)2
_symmetry_space_group_name_H-M   'P 1'
_cell_length_a   5.98866931
_cell_length_b   5.96825133
_cell_length_c   7.87080400
_cell_angle_alpha   90.00148610
_cell_angle_beta   90.00234589
_cell_angle_gamma   89.96252685
_symmetry_Int_Tables_number   1
_chemical_formula_structural   ErCd(Pd2Au)2
_chemical_formula_sum   'Er2 Cd2 Pd8 Au4'
_cell_volume   281.31729984
_cell_formula_units_Z   2
loop_
 _symmetry_equiv_pos_site_id
 _symmetry_equiv_pos_as_xyz
  1  'x, y, z'
loop_
 _atom_site_type_symbol
 _atom_site_label
 _atom_site_symmetry_multiplicity
 _atom_site_fract_x
 _atom_site_fract_y
 _atom_site_fract_z
 _atom_site_occupancy
  Er  Er0  1  0.250356  0.249958  0.999994  1
  Er  Er1  1  0.749644  0.750043  0.000006  1
  Cd  Cd2  1  0.750820  0.749971  0.499984  1
  Cd  Cd3  1  0.249179  0.250030  0.500016  1
  Pd  Pd4  1  0.000157  0.000020  0.251987  1
  Pd  Pd5  1  0.000179  0.500045  0.251910  1
  Pd  Pd6  1  0.500165  0.000026  0.253194  1
  Pd  Pd7  1  0.500157  0.500003  0.253216  1
  Pd  Pd8  1  0.499836  0.999974  0.746806  1
  Pd  Pd9  1  0.499844  0.499996  0.746784  1
  Pd  Pd10  1  0.999842  0.999980  0.748013  1
  Pd  Pd11  1  0.999820  0.499954  0.748090  1
  Au  Au12  1  0.749573  0.250084  0.999991  1
  Au  Au13  1  0.250426  0.749917  0.000009  1
  Au  Au14  1  0.249363  0.749930  0.499974  1
  Au  Au15  1  0.750636  0.250071  0.500026  1
