# generated using pymatgen
data_Dy3Y3(CoSn6)2
_symmetry_space_group_name_H-M   'P 1'
_cell_length_a   8.51925508
_cell_length_b   8.51925570
_cell_length_c   13.13639225
_cell_angle_alpha   90.01000101
_cell_angle_beta   89.98999980
_cell_angle_gamma   148.95750402
_symmetry_Int_Tables_number   1
_chemical_formula_structural   Dy3Y3(CoSn6)2
_chemical_formula_sum   'Dy3 Y3 Co2 Sn12'
_cell_volume   491.64808234
_cell_formula_units_Z   1
loop_
 _symmetry_equiv_pos_site_id
 _symmetry_equiv_pos_as_xyz
  1  'x, y, z'
loop_
 _atom_site_type_symbol
 _atom_site_label
 _atom_site_symmetry_multiplicity
 _atom_site_fract_x
 _atom_site_fract_y
 _atom_site_fract_z
 _atom_site_occupancy
  Dy  Dy0  1  0.898336  0.101664  0.092951  1
  Dy  Dy1  1  0.900423  0.099577  0.750868  1
  Dy  Dy2  1  0.099782  0.900218  0.249279  1
  Y  Y3  1  0.101301  0.898699  0.592571  1
  Y  Y4  1  0.101085  0.898915  0.907641  1
  Y  Y5  1  0.898920  0.101080  0.407172  1
  Co  Co6  1  0.300212  0.699788  0.250013  1
  Co  Co7  1  0.699931  0.300069  0.749593  1
  Sn  Sn8  1  0.756266  0.243734  0.571850  1
  Sn  Sn9  1  0.428508  0.571492  0.576741  1
  Sn  Sn10  1  0.571265  0.428735  0.423373  1
  Sn  Sn11  1  0.734453  0.265547  0.249891  1
  Sn  Sn12  1  0.265723  0.734277  0.750128  1
  Sn  Sn13  1  0.244560  0.755440  0.071854  1
  Sn  Sn14  1  0.244010  0.755990  0.427852  1
  Sn  Sn15  1  0.571293  0.428707  0.076257  1
  Sn  Sn16  1  0.453416  0.546584  0.249569  1
  Sn  Sn17  1  0.546530  0.453470  0.750274  1
  Sn  Sn18  1  0.755811  0.244189  0.927975  1
  Sn  Sn19  1  0.428171  0.571829  0.924152  1
