# generated using pymatgen
data_Cd3Ni(BrO3)8
_symmetry_space_group_name_H-M   'P 1'
_cell_length_a   5.80413266
_cell_length_b   10.91255358
_cell_length_c   10.99795542
_cell_angle_alpha   119.35621189
_cell_angle_beta   89.95307815
_cell_angle_gamma   90.52129829
_symmetry_Int_Tables_number   1
_chemical_formula_structural   Cd3Ni(BrO3)8
_chemical_formula_sum   'Cd3 Ni1 Br8 O24'
_cell_volume   607.10738126
_cell_formula_units_Z   1
loop_
 _symmetry_equiv_pos_site_id
 _symmetry_equiv_pos_as_xyz
  1  'x, y, z'
loop_
 _atom_site_type_symbol
 _atom_site_label
 _atom_site_symmetry_multiplicity
 _atom_site_fract_x
 _atom_site_fract_y
 _atom_site_fract_z
 _atom_site_occupancy
  Cd  Cd0  1  0.642849  0.236143  0.492169  1
  Cd  Cd1  1  0.141617  0.267530  0.009078  1
  Cd  Cd2  1  0.636052  0.730519  0.994292  1
  Ni  Ni3  1  0.144628  0.763046  0.509147  1
  Br  Br4  1  0.262983  0.428442  0.358063  1
  Br  Br5  1  0.776946  0.590892  0.648499  1
  Br  Br6  1  0.262404  0.914619  0.839917  1
  Br  Br7  1  0.758659  0.081748  0.145871  1
  Br  Br8  1  0.792500  0.070914  0.677909  1
  Br  Br9  1  0.275906  0.904222  0.316328  1
  Br  Br10  1  0.280421  0.411868  0.803910  1
  Br  Br11  1  0.789159  0.592710  0.207558  1
  O  O12  1  0.422346  0.883201  0.949229  1
  O  O13  1  0.914590  0.104445  0.029136  1
  O  O14  1  0.364715  0.803398  0.677340  1
  O  O15  1  0.867567  0.200693  0.303610  1
  O  O16  1  0.377138  0.318016  0.199501  1
  O  O17  1  0.881424  0.702171  0.809983  1
  O  O18  1  0.916786  0.214207  0.811895  1
  O  O19  1  0.414291  0.767216  0.185067  1
  O  O20  1  0.942634  0.929415  0.657109  1
  O  O21  1  0.413723  0.049743  0.335533  1
  O  O22  1  0.366402  0.073818  0.872280  1
  O  O23  1  0.857616  0.927308  0.126121  1
  O  O24  1  0.412429  0.269287  0.676804  1
  O  O25  1  0.935201  0.729404  0.337903  1
  O  O26  1  0.351171  0.410407  0.952647  1
  O  O27  1  0.860596  0.602631  0.063080  1
  O  O28  1  0.426652  0.553158  0.818050  1
  O  O29  1  0.919356  0.444252  0.182515  1
  O  O30  1  0.352424  0.589563  0.386695  1
  O  O31  1  0.874793  0.432400  0.619359  1
  O  O32  1  0.426507  0.402924  0.470072  1
  O  O33  1  0.936653  0.620252  0.536558  1
  O  O34  1  0.861458  0.087600  0.536854  1
  O  O35  1  0.349006  0.891840  0.459912  1
