# generated using pymatgen
data_ScTa6Nb5Tc12
_symmetry_space_group_name_H-M   'P 1'
_cell_length_a   4.50004700
_cell_length_b   6.39790000
_cell_length_c   13.61513500
_cell_angle_alpha   90.00000000
_cell_angle_beta   89.99989436
_cell_angle_gamma   90.00000000
_symmetry_Int_Tables_number   1
_chemical_formula_structural   ScTa6Nb5Tc12
_chemical_formula_sum   'Sc1 Ta6 Nb5 Tc12'
_cell_volume   391.99131906
_cell_formula_units_Z   1
loop_
 _symmetry_equiv_pos_site_id
 _symmetry_equiv_pos_as_xyz
  1  'x, y, z'
loop_
 _atom_site_type_symbol
 _atom_site_label
 _atom_site_symmetry_multiplicity
 _atom_site_fract_x
 _atom_site_fract_y
 _atom_site_fract_z
 _atom_site_occupancy
  Sc  Sc0  1  0.500042  0.000000  0.833343  1
  Ta  Ta1  1  0.999995  0.000000  0.998539  1
  Ta  Ta2  1  0.499990  0.500000  0.165652  1
  Ta  Ta3  1  0.999987  0.000000  0.333338  1
  Ta  Ta4  1  0.500000  0.500000  0.501019  1
  Ta  Ta5  1  0.000008  0.000000  0.668124  1
  Ta  Ta6  1  0.500002  0.500000  0.833328  1
  Nb  Nb7  1  0.999999  0.500000  0.998547  1
  Nb  Nb8  1  0.499987  0.000000  0.166199  1
  Nb  Nb9  1  0.999990  0.500000  0.333337  1
  Nb  Nb10  1  0.499998  0.000000  0.500471  1
  Nb  Nb11  1  0.000007  0.500000  0.668112  1
  Tc  Tc12  1  0.499999  0.251784  0.002499  1
  Tc  Tc13  1  0.499999  0.748215  0.002499  1
  Tc  Tc14  1  0.999992  0.249931  0.167279  1
  Tc  Tc15  1  0.999992  0.750069  0.167279  1
  Tc  Tc16  1  0.499989  0.249727  0.333336  1
  Tc  Tc17  1  0.499989  0.750273  0.333336  1
  Tc  Tc18  1  0.999996  0.249931  0.499390  1
  Tc  Tc19  1  0.999996  0.750069  0.499390  1
  Tc  Tc20  1  0.500006  0.251788  0.664163  1
  Tc  Tc21  1  0.500006  0.748212  0.664163  1
  Tc  Tc22  1  0.000013  0.253414  0.833330  1
  Tc  Tc23  1  0.000013  0.746586  0.833330  1
