# generated using pymatgen
data_Sc5Ti3(Si4Ru3)4
_symmetry_space_group_name_H-M   'P 1'
_cell_length_a   9.83437556
_cell_length_b   9.84034251
_cell_length_c   13.26507930
_cell_angle_alpha   54.09674712
_cell_angle_beta   54.04646624
_cell_angle_gamma   31.24612971
_symmetry_Int_Tables_number   1
_chemical_formula_structural   Sc5Ti3(Si4Ru3)4
_chemical_formula_sum   'Sc5 Ti3 Si16 Ru12'
_cell_volume   528.01028367
_cell_formula_units_Z   1
loop_
 _symmetry_equiv_pos_site_id
 _symmetry_equiv_pos_as_xyz
  1  'x, y, z'
loop_
 _atom_site_type_symbol
 _atom_site_label
 _atom_site_symmetry_multiplicity
 _atom_site_fract_x
 _atom_site_fract_y
 _atom_site_fract_z
 _atom_site_occupancy
  Sc  Sc0  1  0.292336  0.559908  0.645967  1
  Sc  Sc1  1  0.438554  0.708646  0.854200  1
  Sc  Sc2  1  0.707836  0.439836  0.353219  1
  Sc  Sc3  1  0.560904  0.291215  0.146684  1
  Sc  Sc4  1  0.035830  0.292997  0.639845  1
  Ti  Ti5  1  0.698529  0.960908  0.868704  1
  Ti  Ti6  1  0.961332  0.699115  0.368575  1
  Ti  Ti7  1  0.301017  0.038599  0.131769  1
  Si  Si8  1  0.878374  0.121019  0.250199  1
  Si  Si9  1  0.122715  0.874565  0.750146  1
  Si  Si10  1  0.380950  0.619929  0.249416  1
  Si  Si11  1  0.615918  0.380643  0.750707  1
  Si  Si12  1  0.973079  0.255809  0.891735  1
  Si  Si13  1  0.747660  0.023627  0.610887  1
  Si  Si14  1  0.024976  0.744940  0.111637  1
  Si  Si15  1  0.254057  0.975993  0.388654  1
  Si  Si16  1  0.573729  0.080154  0.063831  1
  Si  Si17  1  0.920254  0.427532  0.432695  1
  Si  Si18  1  0.426650  0.919676  0.935749  1
  Si  Si19  1  0.080172  0.574599  0.564209  1
  Si  Si20  1  0.390113  0.143790  0.396641  1
  Si  Si21  1  0.854995  0.611793  0.102404  1
  Si  Si22  1  0.612639  0.858573  0.601683  1
  Si  Si23  1  0.144835  0.388570  0.896767  1
  Ru  Ru24  1  0.651313  0.830874  0.280407  1
  Ru  Ru25  1  0.170044  0.348246  0.216447  1
  Ru  Ru26  1  0.758796  0.484390  0.068844  1
  Ru  Ru27  1  0.829139  0.652759  0.782521  1
  Ru  Ru28  1  0.897183  0.144619  0.584440  1
  Ru  Ru29  1  0.855682  0.101718  0.915021  1
  Ru  Ru30  1  0.102877  0.856368  0.414404  1
  Ru  Ru31  1  0.145055  0.897034  0.085010  1
  Ru  Ru32  1  0.241122  0.514921  0.931543  1
  Ru  Ru33  1  0.488062  0.757007  0.566828  1
  Ru  Ru34  1  0.513284  0.247391  0.429090  1
  Ru  Ru35  1  0.349993  0.172240  0.719129  1
