# generated using pymatgen
data_Ho10Co2Cl15
_symmetry_space_group_name_H-M   'P 1'
_cell_length_a   8.82618204
_cell_length_b   9.68848723
_cell_length_c   10.40601370
_cell_angle_alpha   92.04701505
_cell_angle_beta   114.31039800
_cell_angle_gamma   110.77941486
_symmetry_Int_Tables_number   1
_chemical_formula_structural   Ho10Co2Cl15
_chemical_formula_sum   'Ho10 Co2 Cl15'
_cell_volume   740.73595634
_cell_formula_units_Z   1
loop_
 _symmetry_equiv_pos_site_id
 _symmetry_equiv_pos_as_xyz
  1  'x, y, z'
loop_
 _atom_site_type_symbol
 _atom_site_label
 _atom_site_symmetry_multiplicity
 _atom_site_fract_x
 _atom_site_fract_y
 _atom_site_fract_z
 _atom_site_occupancy
  Ho  Ho0  1  0.806859  0.407736  0.274431  1
  Ho  Ho1  1  0.193141  0.592264  0.725569  1
  Ho  Ho2  1  0.673094  0.748634  0.819993  1
  Ho  Ho3  1  0.326906  0.251366  0.180007  1
  Ho  Ho4  1  0.529456  0.704544  0.106251  1
  Ho  Ho5  1  0.470544  0.295456  0.893749  1
  Ho  Ho6  1  0.596035  0.045029  0.342163  1
  Ho  Ho7  1  0.403965  0.954971  0.657837  1
  Ho  Ho8  1  0.740618  0.081366  0.051038  1
  Ho  Ho9  1  0.259382  0.918634  0.948962  1
  Co  Co10  1  0.467292  0.829870  0.882419  1
  Co  Co11  1  0.532708  0.170130  0.117581  1
  Cl  Cl12  1  0.000000  0.000000  0.000000  1
  Cl  Cl13  1  0.636252  0.886957  0.586520  1
  Cl  Cl14  1  0.363748  0.113043  0.413480  1
  Cl  Cl15  1  0.888754  0.307877  0.524870  1
  Cl  Cl16  1  0.111246  0.692123  0.475130  1
  Cl  Cl17  1  0.306708  0.767491  0.191425  1
  Cl  Cl18  1  0.693292  0.232509  0.808575  1
  Cl  Cl19  1  0.063310  0.340739  0.225064  1
  Cl  Cl20  1  0.172643  0.061025  0.697752  1
  Cl  Cl21  1  0.827357  0.938975  0.302248  1
  Cl  Cl22  1  0.248263  0.416046  0.947959  1
  Cl  Cl23  1  0.751737  0.583954  0.052041  1
  Cl  Cl24  1  0.408063  0.470415  0.671694  1
  Cl  Cl25  1  0.591937  0.529585  0.328306  1
  Cl  Cl26  1  0.936690  0.659261  0.774936  1
