# generated using pymatgen
data_PuNi9P5
_symmetry_space_group_name_H-M   'P 1'
_cell_length_a   6.51083000
_cell_length_b   6.51082984
_cell_length_c   10.53137400
_cell_angle_alpha   90.00000000
_cell_angle_beta   90.00000000
_cell_angle_gamma   120.00000079
_symmetry_Int_Tables_number   1
_chemical_formula_structural   PuNi9P5
_chemical_formula_sum   'Pu2 Ni18 P10'
_cell_volume   386.62360481
_cell_formula_units_Z   2
loop_
 _symmetry_equiv_pos_site_id
 _symmetry_equiv_pos_as_xyz
  1  'x, y, z'
loop_
 _atom_site_type_symbol
 _atom_site_label
 _atom_site_symmetry_multiplicity
 _atom_site_fract_x
 _atom_site_fract_y
 _atom_site_fract_z
 _atom_site_occupancy
  Pu  Pu0  1  0.000000  0.000000  0.000000  1
  Pu  Pu1  1  0.000000  0.000000  0.500000  1
  Ni  Ni2  1  0.536352  0.072705  0.107251  1
  Ni  Ni3  1  0.463648  0.536352  0.607251  1
  Ni  Ni4  1  0.072705  0.536352  0.607251  1
  Ni  Ni5  1  0.927295  0.463648  0.107251  1
  Ni  Ni6  1  0.536352  0.463648  0.107251  1
  Ni  Ni7  1  0.463648  0.927295  0.892749  1
  Ni  Ni8  1  0.463648  0.536352  0.892749  1
  Ni  Ni9  1  0.463648  0.927295  0.607251  1
  Ni  Ni10  1  0.072705  0.536352  0.892749  1
  Ni  Ni11  1  0.927295  0.463648  0.392749  1
  Ni  Ni12  1  0.536352  0.072705  0.392749  1
  Ni  Ni13  1  0.536352  0.463648  0.392749  1
  Ni  Ni14  1  0.201969  0.403937  0.250000  1
  Ni  Ni15  1  0.798031  0.201969  0.750000  1
  Ni  Ni16  1  0.403937  0.201969  0.750000  1
  Ni  Ni17  1  0.596063  0.798031  0.250000  1
  Ni  Ni18  1  0.201969  0.798031  0.250000  1
  Ni  Ni19  1  0.798031  0.596063  0.750000  1
  P  P20  1  0.828857  0.657715  0.250000  1
  P  P21  1  0.171143  0.828857  0.750000  1
  P  P22  1  0.657715  0.828857  0.750000  1
  P  P23  1  0.342285  0.171143  0.250000  1
  P  P24  1  0.828857  0.171143  0.250000  1
  P  P25  1  0.171143  0.342285  0.750000  1
  P  P26  1  0.333333  0.666667  0.062446  1
  P  P27  1  0.666667  0.333333  0.562446  1
  P  P28  1  0.666667  0.333333  0.937554  1
  P  P29  1  0.333333  0.666667  0.437554  1
