# generated using pymatgen
data_Ta3Cr3GeP2
_symmetry_space_group_name_H-M   'P 1'
_cell_length_a   6.59050800
_cell_length_b   6.59050943
_cell_length_c   3.31119300
_cell_angle_alpha   90.00000000
_cell_angle_beta   90.00000000
_cell_angle_gamma   119.99999284
_symmetry_Int_Tables_number   1
_chemical_formula_structural   Ta3Cr3GeP2
_chemical_formula_sum   'Ta3 Cr3 Ge1 P2'
_cell_volume   124.55266818
_cell_formula_units_Z   1
loop_
 _symmetry_equiv_pos_site_id
 _symmetry_equiv_pos_as_xyz
  1  'x, y, z'
loop_
 _atom_site_type_symbol
 _atom_site_label
 _atom_site_symmetry_multiplicity
 _atom_site_fract_x
 _atom_site_fract_y
 _atom_site_fract_z
 _atom_site_occupancy
  Ta  Ta0  1  0.392001  0.406946  0.500000  1
  Ta  Ta1  1  0.593054  0.985055  0.500000  1
  Ta  Ta2  1  0.014945  0.607999  0.500000  1
  Cr  Cr3  1  0.007009  0.251758  0.000000  1
  Cr  Cr4  1  0.244749  0.992991  0.000000  1
  Cr  Cr5  1  0.748242  0.755251  0.000000  1
  Ge  Ge6  1  0.666667  0.333333  0.000000  1
  P  P7  1  0.333333  0.666667  0.000000  1
  P  P8  1  0.000000  0.000000  0.500000  1
