# generated using pymatgen
data_CsSb3Te5
_symmetry_space_group_name_H-M   'P 1'
_cell_length_a   4.38612200
_cell_length_b   13.32091100
_cell_length_c   24.09418100
_cell_angle_alpha   90.00000000
_cell_angle_beta   90.00000000
_cell_angle_gamma   90.00000000
_symmetry_Int_Tables_number   1
_chemical_formula_structural   CsSb3Te5
_chemical_formula_sum   'Cs4 Sb12 Te20'
_cell_volume   1407.75410568
_cell_formula_units_Z   4
loop_
 _symmetry_equiv_pos_site_id
 _symmetry_equiv_pos_as_xyz
  1  'x, y, z'
loop_
 _atom_site_type_symbol
 _atom_site_label
 _atom_site_symmetry_multiplicity
 _atom_site_fract_x
 _atom_site_fract_y
 _atom_site_fract_z
 _atom_site_occupancy
  Cs  Cs0  1  0.250000  0.352401  0.087291  1
  Cs  Cs1  1  0.750000  0.647599  0.912709  1
  Cs  Cs2  1  0.750000  0.852401  0.412709  1
  Cs  Cs3  1  0.250000  0.147599  0.587291  1
  Sb  Sb4  1  0.250000  0.450608  0.695267  1
  Sb  Sb5  1  0.750000  0.549392  0.304733  1
  Sb  Sb6  1  0.750000  0.950608  0.804733  1
  Sb  Sb7  1  0.250000  0.049392  0.195267  1
  Sb  Sb8  1  0.250000  0.798318  0.670017  1
  Sb  Sb9  1  0.750000  0.201682  0.329983  1
  Sb  Sb10  1  0.750000  0.298318  0.829983  1
  Sb  Sb11  1  0.250000  0.701682  0.170017  1
  Sb  Sb12  1  0.250000  0.394290  0.438645  1
  Sb  Sb13  1  0.750000  0.605710  0.561355  1
  Sb  Sb14  1  0.750000  0.894290  0.061355  1
  Sb  Sb15  1  0.250000  0.105710  0.938645  1
  Te  Te16  1  0.250000  0.443561  0.570085  1
  Te  Te17  1  0.750000  0.556439  0.429915  1
  Te  Te18  1  0.750000  0.943561  0.929915  1
  Te  Te19  1  0.250000  0.056439  0.070085  1
  Te  Te20  1  0.250000  0.771874  0.546536  1
  Te  Te21  1  0.750000  0.228126  0.453464  1
  Te  Te22  1  0.750000  0.271874  0.953464  1
  Te  Te23  1  0.250000  0.728126  0.046536  1
  Te  Te24  1  0.250000  0.797476  0.801633  1
  Te  Te25  1  0.750000  0.202524  0.198367  1
  Te  Te26  1  0.750000  0.297476  0.698367  1
  Te  Te27  1  0.250000  0.702524  0.301633  1
  Te  Te28  1  0.250000  0.455029  0.826491  1
  Te  Te29  1  0.750000  0.544971  0.173509  1
  Te  Te30  1  0.750000  0.955029  0.673509  1
  Te  Te31  1  0.250000  0.044971  0.326491  1
  Te  Te32  1  0.250000  0.371489  0.314736  1
  Te  Te33  1  0.750000  0.628511  0.685264  1
  Te  Te34  1  0.750000  0.871489  0.185264  1
  Te  Te35  1  0.250000  0.128511  0.814736  1
