# generated using pymatgen
data_CeEr15(HgIr)4
_symmetry_space_group_name_H-M   'P 1'
_cell_length_a   9.52445005
_cell_length_b   9.52444969
_cell_length_c   9.52445018
_cell_angle_alpha   59.82751412
_cell_angle_beta   59.82751558
_cell_angle_gamma   59.82751287
_symmetry_Int_Tables_number   1
_chemical_formula_structural   CeEr15(HgIr)4
_chemical_formula_sum   'Ce1 Er15 Hg4 Ir4'
_cell_volume   608.55685373
_cell_formula_units_Z   1
loop_
 _symmetry_equiv_pos_site_id
 _symmetry_equiv_pos_as_xyz
  1  'x, y, z'
loop_
 _atom_site_type_symbol
 _atom_site_label
 _atom_site_symmetry_multiplicity
 _atom_site_fract_x
 _atom_site_fract_y
 _atom_site_fract_z
 _atom_site_occupancy
  Ce  Ce0  1  0.596734  0.596734  0.596734  1
  Er  Er1  1  0.603095  0.603095  0.192956  1
  Er  Er2  1  0.603095  0.192956  0.603095  1
  Er  Er3  1  0.192956  0.603095  0.603095  1
  Er  Er4  1  0.061952  0.439125  0.439125  1
  Er  Er5  1  0.438223  0.060254  0.060254  1
  Er  Er6  1  0.439125  0.061952  0.439125  1
  Er  Er7  1  0.060254  0.438223  0.060254  1
  Er  Er8  1  0.439125  0.439125  0.061952  1
  Er  Er9  1  0.060254  0.060254  0.438223  1
  Er  Er10  1  0.188331  0.813366  0.813366  1
  Er  Er11  1  0.810627  0.189129  0.189129  1
  Er  Er12  1  0.813366  0.188331  0.813366  1
  Er  Er13  1  0.189129  0.810627  0.189129  1
  Er  Er14  1  0.813366  0.813366  0.188331  1
  Er  Er15  1  0.189129  0.189129  0.810627  1
  Hg  Hg16  1  0.833547  0.833547  0.833547  1
  Hg  Hg17  1  0.835436  0.835436  0.493369  1
  Hg  Hg18  1  0.835436  0.493369  0.835436  1
  Hg  Hg19  1  0.493369  0.835436  0.835436  1
  Ir  Ir20  1  0.393473  0.393473  0.393473  1
  Ir  Ir21  1  0.393110  0.393110  0.823753  1
  Ir  Ir22  1  0.393110  0.823753  0.393110  1
  Ir  Ir23  1  0.823753  0.393110  0.393110  1
