# generated using pymatgen
data_TmPuTcB6
_symmetry_space_group_name_H-M   'P 1'
_cell_length_a   3.66749900
_cell_length_b   9.12053600
_cell_length_c   11.47589800
_cell_angle_alpha   90.00000000
_cell_angle_beta   90.00000000
_cell_angle_gamma   90.00000000
_symmetry_Int_Tables_number   1
_chemical_formula_structural   TmPuTcB6
_chemical_formula_sum   'Tm4 Pu4 Tc4 B24'
_cell_volume   383.86370037
_cell_formula_units_Z   4
loop_
 _symmetry_equiv_pos_site_id
 _symmetry_equiv_pos_as_xyz
  1  'x, y, z'
loop_
 _atom_site_type_symbol
 _atom_site_label
 _atom_site_symmetry_multiplicity
 _atom_site_fract_x
 _atom_site_fract_y
 _atom_site_fract_z
 _atom_site_occupancy
  Tm  Tm0  1  0.000000  0.943957  0.372391  1
  Tm  Tm1  1  0.000000  0.056043  0.627609  1
  Tm  Tm2  1  0.000000  0.443957  0.127609  1
  Tm  Tm3  1  0.000000  0.556043  0.872391  1
  Pu  Pu4  1  0.000000  0.322314  0.414160  1
  Pu  Pu5  1  0.000000  0.677686  0.585840  1
  Pu  Pu6  1  0.000000  0.822314  0.085840  1
  Pu  Pu7  1  0.000000  0.177686  0.914160  1
  Tc  Tc8  1  0.000000  0.638496  0.321145  1
  Tc  Tc9  1  0.000000  0.361504  0.678855  1
  Tc  Tc10  1  0.000000  0.138496  0.178855  1
  Tc  Tc11  1  0.000000  0.861504  0.821145  1
  B  B12  1  0.500000  0.553210  0.433222  1
  B  B13  1  0.500000  0.446790  0.566778  1
  B  B14  1  0.500000  0.053210  0.066778  1
  B  B15  1  0.500000  0.946790  0.933222  1
  B  B16  1  0.500000  0.749068  0.419772  1
  B  B17  1  0.500000  0.250932  0.580228  1
  B  B18  1  0.500000  0.249068  0.080228  1
  B  B19  1  0.500000  0.750932  0.919772  1
  B  B20  1  0.500000  0.792927  0.265146  1
  B  B21  1  0.500000  0.207073  0.734854  1
  B  B22  1  0.500000  0.292927  0.234854  1
  B  B23  1  0.500000  0.707073  0.765146  1
  B  B24  1  0.500000  0.631999  0.184728  1
  B  B25  1  0.500000  0.368001  0.815272  1
  B  B26  1  0.500000  0.131999  0.315272  1
  B  B27  1  0.500000  0.868001  0.684728  1
  B  B28  1  0.500000  0.981832  0.212648  1
  B  B29  1  0.500000  0.018168  0.787352  1
  B  B30  1  0.500000  0.481832  0.287352  1
  B  B31  1  0.500000  0.518168  0.712648  1
  B  B32  1  0.500000  0.606362  0.029515  1
  B  B33  1  0.500000  0.393638  0.970485  1
  B  B34  1  0.500000  0.106362  0.470485  1
  B  B35  1  0.500000  0.893638  0.529515  1
