# generated using pymatgen
data_ErAl8(CrCu)2
_symmetry_space_group_name_H-M   'P 1'
_cell_length_a   6.76652088
_cell_length_b   6.76652102
_cell_length_c   6.67865040
_cell_angle_alpha   98.06179905
_cell_angle_beta   98.06179464
_cell_angle_gamma   136.31600093
_symmetry_Int_Tables_number   1
_chemical_formula_structural   ErAl8(CrCu)2
_chemical_formula_sum   'Er1 Al8 Cr2 Cu2'
_cell_volume   195.62240513
_cell_formula_units_Z   1
loop_
 _symmetry_equiv_pos_site_id
 _symmetry_equiv_pos_as_xyz
  1  'x, y, z'
loop_
 _atom_site_type_symbol
 _atom_site_label
 _atom_site_symmetry_multiplicity
 _atom_site_fract_x
 _atom_site_fract_y
 _atom_site_fract_z
 _atom_site_occupancy
  Er  Er0  1  0.000000  0.000000  0.000000  1
  Al  Al1  1  0.007196  0.346218  0.353414  1
  Al  Al2  1  0.992804  0.653782  0.646586  1
  Al  Al3  1  0.653782  0.992804  0.646586  1
  Al  Al4  1  0.346218  0.007196  0.353414  1
  Al  Al5  1  0.498688  0.282443  0.781131  1
  Al  Al6  1  0.501312  0.717557  0.218869  1
  Al  Al7  1  0.717557  0.501312  0.218869  1
  Al  Al8  1  0.282443  0.498688  0.781131  1
  Cr  Cr9  1  0.000000  0.000000  0.500000  1
  Cr  Cr10  1  0.500000  0.500000  0.500000  1
  Cu  Cu11  1  0.500000  0.000000  0.000000  1
  Cu  Cu12  1  0.000000  0.500000  0.000000  1
