# generated using pymatgen
data_Tb9Pa(Cd2Pt)4
_symmetry_space_group_name_H-M   'P 1'
_cell_length_a   3.65636000
_cell_length_b   8.03426482
_cell_length_c   18.44800561
_cell_angle_alpha   90.61700825
_cell_angle_beta   90.00000000
_cell_angle_gamma   90.00000000
_symmetry_Int_Tables_number   1
_chemical_formula_structural   Tb9Pa(Cd2Pt)4
_chemical_formula_sum   'Tb9 Pa1 Cd8 Pt4'
_cell_volume   541.90022470
_cell_formula_units_Z   1
loop_
 _symmetry_equiv_pos_site_id
 _symmetry_equiv_pos_as_xyz
  1  'x, y, z'
loop_
 _atom_site_type_symbol
 _atom_site_label
 _atom_site_symmetry_multiplicity
 _atom_site_fract_x
 _atom_site_fract_y
 _atom_site_fract_z
 _atom_site_occupancy
  Tb  Tb0  1  0.000000  0.880092  0.583144  1
  Tb  Tb1  1  0.000000  0.387173  0.913802  1
  Tb  Tb2  1  0.000000  0.614372  0.084656  1
  Tb  Tb3  1  0.000000  0.247784  0.218211  1
  Tb  Tb4  1  0.000000  0.757863  0.779822  1
  Tb  Tb5  1  0.000000  0.251875  0.721200  1
  Tb  Tb6  1  0.000000  0.744341  0.280098  1
  Tb  Tb7  1  0.000000  0.000446  0.000588  1
  Tb  Tb8  1  0.000000  0.486943  0.496600  1
  Pa  Pa9  1  0.000000  0.124699  0.417725  1
  Cd  Cd10  1  0.500000  0.433648  0.350272  1
  Cd  Cd11  1  0.500000  0.569829  0.645973  1
  Cd  Cd12  1  0.500000  0.068577  0.853962  1
  Cd  Cd13  1  0.500000  0.928796  0.149380  1
  Cd  Cd14  1  0.500000  0.287207  0.066194  1
  Cd  Cd15  1  0.500000  0.715891  0.932025  1
  Cd  Cd16  1  0.500000  0.209510  0.568868  1
  Cd  Cd17  1  0.500000  0.783370  0.433026  1
  Pt  Pt18  1  0.500000  0.035349  0.310622  1
  Pt  Pt19  1  0.500000  0.967655  0.695635  1
  Pt  Pt20  1  0.500000  0.474498  0.802955  1
  Pt  Pt21  1  0.500000  0.530080  0.195240  1
