# generated using pymatgen
data_Dy7ErNb12Si15Ge
_symmetry_space_group_name_H-M   'P 1'
_cell_length_a   6.88475511
_cell_length_b   7.08157189
_cell_length_c   13.45353900
_cell_angle_alpha   90.06295964
_cell_angle_beta   89.92506405
_cell_angle_gamma   90.03689044
_symmetry_Int_Tables_number   1
_chemical_formula_structural   Dy7ErNb12Si15Ge
_chemical_formula_sum   'Dy7 Er1 Nb12 Si15 Ge1'
_cell_volume   655.92469819
_cell_formula_units_Z   1
loop_
 _symmetry_equiv_pos_site_id
 _symmetry_equiv_pos_as_xyz
  1  'x, y, z'
loop_
 _atom_site_type_symbol
 _atom_site_label
 _atom_site_symmetry_multiplicity
 _atom_site_fract_x
 _atom_site_fract_y
 _atom_site_fract_z
 _atom_site_occupancy
  Dy  Dy0  1  0.002011  0.170949  0.403709  1
  Dy  Dy1  1  0.500028  0.673292  0.596499  1
  Dy  Dy2  1  0.996882  0.828381  0.904684  1
  Dy  Dy3  1  0.496812  0.671212  0.904601  1
  Dy  Dy4  1  0.996784  0.829308  0.596019  1
  Dy  Dy5  1  0.503561  0.327314  0.403338  1
  Dy  Dy6  1  0.003059  0.171850  0.095564  1
  Er  Er7  1  0.502897  0.328469  0.096009  1
  Nb  Nb8  1  0.664263  0.008586  0.750242  1
  Nb  Nb9  1  0.164235  0.490533  0.751956  1
  Nb  Nb10  1  0.335597  0.991560  0.249660  1
  Nb  Nb11  1  0.835561  0.508694  0.249651  1
  Nb  Nb12  1  0.836173  0.324246  0.625894  1
  Nb  Nb13  1  0.338082  0.175468  0.874980  1
  Nb  Nb14  1  0.162356  0.675249  0.125167  1
  Nb  Nb15  1  0.661737  0.825111  0.374015  1
  Nb  Nb16  1  0.160629  0.677661  0.372773  1
  Nb  Nb17  1  0.661299  0.824221  0.125220  1
  Nb  Nb18  1  0.837634  0.324516  0.874848  1
  Nb  Nb19  1  0.340316  0.171700  0.626727  1
  Si  Si20  1  0.797196  0.625531  0.750235  1
  Si  Si21  1  0.296150  0.873350  0.750620  1
  Si  Si22  1  0.203628  0.374334  0.249446  1
  Si  Si23  1  0.703091  0.126039  0.249293  1
  Si  Si24  1  0.542800  0.376232  0.750392  1
  Si  Si25  1  0.042803  0.124012  0.750128  1
  Si  Si26  1  0.456883  0.623613  0.249714  1
  Si  Si27  1  0.956190  0.876666  0.249018  1
  Si  Si28  1  0.663720  0.037520  0.540103  1
  Si  Si29  1  0.163174  0.462736  0.959723  1
  Si  Si30  1  0.336929  0.963695  0.040665  1
  Si  Si31  1  0.833022  0.538022  0.458692  1
  Si  Si32  1  0.336427  0.962410  0.459560  1
  Si  Si33  1  0.836345  0.536706  0.040851  1
  Si  Si34  1  0.662935  0.037486  0.959764  1
  Ge  Ge35  1  0.168790  0.463331  0.540236  1
