# generated using pymatgen
data_Ca3Ru4PbO16
_symmetry_space_group_name_H-M   'P 1'
_cell_length_a   4.87342607
_cell_length_b   5.35659968
_cell_length_c   13.33285600
_cell_angle_alpha   68.68158898
_cell_angle_beta   89.83554599
_cell_angle_gamma   89.88755500
_symmetry_Int_Tables_number   1
_chemical_formula_structural   Ca3Ru4PbO16
_chemical_formula_sum   'Ca3 Ru4 Pb1 O16'
_cell_volume   324.23682131
_cell_formula_units_Z   1
loop_
 _symmetry_equiv_pos_site_id
 _symmetry_equiv_pos_as_xyz
  1  'x, y, z'
loop_
 _atom_site_type_symbol
 _atom_site_label
 _atom_site_symmetry_multiplicity
 _atom_site_fract_x
 _atom_site_fract_y
 _atom_site_fract_z
 _atom_site_occupancy
  Ca  Ca0  1  0.723208  0.148274  0.344293  1
  Ca  Ca1  1  0.224416  0.851368  0.155447  1
  Ca  Ca2  1  0.274603  0.846070  0.656793  1
  Ru  Ru3  1  0.248960  0.589142  0.416886  1
  Ru  Ru4  1  0.751055  0.411254  0.083494  1
  Ru  Ru5  1  0.748260  0.412380  0.578465  1
  Ru  Ru6  1  0.252236  0.585034  0.922584  1
  Pb  Pb7  1  0.772440  0.147224  0.844238  1
  O  O8  1  0.543119  0.742142  0.466576  1
  O  O9  1  0.052720  0.262268  0.035170  1
  O  O10  1  0.451912  0.257350  0.531227  1
  O  O11  1  0.954780  0.749166  0.969005  1
  O  O12  1  0.946161  0.355587  0.449781  1
  O  O13  1  0.448586  0.646124  0.048566  1
  O  O14  1  0.049694  0.646909  0.545901  1
  O  O15  1  0.559866  0.349100  0.953414  1
  O  O16  1  0.115112  0.908075  0.320521  1
  O  O17  1  0.617178  0.092205  0.179571  1
  O  O18  1  0.883172  0.093466  0.676026  1
  O  O19  1  0.379630  0.908100  0.821040  1
  O  O20  1  0.391539  0.494153  0.309373  1
  O  O21  1  0.889792  0.507634  0.191227  1
  O  O22  1  0.610350  0.504711  0.688192  1
  O  O23  1  0.111214  0.492262  0.812207  1
