# generated using pymatgen
data_Y3Zr5Pt4
_symmetry_space_group_name_H-M   'P 1'
_cell_length_a   4.67202600
_cell_length_b   7.05416618
_cell_length_c   8.24023001
_cell_angle_alpha   89.66690326
_cell_angle_beta   90.00000000
_cell_angle_gamma   90.00000000
_symmetry_Int_Tables_number   1
_chemical_formula_structural   Y3Zr5Pt4
_chemical_formula_sum   'Y3 Zr5 Pt4'
_cell_volume   271.57071324
_cell_formula_units_Z   1
loop_
 _symmetry_equiv_pos_site_id
 _symmetry_equiv_pos_as_xyz
  1  'x, y, z'
loop_
 _atom_site_type_symbol
 _atom_site_label
 _atom_site_symmetry_multiplicity
 _atom_site_fract_x
 _atom_site_fract_y
 _atom_site_fract_z
 _atom_site_occupancy
  Y  Y0  1  0.250000  0.483524  0.180817  1
  Y  Y1  1  0.750000  0.013738  0.676651  1
  Y  Y2  1  0.750000  0.513924  0.819052  1
  Zr  Zr3  1  0.250000  0.848598  0.924156  1
  Zr  Zr4  1  0.250000  0.347568  0.579069  1
  Zr  Zr5  1  0.750000  0.145409  0.084804  1
  Zr  Zr6  1  0.750000  0.655983  0.417502  1
  Zr  Zr7  1  0.250000  0.987619  0.327687  1
  Pt  Pt8  1  0.250000  0.228751  0.906012  1
  Pt  Pt9  1  0.250000  0.736924  0.588422  1
  Pt  Pt10  1  0.750000  0.768434  0.093059  1
  Pt  Pt11  1  0.750000  0.269529  0.402769  1
