# generated using pymatgen
data_BaP12Ru3Pt
_symmetry_space_group_name_H-M   'P 1'
_cell_length_a   7.08852553
_cell_length_b   7.08852499
_cell_length_c   7.08852589
_cell_angle_alpha   109.47494304
_cell_angle_beta   109.47494653
_cell_angle_gamma   109.47494585
_symmetry_Int_Tables_number   1
_chemical_formula_structural   BaP12Ru3Pt
_chemical_formula_sum   'Ba1 P12 Ru3 Pt1'
_cell_volume   274.14852928
_cell_formula_units_Z   1
loop_
 _symmetry_equiv_pos_site_id
 _symmetry_equiv_pos_as_xyz
  1  'x, y, z'
loop_
 _atom_site_type_symbol
 _atom_site_label
 _atom_site_symmetry_multiplicity
 _atom_site_fract_x
 _atom_site_fract_y
 _atom_site_fract_z
 _atom_site_occupancy
  Ba  Ba0  1  0.000000  0.000000  0.000000  1
  P  P1  1  0.357429  0.213108  0.854893  1
  P  P2  1  0.642571  0.786892  0.145107  1
  P  P3  1  0.645510  0.497637  0.864612  1
  P  P4  1  0.354490  0.502363  0.135388  1
  P  P5  1  0.213108  0.854893  0.357429  1
  P  P6  1  0.786892  0.145107  0.642571  1
  P  P7  1  0.497637  0.864612  0.645510  1
  P  P8  1  0.502363  0.135388  0.354490  1
  P  P9  1  0.854893  0.357429  0.213108  1
  P  P10  1  0.145107  0.642571  0.786892  1
  P  P11  1  0.864612  0.645510  0.497637  1
  P  P12  1  0.135388  0.354490  0.502363  1
  Ru  Ru13  1  0.000000  0.000000  0.500000  1
  Ru  Ru14  1  0.500000  0.000000  0.000000  1
  Ru  Ru15  1  0.000000  0.500000  0.000000  1
  Pt  Pt16  1  0.500000  0.500000  0.500000  1
