# generated using pymatgen
data_Er9Tm(ZnIn3)2
_symmetry_space_group_name_H-M   'P 1'
_cell_length_a   9.09040600
_cell_length_b   9.09040641
_cell_length_c   6.65760200
_cell_angle_alpha   90.00000000
_cell_angle_beta   90.00000000
_cell_angle_gamma   119.99999851
_symmetry_Int_Tables_number   1
_chemical_formula_structural   Er9Tm(ZnIn3)2
_chemical_formula_sum   'Er9 Tm1 Zn2 In6'
_cell_volume   476.44749439
_cell_formula_units_Z   1
loop_
 _symmetry_equiv_pos_site_id
 _symmetry_equiv_pos_as_xyz
  1  'x, y, z'
loop_
 _atom_site_type_symbol
 _atom_site_label
 _atom_site_symmetry_multiplicity
 _atom_site_fract_x
 _atom_site_fract_y
 _atom_site_fract_z
 _atom_site_occupancy
  Er  Er0  1  0.333333  0.666667  0.500000  1
  Er  Er1  1  0.666667  0.333333  0.500000  1
  Er  Er2  1  0.666667  0.333333  0.000000  1
  Er  Er3  1  0.275830  0.999933  0.750053  1
  Er  Er4  1  0.724104  0.999933  0.249947  1
  Er  Er5  1  0.000067  0.275896  0.750053  1
  Er  Er6  1  0.000067  0.724170  0.249947  1
  Er  Er7  1  0.724104  0.724170  0.750053  1
  Er  Er8  1  0.275830  0.275896  0.249947  1
  Tm  Tm9  1  0.333333  0.666667  0.000000  1
  Zn  Zn10  1  0.000000  0.000000  0.500000  1
  Zn  Zn11  1  0.000000  0.000000  0.000000  1
  In  In12  1  0.621510  0.999794  0.750122  1
  In  In13  1  0.378284  0.999794  0.249878  1
  In  In14  1  0.000206  0.621716  0.750122  1
  In  In15  1  0.000206  0.378490  0.249878  1
  In  In16  1  0.378284  0.378490  0.750122  1
  In  In17  1  0.621510  0.621716  0.249878  1
