# generated using pymatgen
data_Lu7Th(InRu)2
_symmetry_space_group_name_H-M   'P 1'
_cell_length_a   9.51912995
_cell_length_b   9.51913015
_cell_length_c   9.52118700
_cell_angle_alpha   59.99284855
_cell_angle_beta   59.99284785
_cell_angle_gamma   60.30419767
_symmetry_Int_Tables_number   1
_chemical_formula_structural   Lu7Th(InRu)2
_chemical_formula_sum   'Lu14 Th2 In4 Ru4'
_cell_volume   611.38100106
_cell_formula_units_Z   2
loop_
 _symmetry_equiv_pos_site_id
 _symmetry_equiv_pos_as_xyz
  1  'x, y, z'
loop_
 _atom_site_type_symbol
 _atom_site_label
 _atom_site_symmetry_multiplicity
 _atom_site_fract_x
 _atom_site_fract_y
 _atom_site_fract_z
 _atom_site_occupancy
  Lu  Lu0  1  0.605541  0.194902  0.599779  1
  Lu  Lu1  1  0.194902  0.605541  0.599779  1
  Lu  Lu2  1  0.061589  0.439308  0.440238  1
  Lu  Lu3  1  0.439308  0.061589  0.058865  1
  Lu  Lu4  1  0.439308  0.061589  0.440238  1
  Lu  Lu5  1  0.061589  0.439308  0.058865  1
  Lu  Lu6  1  0.437365  0.437365  0.062635  1
  Lu  Lu7  1  0.059067  0.059067  0.440933  1
  Lu  Lu8  1  0.188415  0.814076  0.810198  1
  Lu  Lu9  1  0.814076  0.188415  0.187311  1
  Lu  Lu10  1  0.814076  0.188415  0.810198  1
  Lu  Lu11  1  0.188415  0.814076  0.187311  1
  Lu  Lu12  1  0.814222  0.814222  0.185778  1
  Lu  Lu13  1  0.195451  0.195451  0.804549  1
  Th  Th14  1  0.594359  0.594359  0.598425  1
  Th  Th15  1  0.594359  0.594359  0.212858  1
  In  In16  1  0.834489  0.834489  0.832827  1
  In  In17  1  0.834489  0.834489  0.498194  1
  In  In18  1  0.834573  0.497550  0.833938  1
  In  In19  1  0.497550  0.834573  0.833938  1
  Ru  Ru20  1  0.388988  0.388988  0.397500  1
  Ru  Ru21  1  0.388988  0.388988  0.824523  1
  Ru  Ru22  1  0.392212  0.826664  0.390561  1
  Ru  Ru23  1  0.826664  0.392212  0.390561  1
