# generated using pymatgen
data_Tm10Zn3NiBi2
_symmetry_space_group_name_H-M   'P 1'
_cell_length_a   8.46944351
_cell_length_b   8.46944339
_cell_length_c   8.56937217
_cell_angle_alpha   124.13197992
_cell_angle_beta   124.13198210
_cell_angle_gamma   82.21576869
_symmetry_Int_Tables_number   1
_chemical_formula_structural   Tm10Zn3NiBi2
_chemical_formula_sum   'Tm10 Zn3 Ni1 Bi2'
_cell_volume   406.47499729
_cell_formula_units_Z   1
loop_
 _symmetry_equiv_pos_site_id
 _symmetry_equiv_pos_as_xyz
  1  'x, y, z'
loop_
 _atom_site_type_symbol
 _atom_site_label
 _atom_site_symmetry_multiplicity
 _atom_site_fract_x
 _atom_site_fract_y
 _atom_site_fract_z
 _atom_site_occupancy
  Tm  Tm0  1  0.002638  0.000604  0.003242  1
  Tm  Tm1  1  0.499396  0.497362  0.996758  1
  Tm  Tm2  1  0.780926  0.293435  0.794774  1
  Tm  Tm3  1  0.206565  0.719074  0.205226  1
  Tm  Tm4  1  0.486151  0.998660  0.205226  1
  Tm  Tm5  1  0.303186  0.469922  0.500000  1
  Tm  Tm6  1  0.030078  0.196814  0.500000  1
  Tm  Tm7  1  0.501340  0.013849  0.794774  1
  Tm  Tm8  1  0.706368  0.513686  0.500000  1
  Tm  Tm9  1  0.986314  0.793632  0.500000  1
  Zn  Zn10  1  0.138637  0.639523  0.778161  1
  Zn  Zn11  1  0.860477  0.361363  0.221839  1
  Zn  Zn12  1  0.634896  0.865104  0.500000  1
  Ni  Ni13  1  0.372016  0.127984  0.500000  1
  Bi  Bi14  1  0.245505  0.254495  0.000000  1
  Bi  Bi15  1  0.745505  0.754495  0.000000  1
