# generated using pymatgen
data_Nd19DySi15Ru
_symmetry_space_group_name_H-M   'P 1'
_cell_length_a   7.78190552
_cell_length_b   7.92449326
_cell_length_c   15.12606800
_cell_angle_alpha   89.75514084
_cell_angle_beta   89.58257580
_cell_angle_gamma   89.91236680
_symmetry_Int_Tables_number   1
_chemical_formula_structural   Nd19DySi15Ru
_chemical_formula_sum   'Nd19 Dy1 Si15 Ru1'
_cell_volume   932.75486629
_cell_formula_units_Z   1
loop_
 _symmetry_equiv_pos_site_id
 _symmetry_equiv_pos_as_xyz
  1  'x, y, z'
loop_
 _atom_site_type_symbol
 _atom_site_label
 _atom_site_symmetry_multiplicity
 _atom_site_fract_x
 _atom_site_fract_y
 _atom_site_fract_z
 _atom_site_occupancy
  Nd  Nd0  1  0.812076  0.334869  0.614264  1
  Nd  Nd1  1  0.456997  0.686116  0.897643  1
  Nd  Nd2  1  0.958015  0.815355  0.897954  1
  Nd  Nd3  1  0.185842  0.681497  0.120222  1
  Nd  Nd4  1  0.691314  0.818276  0.120648  1
  Nd  Nd5  1  0.306326  0.178148  0.877769  1
  Nd  Nd6  1  0.185333  0.678003  0.380618  1
  Nd  Nd7  1  0.044337  0.189349  0.103248  1
  Nd  Nd8  1  0.311849  0.179908  0.622773  1
  Nd  Nd9  1  0.858974  0.492055  0.260866  1
  Nd  Nd10  1  0.365612  0.006696  0.254714  1
  Nd  Nd11  1  0.538040  0.316468  0.398723  1
  Nd  Nd12  1  0.809914  0.317442  0.877703  1
  Nd  Nd13  1  0.963505  0.811856  0.598683  1
  Nd  Nd14  1  0.461884  0.685545  0.602190  1
  Nd  Nd15  1  0.038844  0.190268  0.401775  1
  Nd  Nd16  1  0.696234  0.809675  0.385094  1
  Nd  Nd17  1  0.639568  0.994456  0.747910  1
  Nd  Nd18  1  0.545837  0.311374  0.103247  1
  Dy  Dy19  1  0.136883  0.509649  0.747718  1
  Si  Si20  1  0.478870  0.602813  0.245473  1
  Si  Si21  1  0.253011  0.378136  0.247477  1
  Si  Si22  1  0.513090  0.403428  0.751466  1
  Si  Si23  1  0.630509  0.025432  0.958184  1
  Si  Si24  1  0.015887  0.103210  0.748189  1
  Si  Si25  1  0.751786  0.621428  0.750391  1
  Si  Si26  1  0.751224  0.119658  0.248062  1
  Si  Si27  1  0.364940  0.969741  0.462096  1
  Si  Si28  1  0.983076  0.902758  0.248492  1
  Si  Si29  1  0.364531  0.974514  0.041150  1
  Si  Si30  1  0.633938  0.024222  0.542431  1
  Si  Si31  1  0.132421  0.476968  0.955132  1
  Si  Si32  1  0.144323  0.476705  0.543639  1
  Si  Si33  1  0.865939  0.526022  0.038215  1
  Si  Si34  1  0.245049  0.871625  0.750474  1
  Ru  Ru35  1  0.864028  0.516336  0.455364  1
