# generated using pymatgen
data_Sc5Ta3V12Si15P
_symmetry_space_group_name_H-M   'P 1'
_cell_length_a   6.56810974
_cell_length_b   6.55132820
_cell_length_c   12.12199567
_cell_angle_alpha   90.06705302
_cell_angle_beta   89.91099580
_cell_angle_gamma   89.99330893
_symmetry_Int_Tables_number   1
_chemical_formula_structural   Sc5Ta3V12Si15P
_chemical_formula_sum   'Sc5 Ta3 V12 Si15 P1'
_cell_volume   521.60657491
_cell_formula_units_Z   1
loop_
 _symmetry_equiv_pos_site_id
 _symmetry_equiv_pos_as_xyz
  1  'x, y, z'
loop_
 _atom_site_type_symbol
 _atom_site_label
 _atom_site_symmetry_multiplicity
 _atom_site_fract_x
 _atom_site_fract_y
 _atom_site_fract_z
 _atom_site_occupancy
  Sc  Sc0  1  0.501552  0.835444  0.721785  1
  Sc  Sc1  1  0.498153  0.162699  0.218563  1
  Sc  Sc2  1  0.998764  0.337239  0.529176  1
  Sc  Sc3  1  0.660442  0.999720  0.971569  1
  Sc  Sc4  1  0.337864  0.998884  0.469452  1
  Ta  Ta5  1  0.008301  0.661530  0.029855  1
  Ta  Ta6  1  0.839942  0.507480  0.280752  1
  Ta  Ta7  1  0.158555  0.491656  0.781341  1
  V  V8  1  0.328430  0.333146  0.000179  1
  V  V9  1  0.163206  0.830296  0.245441  1
  V  V10  1  0.838230  0.170106  0.749829  1
  V  V11  1  0.667746  0.665760  0.499210  1
  V  V12  1  0.005215  0.153380  0.124717  1
  V  V13  1  0.339223  0.502842  0.375273  1
  V  V14  1  0.661431  0.499210  0.878391  1
  V  V15  1  0.509793  0.345876  0.624500  1
  V  V16  1  0.485289  0.661576  0.121558  1
  V  V17  1  0.997581  0.843665  0.628939  1
  V  V18  1  0.160548  0.007556  0.877861  1
  V  V19  1  0.839681  0.989617  0.371520  1
  Si  Si20  1  0.536631  0.791068  0.313785  1
  Si  Si21  1  0.464567  0.208830  0.815174  1
  Si  Si22  1  0.797247  0.542077  0.685638  1
  Si  Si23  1  0.203003  0.457568  0.185225  1
  Si  Si24  1  0.707251  0.038178  0.564190  1
  Si  Si25  1  0.956914  0.295155  0.935659  1
  Si  Si26  1  0.040228  0.706316  0.435251  1
  Si  Si27  1  0.708182  0.377249  0.074604  1
  Si  Si28  1  0.123909  0.204486  0.320455  1
  Si  Si29  1  0.875578  0.794573  0.824233  1
  Si  Si30  1  0.208398  0.131348  0.680087  1
  Si  Si31  1  0.792828  0.866196  0.177093  1
  Si  Si32  1  0.294459  0.628715  0.573024  1
  Si  Si33  1  0.368370  0.702137  0.925087  1
  Si  Si34  1  0.630671  0.296219  0.426542  1
  P  P35  1  0.291821  0.962203  0.064039  1
