# generated using pymatgen
data_NdEuCu2(NiAs2)2
_symmetry_space_group_name_H-M   'P 1'
_cell_length_a   4.26208600
_cell_length_b   4.26208600
_cell_length_c   9.77215300
_cell_angle_alpha   90.00000000
_cell_angle_beta   90.00000000
_cell_angle_gamma   90.00000000
_symmetry_Int_Tables_number   1
_chemical_formula_structural   NdEuCu2(NiAs2)2
_chemical_formula_sum   'Nd1 Eu1 Cu2 Ni2 As4'
_cell_volume   177.51484404
_cell_formula_units_Z   1
loop_
 _symmetry_equiv_pos_site_id
 _symmetry_equiv_pos_as_xyz
  1  'x, y, z'
loop_
 _atom_site_type_symbol
 _atom_site_label
 _atom_site_symmetry_multiplicity
 _atom_site_fract_x
 _atom_site_fract_y
 _atom_site_fract_z
 _atom_site_occupancy
  Nd  Nd0  1  0.000000  0.500000  0.258083  1
  Eu  Eu1  1  0.500000  0.000000  0.744159  1
  Cu  Cu2  1  0.500000  0.500000  0.000859  1
  Cu  Cu3  1  0.000000  0.000000  0.000859  1
  Ni  Ni4  1  0.500000  0.000000  0.383767  1
  Ni  Ni5  1  0.000000  0.500000  0.612795  1
  As  As6  1  0.500000  0.000000  0.141262  1
  As  As7  1  0.000000  0.500000  0.858389  1
  As  As8  1  0.500000  0.500000  0.499914  1
  As  As9  1  0.000000  0.000000  0.499914  1
