# generated using pymatgen
data_V4CrSi3
_symmetry_space_group_name_H-M   'P 1'
_cell_length_a   4.70530381
_cell_length_b   6.99877060
_cell_length_c   6.99877064
_cell_angle_alpha   83.51181141
_cell_angle_beta   70.35739023
_cell_angle_gamma   70.35738532
_symmetry_Int_Tables_number   1
_chemical_formula_structural   V4CrSi3
_chemical_formula_sum   'V8 Cr2 Si6'
_cell_volume   204.43519835
_cell_formula_units_Z   2
loop_
 _symmetry_equiv_pos_site_id
 _symmetry_equiv_pos_as_xyz
  1  'x, y, z'
loop_
 _atom_site_type_symbol
 _atom_site_label
 _atom_site_symmetry_multiplicity
 _atom_site_fract_x
 _atom_site_fract_y
 _atom_site_fract_z
 _atom_site_occupancy
  V  V0  1  0.225013  0.697128  0.852846  1
  V  V1  1  0.774987  0.302872  0.147154  1
  V  V2  1  0.274987  0.147154  0.302872  1
  V  V3  1  0.725013  0.852846  0.697128  1
  V  V4  1  0.077859  0.147154  0.697128  1
  V  V5  1  0.922141  0.852846  0.302872  1
  V  V6  1  0.577859  0.697128  0.147154  1
  V  V7  1  0.422141  0.302872  0.852846  1
  Cr  Cr8  1  0.750000  0.500000  0.500000  1
  Cr  Cr9  1  0.250000  0.500000  0.500000  1
  Si  Si10  1  0.662338  0.175325  0.500000  1
  Si  Si11  1  0.337662  0.824675  0.500000  1
  Si  Si12  1  0.837662  0.500000  0.824675  1
  Si  Si13  1  0.162338  0.500000  0.175325  1
  Si  Si14  1  0.250000  0.000000  0.000000  1
  Si  Si15  1  0.750000  0.000000  0.000000  1
