# generated using pymatgen
data_Cd10CuNi2
_symmetry_space_group_name_H-M   'P 1'
_cell_length_a   8.63832823
_cell_length_b   8.63832824
_cell_length_c   8.63844400
_cell_angle_alpha   109.46500352
_cell_angle_beta   109.46501059
_cell_angle_gamma   109.48309717
_symmetry_Int_Tables_number   1
_chemical_formula_structural   Cd10CuNi2
_chemical_formula_sum   'Cd20 Cu2 Ni4'
_cell_volume   496.22195581
_cell_formula_units_Z   2
loop_
 _symmetry_equiv_pos_site_id
 _symmetry_equiv_pos_as_xyz
  1  'x, y, z'
loop_
 _atom_site_type_symbol
 _atom_site_label
 _atom_site_symmetry_multiplicity
 _atom_site_fract_x
 _atom_site_fract_y
 _atom_site_fract_z
 _atom_site_occupancy
  Cd  Cd0  1  0.008512  0.008512  0.200670  1
  Cd  Cd1  1  0.807841  0.807841  0.799330  1
  Cd  Cd2  1  0.008429  0.648814  0.653172  1
  Cd  Cd3  1  0.355256  0.995643  0.346828  1
  Cd  Cd4  1  0.336199  0.336199  0.000000  1
  Cd  Cd5  1  0.995643  0.355256  0.346828  1
  Cd  Cd6  1  0.648814  0.008429  0.653172  1
  Cd  Cd7  1  0.637859  0.637859  0.000000  1
  Cd  Cd8  1  0.355527  0.765133  0.000000  1
  Cd  Cd9  1  0.590730  0.237177  0.236550  1
  Cd  Cd10  1  0.354180  0.000626  0.763450  1
  Cd  Cd11  1  0.765133  0.355527  0.000000  1
  Cd  Cd12  1  0.000626  0.354180  0.763450  1
  Cd  Cd13  1  0.237177  0.590730  0.236550  1
  Cd  Cd14  1  0.254057  0.254057  0.612126  1
  Cd  Cd15  1  0.001774  0.754777  0.358597  1
  Cd  Cd16  1  0.754777  0.001774  0.358597  1
  Cd  Cd17  1  0.641932  0.641932  0.387874  1
  Cd  Cd18  1  0.396181  0.643178  0.641403  1
  Cd  Cd19  1  0.643178  0.396181  0.641403  1
  Cu  Cu20  1  0.194115  0.002314  0.000000  1
  Cu  Cu21  1  0.002314  0.194115  0.000000  1
  Ni  Ni22  1  0.667113  0.002845  0.000000  1
  Ni  Ni23  1  0.002845  0.667113  0.000000  1
  Ni  Ni24  1  0.004176  0.004176  0.668568  1
  Ni  Ni25  1  0.335608  0.335608  0.331432  1
