# generated using pymatgen
data_Li4TbHo3Pt4
_symmetry_space_group_name_H-M   'P 1'
_cell_length_a   4.01341200
_cell_length_b   7.00111166
_cell_length_c   8.37593200
_cell_angle_alpha   90.04991307
_cell_angle_beta   90.00000000
_cell_angle_gamma   90.00000000
_symmetry_Int_Tables_number   1
_chemical_formula_structural   Li4TbHo3Pt4
_chemical_formula_sum   'Li4 Tb1 Ho3 Pt4'
_cell_volume   235.34974222
_cell_formula_units_Z   1
loop_
 _symmetry_equiv_pos_site_id
 _symmetry_equiv_pos_as_xyz
  1  'x, y, z'
loop_
 _atom_site_type_symbol
 _atom_site_label
 _atom_site_symmetry_multiplicity
 _atom_site_fract_x
 _atom_site_fract_y
 _atom_site_fract_z
 _atom_site_occupancy
  Li  Li0  1  0.250000  0.628891  0.558842  1
  Li  Li1  1  0.250000  0.128554  0.941124  1
  Li  Li2  1  0.750000  0.371309  0.441100  1
  Li  Li3  1  0.750000  0.871084  0.058811  1
  Tb  Tb4  1  0.750000  0.455277  0.819299  1
  Ho  Ho5  1  0.250000  0.044526  0.319696  1
  Ho  Ho6  1  0.250000  0.544631  0.180805  1
  Ho  Ho7  1  0.750000  0.955532  0.680303  1
  Pt  Pt8  1  0.250000  0.244221  0.622799  1
  Pt  Pt9  1  0.250000  0.747744  0.876479  1
  Pt  Pt10  1  0.750000  0.754723  0.375692  1
  Pt  Pt11  1  0.750000  0.253509  0.125053  1
