# generated using pymatgen
data_Lu2MgAl3Si2Rh
_symmetry_space_group_name_H-M   'P 1'
_cell_length_a   6.76957800
_cell_length_b   6.69744065
_cell_length_c   4.15557900
_cell_angle_alpha   90.00000000
_cell_angle_beta   90.00000000
_cell_angle_gamma   120.35693225
_symmetry_Int_Tables_number   1
_chemical_formula_structural   Lu2MgAl3Si2Rh
_chemical_formula_sum   'Lu2 Mg1 Al3 Si2 Rh1'
_cell_volume   162.57709565
_cell_formula_units_Z   1
loop_
 _symmetry_equiv_pos_site_id
 _symmetry_equiv_pos_as_xyz
  1  'x, y, z'
loop_
 _atom_site_type_symbol
 _atom_site_label
 _atom_site_symmetry_multiplicity
 _atom_site_fract_x
 _atom_site_fract_y
 _atom_site_fract_z
 _atom_site_occupancy
  Lu  Lu0  1  0.998689  0.420323  0.000000  1
  Lu  Lu1  1  0.578367  0.579678  0.000000  1
  Mg  Mg2  1  0.412271  0.000000  0.000000  1
  Al  Al3  1  0.762693  0.000000  0.500001  1
  Al  Al4  1  0.236773  0.236771  0.500001  1
  Al  Al5  1  0.000002  0.763229  0.500001  1
  Si  Si6  1  0.667135  0.330942  0.500001  1
  Si  Si7  1  0.336194  0.669058  0.500001  1
  Rh  Rh8  1  0.007875  0.000000  0.000000  1
