# generated using pymatgen
data_Tb6Co18P13Pt2
_symmetry_space_group_name_H-M   'P 1'
_cell_length_a   12.82076800
_cell_length_b   12.82076869
_cell_length_c   3.70557000
_cell_angle_alpha   90.00000000
_cell_angle_beta   90.00000000
_cell_angle_gamma   120.00000339
_symmetry_Int_Tables_number   1
_chemical_formula_structural   Tb6Co18P13Pt2
_chemical_formula_sum   'Tb6 Co18 P13 Pt2'
_cell_volume   527.48940956
_cell_formula_units_Z   1
loop_
 _symmetry_equiv_pos_site_id
 _symmetry_equiv_pos_as_xyz
  1  'x, y, z'
loop_
 _atom_site_type_symbol
 _atom_site_label
 _atom_site_symmetry_multiplicity
 _atom_site_fract_x
 _atom_site_fract_y
 _atom_site_fract_z
 _atom_site_occupancy
  Tb  Tb0  1  0.463152  0.183321  0.000000  1
  Tb  Tb1  1  0.720170  0.536848  0.000000  1
  Tb  Tb2  1  0.816679  0.279830  0.000000  1
  Tb  Tb3  1  0.537103  0.816683  0.500000  1
  Tb  Tb4  1  0.279581  0.462897  0.500000  1
  Tb  Tb5  1  0.183317  0.720419  0.500000  1
  Co  Co6  1  0.193066  0.091841  0.000000  1
  Co  Co7  1  0.898774  0.806934  0.000000  1
  Co  Co8  1  0.908159  0.101226  0.000000  1
  Co  Co9  1  0.840428  0.923152  0.500000  1
  Co  Co10  1  0.082724  0.159572  0.500000  1
  Co  Co11  1  0.076848  0.917276  0.500000  1
  Co  Co12  1  0.437032  0.415204  0.000000  1
  Co  Co13  1  0.978173  0.562968  0.000000  1
  Co  Co14  1  0.584796  0.021827  0.000000  1
  Co  Co15  1  0.565217  0.586215  0.500000  1
  Co  Co16  1  0.020998  0.434783  0.500000  1
  Co  Co17  1  0.413785  0.979002  0.500000  1
  Co  Co18  1  0.074855  0.316270  0.000000  1
  Co  Co19  1  0.241414  0.925145  0.000000  1
  Co  Co20  1  0.683730  0.758586  0.000000  1
  Co  Co21  1  0.932009  0.684417  0.500000  1
  Co  Co22  1  0.752408  0.067991  0.500000  1
  Co  Co23  1  0.315583  0.247592  0.500000  1
  P  P24  1  0.229447  0.277451  0.000000  1
  P  P25  1  0.048005  0.770553  0.000000  1
  P  P26  1  0.722549  0.951995  0.000000  1
  P  P27  1  0.772713  0.725800  0.500000  1
  P  P28  1  0.953087  0.227287  0.500000  1
  P  P29  1  0.274200  0.046913  0.500000  1
  P  P30  1  0.488038  0.614115  0.000000  1
  P  P31  1  0.126077  0.511962  0.000000  1
  P  P32  1  0.385885  0.873923  0.000000  1
  P  P33  1  0.513208  0.387993  0.500000  1
  P  P34  1  0.874785  0.486792  0.500000  1
  P  P35  1  0.612007  0.125215  0.500000  1
  P  P36  1  0.000000  0.000000  0.000000  1
  Pt  Pt37  1  0.333333  0.666667  0.000000  1
  Pt  Pt38  1  0.666667  0.333333  0.500000  1
