# generated using pymatgen
data_Zr10GaAs5S
_symmetry_space_group_name_H-M   'P 1'
_cell_length_a   5.59639560
_cell_length_b   8.13415687
_cell_length_c   8.13962600
_cell_angle_alpha   119.98100645
_cell_angle_beta   89.93501953
_cell_angle_gamma   90.12904984
_symmetry_Int_Tables_number   1
_chemical_formula_structural   Zr10GaAs5S
_chemical_formula_sum   'Zr10 Ga1 As5 S1'
_cell_volume   320.95047239
_cell_formula_units_Z   1
loop_
 _symmetry_equiv_pos_site_id
 _symmetry_equiv_pos_as_xyz
  1  'x, y, z'
loop_
 _atom_site_type_symbol
 _atom_site_label
 _atom_site_symmetry_multiplicity
 _atom_site_fract_x
 _atom_site_fract_y
 _atom_site_fract_z
 _atom_site_occupancy
  Zr  Zr0  1  0.500361  0.332438  0.665441  1
  Zr  Zr1  1  0.500360  0.666981  0.334549  1
  Zr  Zr2  1  0.999007  0.666602  0.334260  1
  Zr  Zr3  1  0.999001  0.332326  0.665737  1
  Zr  Zr4  1  0.763820  0.256449  0.000025  1
  Zr  Zr5  1  0.763597  0.740374  0.740231  1
  Zr  Zr6  1  0.763567  0.000164  0.259797  1
  Zr  Zr7  1  0.237041  0.743771  0.999977  1
  Zr  Zr8  1  0.236982  0.258743  0.258371  1
  Zr  Zr9  1  0.237012  0.000349  0.741607  1
  Ga  Ga10  1  0.748988  0.610294  0.000007  1
  As  As11  1  0.752271  0.390345  0.389810  1
  As  As12  1  0.752294  0.000584  0.610270  1
  As  As13  1  0.246905  0.394264  0.999956  1
  As  As14  1  0.248967  0.608602  0.610428  1
  As  As15  1  0.248977  0.998183  0.389532  1
  S  S16  1  0.500850  0.999536  0.000003  1
