# generated using pymatgen
data_Tb2ErGa6(Co2Cu)3
_symmetry_space_group_name_H-M   'P 1'
_cell_length_a   4.10128400
_cell_length_b   8.78710253
_cell_length_c   8.78710241
_cell_angle_alpha   60.03677877
_cell_angle_beta   90.00000000
_cell_angle_gamma   90.00000000
_symmetry_Int_Tables_number   1
_chemical_formula_structural   Tb2ErGa6(Co2Cu)3
_chemical_formula_sum   'Tb2 Er1 Ga6 Co6 Cu3'
_cell_volume   274.34856361
_cell_formula_units_Z   1
loop_
 _symmetry_equiv_pos_site_id
 _symmetry_equiv_pos_as_xyz
  1  'x, y, z'
loop_
 _atom_site_type_symbol
 _atom_site_label
 _atom_site_symmetry_multiplicity
 _atom_site_fract_x
 _atom_site_fract_y
 _atom_site_fract_z
 _atom_site_occupancy
  Tb  Tb0  1  0.500000  0.333342  0.333268  1
  Tb  Tb1  1  0.500000  0.666732  0.666658  1
  Er  Er2  1  0.000000  0.000235  0.999765  1
  Ga  Ga3  1  0.000000  0.490729  0.509271  1
  Ga  Ga4  1  0.000000  0.509459  0.999909  1
  Ga  Ga5  1  0.000000  0.000091  0.490541  1
  Ga  Ga6  1  0.500000  0.725218  0.274782  1
  Ga  Ga7  1  0.500000  0.274784  0.999989  1
  Ga  Ga8  1  0.500000  0.000011  0.725216  1
  Co  Co9  1  0.000000  0.189862  0.177057  1
  Co  Co10  1  0.000000  0.177077  0.633100  1
  Co  Co11  1  0.000000  0.633024  0.189873  1
  Co  Co12  1  0.000000  0.822943  0.810138  1
  Co  Co13  1  0.000000  0.366900  0.822923  1
  Co  Co14  1  0.000000  0.810127  0.366976  1
  Cu  Cu15  1  0.500000  0.295164  0.704836  1
  Cu  Cu16  1  0.500000  0.704611  0.000408  1
  Cu  Cu17  1  0.500000  0.999592  0.295389  1
