# generated using pymatgen
data_Lu12InGa(NiRu)2
_symmetry_space_group_name_H-M   'P 1'
_cell_length_a   8.20778663
_cell_length_b   8.20791925
_cell_length_c   8.20778805
_cell_angle_alpha   113.14487655
_cell_angle_beta   110.75329541
_cell_angle_gamma   104.63067034
_symmetry_Int_Tables_number   1
_chemical_formula_structural   Lu12InGa(NiRu)2
_chemical_formula_sum   'Lu12 In1 Ga1 Ni2 Ru2'
_cell_volume   423.20871809
_cell_formula_units_Z   1
loop_
 _symmetry_equiv_pos_site_id
 _symmetry_equiv_pos_as_xyz
  1  'x, y, z'
loop_
 _atom_site_type_symbol
 _atom_site_label
 _atom_site_symmetry_multiplicity
 _atom_site_fract_x
 _atom_site_fract_y
 _atom_site_fract_z
 _atom_site_occupancy
  Lu  Lu0  1  0.434016  0.239079  0.194936  1
  Lu  Lu1  1  0.565984  0.760921  0.805064  1
  Lu  Lu2  1  0.044144  0.239079  0.805064  1
  Lu  Lu3  1  0.955856  0.760921  0.194936  1
  Lu  Lu4  1  0.180195  0.279507  0.459710  1
  Lu  Lu5  1  0.819805  0.720493  0.540290  1
  Lu  Lu6  1  0.180204  0.720493  0.900688  1
  Lu  Lu7  1  0.819796  0.279507  0.099312  1
  Lu  Lu8  1  0.327912  0.640634  0.312723  1
  Lu  Lu9  1  0.672088  0.359366  0.687277  1
  Lu  Lu10  1  0.327906  0.015179  0.687274  1
  Lu  Lu11  1  0.672094  0.984821  0.312726  1
  In  In12  1  0.500000  0.500000  0.000000  1
  Ga  Ga13  1  0.000000  0.000000  0.000000  1
  Ni  Ni14  1  0.118721  0.618631  0.499909  1
  Ni  Ni15  1  0.881279  0.381369  0.500091  1
  Ru  Ru16  1  0.330300  0.000000  0.330300  1
  Ru  Ru17  1  0.669700  0.000000  0.669700  1
