# generated using pymatgen
data_Ho6CrCo17P12
_symmetry_space_group_name_H-M   'P 1'
_cell_length_a   3.68579300
_cell_length_b   10.51379600
_cell_length_c   12.18003400
_cell_angle_alpha   90.00000000
_cell_angle_beta   90.00000000
_cell_angle_gamma   90.00000000
_symmetry_Int_Tables_number   1
_chemical_formula_structural   Ho6CrCo17P12
_chemical_formula_sum   'Ho6 Cr1 Co17 P12'
_cell_volume   471.99672759
_cell_formula_units_Z   1
loop_
 _symmetry_equiv_pos_site_id
 _symmetry_equiv_pos_as_xyz
  1  'x, y, z'
loop_
 _atom_site_type_symbol
 _atom_site_label
 _atom_site_symmetry_multiplicity
 _atom_site_fract_x
 _atom_site_fract_y
 _atom_site_fract_z
 _atom_site_occupancy
  Ho  Ho0  1  0.000000  0.500000  0.522942  1
  Ho  Ho1  1  0.500000  0.000000  0.477235  1
  Ho  Ho2  1  0.500000  0.817125  0.205920  1
  Ho  Ho3  1  0.500000  0.182875  0.205920  1
  Ho  Ho4  1  0.000000  0.682634  0.795033  1
  Ho  Ho5  1  0.000000  0.317366  0.795033  1
  Cr  Cr6  1  0.500000  0.500000  0.157000  1
  Co  Co7  1  0.000000  0.500000  0.986618  1
  Co  Co8  1  0.500000  0.000000  0.014480  1
  Co  Co9  1  0.500000  0.296838  0.430721  1
  Co  Co10  1  0.500000  0.703162  0.430721  1
  Co  Co11  1  0.000000  0.202968  0.568984  1
  Co  Co12  1  0.000000  0.797032  0.568984  1
  Co  Co13  1  0.500000  0.879093  0.709051  1
  Co  Co14  1  0.500000  0.120907  0.709051  1
  Co  Co15  1  0.000000  0.620659  0.290950  1
  Co  Co16  1  0.000000  0.379341  0.290950  1
  Co  Co17  1  0.500000  0.333057  0.993741  1
  Co  Co18  1  0.500000  0.666943  0.993741  1
  Co  Co19  1  0.000000  0.167038  0.006075  1
  Co  Co20  1  0.000000  0.832962  0.006075  1
  Co  Co21  1  0.000000  0.000000  0.840383  1
  Co  Co22  1  0.500000  0.500000  0.702641  1
  Co  Co23  1  0.000000  0.000000  0.296790  1
  P  P24  1  0.500000  0.311161  0.616249  1
  P  P25  1  0.500000  0.688839  0.616249  1
  P  P26  1  0.000000  0.188729  0.383818  1
  P  P27  1  0.000000  0.811271  0.383818  1
  P  P28  1  0.500000  0.500000  0.881770  1
  P  P29  1  0.000000  0.000000  0.117539  1
  P  P30  1  0.500000  0.848316  0.892527  1
  P  P31  1  0.500000  0.151684  0.892527  1
  P  P32  1  0.000000  0.652970  0.107303  1
  P  P33  1  0.000000  0.347030  0.107303  1
  P  P34  1  0.500000  0.500000  0.346087  1
  P  P35  1  0.000000  0.000000  0.655769  1
