# generated using pymatgen
data_TbSm5Co16(ReP6)2
_symmetry_space_group_name_H-M   'P 1'
_cell_length_a   3.75723800
_cell_length_b   10.57476038
_cell_length_c   12.34293144
_cell_angle_alpha   89.96925825
_cell_angle_beta   90.00000000
_cell_angle_gamma   90.00000000
_symmetry_Int_Tables_number   1
_chemical_formula_structural   TbSm5Co16(ReP6)2
_chemical_formula_sum   'Tb1 Sm5 Co16 Re2 P12'
_cell_volume   490.40794287
_cell_formula_units_Z   1
loop_
 _symmetry_equiv_pos_site_id
 _symmetry_equiv_pos_as_xyz
  1  'x, y, z'
loop_
 _atom_site_type_symbol
 _atom_site_label
 _atom_site_symmetry_multiplicity
 _atom_site_fract_x
 _atom_site_fract_y
 _atom_site_fract_z
 _atom_site_occupancy
  Tb  Tb0  1  0.500000  0.817418  0.205494  1
  Sm  Sm1  1  0.000000  0.499993  0.522741  1
  Sm  Sm2  1  0.500000  0.999844  0.476869  1
  Sm  Sm3  1  0.500000  0.181997  0.205883  1
  Sm  Sm4  1  0.000000  0.682517  0.794024  1
  Sm  Sm5  1  0.000000  0.317652  0.794466  1
  Co  Co6  1  0.500000  0.500222  0.703424  1
  Co  Co7  1  0.000000  0.998695  0.296182  1
  Co  Co8  1  0.000000  0.500725  0.988830  1
  Co  Co9  1  0.500000  0.999180  0.012418  1
  Co  Co10  1  0.500000  0.332460  0.991200  1
  Co  Co11  1  0.500000  0.668391  0.991313  1
  Co  Co12  1  0.000000  0.167010  0.009619  1
  Co  Co13  1  0.000000  0.832214  0.010387  1
  Co  Co14  1  0.500000  0.296323  0.430484  1
  Co  Co15  1  0.500000  0.703677  0.429278  1
  Co  Co16  1  0.000000  0.203394  0.569426  1
  Co  Co17  1  0.000000  0.796405  0.568569  1
  Co  Co18  1  0.500000  0.880711  0.709420  1
  Co  Co19  1  0.500000  0.119351  0.710008  1
  Co  Co20  1  0.000000  0.620564  0.289474  1
  Co  Co21  1  0.000000  0.381048  0.290175  1
  Re  Re22  1  0.500000  0.500419  0.155536  1
  Re  Re23  1  0.000000  0.999607  0.844677  1
  P  P24  1  0.500000  0.500400  0.883241  1
  P  P25  1  0.000000  0.998708  0.118162  1
  P  P26  1  0.500000  0.499906  0.345875  1
  P  P27  1  0.000000  0.000040  0.654013  1
  P  P28  1  0.500000  0.309126  0.614925  1
  P  P29  1  0.500000  0.691135  0.614266  1
  P  P30  1  0.000000  0.190505  0.384972  1
  P  P31  1  0.000000  0.809461  0.383220  1
  P  P32  1  0.500000  0.847062  0.893767  1
  P  P33  1  0.500000  0.152759  0.894494  1
  P  P34  1  0.000000  0.654203  0.107067  1
  P  P35  1  0.000000  0.346880  0.106103  1
