# generated using pymatgen
data_Na(AcSn4)3
_symmetry_space_group_name_H-M   'P 1'
_cell_length_a   12.09039138
_cell_length_b   12.09039095
_cell_length_c   12.09039177
_cell_angle_alpha   33.08518912
_cell_angle_beta   33.08519330
_cell_angle_gamma   33.08519480
_symmetry_Int_Tables_number   1
_chemical_formula_structural   Na(AcSn4)3
_chemical_formula_sum   'Na1 Ac3 Sn12'
_cell_volume   468.74000658
_cell_formula_units_Z   1
loop_
 _symmetry_equiv_pos_site_id
 _symmetry_equiv_pos_as_xyz
  1  'x, y, z'
loop_
 _atom_site_type_symbol
 _atom_site_label
 _atom_site_symmetry_multiplicity
 _atom_site_fract_x
 _atom_site_fract_y
 _atom_site_fract_z
 _atom_site_occupancy
  Na  Na0  1  0.289227  0.289227  0.289227  1
  Ac  Ac1  1  0.874564  0.874564  0.874564  1
  Ac  Ac2  1  0.124445  0.124445  0.124445  1
  Ac  Ac3  1  0.710834  0.710834  0.710834  1
  Sn  Sn4  1  0.290021  0.794457  0.794457  1
  Sn  Sn5  1  0.794457  0.794457  0.290021  1
  Sn  Sn6  1  0.848558  0.390450  0.390450  1
  Sn  Sn7  1  0.390450  0.390450  0.848558  1
  Sn  Sn8  1  0.390450  0.848558  0.390450  1
  Sn  Sn9  1  0.607731  0.161371  0.607731  1
  Sn  Sn10  1  0.161371  0.607731  0.607731  1
  Sn  Sn11  1  0.607731  0.607731  0.161371  1
  Sn  Sn12  1  0.794457  0.290021  0.794457  1
  Sn  Sn13  1  0.210659  0.694389  0.210659  1
  Sn  Sn14  1  0.210659  0.210659  0.694389  1
  Sn  Sn15  1  0.694389  0.210659  0.210659  1
