# generated using pymatgen
data_Ho7Sn23Ru6
_symmetry_space_group_name_H-M   'P 1'
_cell_length_a   9.84230000
_cell_length_b   9.84229878
_cell_length_c   10.08053400
_cell_angle_alpha   90.00000000
_cell_angle_beta   90.00000000
_cell_angle_gamma   119.99999738
_symmetry_Int_Tables_number   1
_chemical_formula_structural   Ho7Sn23Ru6
_chemical_formula_sum   'Ho7 Sn23 Ru6'
_cell_volume   845.68246377
_cell_formula_units_Z   1
loop_
 _symmetry_equiv_pos_site_id
 _symmetry_equiv_pos_as_xyz
  1  'x, y, z'
loop_
 _atom_site_type_symbol
 _atom_site_label
 _atom_site_symmetry_multiplicity
 _atom_site_fract_x
 _atom_site_fract_y
 _atom_site_fract_z
 _atom_site_occupancy
  Ho  Ho0  1  0.000000  0.000000  0.000000  1
  Ho  Ho1  1  0.515873  0.484127  0.696698  1
  Ho  Ho2  1  0.515873  0.031745  0.696698  1
  Ho  Ho3  1  0.968255  0.484127  0.696698  1
  Ho  Ho4  1  0.031745  0.515873  0.303302  1
  Ho  Ho5  1  0.484127  0.968255  0.303302  1
  Ho  Ho6  1  0.484127  0.515873  0.303302  1
  Sn  Sn7  1  0.666667  0.333333  0.178494  1
  Sn  Sn8  1  0.666667  0.333333  0.872523  1
  Sn  Sn9  1  0.333333  0.666667  0.127477  1
  Sn  Sn10  1  0.349112  0.349112  0.000000  1
  Sn  Sn11  1  0.000000  0.650888  0.000000  1
  Sn  Sn12  1  0.650888  0.000000  0.000000  1
  Sn  Sn13  1  0.650888  0.650888  0.000000  1
  Sn  Sn14  1  0.333333  0.666667  0.821506  1
  Sn  Sn15  1  0.439326  0.219664  0.461968  1
  Sn  Sn16  1  0.219664  0.780336  0.538032  1
  Sn  Sn17  1  0.219664  0.439326  0.538032  1
  Sn  Sn18  1  0.560674  0.780336  0.538032  1
  Sn  Sn19  1  0.118423  0.881577  0.273663  1
  Sn  Sn20  1  0.780336  0.560674  0.461968  1
  Sn  Sn21  1  0.780336  0.219664  0.461968  1
  Sn  Sn22  1  0.349112  0.000000  0.000000  1
  Sn  Sn23  1  0.118423  0.236845  0.273663  1
  Sn  Sn24  1  0.763155  0.881577  0.273663  1
  Sn  Sn25  1  0.236845  0.118423  0.726337  1
  Sn  Sn26  1  0.881577  0.763155  0.726337  1
  Sn  Sn27  1  0.881577  0.118423  0.726337  1
  Sn  Sn28  1  0.000000  0.000000  0.500000  1
  Sn  Sn29  1  0.000000  0.349112  0.000000  1
  Ru  Ru30  1  0.169964  0.830036  0.797900  1
  Ru  Ru31  1  0.169964  0.339927  0.797900  1
  Ru  Ru32  1  0.660073  0.830036  0.797900  1
  Ru  Ru33  1  0.339927  0.169964  0.202100  1
  Ru  Ru34  1  0.830036  0.660073  0.202100  1
  Ru  Ru35  1  0.830036  0.169964  0.202100  1
