# generated using pymatgen
data_Lu4Fe5Si10Rh
_symmetry_space_group_name_H-M   'P 1'
_cell_length_a   7.96490218
_cell_length_b   7.96490193
_cell_length_c   5.35766815
_cell_angle_alpha   70.32694067
_cell_angle_beta   70.32694602
_cell_angle_gamma   95.19961979
_symmetry_Int_Tables_number   1
_chemical_formula_structural   Lu4Fe5Si10Rh
_chemical_formula_sum   'Lu4 Fe5 Si10 Rh1'
_cell_volume   293.28570946
_cell_formula_units_Z   1
loop_
 _symmetry_equiv_pos_site_id
 _symmetry_equiv_pos_as_xyz
  1  'x, y, z'
loop_
 _atom_site_type_symbol
 _atom_site_label
 _atom_site_symmetry_multiplicity
 _atom_site_fract_x
 _atom_site_fract_y
 _atom_site_fract_z
 _atom_site_occupancy
  Lu  Lu0  1  0.869531  0.588556  0.777813  1
  Lu  Lu1  1  0.130555  0.411536  0.235895  1
  Lu  Lu2  1  0.411444  0.130469  0.722187  1
  Lu  Lu3  1  0.588464  0.869445  0.264105  1
  Fe  Fe4  1  0.556391  0.266665  0.089046  1
  Fe  Fe5  1  0.733335  0.443609  0.410954  1
  Fe  Fe6  1  0.443675  0.733386  0.911962  1
  Fe  Fe7  1  0.266614  0.556325  0.588038  1
  Fe  Fe8  1  0.999962  0.000038  0.250000  1
  Si  Si9  1  0.786742  0.213258  0.750000  1
  Si  Si10  1  0.210126  0.789874  0.250000  1
  Si  Si11  1  0.500000  0.500000  0.750000  1
  Si  Si12  1  0.499988  0.500012  0.250000  1
  Si  Si13  1  0.213262  0.786738  0.750000  1
  Si  Si14  1  0.789894  0.210106  0.250000  1
  Si  Si15  1  0.272259  0.080942  0.310554  1
  Si  Si16  1  0.727723  0.918983  0.663409  1
  Si  Si17  1  0.919058  0.727741  0.189446  1
  Si  Si18  1  0.081017  0.272277  0.836591  1
  Rh  Rh19  1  0.999959  0.000041  0.750000  1
