# generated using pymatgen
data_Hf4Ti3NbP4
_symmetry_space_group_name_H-M   'P 1'
_cell_length_a   3.53172400
_cell_length_b   6.75742826
_cell_length_c   8.21965931
_cell_angle_alpha   89.96846324
_cell_angle_beta   90.00000000
_cell_angle_gamma   90.00000000
_symmetry_Int_Tables_number   1
_chemical_formula_structural   Hf4Ti3NbP4
_chemical_formula_sum   'Hf4 Ti3 Nb1 P4'
_cell_volume   196.16519376
_cell_formula_units_Z   1
loop_
 _symmetry_equiv_pos_site_id
 _symmetry_equiv_pos_as_xyz
  1  'x, y, z'
loop_
 _atom_site_type_symbol
 _atom_site_label
 _atom_site_symmetry_multiplicity
 _atom_site_fract_x
 _atom_site_fract_y
 _atom_site_fract_z
 _atom_site_occupancy
  Hf  Hf0  1  0.250000  0.032810  0.666003  1
  Hf  Hf1  1  0.250000  0.534987  0.830514  1
  Hf  Hf2  1  0.750000  0.464660  0.170362  1
  Hf  Hf3  1  0.750000  0.964751  0.332721  1
  Ti  Ti4  1  0.750000  0.863261  0.941039  1
  Ti  Ti5  1  0.250000  0.637091  0.440906  1
  Ti  Ti6  1  0.750000  0.364826  0.560356  1
  Nb  Nb7  1  0.250000  0.138878  0.058653  1
  P  P8  1  0.250000  0.264515  0.363545  1
  P  P9  1  0.250000  0.760875  0.142500  1
  P  P10  1  0.750000  0.736683  0.641491  1
  P  P11  1  0.750000  0.236663  0.851910  1
