# generated using pymatgen
data_ErTh3(MgNi2)2
_symmetry_space_group_name_H-M   'P 1'
_cell_length_a   7.58067589
_cell_length_b   7.58067589
_cell_length_c   3.67089000
_cell_angle_alpha   90.00000000
_cell_angle_beta   90.00000000
_cell_angle_gamma   90.86081932
_symmetry_Int_Tables_number   1
_chemical_formula_structural   ErTh3(MgNi2)2
_chemical_formula_sum   'Er1 Th3 Mg2 Ni4'
_cell_volume   210.92993147
_cell_formula_units_Z   1
loop_
 _symmetry_equiv_pos_site_id
 _symmetry_equiv_pos_as_xyz
  1  'x, y, z'
loop_
 _atom_site_type_symbol
 _atom_site_label
 _atom_site_symmetry_multiplicity
 _atom_site_fract_x
 _atom_site_fract_y
 _atom_site_fract_z
 _atom_site_occupancy
  Er  Er0  1  0.828843  0.671157  0.500000  1
  Th  Th1  1  0.673364  0.169626  0.500000  1
  Th  Th2  1  0.330374  0.826636  0.500000  1
  Th  Th3  1  0.167200  0.332800  0.500000  1
  Mg  Mg4  1  0.997562  0.991808  0.000000  1
  Mg  Mg5  1  0.508192  0.502438  0.000000  1
  Ni  Ni6  1  0.127912  0.625456  0.000000  1
  Ni  Ni7  1  0.874544  0.372088  0.000000  1
  Ni  Ni8  1  0.620432  0.879568  0.000000  1
  Ni  Ni9  1  0.371577  0.128423  0.000000  1
