# generated using pymatgen
data_PrNd2(Al3Os)4
_symmetry_space_group_name_H-M   'P 1'
_cell_length_a   8.90305400
_cell_length_b   8.91208526
_cell_length_c   9.70956600
_cell_angle_alpha   90.00000000
_cell_angle_beta   90.00000000
_cell_angle_gamma   119.96649099
_symmetry_Int_Tables_number   1
_chemical_formula_structural   PrNd2(Al3Os)4
_chemical_formula_sum   'Pr2 Nd4 Al24 Os8'
_cell_volume   667.41403402
_cell_formula_units_Z   2
loop_
 _symmetry_equiv_pos_site_id
 _symmetry_equiv_pos_as_xyz
  1  'x, y, z'
loop_
 _atom_site_type_symbol
 _atom_site_label
 _atom_site_symmetry_multiplicity
 _atom_site_fract_x
 _atom_site_fract_y
 _atom_site_fract_z
 _atom_site_occupancy
  Pr  Pr0  1  0.192420  0.384841  0.250000  1
  Pr  Pr1  1  0.807580  0.615159  0.750000  1
  Nd  Nd2  1  0.614978  0.807687  0.250000  1
  Nd  Nd3  1  0.385022  0.192313  0.750000  1
  Nd  Nd4  1  0.192707  0.807687  0.250000  1
  Nd  Nd5  1  0.807293  0.192313  0.750000  1
  Al  Al6  1  0.333583  0.667167  0.009468  1
  Al  Al7  1  0.666417  0.332833  0.990532  1
  Al  Al8  1  0.666417  0.332833  0.509468  1
  Al  Al9  1  0.333583  0.667167  0.490532  1
  Al  Al10  1  0.163210  0.326420  0.574543  1
  Al  Al11  1  0.836790  0.673580  0.425457  1
  Al  Al12  1  0.673211  0.836909  0.573426  1
  Al  Al13  1  0.836790  0.673580  0.074543  1
  Al  Al14  1  0.326789  0.163091  0.426574  1
  Al  Al15  1  0.163210  0.326420  0.925457  1
  Al  Al16  1  0.163698  0.836909  0.573426  1
  Al  Al17  1  0.326789  0.163091  0.073426  1
  Al  Al18  1  0.836302  0.163091  0.426574  1
  Al  Al19  1  0.673211  0.836909  0.926574  1
  Al  Al20  1  0.836302  0.163091  0.073426  1
  Al  Al21  1  0.163698  0.836909  0.926574  1
  Al  Al22  1  0.561834  0.123669  0.250000  1
  Al  Al23  1  0.438166  0.876331  0.750000  1
  Al  Al24  1  0.875743  0.438422  0.250000  1
  Al  Al25  1  0.124257  0.561578  0.750000  1
  Al  Al26  1  0.562679  0.438422  0.250000  1
  Al  Al27  1  0.437321  0.561578  0.750000  1
  Al  Al28  1  0.999770  0.999539  0.250000  1
  Al  Al29  1  0.000230  0.000461  0.750000  1
  Os  Os30  1  0.500000  0.000000  0.000000  1
  Os  Os31  1  0.000000  0.500000  0.000000  1
  Os  Os32  1  0.500000  0.000000  0.500000  1
  Os  Os33  1  0.500000  0.500000  0.000000  1
  Os  Os34  1  0.000000  0.500000  0.500000  1
  Os  Os35  1  0.500000  0.500000  0.500000  1
  Os  Os36  1  0.000000  0.000000  0.000000  1
  Os  Os37  1  0.000000  0.000000  0.500000  1
