# generated using pymatgen
data_Tm20(Ru3Pt)3
_symmetry_space_group_name_H-M   'P 1'
_cell_length_a   10.71675667
_cell_length_b   10.71675725
_cell_length_c   6.32163829
_cell_angle_alpha   89.95979494
_cell_angle_beta   89.95979026
_cell_angle_gamma   90.20466197
_symmetry_Int_Tables_number   1
_chemical_formula_structural   Tm20(Ru3Pt)3
_chemical_formula_sum   'Tm20 Ru9 Pt3'
_cell_volume   726.02808394
_cell_formula_units_Z   1
loop_
 _symmetry_equiv_pos_site_id
 _symmetry_equiv_pos_as_xyz
  1  'x, y, z'
loop_
 _atom_site_type_symbol
 _atom_site_label
 _atom_site_symmetry_multiplicity
 _atom_site_fract_x
 _atom_site_fract_y
 _atom_site_fract_z
 _atom_site_occupancy
  Tm  Tm0  1  0.295126  0.085297  0.370485  1
  Tm  Tm1  1  0.294405  0.909606  0.876818  1
  Tm  Tm2  1  0.703344  0.088616  0.873184  1
  Tm  Tm3  1  0.701611  0.910950  0.372653  1
  Tm  Tm4  1  0.582803  0.791002  0.875229  1
  Tm  Tm5  1  0.583046  0.208649  0.375590  1
  Tm  Tm6  1  0.412565  0.791019  0.376205  1
  Tm  Tm7  1  0.416613  0.208662  0.875279  1
  Tm  Tm8  1  0.208998  0.417197  0.624771  1
  Tm  Tm9  1  0.208981  0.587435  0.123795  1
  Tm  Tm10  1  0.791351  0.416954  0.124410  1
  Tm  Tm11  1  0.791338  0.583387  0.624721  1
  Tm  Tm12  1  0.914703  0.704874  0.129515  1
  Tm  Tm13  1  0.911384  0.296656  0.626816  1
  Tm  Tm14  1  0.090394  0.705595  0.623182  1
  Tm  Tm15  1  0.089050  0.298389  0.127347  1
  Tm  Tm16  1  0.001508  0.997107  0.498521  1
  Tm  Tm17  1  0.002893  0.998492  0.001479  1
  Tm  Tm18  1  0.499876  0.499660  0.000397  1
  Tm  Tm19  1  0.500340  0.500124  0.499603  1
  Ru  Ru20  1  0.150473  0.849527  0.250000  1
  Ru  Ru21  1  0.654355  0.345645  0.750000  1
  Ru  Ru22  1  0.654728  0.654733  0.250107  1
  Ru  Ru23  1  0.345267  0.345272  0.249893  1
  Ru  Ru24  1  0.347100  0.652900  0.750000  1
  Ru  Ru25  1  0.499729  0.999560  0.123150  1
  Ru  Ru26  1  0.500261  0.999783  0.624048  1
  Ru  Ru27  1  0.000217  0.499739  0.875952  1
  Ru  Ru28  1  0.000440  0.500271  0.376850  1
  Pt  Pt29  1  0.847913  0.152087  0.250000  1
  Pt  Pt30  1  0.846307  0.847116  0.750265  1
  Pt  Pt31  1  0.152884  0.153693  0.749735  1
