# generated using pymatgen
data_Zr4SiBi2
_symmetry_space_group_name_H-M   'P 1'
_cell_length_a   8.31712189
_cell_length_b   8.31712270
_cell_length_c   8.31712341
_cell_angle_alpha   95.85908639
_cell_angle_beta   95.85908743
_cell_angle_gamma   142.73425342
_symmetry_Int_Tables_number   1
_chemical_formula_structural   Zr4SiBi2
_chemical_formula_sum   'Zr8 Si2 Bi4'
_cell_volume   330.11166728
_cell_formula_units_Z   2
loop_
 _symmetry_equiv_pos_site_id
 _symmetry_equiv_pos_as_xyz
  1  'x, y, z'
loop_
 _atom_site_type_symbol
 _atom_site_label
 _atom_site_symmetry_multiplicity
 _atom_site_fract_x
 _atom_site_fract_y
 _atom_site_fract_z
 _atom_site_occupancy
  Zr  Zr0  1  0.083156  0.200330  0.283486  1
  Zr  Zr1  1  0.916844  0.799670  0.716514  1
  Zr  Zr2  1  0.799670  0.083156  0.882824  1
  Zr  Zr3  1  0.416844  0.700330  0.117176  1
  Zr  Zr4  1  0.200330  0.916844  0.117176  1
  Zr  Zr5  1  0.583156  0.299670  0.882824  1
  Zr  Zr6  1  0.700330  0.583156  0.283486  1
  Zr  Zr7  1  0.299670  0.416844  0.716514  1
  Si  Si8  1  0.250000  0.250000  0.000000  1
  Si  Si9  1  0.750000  0.750000  0.000000  1
  Bi  Bi10  1  0.139503  0.639503  0.779005  1
  Bi  Bi11  1  0.860497  0.360497  0.220995  1
  Bi  Bi12  1  0.360497  0.139503  0.500000  1
  Bi  Bi13  1  0.639503  0.860497  0.500000  1
