# generated using pymatgen
data_TaNb2CrSi3Ru2
_symmetry_space_group_name_H-M   'P 1'
_cell_length_a   7.46120751
_cell_length_b   7.46120667
_cell_length_c   7.46120724
_cell_angle_alpha   127.74108373
_cell_angle_beta   123.59007596
_cell_angle_gamma   80.48292014
_symmetry_Int_Tables_number   1
_chemical_formula_structural   TaNb2CrSi3Ru2
_chemical_formula_sum   'Ta2 Nb4 Cr2 Si6 Ru4'
_cell_volume   263.97672923
_cell_formula_units_Z   2
loop_
 _symmetry_equiv_pos_site_id
 _symmetry_equiv_pos_as_xyz
  1  'x, y, z'
loop_
 _atom_site_type_symbol
 _atom_site_label
 _atom_site_symmetry_multiplicity
 _atom_site_fract_x
 _atom_site_fract_y
 _atom_site_fract_z
 _atom_site_occupancy
  Ta  Ta0  1  0.747457  0.074598  0.827141  1
  Ta  Ta1  1  0.252543  0.079684  0.327141  1
  Nb  Nb2  1  0.940564  0.903322  0.462758  1
  Nb  Nb3  1  0.059436  0.522194  0.962758  1
  Nb  Nb4  1  0.538552  0.508331  0.469778  1
  Nb  Nb5  1  0.461448  0.931226  0.969778  1
  Cr  Cr6  1  0.500000  0.754289  0.254289  1
  Cr  Cr7  1  0.000000  0.754289  0.754289  1
  Si  Si8  1  0.722643  0.463746  0.241103  1
  Si  Si9  1  0.277357  0.518460  0.741103  1
  Si  Si10  1  0.672572  0.175487  0.511673  1
  Si  Si11  1  0.327428  0.839100  0.502915  1
  Si  Si12  1  0.163814  0.175487  0.002915  1
  Si  Si13  1  0.836186  0.839100  0.011673  1
  Ru  Ru14  1  0.909370  0.255082  0.413531  1
  Ru  Ru15  1  0.090630  0.504162  0.345712  1
  Ru  Ru16  1  0.341551  0.255082  0.845712  1
  Ru  Ru17  1  0.658449  0.504162  0.913531  1
