# generated using pymatgen
data_Gd4(YRh)3
_symmetry_space_group_name_H-M   'P 1'
_cell_length_a   9.82620100
_cell_length_b   9.82620202
_cell_length_c   6.27938400
_cell_angle_alpha   90.00000000
_cell_angle_beta   90.00000000
_cell_angle_gamma   120.00000667
_symmetry_Int_Tables_number   1
_chemical_formula_structural   Gd4(YRh)3
_chemical_formula_sum   'Gd8 Y6 Rh6'
_cell_volume   525.07214164
_cell_formula_units_Z   2
loop_
 _symmetry_equiv_pos_site_id
 _symmetry_equiv_pos_as_xyz
  1  'x, y, z'
loop_
 _atom_site_type_symbol
 _atom_site_label
 _atom_site_symmetry_multiplicity
 _atom_site_fract_x
 _atom_site_fract_y
 _atom_site_fract_z
 _atom_site_occupancy
  Gd  Gd0  1  0.333333  0.666667  0.457879  1
  Gd  Gd1  1  0.666667  0.333333  0.957879  1
  Gd  Gd2  1  0.123715  0.876285  0.255463  1
  Gd  Gd3  1  0.752571  0.876285  0.255463  1
  Gd  Gd4  1  0.123715  0.247429  0.255463  1
  Gd  Gd5  1  0.876285  0.123715  0.755463  1
  Gd  Gd6  1  0.247429  0.123715  0.755463  1
  Gd  Gd7  1  0.876285  0.752571  0.755463  1
  Y  Y8  1  0.541045  0.458955  0.444639  1
  Y  Y9  1  0.917908  0.458955  0.444639  1
  Y  Y10  1  0.541045  0.082092  0.444639  1
  Y  Y11  1  0.458955  0.541045  0.944639  1
  Y  Y12  1  0.082092  0.541045  0.944639  1
  Y  Y13  1  0.458955  0.917908  0.944639  1
  Rh  Rh14  1  0.810697  0.189303  0.178214  1
  Rh  Rh15  1  0.378607  0.189303  0.178214  1
  Rh  Rh16  1  0.810697  0.621393  0.178214  1
  Rh  Rh17  1  0.189303  0.810697  0.678214  1
  Rh  Rh18  1  0.621393  0.810697  0.678214  1
  Rh  Rh19  1  0.189303  0.378607  0.678214  1
