# generated using pymatgen
data_Dy3Er5Te12
_symmetry_space_group_name_H-M   'P 1'
_cell_length_a   14.37676048
_cell_length_b   13.71266448
_cell_length_c   7.52372499
_cell_angle_alpha   79.40120444
_cell_angle_beta   69.64162366
_cell_angle_gamma   30.98051629
_symmetry_Int_Tables_number   1
_chemical_formula_structural   Dy3Er5Te12
_chemical_formula_sum   'Dy3 Er5 Te12'
_cell_volume   695.43039283
_cell_formula_units_Z   1
loop_
 _symmetry_equiv_pos_site_id
 _symmetry_equiv_pos_as_xyz
  1  'x, y, z'
loop_
 _atom_site_type_symbol
 _atom_site_label
 _atom_site_symmetry_multiplicity
 _atom_site_fract_x
 _atom_site_fract_y
 _atom_site_fract_z
 _atom_site_occupancy
  Dy  Dy0  1  0.000560  0.000560  0.499440  1
  Dy  Dy1  1  0.499438  0.499438  0.000562  1
  Dy  Dy2  1  0.249448  0.249448  0.750552  1
  Er  Er3  1  0.750505  0.750505  0.249495  1
  Er  Er4  1  0.667309  0.667309  0.832691  1
  Er  Er5  1  0.832675  0.832675  0.667325  1
  Er  Er6  1  0.582699  0.582699  0.417301  1
  Er  Er7  1  0.417246  0.417246  0.582754  1
  Te  Te8  1  0.668222  0.165312  0.830604  1
  Te  Te9  1  0.335862  0.830615  0.165282  1
  Te  Te10  1  0.830615  0.335862  0.668241  1
  Te  Te11  1  0.165312  0.668222  0.335862  1
  Te  Te12  1  0.582271  0.083713  0.418846  1
  Te  Te13  1  0.913648  0.420463  0.085290  1
  Te  Te14  1  0.420463  0.913648  0.580600  1
  Te  Te15  1  0.083713  0.582271  0.915170  1
  Te  Te16  1  0.750965  0.249035  0.249051  1
  Te  Te17  1  0.249035  0.750965  0.750949  1
  Te  Te18  1  0.499717  0.000296  0.001694  1
  Te  Te19  1  0.000296  0.499717  0.498293  1
