# generated using pymatgen
data_LiNd3(P3Rh4)2
_symmetry_space_group_name_H-M   'P 1'
_cell_length_a   3.97537700
_cell_length_b   11.33305900
_cell_length_c   12.94039800
_cell_angle_alpha   90.00000000
_cell_angle_beta   90.00000000
_cell_angle_gamma   90.00000000
_symmetry_Int_Tables_number   1
_chemical_formula_structural   LiNd3(P3Rh4)2
_chemical_formula_sum   'Li2 Nd6 P12 Rh16'
_cell_volume   583.00610739
_cell_formula_units_Z   2
loop_
 _symmetry_equiv_pos_site_id
 _symmetry_equiv_pos_as_xyz
  1  'x, y, z'
loop_
 _atom_site_type_symbol
 _atom_site_label
 _atom_site_symmetry_multiplicity
 _atom_site_fract_x
 _atom_site_fract_y
 _atom_site_fract_z
 _atom_site_occupancy
  Li  Li0  1  0.500000  0.500000  0.154615  1
  Li  Li1  1  0.000000  0.000000  0.845385  1
  Nd  Nd2  1  0.000000  0.500000  0.516391  1
  Nd  Nd3  1  0.500000  0.000000  0.483609  1
  Nd  Nd4  1  0.500000  0.819002  0.205254  1
  Nd  Nd5  1  0.500000  0.180998  0.205254  1
  Nd  Nd6  1  0.000000  0.680998  0.794746  1
  Nd  Nd7  1  0.000000  0.319002  0.794746  1
  P  P8  1  0.500000  0.500000  0.884927  1
  P  P9  1  0.000000  0.000000  0.115073  1
  P  P10  1  0.500000  0.500000  0.341639  1
  P  P11  1  0.000000  0.000000  0.658361  1
  P  P12  1  0.500000  0.310059  0.616744  1
  P  P13  1  0.500000  0.689941  0.616744  1
  P  P14  1  0.000000  0.189941  0.383256  1
  P  P15  1  0.000000  0.810059  0.383256  1
  P  P16  1  0.500000  0.842989  0.893442  1
  P  P17  1  0.500000  0.157011  0.893442  1
  P  P18  1  0.000000  0.657011  0.106558  1
  P  P19  1  0.000000  0.342989  0.106558  1
  Rh  Rh20  1  0.500000  0.500000  0.703425  1
  Rh  Rh21  1  0.000000  0.000000  0.296575  1
  Rh  Rh22  1  0.000000  0.500000  0.986646  1
  Rh  Rh23  1  0.500000  0.000000  0.013354  1
  Rh  Rh24  1  0.500000  0.333138  0.997916  1
  Rh  Rh25  1  0.500000  0.666862  0.997916  1
  Rh  Rh26  1  0.000000  0.166862  0.002084  1
  Rh  Rh27  1  0.000000  0.833138  0.002084  1
  Rh  Rh28  1  0.500000  0.292245  0.430951  1
  Rh  Rh29  1  0.500000  0.707755  0.430951  1
  Rh  Rh30  1  0.000000  0.207755  0.569049  1
  Rh  Rh31  1  0.000000  0.792245  0.569049  1
  Rh  Rh32  1  0.500000  0.875722  0.709788  1
  Rh  Rh33  1  0.500000  0.124278  0.709788  1
  Rh  Rh34  1  0.000000  0.624278  0.290212  1
  Rh  Rh35  1  0.000000  0.375722  0.290212  1
