# generated using pymatgen
data_Ho20As2IrRu9
_symmetry_space_group_name_H-M   'P 1'
_cell_length_a   10.83416311
_cell_length_b   10.83416252
_cell_length_c   6.38794408
_cell_angle_alpha   89.92149529
_cell_angle_beta   89.92149248
_cell_angle_gamma   89.07118278
_symmetry_Int_Tables_number   1
_chemical_formula_structural   Ho20As2IrRu9
_chemical_formula_sum   'Ho20 As2 Ir1 Ru9'
_cell_volume   749.71111869
_cell_formula_units_Z   1
loop_
 _symmetry_equiv_pos_site_id
 _symmetry_equiv_pos_as_xyz
  1  'x, y, z'
loop_
 _atom_site_type_symbol
 _atom_site_label
 _atom_site_symmetry_multiplicity
 _atom_site_fract_x
 _atom_site_fract_y
 _atom_site_fract_z
 _atom_site_occupancy
  Ho  Ho0  1  0.288590  0.086637  0.377408  1
  Ho  Ho1  1  0.292476  0.913061  0.877195  1
  Ho  Ho2  1  0.702161  0.075436  0.871073  1
  Ho  Ho3  1  0.704350  0.906850  0.379619  1
  Ho  Ho4  1  0.587107  0.789377  0.877877  1
  Ho  Ho5  1  0.575344  0.201654  0.370549  1
  Ho  Ho6  1  0.412338  0.792597  0.377369  1
  Ho  Ho7  1  0.406786  0.204889  0.879663  1
  Ho  Ho8  1  0.210623  0.412893  0.622123  1
  Ho  Ho9  1  0.207403  0.587662  0.122631  1
  Ho  Ho10  1  0.798346  0.424656  0.129451  1
  Ho  Ho11  1  0.795111  0.593214  0.620337  1
  Ho  Ho12  1  0.913363  0.711410  0.122592  1
  Ho  Ho13  1  0.924564  0.297839  0.628927  1
  Ho  Ho14  1  0.086939  0.707524  0.622805  1
  Ho  Ho15  1  0.093150  0.295650  0.120381  1
  Ho  Ho16  1  0.001086  0.997710  0.500758  1
  Ho  Ho17  1  0.002290  0.998914  0.999242  1
  Ho  Ho18  1  0.498950  0.500460  0.001246  1
  Ho  Ho19  1  0.499540  0.501050  0.498754  1
  As  As20  1  0.840184  0.159816  0.250000  1
  As  As21  1  0.660385  0.339615  0.750000  1
  Ir  Ir22  1  0.346234  0.653766  0.750000  1
  Ru  Ru23  1  0.849288  0.850267  0.749290  1
  Ru  Ru24  1  0.149733  0.150712  0.750710  1
  Ru  Ru25  1  0.154357  0.845643  0.250000  1
  Ru  Ru26  1  0.649317  0.649558  0.250304  1
  Ru  Ru27  1  0.350442  0.350683  0.249696  1
  Ru  Ru28  1  0.499061  0.999746  0.121814  1
  Ru  Ru29  1  0.499757  0.999530  0.621903  1
  Ru  Ru30  1  0.000470  0.500243  0.878097  1
  Ru  Ru31  1  0.000254  0.500939  0.378186  1
