# generated using pymatgen
data_Ho8Er12Sn3Pb13
_symmetry_space_group_name_H-M   'P 1'
_cell_length_a   8.15125851
_cell_length_b   15.52434000
_cell_length_c   8.19517239
_cell_angle_alpha   90.00000000
_cell_angle_beta   89.89946035
_cell_angle_gamma   90.00000000
_symmetry_Int_Tables_number   1
_chemical_formula_structural   Ho8Er12Sn3Pb13
_chemical_formula_sum   'Ho8 Er12 Sn3 Pb13'
_cell_volume   1037.03935406
_cell_formula_units_Z   1
loop_
 _symmetry_equiv_pos_site_id
 _symmetry_equiv_pos_as_xyz
  1  'x, y, z'
loop_
 _atom_site_type_symbol
 _atom_site_label
 _atom_site_symmetry_multiplicity
 _atom_site_fract_x
 _atom_site_fract_y
 _atom_site_fract_z
 _atom_site_occupancy
  Ho  Ho0  1  0.462688  0.601548  0.672623  1
  Ho  Ho1  1  0.963112  0.898450  0.827726  1
  Ho  Ho2  1  0.537100  0.100772  0.327419  1
  Ho  Ho3  1  0.036732  0.400150  0.175909  1
  Ho  Ho4  1  0.537100  0.399228  0.327419  1
  Ho  Ho5  1  0.036732  0.099850  0.175909  1
  Ho  Ho6  1  0.462688  0.898452  0.672623  1
  Ho  Ho7  1  0.963112  0.601550  0.827726  1
  Er  Er8  1  0.620802  0.623187  0.161473  1
  Er  Er9  1  0.121543  0.877004  0.338281  1
  Er  Er10  1  0.381090  0.122245  0.838079  1
  Er  Er11  1  0.876654  0.378826  0.659346  1
  Er  Er12  1  0.381090  0.377755  0.838079  1
  Er  Er13  1  0.876654  0.121174  0.659346  1
  Er  Er14  1  0.620802  0.876813  0.161473  1
  Er  Er15  1  0.121543  0.622996  0.338281  1
  Er  Er16  1  0.788844  0.750000  0.492650  1
  Er  Er17  1  0.288545  0.750000  0.007335  1
  Er  Er18  1  0.212162  0.250000  0.505615  1
  Er  Er19  1  0.709072  0.250000  0.993388  1
  Sn  Sn20  1  0.425077  0.750000  0.376079  1
  Sn  Sn21  1  0.925240  0.750000  0.124606  1
  Sn  Sn22  1  0.575232  0.250000  0.623863  1
  Pb  Pb23  1  0.717903  0.458316  0.967890  1
  Pb  Pb24  1  0.218216  0.041657  0.532883  1
  Pb  Pb25  1  0.282608  0.957891  0.031883  1
  Pb  Pb26  1  0.781910  0.542355  0.466433  1
  Pb  Pb27  1  0.282608  0.542109  0.031883  1
  Pb  Pb28  1  0.781910  0.957645  0.466433  1
  Pb  Pb29  1  0.717903  0.041684  0.967890  1
  Pb  Pb30  1  0.218216  0.458343  0.532883  1
  Pb  Pb31  1  0.073328  0.250000  0.875334  1
  Pb  Pb32  1  0.652061  0.750000  0.847428  1
  Pb  Pb33  1  0.152242  0.750000  0.652789  1
  Pb  Pb34  1  0.349388  0.250000  0.153783  1
  Pb  Pb35  1  0.848099  0.250000  0.347241  1
