# generated using pymatgen
data_Gd4Dy2AuO12
_symmetry_space_group_name_H-M   'P 1'
_cell_length_a   6.53401541
_cell_length_b   6.52199387
_cell_length_c   6.54837000
_cell_angle_alpha   98.58073274
_cell_angle_beta   98.87121677
_cell_angle_gamma   98.64821412
_symmetry_Int_Tables_number   1
_chemical_formula_structural   Gd4Dy2AuO12
_chemical_formula_sum   'Gd4 Dy2 Au1 O12'
_cell_volume   268.30573523
_cell_formula_units_Z   1
loop_
 _symmetry_equiv_pos_site_id
 _symmetry_equiv_pos_as_xyz
  1  'x, y, z'
loop_
 _atom_site_type_symbol
 _atom_site_label
 _atom_site_symmetry_multiplicity
 _atom_site_fract_x
 _atom_site_fract_y
 _atom_site_fract_z
 _atom_site_occupancy
  Gd  Gd0  1  0.304506  0.143186  0.609234  1
  Gd  Gd1  1  0.699363  0.861016  0.392257  1
  Gd  Gd2  1  0.392569  0.695594  0.860230  1
  Gd  Gd3  1  0.139330  0.606674  0.300252  1
  Dy  Dy4  1  0.857153  0.388898  0.698697  1
  Dy  Dy5  1  0.609912  0.300562  0.138406  1
  Au  Au6  1  0.999759  0.000643  0.999621  1
  O  O7  1  0.938765  0.048632  0.693782  1
  O  O8  1  0.951587  0.307373  0.058816  1
  O  O9  1  0.592449  0.178562  0.437916  1
  O  O10  1  0.821543  0.559486  0.410460  1
  O  O11  1  0.308335  0.063178  0.957247  1
  O  O12  1  0.563565  0.409861  0.823709  1
  O  O13  1  0.438919  0.587753  0.179640  1
  O  O14  1  0.692600  0.941889  0.045198  1
  O  O15  1  0.174852  0.437487  0.589064  1
  O  O16  1  0.409929  0.823253  0.563143  1
  O  O17  1  0.043741  0.691920  0.936498  1
  O  O18  1  0.061124  0.954035  0.305832  1
