# generated using pymatgen
data_Tb3MgCd2Ga2Ag
_symmetry_space_group_name_H-M   'P 1'
_cell_length_a   7.37962300
_cell_length_b   7.40160433
_cell_length_c   4.36752400
_cell_angle_alpha   90.00000000
_cell_angle_beta   90.00000000
_cell_angle_gamma   119.90181261
_symmetry_Int_Tables_number   1
_chemical_formula_structural   Tb3MgCd2Ga2Ag
_chemical_formula_sum   'Tb3 Mg1 Cd2 Ga2 Ag1'
_cell_volume   206.80203801
_cell_formula_units_Z   1
loop_
 _symmetry_equiv_pos_site_id
 _symmetry_equiv_pos_as_xyz
  1  'x, y, z'
loop_
 _atom_site_type_symbol
 _atom_site_label
 _atom_site_symmetry_multiplicity
 _atom_site_fract_x
 _atom_site_fract_y
 _atom_site_fract_z
 _atom_site_occupancy
  Tb  Tb0  1  0.999964  0.576255  0.000000  1
  Tb  Tb1  1  0.423709  0.423745  0.000000  1
  Tb  Tb2  1  0.579984  0.000000  0.000000  1
  Mg  Mg3  1  0.241413  0.000000  0.500000  1
  Cd  Cd4  1  0.001558  0.252238  0.500000  1
  Cd  Cd5  1  0.749321  0.747762  0.500000  1
  Ga  Ga6  1  0.662134  0.327869  0.500000  1
  Ga  Ga7  1  0.334264  0.672131  0.500000  1
  Ag  Ag8  1  0.007655  0.000000  0.000000  1
