# generated using pymatgen
data_Nb2Ga2Tc3Mo
_symmetry_space_group_name_H-M   'P 1'
_cell_length_a   4.98045677
_cell_length_b   4.98045580
_cell_length_c   4.99855357
_cell_angle_alpha   89.89214795
_cell_angle_beta   90.10785649
_cell_angle_gamma   90.05203443
_symmetry_Int_Tables_number   1
_chemical_formula_structural   Nb2Ga2Tc3Mo
_chemical_formula_sum   'Nb2 Ga2 Tc3 Mo1'
_cell_volume   123.98835564
_cell_formula_units_Z   1
loop_
 _symmetry_equiv_pos_site_id
 _symmetry_equiv_pos_as_xyz
  1  'x, y, z'
loop_
 _atom_site_type_symbol
 _atom_site_label
 _atom_site_symmetry_multiplicity
 _atom_site_fract_x
 _atom_site_fract_y
 _atom_site_fract_z
 _atom_site_occupancy
  Nb  Nb0  1  0.500609  0.746994  0.000894  1
  Nb  Nb1  1  0.246994  0.000609  0.499106  1
  Ga  Ga2  1  0.507516  0.494980  0.503319  1
  Ga  Ga3  1  0.994980  0.007516  0.996681  1
  Tc  Tc4  1  0.003847  0.503847  0.750000  1
  Tc  Tc5  1  0.498173  0.247247  0.002313  1
  Tc  Tc6  1  0.747247  0.998173  0.497687  1
  Mo  Mo7  1  0.000635  0.500635  0.250000  1
