# generated using pymatgen
data_Ca2Si4NiPt3
_symmetry_space_group_name_H-M   'P 1'
_cell_length_a   4.14783400
_cell_length_b   4.14783400
_cell_length_c   9.87126600
_cell_angle_alpha   90.00000000
_cell_angle_beta   90.00000000
_cell_angle_gamma   90.00000000
_symmetry_Int_Tables_number   1
_chemical_formula_structural   Ca2Si4NiPt3
_chemical_formula_sum   'Ca2 Si4 Ni1 Pt3'
_cell_volume   169.83046135
_cell_formula_units_Z   1
loop_
 _symmetry_equiv_pos_site_id
 _symmetry_equiv_pos_as_xyz
  1  'x, y, z'
loop_
 _atom_site_type_symbol
 _atom_site_label
 _atom_site_symmetry_multiplicity
 _atom_site_fract_x
 _atom_site_fract_y
 _atom_site_fract_z
 _atom_site_occupancy
  Ca  Ca0  1  0.000000  0.500000  0.247831  1
  Ca  Ca1  1  0.500000  0.000000  0.752169  1
  Si  Si2  1  0.000000  0.000000  0.500000  1
  Si  Si3  1  0.500000  0.500000  0.500000  1
  Si  Si4  1  0.000000  0.500000  0.875248  1
  Si  Si5  1  0.500000  0.000000  0.124752  1
  Ni  Ni6  1  0.000000  0.000000  0.000000  1
  Pt  Pt7  1  0.500000  0.500000  0.000000  1
  Pt  Pt8  1  0.000000  0.500000  0.630064  1
  Pt  Pt9  1  0.500000  0.000000  0.369936  1
