# generated using pymatgen
data_Tm12Re(Si4Os)3
_symmetry_space_group_name_H-M   'P 1'
_cell_length_a   4.17706100
_cell_length_b   10.58648981
_cell_length_c   12.17876200
_cell_angle_alpha   90.07391389
_cell_angle_beta   90.00000000
_cell_angle_gamma   90.00000000
_symmetry_Int_Tables_number   1
_chemical_formula_structural   Tm12Re(Si4Os)3
_chemical_formula_sum   'Tm12 Re1 Si12 Os3'
_cell_volume   538.54944597
_cell_formula_units_Z   1
loop_
 _symmetry_equiv_pos_site_id
 _symmetry_equiv_pos_as_xyz
  1  'x, y, z'
loop_
 _atom_site_type_symbol
 _atom_site_label
 _atom_site_symmetry_multiplicity
 _atom_site_fract_x
 _atom_site_fract_y
 _atom_site_fract_z
 _atom_site_occupancy
  Tm  Tm0  1  0.250000  0.879905  0.021296  1
  Tm  Tm1  1  0.250000  0.619418  0.520536  1
  Tm  Tm2  1  0.750000  0.120781  0.979216  1
  Tm  Tm3  1  0.750000  0.379983  0.478975  1
  Tm  Tm4  1  0.250000  0.921210  0.605084  1
  Tm  Tm5  1  0.250000  0.578506  0.105082  1
  Tm  Tm6  1  0.750000  0.079297  0.395068  1
  Tm  Tm7  1  0.750000  0.421022  0.895338  1
  Tm  Tm8  1  0.250000  0.661041  0.799986  1
  Tm  Tm9  1  0.250000  0.838405  0.299973  1
  Tm  Tm10  1  0.750000  0.338309  0.200227  1
  Tm  Tm11  1  0.750000  0.163467  0.699914  1
  Re  Re12  1  0.750000  0.889671  0.820389  1
  Si  Si13  1  0.250000  0.012182  0.821080  1
  Si  Si14  1  0.250000  0.489249  0.320708  1
  Si  Si15  1  0.750000  0.990172  0.179046  1
  Si  Si16  1  0.750000  0.509842  0.678809  1
  Si  Si17  1  0.250000  0.251170  0.841962  1
  Si  Si18  1  0.250000  0.250352  0.341746  1
  Si  Si19  1  0.750000  0.749838  0.158394  1
  Si  Si20  1  0.750000  0.748829  0.656043  1
  Si  Si21  1  0.250000  0.200963  0.544045  1
  Si  Si22  1  0.250000  0.299471  0.044970  1
  Si  Si23  1  0.750000  0.798776  0.455166  1
  Si  Si24  1  0.750000  0.698391  0.957069  1
  Os  Os25  1  0.250000  0.389997  0.679316  1
  Os  Os26  1  0.250000  0.109837  0.180437  1
  Os  Os27  1  0.750000  0.609918  0.320125  1
