# generated using pymatgen
data_Y3B4Mo3Ru10
_symmetry_space_group_name_H-M   'P 1'
_cell_length_a   9.60109470
_cell_length_b   9.60109396
_cell_length_c   3.06408500
_cell_angle_alpha   90.00000000
_cell_angle_beta   90.00000000
_cell_angle_gamma   89.66248183
_symmetry_Int_Tables_number   1
_chemical_formula_structural   Y3B4Mo3Ru10
_chemical_formula_sum   'Y3 B4 Mo3 Ru10'
_cell_volume   282.44555658
_cell_formula_units_Z   1
loop_
 _symmetry_equiv_pos_site_id
 _symmetry_equiv_pos_as_xyz
  1  'x, y, z'
loop_
 _atom_site_type_symbol
 _atom_site_label
 _atom_site_symmetry_multiplicity
 _atom_site_fract_x
 _atom_site_fract_y
 _atom_site_fract_z
 _atom_site_occupancy
  Y  Y0  1  0.175011  0.824989  0.000000  1
  Y  Y1  1  0.323838  0.323575  0.000000  1
  Y  Y2  1  0.676425  0.676162  0.000000  1
  B  B3  1  0.623818  0.376182  0.000000  1
  B  B4  1  0.381869  0.618131  0.000000  1
  B  B5  1  0.118787  0.122115  0.000000  1
  B  B6  1  0.877885  0.881213  0.000000  1
  Mo  Mo7  1  0.496124  0.997615  0.000000  1
  Mo  Mo8  1  0.002385  0.503876  0.000000  1
  Mo  Mo9  1  0.822572  0.177428  0.000000  1
  Ru  Ru10  1  0.504137  0.495863  0.500000  1
  Ru  Ru11  1  0.988837  0.011163  0.500000  1
  Ru  Ru12  1  0.585100  0.211046  0.500000  1
  Ru  Ru13  1  0.432689  0.782408  0.500000  1
  Ru  Ru14  1  0.055421  0.280981  0.500000  1
  Ru  Ru15  1  0.929885  0.720348  0.500000  1
  Ru  Ru16  1  0.279652  0.070115  0.500000  1
  Ru  Ru17  1  0.719019  0.944579  0.500000  1
  Ru  Ru18  1  0.217592  0.567311  0.500000  1
  Ru  Ru19  1  0.788954  0.414900  0.500000  1
