# generated using pymatgen
data_Hf18Re4Mo3As2W
_symmetry_space_group_name_H-M   'P 1'
_cell_length_a   8.64423200
_cell_length_b   8.66491572
_cell_length_c   8.67310800
_cell_angle_alpha   90.00000000
_cell_angle_beta   90.00000000
_cell_angle_gamma   119.91567253
_symmetry_Int_Tables_number   1
_chemical_formula_structural   Hf18Re4Mo3As2W
_chemical_formula_sum   'Hf18 Re4 Mo3 As2 W1'
_cell_volume   563.07280683
_cell_formula_units_Z   1
loop_
 _symmetry_equiv_pos_site_id
 _symmetry_equiv_pos_as_xyz
  1  'x, y, z'
loop_
 _atom_site_type_symbol
 _atom_site_label
 _atom_site_symmetry_multiplicity
 _atom_site_fract_x
 _atom_site_fract_y
 _atom_site_fract_z
 _atom_site_occupancy
  Hf  Hf0  1  0.805433  0.610854  0.544932  1
  Hf  Hf1  1  0.805694  0.194128  0.544071  1
  Hf  Hf2  1  0.388375  0.194094  0.544108  1
  Hf  Hf3  1  0.192955  0.385907  0.451275  1
  Hf  Hf4  1  0.193360  0.806951  0.451752  1
  Hf  Hf5  1  0.613661  0.806989  0.451742  1
  Hf  Hf6  1  0.192955  0.385907  0.048725  1
  Hf  Hf7  1  0.193360  0.806951  0.048248  1
  Hf  Hf8  1  0.613661  0.806989  0.048258  1
  Hf  Hf9  1  0.805433  0.610854  0.955068  1
  Hf  Hf10  1  0.805694  0.194128  0.955929  1
  Hf  Hf11  1  0.388375  0.194094  0.955892  1
  Hf  Hf12  1  0.460139  0.920283  0.750000  1
  Hf  Hf13  1  0.459627  0.539912  0.750000  1
  Hf  Hf14  1  0.080241  0.539883  0.750000  1
  Hf  Hf15  1  0.541435  0.082890  0.250000  1
  Hf  Hf16  1  0.540948  0.458054  0.250000  1
  Hf  Hf17  1  0.917149  0.458091  0.250000  1
  Re  Re18  1  0.889682  0.109869  0.250000  1
  Re  Re19  1  0.220193  0.109853  0.250000  1
  Re  Re20  1  0.000247  0.000471  0.499924  1
  Re  Re21  1  0.000247  0.000471  0.000076  1
  Mo  Mo22  1  0.109298  0.218628  0.750000  1
  Mo  Mo23  1  0.109805  0.890844  0.750000  1
  Mo  Mo24  1  0.781035  0.890864  0.750000  1
  As  As25  1  0.666370  0.332729  0.750000  1
  As  As26  1  0.332851  0.665800  0.250000  1
  W  W27  1  0.891779  0.783508  0.250000  1
