# generated using pymatgen
data_V3GaNiN
_symmetry_space_group_name_H-M   'P 1'
_cell_length_a   6.50157100
_cell_length_b   6.50157100
_cell_length_c   6.50157100
_cell_angle_alpha   90.00000000
_cell_angle_beta   90.00000000
_cell_angle_gamma   90.00000000
_symmetry_Int_Tables_number   1
_chemical_formula_structural   V3GaNiN
_chemical_formula_sum   'V12 Ga4 Ni4 N4'
_cell_volume   274.82417238
_cell_formula_units_Z   4
loop_
 _symmetry_equiv_pos_site_id
 _symmetry_equiv_pos_as_xyz
  1  'x, y, z'
loop_
 _atom_site_type_symbol
 _atom_site_label
 _atom_site_symmetry_multiplicity
 _atom_site_fract_x
 _atom_site_fract_y
 _atom_site_fract_z
 _atom_site_occupancy
  V  V0  1  0.791576  0.959780  0.374522  1
  V  V1  1  0.708424  0.040220  0.874522  1
  V  V2  1  0.208424  0.459780  0.125478  1
  V  V3  1  0.291576  0.540220  0.625478  1
  V  V4  1  0.959780  0.374522  0.791576  1
  V  V5  1  0.040220  0.874522  0.708424  1
  V  V6  1  0.459780  0.125478  0.208424  1
  V  V7  1  0.540220  0.625478  0.291576  1
  V  V8  1  0.374522  0.791576  0.959780  1
  V  V9  1  0.874522  0.708424  0.040220  1
  V  V10  1  0.125478  0.208424  0.459780  1
  V  V11  1  0.625478  0.291576  0.540220  1
  Ga  Ga12  1  0.572382  0.427618  0.927618  1
  Ga  Ga13  1  0.427618  0.927618  0.572382  1
  Ga  Ga14  1  0.927618  0.572382  0.427618  1
  Ga  Ga15  1  0.072382  0.072382  0.072382  1
  Ni  Ni16  1  0.177848  0.822152  0.322152  1
  Ni  Ni17  1  0.322152  0.177848  0.822152  1
  Ni  Ni18  1  0.822152  0.322152  0.177848  1
  Ni  Ni19  1  0.677848  0.677848  0.677848  1
  N  N20  1  0.875398  0.124602  0.624602  1
  N  N21  1  0.624602  0.875398  0.124602  1
  N  N22  1  0.124602  0.624602  0.875398  1
  N  N23  1  0.375398  0.375398  0.375398  1
