# generated using pymatgen
data_Li6TbCeUN6
_symmetry_space_group_name_H-M   'P 1'
_cell_length_a   6.11200700
_cell_length_b   6.11200746
_cell_length_c   5.48051000
_cell_angle_alpha   90.00000000
_cell_angle_beta   90.00000000
_cell_angle_gamma   120.00001372
_symmetry_Int_Tables_number   1
_chemical_formula_structural   Li6TbCeUN6
_chemical_formula_sum   'Li6 Tb1 Ce1 U1 N6'
_cell_volume   177.30429868
_cell_formula_units_Z   1
loop_
 _symmetry_equiv_pos_site_id
 _symmetry_equiv_pos_as_xyz
  1  'x, y, z'
loop_
 _atom_site_type_symbol
 _atom_site_label
 _atom_site_symmetry_multiplicity
 _atom_site_fract_x
 _atom_site_fract_y
 _atom_site_fract_z
 _atom_site_occupancy
  Li  Li0  1  0.977510  0.648289  0.603717  1
  Li  Li1  1  0.351711  0.329221  0.603717  1
  Li  Li2  1  0.670779  0.022490  0.603717  1
  Li  Li3  1  0.006592  0.336781  0.394233  1
  Li  Li4  1  0.663219  0.669810  0.394233  1
  Li  Li5  1  0.330190  0.993408  0.394233  1
  Tb  Tb6  1  0.000000  0.000000  0.998064  1
  Ce  Ce7  1  0.333333  0.666667  0.992897  1
  U  U8  1  0.666667  0.333333  0.006817  1
  N  N9  1  0.981752  0.646040  0.226672  1
  N  N10  1  0.353960  0.335710  0.226672  1
  N  N11  1  0.664290  0.018248  0.226672  1
  N  N12  1  0.977759  0.335887  0.776118  1
  N  N13  1  0.664113  0.641870  0.776118  1
  N  N14  1  0.358130  0.022241  0.776118  1
