# generated using pymatgen
data_EuSb12Os3W
_symmetry_space_group_name_H-M   'P 1'
_cell_length_a   8.20332480
_cell_length_b   8.28718587
_cell_length_c   8.28718597
_cell_angle_alpha   109.67529940
_cell_angle_beta   109.26635355
_cell_angle_gamma   109.26636382
_symmetry_Int_Tables_number   1
_chemical_formula_structural   EuSb12Os3W
_chemical_formula_sum   'Eu1 Sb12 Os3 W1'
_cell_volume   434.78442218
_cell_formula_units_Z   1
loop_
 _symmetry_equiv_pos_site_id
 _symmetry_equiv_pos_as_xyz
  1  'x, y, z'
loop_
 _atom_site_type_symbol
 _atom_site_label
 _atom_site_symmetry_multiplicity
 _atom_site_fract_x
 _atom_site_fract_y
 _atom_site_fract_z
 _atom_site_occupancy
  Eu  Eu0  1  0.000000  0.000000  0.000000  1
  Sb  Sb1  1  0.336207  0.158120  0.493937  1
  Sb  Sb2  1  0.335680  0.839962  0.185461  1
  Sb  Sb3  1  0.664320  0.160038  0.814539  1
  Sb  Sb4  1  0.821911  0.664183  0.158120  1
  Sb  Sb5  1  0.157729  0.493937  0.335817  1
  Sb  Sb6  1  0.504282  0.654502  0.839962  1
  Sb  Sb7  1  0.849780  0.185461  0.345498  1
  Sb  Sb8  1  0.663793  0.841880  0.506063  1
  Sb  Sb9  1  0.178089  0.335817  0.841880  1
  Sb  Sb10  1  0.150220  0.814539  0.654502  1
  Sb  Sb11  1  0.495718  0.345498  0.160038  1
  Sb  Sb12  1  0.842271  0.506063  0.664183  1
  Os  Os13  1  0.500000  0.500000  0.500000  1
  Os  Os14  1  0.000000  0.500000  0.000000  1
  Os  Os15  1  0.000000  0.000000  0.500000  1
  W  W16  1  0.500000  0.000000  0.000000  1
