# generated using pymatgen
data_CeDy4Zn2Ru3
_symmetry_space_group_name_H-M   'P 1'
_cell_length_a   8.19386774
_cell_length_b   8.33261557
_cell_length_c   8.29901362
_cell_angle_alpha   109.12369060
_cell_angle_beta   108.27832230
_cell_angle_gamma   109.83175466
_symmetry_Int_Tables_number   1
_chemical_formula_structural   CeDy4Zn2Ru3
_chemical_formula_sum   'Ce2 Dy8 Zn4 Ru6'
_cell_volume   442.36533040
_cell_formula_units_Z   2
loop_
 _symmetry_equiv_pos_site_id
 _symmetry_equiv_pos_as_xyz
  1  'x, y, z'
loop_
 _atom_site_type_symbol
 _atom_site_label
 _atom_site_symmetry_multiplicity
 _atom_site_fract_x
 _atom_site_fract_y
 _atom_site_fract_z
 _atom_site_occupancy
  Ce  Ce0  1  0.853038  0.659604  0.104741  1
  Ce  Ce1  1  0.606119  0.609859  0.617623  1
  Dy  Dy2  1  0.474329  0.152901  0.215603  1
  Dy  Dy3  1  0.151876  0.218359  0.472979  1
  Dy  Dy4  1  0.218683  0.466219  0.150481  1
  Dy  Dy5  1  0.409358  0.685181  0.919175  1
  Dy  Dy6  1  0.683570  0.911505  0.411117  1
  Dy  Dy7  1  0.909071  0.405190  0.680146  1
  Dy  Dy8  1  0.658651  0.092823  0.842944  1
  Dy  Dy9  1  0.090013  0.841130  0.659998  1
  Zn  Zn10  1  0.405733  0.311224  0.900484  1
  Zn  Zn11  1  0.324525  0.917223  0.418571  1
  Zn  Zn12  1  0.920986  0.411570  0.325260  1
  Zn  Zn13  1  0.990779  0.997171  0.994860  1
  Ru  Ru14  1  0.023647  0.157939  0.775393  1
  Ru  Ru15  1  0.133507  0.765832  0.036631  1
  Ru  Ru16  1  0.771076  0.033742  0.162230  1
  Ru  Ru17  1  0.672733  0.547677  0.269672  1
  Ru  Ru18  1  0.539541  0.304625  0.645818  1
  Ru  Ru19  1  0.312767  0.660228  0.546278  1
