# generated using pymatgen
data_Be7(Nb3Co8)2
_symmetry_space_group_name_H-M   'P 1'
_cell_length_a   7.71785338
_cell_length_b   7.71826165
_cell_length_c   7.71743400
_cell_angle_alpha   60.00256127
_cell_angle_beta   60.00054067
_cell_angle_gamma   60.00438899
_symmetry_Int_Tables_number   1
_chemical_formula_structural   Be7(Nb3Co8)2
_chemical_formula_sum   'Be7 Nb6 Co16'
_cell_volume   325.08619809
_cell_formula_units_Z   1
loop_
 _symmetry_equiv_pos_site_id
 _symmetry_equiv_pos_as_xyz
  1  'x, y, z'
loop_
 _atom_site_type_symbol
 _atom_site_label
 _atom_site_symmetry_multiplicity
 _atom_site_fract_x
 _atom_site_fract_y
 _atom_site_fract_z
 _atom_site_occupancy
  Be  Be0  1  0.499924  0.000023  0.000117  1
  Be  Be1  1  0.000077  0.499923  0.499884  1
  Be  Be2  1  0.000091  0.499918  0.000150  1
  Be  Be3  1  0.000097  0.000064  0.499937  1
  Be  Be4  1  0.499928  0.000006  0.499981  1
  Be  Be5  1  0.499867  0.499963  0.000095  1
  Be  Be6  1  0.500014  0.500062  0.499923  1
  Nb  Nb7  1  0.792834  0.207183  0.207196  1
  Nb  Nb8  1  0.207192  0.792782  0.792834  1
  Nb  Nb9  1  0.207208  0.792801  0.207207  1
  Nb  Nb10  1  0.207191  0.207188  0.792843  1
  Nb  Nb11  1  0.792805  0.207181  0.792822  1
  Nb  Nb12  1  0.792817  0.792780  0.207203  1
  Co  Co13  1  0.169836  0.169848  0.169793  1
  Co  Co14  1  0.169801  0.169831  0.490530  1
  Co  Co15  1  0.490595  0.169818  0.169759  1
  Co  Co16  1  0.169820  0.490551  0.169787  1
  Co  Co17  1  0.830158  0.830155  0.830210  1
  Co  Co18  1  0.830199  0.830175  0.509438  1
  Co  Co19  1  0.830139  0.509534  0.830187  1
  Co  Co20  1  0.509388  0.830183  0.830245  1
  Co  Co21  1  0.380374  0.380389  0.380300  1
  Co  Co22  1  0.380341  0.380375  0.858924  1
  Co  Co23  1  0.858976  0.380382  0.380271  1
  Co  Co24  1  0.380358  0.858986  0.380289  1
  Co  Co25  1  0.619635  0.619628  0.619640  1
  Co  Co26  1  0.619625  0.619604  0.141144  1
  Co  Co27  1  0.619646  0.141046  0.619645  1
  Co  Co28  1  0.141072  0.619628  0.619652  1
