# generated using pymatgen
data_Zr10Sn2Bi5
_symmetry_space_group_name_H-M   'P 1'
_cell_length_a   6.03994329
_cell_length_b   8.79942162
_cell_length_c   8.78738458
_cell_angle_alpha   120.04533131
_cell_angle_beta   90.03988798
_cell_angle_gamma   89.92032788
_symmetry_Int_Tables_number   1
_chemical_formula_structural   Zr10Sn2Bi5
_chemical_formula_sum   'Zr10 Sn2 Bi5'
_cell_volume   404.27628997
_cell_formula_units_Z   1
loop_
 _symmetry_equiv_pos_site_id
 _symmetry_equiv_pos_as_xyz
  1  'x, y, z'
loop_
 _atom_site_type_symbol
 _atom_site_label
 _atom_site_symmetry_multiplicity
 _atom_site_fract_x
 _atom_site_fract_y
 _atom_site_fract_z
 _atom_site_occupancy
  Zr  Zr0  1  0.497368  0.333644  0.664635  1
  Zr  Zr1  1  0.497368  0.669009  0.335365  1
  Zr  Zr2  1  0.003216  0.668877  0.335922  1
  Zr  Zr3  1  0.003216  0.332956  0.664078  1
  Zr  Zr4  1  0.783356  0.266188  0.000000  1
  Zr  Zr5  1  0.785863  0.734892  0.732732  1
  Zr  Zr6  1  0.785863  0.002159  0.267268  1
  Zr  Zr7  1  0.215817  0.733706  0.000000  1
  Zr  Zr8  1  0.217801  0.265712  0.273055  1
  Zr  Zr9  1  0.217801  0.992657  0.726945  1
  Sn  Sn10  1  0.259326  0.613292  0.614233  1
  Sn  Sn11  1  0.259326  0.999060  0.385767  1
  Bi  Bi12  1  0.739032  0.613727  0.000000  1
  Bi  Bi13  1  0.738533  0.389496  0.388116  1
  Bi  Bi14  1  0.738533  0.001380  0.611884  1
  Bi  Bi15  1  0.259720  0.383594  0.000000  1
  Bi  Bi16  1  0.497860  0.999655  0.000000  1
