# generated using pymatgen
data_Ho2Lu3(ReO6)2
_symmetry_space_group_name_H-M   'P 1'
_cell_length_a   6.74237432
_cell_length_b   6.74237365
_cell_length_c   7.43104197
_cell_angle_alpha   73.98764442
_cell_angle_beta   73.98764288
_cell_angle_gamma   49.36835547
_symmetry_Int_Tables_number   1
_chemical_formula_structural   Ho2Lu3(ReO6)2
_chemical_formula_sum   'Ho2 Lu3 Re2 O12'
_cell_volume   244.27014243
_cell_formula_units_Z   1
loop_
 _symmetry_equiv_pos_site_id
 _symmetry_equiv_pos_as_xyz
  1  'x, y, z'
loop_
 _atom_site_type_symbol
 _atom_site_label
 _atom_site_symmetry_multiplicity
 _atom_site_fract_x
 _atom_site_fract_y
 _atom_site_fract_z
 _atom_site_occupancy
  Ho  Ho0  1  0.697224  0.697224  0.641430  1
  Ho  Ho1  1  0.302776  0.302776  0.358570  1
  Lu  Lu2  1  0.314332  0.314332  0.823361  1
  Lu  Lu3  1  0.685668  0.685668  0.176639  1
  Lu  Lu4  1  0.000000  0.000000  0.500000  1
  Re  Re5  1  0.214431  0.785569  0.000000  1
  Re  Re6  1  0.785569  0.214431  0.000000  1
  O  O7  1  0.500814  0.500814  0.179872  1
  O  O8  1  0.499186  0.499186  0.820128  1
  O  O9  1  0.000820  0.000820  0.210258  1
  O  O10  1  0.999180  0.999180  0.789742  1
  O  O11  1  0.915008  0.420095  0.915198  1
  O  O12  1  0.579905  0.084992  0.084802  1
  O  O13  1  0.084992  0.579905  0.084802  1
  O  O14  1  0.595730  0.100305  0.575651  1
  O  O15  1  0.899695  0.404270  0.424349  1
  O  O16  1  0.404270  0.899695  0.424349  1
  O  O17  1  0.100305  0.595730  0.575651  1
  O  O18  1  0.420095  0.915008  0.915198  1
