# generated using pymatgen
data_Nd2Tm3GaSi3
_symmetry_space_group_name_H-M   'P 1'
_cell_length_a   7.49519100
_cell_length_b   14.81862800
_cell_length_c   7.80501300
_cell_angle_alpha   90.00000000
_cell_angle_beta   90.00000000
_cell_angle_gamma   90.00000000
_symmetry_Int_Tables_number   1
_chemical_formula_structural   Nd2Tm3GaSi3
_chemical_formula_sum   'Nd8 Tm12 Ga4 Si12'
_cell_volume   866.89067443
_cell_formula_units_Z   4
loop_
 _symmetry_equiv_pos_site_id
 _symmetry_equiv_pos_as_xyz
  1  'x, y, z'
loop_
 _atom_site_type_symbol
 _atom_site_label
 _atom_site_symmetry_multiplicity
 _atom_site_fract_x
 _atom_site_fract_y
 _atom_site_fract_z
 _atom_site_occupancy
  Nd  Nd0  1  0.020457  0.100404  0.177498  1
  Nd  Nd1  1  0.020457  0.399596  0.177498  1
  Nd  Nd2  1  0.520457  0.100404  0.322502  1
  Nd  Nd3  1  0.520457  0.399596  0.322502  1
  Nd  Nd4  1  0.479275  0.598522  0.679661  1
  Nd  Nd5  1  0.479275  0.901478  0.679661  1
  Nd  Nd6  1  0.979276  0.598522  0.820339  1
  Nd  Nd7  1  0.979276  0.901478  0.820339  1
  Tm  Tm8  1  0.345757  0.250000  0.006858  1
  Tm  Tm9  1  0.321386  0.623582  0.174166  1
  Tm  Tm10  1  0.321386  0.876417  0.174166  1
  Tm  Tm11  1  0.821385  0.623582  0.325834  1
  Tm  Tm12  1  0.821385  0.876417  0.325834  1
  Tm  Tm13  1  0.845757  0.250000  0.493142  1
  Tm  Tm14  1  0.155928  0.750000  0.507979  1
  Tm  Tm15  1  0.177336  0.125162  0.677144  1
  Tm  Tm16  1  0.177336  0.374837  0.677144  1
  Tm  Tm17  1  0.677336  0.125162  0.822856  1
  Tm  Tm18  1  0.677336  0.374837  0.822856  1
  Tm  Tm19  1  0.655928  0.750000  0.992021  1
  Ga  Ga20  1  0.652135  0.538298  0.035750  1
  Ga  Ga21  1  0.652135  0.961702  0.035750  1
  Ga  Ga22  1  0.152135  0.538298  0.464251  1
  Ga  Ga23  1  0.152135  0.961702  0.464251  1
  Si  Si24  1  0.026267  0.750000  0.113702  1
  Si  Si25  1  0.723730  0.250000  0.123738  1
  Si  Si26  1  0.223729  0.250000  0.376262  1
  Si  Si27  1  0.526267  0.750000  0.386298  1
  Si  Si28  1  0.849878  0.041129  0.533822  1
  Si  Si29  1  0.849878  0.458870  0.533822  1
  Si  Si30  1  0.473607  0.250000  0.614179  1
  Si  Si31  1  0.773781  0.750000  0.621628  1
  Si  Si32  1  0.273781  0.750000  0.878372  1
  Si  Si33  1  0.973606  0.250000  0.885821  1
  Si  Si34  1  0.349877  0.041129  0.966177  1
  Si  Si35  1  0.349877  0.458870  0.966177  1
