# generated using pymatgen
data_Tb9Y(GaSb)3
_symmetry_space_group_name_H-M   'P 1'
_cell_length_a   8.82633600
_cell_length_b   8.81763903
_cell_length_c   6.50691000
_cell_angle_alpha   90.00000000
_cell_angle_beta   90.00000000
_cell_angle_gamma   120.03264740
_symmetry_Int_Tables_number   1
_chemical_formula_structural   Tb9Y(GaSb)3
_chemical_formula_sum   'Tb9 Y1 Ga3 Sb3'
_cell_volume   438.42492569
_cell_formula_units_Z   1
loop_
 _symmetry_equiv_pos_site_id
 _symmetry_equiv_pos_as_xyz
  1  'x, y, z'
loop_
 _atom_site_type_symbol
 _atom_site_label
 _atom_site_symmetry_multiplicity
 _atom_site_fract_x
 _atom_site_fract_y
 _atom_site_fract_z
 _atom_site_occupancy
  Tb  Tb0  1  0.327309  0.666648  0.002617  1
  Tb  Tb1  1  0.660661  0.333352  0.497383  1
  Tb  Tb2  1  0.660661  0.333352  0.002617  1
  Tb  Tb3  1  0.327309  0.666648  0.497383  1
  Tb  Tb4  1  0.235454  0.000000  0.250000  1
  Tb  Tb5  1  0.242957  0.232085  0.750000  1
  Tb  Tb6  1  0.010872  0.767915  0.750000  1
  Tb  Tb7  1  0.012159  0.248935  0.250000  1
  Tb  Tb8  1  0.763223  0.751065  0.250000  1
  Y  Y9  1  0.754069  0.000000  0.750000  1
  Ga  Ga10  1  0.998760  0.602748  0.250000  1
  Ga  Ga11  1  0.396013  0.397252  0.250000  1
  Ga  Ga12  1  0.398449  0.000000  0.750000  1
  Sb  Sb13  1  0.609285  0.000000  0.250000  1
  Sb  Sb14  1  0.605237  0.607655  0.750000  1
  Sb  Sb15  1  0.997582  0.392345  0.750000  1
