# generated using pymatgen
data_Tb5Sm3(Tm3Si4)4
_symmetry_space_group_name_H-M   'P 1'
_cell_length_a   7.64980017
_cell_length_b   7.64654400
_cell_length_c   14.09108700
_cell_angle_alpha   90.09225422
_cell_angle_beta   89.98790391
_cell_angle_gamma   90.04240005
_symmetry_Int_Tables_number   1
_chemical_formula_structural   Tb5Sm3(Tm3Si4)4
_chemical_formula_sum   'Tb5 Sm3 Tm12 Si16'
_cell_volume   824.25025001
_cell_formula_units_Z   1
loop_
 _symmetry_equiv_pos_site_id
 _symmetry_equiv_pos_as_xyz
  1  'x, y, z'
loop_
 _atom_site_type_symbol
 _atom_site_label
 _atom_site_symmetry_multiplicity
 _atom_site_fract_x
 _atom_site_fract_y
 _atom_site_fract_z
 _atom_site_occupancy
  Tb  Tb0  1  0.641173  0.993844  0.459068  1
  Tb  Tb1  1  0.358946  0.006411  0.958375  1
  Tb  Tb2  1  0.993855  0.641390  0.541625  1
  Tb  Tb3  1  0.493414  0.859202  0.208716  1
  Tb  Tb4  1  0.506485  0.140561  0.708015  1
  Sm  Sm5  1  0.856757  0.492363  0.790723  1
  Sm  Sm6  1  0.142677  0.507540  0.291465  1
  Sm  Sm7  1  0.007324  0.356595  0.041037  1
  Tm  Tm8  1  0.491729  0.360370  0.124420  1
  Tm  Tm9  1  0.993236  0.139499  0.625485  1
  Tm  Tm10  1  0.860214  0.007710  0.873803  1
  Tm  Tm11  1  0.138965  0.991912  0.374683  1
  Tm  Tm12  1  0.508798  0.640207  0.623915  1
  Tm  Tm13  1  0.360047  0.492751  0.875512  1
  Tm  Tm14  1  0.639649  0.507938  0.376324  1
  Tm  Tm15  1  0.007091  0.860171  0.125871  1
  Tm  Tm16  1  0.318188  0.317688  0.499829  1
  Tm  Tm17  1  0.182386  0.817795  0.749742  1
  Tm  Tm18  1  0.817534  0.181927  0.250400  1
  Tm  Tm19  1  0.681400  0.682579  0.999812  1
  Si  Si20  1  0.293293  0.940002  0.562110  1
  Si  Si21  1  0.706006  0.059363  0.062127  1
  Si  Si22  1  0.938113  0.291693  0.438323  1
  Si  Si23  1  0.440985  0.206080  0.312420  1
  Si  Si24  1  0.559487  0.793981  0.811787  1
  Si  Si25  1  0.208995  0.438268  0.687577  1
  Si  Si26  1  0.789878  0.562867  0.188216  1
  Si  Si27  1  0.062821  0.709850  0.938025  1
  Si  Si28  1  0.796472  0.848425  0.685586  1
  Si  Si29  1  0.205149  0.150319  0.187146  1
  Si  Si30  1  0.845008  0.798798  0.313244  1
  Si  Si31  1  0.347970  0.704100  0.437662  1
  Si  Si32  1  0.650389  0.294844  0.936804  1
  Si  Si33  1  0.702677  0.346556  0.563734  1
  Si  Si34  1  0.298425  0.654743  0.063271  1
  Si  Si35  1  0.154465  0.201657  0.813154  1
