# generated using pymatgen
data_TbPr2Tl5
_symmetry_space_group_name_H-M   'P 1'
_cell_length_a   6.65805753
_cell_length_b   6.65805720
_cell_length_c   10.68762900
_cell_angle_alpha   90.00000000
_cell_angle_beta   90.00000000
_cell_angle_gamma   103.03869742
_symmetry_Int_Tables_number   1
_chemical_formula_structural   TbPr2Tl5
_chemical_formula_sum   'Tb2 Pr4 Tl10'
_cell_volume   461.56465516
_cell_formula_units_Z   2
loop_
 _symmetry_equiv_pos_site_id
 _symmetry_equiv_pos_as_xyz
  1  'x, y, z'
loop_
 _atom_site_type_symbol
 _atom_site_label
 _atom_site_symmetry_multiplicity
 _atom_site_fract_x
 _atom_site_fract_y
 _atom_site_fract_z
 _atom_site_occupancy
  Tb  Tb0  1  0.623082  0.623082  0.250000  1
  Tb  Tb1  1  0.376918  0.376918  0.750000  1
  Pr  Pr2  1  0.204113  0.795887  0.500000  1
  Pr  Pr3  1  0.204113  0.795887  0.000000  1
  Pr  Pr4  1  0.795887  0.204113  0.500000  1
  Pr  Pr5  1  0.795887  0.204113  0.000000  1
  Tl  Tl6  1  0.004796  0.004796  0.250000  1
  Tl  Tl7  1  0.995204  0.995204  0.750000  1
  Tl  Tl8  1  0.308718  0.308718  0.041541  1
  Tl  Tl9  1  0.691282  0.691282  0.958459  1
  Tl  Tl10  1  0.308718  0.308718  0.458459  1
  Tl  Tl11  1  0.691282  0.691282  0.541541  1
  Tl  Tl12  1  0.506535  0.064566  0.250000  1
  Tl  Tl13  1  0.935434  0.493465  0.750000  1
  Tl  Tl14  1  0.493465  0.935434  0.750000  1
  Tl  Tl15  1  0.064566  0.506535  0.250000  1
