# generated using pymatgen
data_YTa3Ga2(B2Ru5)2
_symmetry_space_group_name_H-M   'P 1'
_cell_length_a   9.39003101
_cell_length_b   9.39003101
_cell_length_c   3.03582300
_cell_angle_alpha   90.00000000
_cell_angle_beta   90.00000000
_cell_angle_gamma   90.72322281
_symmetry_Int_Tables_number   1
_chemical_formula_structural   YTa3Ga2(B2Ru5)2
_chemical_formula_sum   'Y1 Ta3 Ga2 B4 Ru10'
_cell_volume   267.65533310
_cell_formula_units_Z   1
loop_
 _symmetry_equiv_pos_site_id
 _symmetry_equiv_pos_as_xyz
  1  'x, y, z'
loop_
 _atom_site_type_symbol
 _atom_site_label
 _atom_site_symmetry_multiplicity
 _atom_site_fract_x
 _atom_site_fract_y
 _atom_site_fract_z
 _atom_site_occupancy
  Y  Y0  1  0.822800  0.677200  0.000000  1
  Ta  Ta1  1  0.176427  0.323573  0.000000  1
  Ta  Ta2  1  0.323350  0.825975  0.000000  1
  Ta  Ta3  1  0.674025  0.176650  0.000000  1
  Ga  Ga4  1  0.509080  0.502306  0.000000  1
  Ga  Ga5  1  0.997694  0.990920  0.000000  1
  B  B6  1  0.618035  0.881965  0.000000  1
  B  B7  1  0.371455  0.128545  0.000000  1
  B  B8  1  0.131201  0.619587  0.000000  1
  B  B9  1  0.880413  0.368799  0.000000  1
  Ru  Ru10  1  0.551661  0.725157  0.500000  1
  Ru  Ru11  1  0.426589  0.288529  0.500000  1
  Ru  Ru12  1  0.087733  0.784364  0.500000  1
  Ru  Ru13  1  0.934470  0.210324  0.500000  1
  Ru  Ru14  1  0.289676  0.565530  0.500000  1
  Ru  Ru15  1  0.715636  0.412267  0.500000  1
  Ru  Ru16  1  0.211471  0.073411  0.500000  1
  Ru  Ru17  1  0.774843  0.948339  0.500000  1
  Ru  Ru18  1  0.494169  0.005831  0.500000  1
  Ru  Ru19  1  0.009272  0.490728  0.500000  1
