# generated using pymatgen
data_Pr2Nd2Zn10SiSn
_symmetry_space_group_name_H-M   'P 1'
_cell_length_a   8.48920331
_cell_length_b   8.48920261
_cell_length_c   8.97928700
_cell_angle_alpha   90.00000000
_cell_angle_beta   90.00000000
_cell_angle_gamma   149.41972772
_symmetry_Int_Tables_number   1
_chemical_formula_structural   Pr2Nd2Zn10SiSn
_chemical_formula_sum   'Pr2 Nd2 Zn10 Si1 Sn1'
_cell_volume   329.21215246
_cell_formula_units_Z   1
loop_
 _symmetry_equiv_pos_site_id
 _symmetry_equiv_pos_as_xyz
  1  'x, y, z'
loop_
 _atom_site_type_symbol
 _atom_site_label
 _atom_site_symmetry_multiplicity
 _atom_site_fract_x
 _atom_site_fract_y
 _atom_site_fract_z
 _atom_site_occupancy
  Pr  Pr0  1  0.000431  0.999569  0.486374  1
  Pr  Pr1  1  0.000431  0.999569  0.013626  1
  Nd  Nd2  1  0.203140  0.796860  0.250000  1
  Nd  Nd3  1  0.794495  0.205505  0.750000  1
  Zn  Zn4  1  0.813305  0.186695  0.391255  1
  Zn  Zn5  1  0.185533  0.814467  0.606691  1
  Zn  Zn6  1  0.813305  0.186695  0.108745  1
  Zn  Zn7  1  0.185533  0.814467  0.893309  1
  Zn  Zn8  1  0.649871  0.350129  0.474938  1
  Zn  Zn9  1  0.344699  0.655301  0.514430  1
  Zn  Zn10  1  0.649871  0.350129  0.025062  1
  Zn  Zn11  1  0.344699  0.655301  0.985570  1
  Zn  Zn12  1  0.405700  0.594300  0.250000  1
  Zn  Zn13  1  0.605396  0.394604  0.750000  1
  Si  Si14  1  0.558286  0.441714  0.250000  1
  Sn  Sn15  1  0.445303  0.554697  0.750000  1
