# generated using pymatgen
data_Y8C3SBr6
_symmetry_space_group_name_H-M   'P 1'
_cell_length_a   3.76691300
_cell_length_b   10.97555605
_cell_length_c   20.62961040
_cell_angle_alpha   91.80140834
_cell_angle_beta   90.00000000
_cell_angle_gamma   90.00000000
_symmetry_Int_Tables_number   1
_chemical_formula_structural   Y8C3SBr6
_chemical_formula_sum   'Y16 C6 S2 Br12'
_cell_volume   852.48836730
_cell_formula_units_Z   2
loop_
 _symmetry_equiv_pos_site_id
 _symmetry_equiv_pos_as_xyz
  1  'x, y, z'
loop_
 _atom_site_type_symbol
 _atom_site_label
 _atom_site_symmetry_multiplicity
 _atom_site_fract_x
 _atom_site_fract_y
 _atom_site_fract_z
 _atom_site_occupancy
  Y  Y0  1  0.250000  0.873222  0.578269  1
  Y  Y1  1  0.750000  0.126778  0.421731  1
  Y  Y2  1  0.750000  0.639972  0.081252  1
  Y  Y3  1  0.250000  0.360028  0.918748  1
  Y  Y4  1  0.250000  0.887410  0.739288  1
  Y  Y5  1  0.750000  0.112590  0.260712  1
  Y  Y6  1  0.750000  0.653418  0.240875  1
  Y  Y7  1  0.250000  0.346582  0.759125  1
  Y  Y8  1  0.250000  0.870730  0.168928  1
  Y  Y9  1  0.750000  0.129270  0.831072  1
  Y  Y10  1  0.750000  0.651165  0.657989  1
  Y  Y11  1  0.250000  0.348835  0.342011  1
  Y  Y12  1  0.250000  0.895337  0.330200  1
  Y  Y13  1  0.750000  0.104663  0.669800  1
  Y  Y14  1  0.750000  0.582609  0.839252  1
  Y  Y15  1  0.250000  0.417391  0.160748  1
  C  C16  1  0.750000  0.883384  0.251271  1
  C  C17  1  0.250000  0.116616  0.748729  1
  C  C18  1  0.250000  0.638484  0.155753  1
  C  C19  1  0.750000  0.361516  0.844247  1
  C  C20  1  0.750000  0.872738  0.653335  1
  C  C21  1  0.250000  0.127262  0.346665  1
  S  S22  1  0.250000  0.616282  0.749034  1
  S  S23  1  0.750000  0.383718  0.250966  1
  Br  Br24  1  0.250000  0.617295  0.551290  1
  Br  Br25  1  0.750000  0.382705  0.448710  1
  Br  Br26  1  0.750000  0.888357  0.057440  1
  Br  Br27  1  0.250000  0.111643  0.942560  1
  Br  Br28  1  0.250000  0.623710  0.954237  1
  Br  Br29  1  0.750000  0.376290  0.045763  1
  Br  Br30  1  0.750000  0.870655  0.452987  1
  Br  Br31  1  0.250000  0.129345  0.547013  1
  Br  Br32  1  0.250000  0.631140  0.352629  1
  Br  Br33  1  0.750000  0.368860  0.647371  1
  Br  Br34  1  0.750000  0.860774  0.850984  1
  Br  Br35  1  0.250000  0.139226  0.149016  1
