# generated using pymatgen
data_Ti12Mn6ReIr5
_symmetry_space_group_name_H-M   'P 1'
_cell_length_a   4.31311800
_cell_length_b   6.10882700
_cell_length_c   12.93671900
_cell_angle_alpha   90.00000000
_cell_angle_beta   90.00007529
_cell_angle_gamma   90.00000000
_symmetry_Int_Tables_number   1
_chemical_formula_structural   Ti12Mn6ReIr5
_chemical_formula_sum   'Ti12 Mn6 Re1 Ir5'
_cell_volume   340.85785841
_cell_formula_units_Z   1
loop_
 _symmetry_equiv_pos_site_id
 _symmetry_equiv_pos_as_xyz
  1  'x, y, z'
loop_
 _atom_site_type_symbol
 _atom_site_label
 _atom_site_symmetry_multiplicity
 _atom_site_fract_x
 _atom_site_fract_y
 _atom_site_fract_z
 _atom_site_occupancy
  Ti  Ti0  1  0.500002  0.252553  0.999991  1
  Ti  Ti1  1  0.500002  0.747448  0.999991  1
  Ti  Ti2  1  0.000005  0.251626  0.164751  1
  Ti  Ti3  1  0.000005  0.748373  0.164751  1
  Ti  Ti4  1  0.500012  0.250089  0.332927  1
  Ti  Ti5  1  0.500012  0.749912  0.332927  1
  Ti  Ti6  1  0.999998  0.249734  0.500003  1
  Ti  Ti7  1  0.999998  0.750265  0.500003  1
  Ti  Ti8  1  0.499990  0.250093  0.667082  1
  Ti  Ti9  1  0.499990  0.749908  0.667082  1
  Ti  Ti10  1  0.999997  0.251641  0.835240  1
  Ti  Ti11  1  0.999997  0.748358  0.835240  1
  Mn  Mn12  1  0.000001  0.000000  0.000013  1
  Mn  Mn13  1  0.500008  0.500000  0.169105  1
  Mn  Mn14  1  0.000010  0.000000  0.334609  1
  Mn  Mn15  1  0.500005  0.500000  0.499983  1
  Mn  Mn16  1  0.999994  0.000000  0.665381  1
  Mn  Mn17  1  0.499995  0.500000  0.830899  1
  Re  Re18  1  0.999984  0.500000  0.000018  1
  Ir  Ir19  1  0.500001  0.000000  0.167449  1
  Ir  Ir20  1  0.000013  0.500000  0.333990  1
  Ir  Ir21  1  0.500000  0.000000  0.499995  1
  Ir  Ir22  1  0.999986  0.500000  0.666012  1
  Ir  Ir23  1  0.500000  0.000000  0.832558  1
