# generated using pymatgen
data_YHf3TiPd15
_symmetry_space_group_name_H-M   'P 1'
_cell_length_a   4.02241600
_cell_length_b   4.02241600
_cell_length_c   20.06598800
_cell_angle_alpha   90.00000000
_cell_angle_beta   90.00000000
_cell_angle_gamma   90.00000000
_symmetry_Int_Tables_number   1
_chemical_formula_structural   YHf3TiPd15
_chemical_formula_sum   'Y1 Hf3 Ti1 Pd15'
_cell_volume   324.66428419
_cell_formula_units_Z   1
loop_
 _symmetry_equiv_pos_site_id
 _symmetry_equiv_pos_as_xyz
  1  'x, y, z'
loop_
 _atom_site_type_symbol
 _atom_site_label
 _atom_site_symmetry_multiplicity
 _atom_site_fract_x
 _atom_site_fract_y
 _atom_site_fract_z
 _atom_site_occupancy
  Y  Y0  1  0.000000  0.000000  0.803072  1
  Hf  Hf1  1  0.000000  0.000000  0.196632  1
  Hf  Hf2  1  0.000000  0.000000  0.398385  1
  Hf  Hf3  1  0.000000  0.000000  0.600351  1
  Ti  Ti4  1  0.000000  0.000000  0.999773  1
  Pd  Pd5  1  0.500000  0.500000  0.004344  1
  Pd  Pd6  1  0.500000  0.500000  0.198559  1
  Pd  Pd7  1  0.500000  0.500000  0.397644  1
  Pd  Pd8  1  0.500000  0.500000  0.596870  1
  Pd  Pd9  1  0.500000  0.500000  0.802816  1
  Pd  Pd10  1  0.500000  0.000000  0.098982  1
  Pd  Pd11  1  0.500000  0.000000  0.297973  1
  Pd  Pd12  1  0.500000  0.000000  0.497600  1
  Pd  Pd13  1  0.500000  0.000000  0.695996  1
  Pd  Pd14  1  0.500000  0.000000  0.910227  1
  Pd  Pd15  1  0.000000  0.500000  0.098982  1
  Pd  Pd16  1  0.000000  0.500000  0.297973  1
  Pd  Pd17  1  0.000000  0.500000  0.497600  1
  Pd  Pd18  1  0.000000  0.500000  0.695996  1
  Pd  Pd19  1  0.000000  0.500000  0.910227  1
