# generated using pymatgen
data_Y10AlSn3Bi2
_symmetry_space_group_name_H-M   'P 1'
_cell_length_a   9.00037801
_cell_length_b   9.01467795
_cell_length_c   6.56629500
_cell_angle_alpha   90.00000000
_cell_angle_beta   90.00000000
_cell_angle_gamma   119.85973944
_symmetry_Int_Tables_number   1
_chemical_formula_structural   Y10AlSn3Bi2
_chemical_formula_sum   'Y10 Al1 Sn3 Bi2'
_cell_volume   462.03414085
_cell_formula_units_Z   1
loop_
 _symmetry_equiv_pos_site_id
 _symmetry_equiv_pos_as_xyz
  1  'x, y, z'
loop_
 _atom_site_type_symbol
 _atom_site_label
 _atom_site_symmetry_multiplicity
 _atom_site_fract_x
 _atom_site_fract_y
 _atom_site_fract_z
 _atom_site_occupancy
  Y  Y0  1  0.761587  0.755461  0.250000  1
  Y  Y1  1  0.006310  0.243748  0.250000  1
  Y  Y2  1  0.762565  0.992121  0.750000  1
  Y  Y3  1  0.332918  0.658342  0.502144  1
  Y  Y4  1  0.235119  0.000575  0.250000  1
  Y  Y5  1  0.670648  0.345668  0.501985  1
  Y  Y6  1  0.987111  0.754473  0.750000  1
  Y  Y7  1  0.332918  0.658342  0.997856  1
  Y  Y8  1  0.241096  0.247276  0.750000  1
  Y  Y9  1  0.670648  0.345668  0.998015  1
  Al  Al10  1  0.602022  0.604074  0.750000  1
  Sn  Sn11  1  0.996418  0.391607  0.750000  1
  Sn  Sn12  1  0.396340  0.394065  0.250000  1
  Sn  Sn13  1  0.004916  0.607397  0.250000  1
  Bi  Bi14  1  0.390988  0.998984  0.750000  1
  Bi  Bi15  1  0.608396  0.002203  0.250000  1
