# generated using pymatgen
data_AgTe12Rh2I5
_symmetry_space_group_name_H-M   'P 1'
_cell_length_a   9.63740340
_cell_length_b   9.63740207
_cell_length_c   9.94290996
_cell_angle_alpha   108.61261972
_cell_angle_beta   108.61262169
_cell_angle_gamma   110.02894530
_symmetry_Int_Tables_number   1
_chemical_formula_structural   AgTe12Rh2I5
_chemical_formula_sum   'Ag1 Te12 Rh2 I5'
_cell_volume   720.78722836
_cell_formula_units_Z   1
loop_
 _symmetry_equiv_pos_site_id
 _symmetry_equiv_pos_as_xyz
  1  'x, y, z'
loop_
 _atom_site_type_symbol
 _atom_site_label
 _atom_site_symmetry_multiplicity
 _atom_site_fract_x
 _atom_site_fract_y
 _atom_site_fract_z
 _atom_site_occupancy
  Ag  Ag0  1  0.982114  0.517886  0.250000  1
  Te  Te1  1  0.942954  0.189428  0.186671  1
  Te  Te2  1  0.179670  0.921448  0.153012  1
  Te  Te3  1  0.183351  0.202982  0.950811  1
  Te  Te4  1  0.696510  0.676698  0.446682  1
  Te  Te5  1  0.425106  0.672116  0.660581  1
  Te  Te6  1  0.661046  0.429395  0.683708  1
  Te  Te7  1  0.070605  0.838954  0.816292  1
  Te  Te8  1  0.827884  0.074894  0.839419  1
  Te  Te9  1  0.823302  0.803490  0.053318  1
  Te  Te10  1  0.297018  0.316649  0.549189  1
  Te  Te11  1  0.578552  0.320330  0.346988  1
  Te  Te12  1  0.310572  0.557046  0.313329  1
  Rh  Rh13  1  0.254400  0.245600  0.250000  1
  Rh  Rh14  1  0.748577  0.751423  0.750000  1
  I  I15  1  0.165868  0.891204  0.467292  1
  I  I16  1  0.608796  0.334132  0.032708  1
  I  I17  1  0.757840  0.027329  0.489297  1
  I  I18  1  0.472671  0.742160  0.010703  1
  I  I19  1  0.013161  0.486839  0.750000  1
