# generated using pymatgen
data_HoLu2Mg3Ga2Hg
_symmetry_space_group_name_H-M   'P 1'
_cell_length_a   7.32994070
_cell_length_b   7.32994221
_cell_length_c   4.34710500
_cell_angle_alpha   90.00000000
_cell_angle_beta   90.00000000
_cell_angle_gamma   120.17654951
_symmetry_Int_Tables_number   1
_chemical_formula_structural   HoLu2Mg3Ga2Hg
_chemical_formula_sum   'Ho1 Lu2 Mg3 Ga2 Hg1'
_cell_volume   201.90933504
_cell_formula_units_Z   1
loop_
 _symmetry_equiv_pos_site_id
 _symmetry_equiv_pos_as_xyz
  1  'x, y, z'
loop_
 _atom_site_type_symbol
 _atom_site_label
 _atom_site_symmetry_multiplicity
 _atom_site_fract_x
 _atom_site_fract_y
 _atom_site_fract_z
 _atom_site_occupancy
  Ho  Ho0  1  0.428030  0.428030  0.000000  1
  Lu  Lu1  1  0.572536  0.000160  0.000000  1
  Lu  Lu2  1  0.000160  0.572536  0.000000  1
  Mg  Mg3  1  0.250165  0.999600  0.500000  1
  Mg  Mg4  1  0.999600  0.250165  0.500000  1
  Mg  Mg5  1  0.750241  0.750241  0.500000  1
  Ga  Ga6  1  0.332868  0.667536  0.500000  1
  Ga  Ga7  1  0.667536  0.332868  0.500000  1
  Hg  Hg8  1  0.998865  0.998865  0.000000  1
