# generated using pymatgen
data_Ce3ZnPd3Au2
_symmetry_space_group_name_H-M   'P 1'
_cell_length_a   7.46172800
_cell_length_b   7.62939174
_cell_length_c   3.88556300
_cell_angle_alpha   90.00000000
_cell_angle_beta   90.00000000
_cell_angle_gamma   119.27565427
_symmetry_Int_Tables_number   1
_chemical_formula_structural   Ce3ZnPd3Au2
_chemical_formula_sum   'Ce3 Zn1 Pd3 Au2'
_cell_volume   192.94688611
_cell_formula_units_Z   1
loop_
 _symmetry_equiv_pos_site_id
 _symmetry_equiv_pos_as_xyz
  1  'x, y, z'
loop_
 _atom_site_type_symbol
 _atom_site_label
 _atom_site_symmetry_multiplicity
 _atom_site_fract_x
 _atom_site_fract_y
 _atom_site_fract_z
 _atom_site_occupancy
  Ce  Ce0  1  0.006788  0.401544  0.000000  1
  Ce  Ce1  1  0.605245  0.598456  0.000000  1
  Ce  Ce2  1  0.389608  0.000000  0.000000  1
  Zn  Zn3  1  0.739582  0.000000  0.500000  1
  Pd  Pd4  1  0.970684  0.000000  0.000000  1
  Pd  Pd5  1  0.673863  0.320056  0.500000  1
  Pd  Pd6  1  0.353806  0.679944  0.500000  1
  Au  Au7  1  0.998927  0.737431  0.500000  1
  Au  Au8  1  0.261496  0.262569  0.500000  1
