# generated using pymatgen
data_Ce2MoOs3
_symmetry_space_group_name_H-M   'P 1'
_cell_length_a   5.69235832
_cell_length_b   5.69235807
_cell_length_c   5.21043742
_cell_angle_alpha   56.89016288
_cell_angle_beta   56.89016532
_cell_angle_gamma   60.00000313
_symmetry_Int_Tables_number   1
_chemical_formula_structural   Ce2MoOs3
_chemical_formula_sum   'Ce2 Mo1 Os3'
_cell_volume   113.46007982
_cell_formula_units_Z   1
loop_
 _symmetry_equiv_pos_site_id
 _symmetry_equiv_pos_as_xyz
  1  'x, y, z'
loop_
 _atom_site_type_symbol
 _atom_site_label
 _atom_site_symmetry_multiplicity
 _atom_site_fract_x
 _atom_site_fract_y
 _atom_site_fract_z
 _atom_site_occupancy
  Ce  Ce0  1  0.748010  0.748010  0.755969  1
  Ce  Ce1  1  0.501990  0.501990  0.494031  1
  Mo  Mo2  1  0.125000  0.125000  0.625000  1
  Os  Os3  1  0.125000  0.625000  0.125000  1
  Os  Os4  1  0.625000  0.125000  0.125000  1
  Os  Os5  1  0.125000  0.125000  0.125000  1
