# generated using pymatgen
data_Er4MgSn4
_symmetry_space_group_name_H-M   'P 1'
_cell_length_a   7.62545400
_cell_length_b   8.19139000
_cell_length_c   15.18908200
_cell_angle_alpha   90.00000000
_cell_angle_beta   90.00000000
_cell_angle_gamma   90.00000000
_symmetry_Int_Tables_number   1
_chemical_formula_structural   Er4MgSn4
_chemical_formula_sum   'Er16 Mg4 Sn16'
_cell_volume   948.75665637
_cell_formula_units_Z   4
loop_
 _symmetry_equiv_pos_site_id
 _symmetry_equiv_pos_as_xyz
  1  'x, y, z'
loop_
 _atom_site_type_symbol
 _atom_site_label
 _atom_site_symmetry_multiplicity
 _atom_site_fract_x
 _atom_site_fract_y
 _atom_site_fract_z
 _atom_site_occupancy
  Er  Er0  1  0.999038  0.184836  0.090652  1
  Er  Er1  1  0.000962  0.815164  0.909348  1
  Er  Er2  1  0.500962  0.684836  0.909348  1
  Er  Er3  1  0.000962  0.815164  0.590652  1
  Er  Er4  1  0.499038  0.315164  0.090652  1
  Er  Er5  1  0.999038  0.184836  0.409348  1
  Er  Er6  1  0.499038  0.315164  0.409348  1
  Er  Er7  1  0.500962  0.684836  0.590652  1
  Er  Er8  1  0.335066  0.169027  0.628744  1
  Er  Er9  1  0.664934  0.830973  0.371256  1
  Er  Er10  1  0.164934  0.669027  0.371256  1
  Er  Er11  1  0.664934  0.830973  0.128744  1
  Er  Er12  1  0.835066  0.330973  0.628744  1
  Er  Er13  1  0.335066  0.169027  0.871256  1
  Er  Er14  1  0.835066  0.330973  0.871256  1
  Er  Er15  1  0.164934  0.669027  0.128744  1
  Mg  Mg16  1  0.159388  0.505593  0.750000  1
  Mg  Mg17  1  0.840612  0.494407  0.250000  1
  Mg  Mg18  1  0.340612  0.005593  0.250000  1
  Mg  Mg19  1  0.659388  0.994407  0.750000  1
  Sn  Sn20  1  0.021194  0.091795  0.750000  1
  Sn  Sn21  1  0.978806  0.908205  0.250000  1
  Sn  Sn22  1  0.478806  0.591795  0.250000  1
  Sn  Sn23  1  0.521194  0.408205  0.750000  1
  Sn  Sn24  1  0.182603  0.463085  0.538451  1
  Sn  Sn25  1  0.817397  0.536915  0.461549  1
  Sn  Sn26  1  0.317397  0.963085  0.461549  1
  Sn  Sn27  1  0.817397  0.536915  0.038451  1
  Sn  Sn28  1  0.682603  0.036915  0.538451  1
  Sn  Sn29  1  0.182603  0.463085  0.961549  1
  Sn  Sn30  1  0.682603  0.036915  0.961549  1
  Sn  Sn31  1  0.317397  0.963085  0.038451  1
  Sn  Sn32  1  0.302619  0.846729  0.750000  1
  Sn  Sn33  1  0.697381  0.153271  0.250000  1
  Sn  Sn34  1  0.197381  0.346729  0.250000  1
  Sn  Sn35  1  0.802619  0.653271  0.750000  1
