# generated using pymatgen
data_Er4Ga6Ir3PdPt3
_symmetry_space_group_name_H-M   'P 1'
_cell_length_a   7.33495780
_cell_length_b   7.33495666
_cell_length_c   7.33793900
_cell_angle_alpha   109.47945999
_cell_angle_beta   109.47945685
_cell_angle_gamma   109.46297459
_symmetry_Int_Tables_number   1
_chemical_formula_structural   Er4Ga6Ir3PdPt3
_chemical_formula_sum   'Er4 Ga6 Ir3 Pd1 Pt3'
_cell_volume   303.88079450
_cell_formula_units_Z   1
loop_
 _symmetry_equiv_pos_site_id
 _symmetry_equiv_pos_as_xyz
  1  'x, y, z'
loop_
 _atom_site_type_symbol
 _atom_site_label
 _atom_site_symmetry_multiplicity
 _atom_site_fract_x
 _atom_site_fract_y
 _atom_site_fract_z
 _atom_site_occupancy
  Er  Er0  1  0.000000  0.000000  0.500000  1
  Er  Er1  1  0.007173  0.503587  0.003587  1
  Er  Er2  1  0.496413  0.992827  0.996413  1
  Er  Er3  1  0.496413  0.503587  0.500000  1
  Ga  Ga4  1  0.679227  0.683205  0.999810  1
  Ga  Ga5  1  0.316795  0.996022  0.316605  1
  Ga  Ga6  1  0.003978  0.320773  0.320583  1
  Ga  Ga7  1  0.316795  0.320773  0.000190  1
  Ga  Ga8  1  0.679227  0.996022  0.679417  1
  Ga  Ga9  1  0.003978  0.683205  0.683395  1
  Ir  Ir10  1  0.250008  0.500016  0.750008  1
  Ir  Ir11  1  0.250008  0.749992  0.500000  1
  Ir  Ir12  1  0.499984  0.749992  0.249992  1
  Pd  Pd13  1  0.000000  0.000000  0.000000  1
  Pt  Pt14  1  0.750037  0.249963  0.500000  1
  Pt  Pt15  1  0.750037  0.500075  0.250037  1
  Pt  Pt16  1  0.499925  0.249963  0.749963  1
