# generated using pymatgen
data_NdDyAg2(Ir2O7)2
_symmetry_space_group_name_H-M   'P 1'
_cell_length_a   7.40724119
_cell_length_b   7.25734493
_cell_length_c   7.25734464
_cell_angle_alpha   59.38308663
_cell_angle_beta   59.36064030
_cell_angle_gamma   59.36064115
_symmetry_Int_Tables_number   1
_chemical_formula_structural   NdDyAg2(Ir2O7)2
_chemical_formula_sum   'Nd1 Dy1 Ag2 Ir4 O14'
_cell_volume   271.89772125
_cell_formula_units_Z   1
loop_
 _symmetry_equiv_pos_site_id
 _symmetry_equiv_pos_as_xyz
  1  'x, y, z'
loop_
 _atom_site_type_symbol
 _atom_site_label
 _atom_site_symmetry_multiplicity
 _atom_site_fract_x
 _atom_site_fract_y
 _atom_site_fract_z
 _atom_site_occupancy
  Nd  Nd0  1  0.125000  0.125000  0.125000  1
  Dy  Dy1  1  0.625000  0.125000  0.125000  1
  Ag  Ag2  1  0.125000  0.625000  0.125000  1
  Ag  Ag3  1  0.125000  0.125000  0.625000  1
  Ir  Ir4  1  0.125000  0.625000  0.625000  1
  Ir  Ir5  1  0.625000  0.125000  0.625000  1
  Ir  Ir6  1  0.625000  0.625000  0.125000  1
  Ir  Ir7  1  0.625000  0.625000  0.625000  1
  O  O8  1  0.693051  0.712713  0.295160  1
  O  O9  1  0.300989  0.295675  0.703753  1
  O  O10  1  0.693051  0.295160  0.712713  1
  O  O11  1  0.300989  0.703753  0.295675  1
  O  O12  1  0.309890  0.690829  0.690829  1
  O  O13  1  0.706606  0.287750  0.287750  1
  O  O14  1  0.556949  0.537287  0.954840  1
  O  O15  1  0.949011  0.954325  0.546247  1
  O  O16  1  0.556949  0.954840  0.537287  1
  O  O17  1  0.949011  0.546247  0.954325  1
  O  O18  1  0.940110  0.559171  0.559171  1
  O  O19  1  0.543394  0.962250  0.962250  1
  O  O20  1  0.249195  0.259463  0.259463  1
  O  O21  1  0.000805  0.990537  0.990537  1
