# generated using pymatgen
data_TbTmFe6(P3Rh2)2
_symmetry_space_group_name_H-M   'P 1'
_cell_length_a   3.76275300
_cell_length_b   10.33167900
_cell_length_c   12.19223000
_cell_angle_alpha   90.00000000
_cell_angle_beta   90.00000000
_cell_angle_gamma   90.00000000
_symmetry_Int_Tables_number   1
_chemical_formula_structural   TbTmFe6(P3Rh2)2
_chemical_formula_sum   'Tb2 Tm2 Fe12 P12 Rh8'
_cell_volume   473.97972199
_cell_formula_units_Z   2
loop_
 _symmetry_equiv_pos_site_id
 _symmetry_equiv_pos_as_xyz
  1  'x, y, z'
loop_
 _atom_site_type_symbol
 _atom_site_label
 _atom_site_symmetry_multiplicity
 _atom_site_fract_x
 _atom_site_fract_y
 _atom_site_fract_z
 _atom_site_occupancy
  Tb  Tb0  1  0.750000  0.419510  0.288574  1
  Tb  Tb1  1  0.750000  0.080490  0.788574  1
  Tm  Tm2  1  0.250000  0.580293  0.711264  1
  Tm  Tm3  1  0.250000  0.919707  0.211264  1
  Fe  Fe4  1  0.250000  0.224114  0.170807  1
  Fe  Fe5  1  0.250000  0.275886  0.670807  1
  Fe  Fe6  1  0.750000  0.775298  0.829285  1
  Fe  Fe7  1  0.750000  0.724702  0.329285  1
  Fe  Fe8  1  0.250000  0.876373  0.697031  1
  Fe  Fe9  1  0.250000  0.623627  0.197031  1
  Fe  Fe10  1  0.750000  0.121563  0.302463  1
  Fe  Fe11  1  0.750000  0.378437  0.802463  1
  Fe  Fe12  1  0.250000  0.460025  0.934347  1
  Fe  Fe13  1  0.250000  0.039975  0.434347  1
  Fe  Fe14  1  0.750000  0.541675  0.064229  1
  Fe  Fe15  1  0.750000  0.958325  0.564229  1
  P  P16  1  0.250000  0.430129  0.111986  1
  P  P17  1  0.250000  0.069871  0.611986  1
  P  P18  1  0.750000  0.570878  0.886231  1
  P  P19  1  0.750000  0.929122  0.386231  1
  P  P20  1  0.250000  0.274127  0.853158  1
  P  P21  1  0.250000  0.225873  0.353158  1
  P  P22  1  0.750000  0.727425  0.147455  1
  P  P23  1  0.750000  0.772575  0.647455  1
  P  P24  1  0.250000  0.606517  0.377967  1
  P  P25  1  0.250000  0.893483  0.877967  1
  P  P26  1  0.750000  0.394489  0.622416  1
  P  P27  1  0.750000  0.105511  0.122416  1
  Rh  Rh28  1  0.250000  0.708041  0.985880  1
  Rh  Rh29  1  0.250000  0.791959  0.485880  1
  Rh  Rh30  1  0.750000  0.292804  0.014677  1
  Rh  Rh31  1  0.750000  0.207196  0.514677  1
  Rh  Rh32  1  0.250000  0.404909  0.479814  1
  Rh  Rh33  1  0.250000  0.095091  0.979814  1
  Rh  Rh34  1  0.750000  0.595028  0.522418  1
  Rh  Rh35  1  0.750000  0.904972  0.022418  1
