# generated using pymatgen
data_Li8Si2Ge
_symmetry_space_group_name_H-M   'P 1'
_cell_length_a   4.36354475
_cell_length_b   4.35859474
_cell_length_c   10.03905677
_cell_angle_alpha   89.77310253
_cell_angle_beta   102.90121207
_cell_angle_gamma   119.50645585
_symmetry_Int_Tables_number   1
_chemical_formula_structural   Li8Si2Ge
_chemical_formula_sum   'Li8 Si2 Ge1'
_cell_volume   160.70399037
_cell_formula_units_Z   1
loop_
 _symmetry_equiv_pos_site_id
 _symmetry_equiv_pos_as_xyz
  1  'x, y, z'
loop_
 _atom_site_type_symbol
 _atom_site_label
 _atom_site_symmetry_multiplicity
 _atom_site_fract_x
 _atom_site_fract_y
 _atom_site_fract_z
 _atom_site_occupancy
  Li  Li0  1  0.230604  0.771209  0.004725  1
  Li  Li1  1  0.320894  0.315845  0.644718  1
  Li  Li2  1  0.777199  0.045584  0.830604  1
  Li  Li3  1  0.875710  0.593514  0.471334  1
  Li  Li4  1  0.697561  0.504656  0.198022  1
  Li  Li5  1  0.499348  0.405725  0.912015  1
  Li  Li6  1  0.417137  0.863762  0.273363  1
  Li  Li7  1  0.600046  0.956069  0.563979  1
  Si  Si8  1  0.048858  0.680584  0.737166  1
  Si  Si9  1  0.972106  0.142250  0.111905  1
  Ge  Ge10  1  0.142319  0.226095  0.364134  1
