# generated using pymatgen
data_ZnFe(PtO3)4
_symmetry_space_group_name_H-M   'P 1'
_cell_length_a   6.48721908
_cell_length_b   6.52972287
_cell_length_c   10.55530413
_cell_angle_alpha   71.97960797
_cell_angle_beta   72.09178566
_cell_angle_gamma   89.98890195
_symmetry_Int_Tables_number   1
_chemical_formula_structural   ZnFe(PtO3)4
_chemical_formula_sum   'Zn2 Fe2 Pt8 O24'
_cell_volume   402.35432295
_cell_formula_units_Z   2
loop_
 _symmetry_equiv_pos_site_id
 _symmetry_equiv_pos_as_xyz
  1  'x, y, z'
loop_
 _atom_site_type_symbol
 _atom_site_label
 _atom_site_symmetry_multiplicity
 _atom_site_fract_x
 _atom_site_fract_y
 _atom_site_fract_z
 _atom_site_occupancy
  Zn  Zn0  1  0.500004  0.500013  0.999970  1
  Zn  Zn1  1  0.000012  0.000005  0.999988  1
  Fe  Fe2  1  0.250022  0.749986  0.499998  1
  Fe  Fe3  1  0.749964  0.250005  0.500030  1
  Pt  Pt4  1  0.415855  0.915824  0.168300  1
  Pt  Pt5  1  0.915839  0.415810  0.168308  1
  Pt  Pt6  1  0.084164  0.584196  0.831670  1
  Pt  Pt7  1  0.584156  0.084183  0.831681  1
  Pt  Pt8  1  0.166176  0.166161  0.667612  1
  Pt  Pt9  1  0.666206  0.666178  0.667597  1
  Pt  Pt10  1  0.333812  0.333844  0.332370  1
  Pt  Pt11  1  0.833842  0.833858  0.332359  1
  O  O12  1  0.558604  0.749955  0.499997  1
  O  O13  1  0.058588  0.249986  0.499980  1
  O  O14  1  0.941427  0.750021  0.500013  1
  O  O15  1  0.441405  0.250046  0.499991  1
  O  O16  1  0.500056  0.186621  0.000025  1
  O  O17  1  0.000071  0.686595  0.000029  1
  O  O18  1  0.499918  0.813363  0.000012  1
  O  O19  1  0.999919  0.313392  0.999999  1
  O  O20  1  0.722208  0.916345  0.167581  1
  O  O21  1  0.222211  0.416301  0.167573  1
  O  O22  1  0.110235  0.916188  0.167575  1
  O  O23  1  0.610203  0.416152  0.167573  1
  O  O24  1  0.777684  0.583684  0.832462  1
  O  O25  1  0.277700  0.083636  0.832463  1
  O  O26  1  0.389852  0.583825  0.832461  1
  O  O27  1  0.889816  0.083783  0.832476  1
  O  O28  1  0.168220  0.861258  0.663467  1
  O  O29  1  0.668222  0.361301  0.663472  1
  O  O30  1  0.168287  0.475299  0.663446  1
  O  O31  1  0.668297  0.975274  0.663433  1
  O  O32  1  0.331796  0.638718  0.336503  1
  O  O33  1  0.831790  0.138753  0.336515  1
  O  O34  1  0.331710  0.024731  0.336538  1
  O  O35  1  0.831732  0.524709  0.336531  1
