# generated using pymatgen
data_Er16In3Co4Hg
_symmetry_space_group_name_H-M   'P 1'
_cell_length_a   9.40808100
_cell_length_b   9.43967226
_cell_length_c   9.43967100
_cell_angle_alpha   60.00000092
_cell_angle_beta   59.88886063
_cell_angle_gamma   59.88886317
_symmetry_Int_Tables_number   1
_chemical_formula_structural   Er16In3Co4Hg
_chemical_formula_sum   'Er16 In3 Co4 Hg1'
_cell_volume   591.79082891
_cell_formula_units_Z   1
loop_
 _symmetry_equiv_pos_site_id
 _symmetry_equiv_pos_as_xyz
  1  'x, y, z'
loop_
 _atom_site_type_symbol
 _atom_site_label
 _atom_site_symmetry_multiplicity
 _atom_site_fract_x
 _atom_site_fract_y
 _atom_site_fract_z
 _atom_site_occupancy
  Er  Er0  1  0.597671  0.597225  0.597225  1
  Er  Er1  1  0.597671  0.597225  0.207877  1
  Er  Er2  1  0.597671  0.207877  0.597225  1
  Er  Er3  1  0.209674  0.596775  0.596775  1
  Er  Er4  1  0.061355  0.438457  0.438457  1
  Er  Er5  1  0.438276  0.062270  0.062270  1
  Er  Er6  1  0.438276  0.062270  0.437184  1
  Er  Er7  1  0.061355  0.438457  0.061731  1
  Er  Er8  1  0.438276  0.437184  0.062270  1
  Er  Er9  1  0.061355  0.061731  0.438457  1
  Er  Er10  1  0.191461  0.810762  0.810762  1
  Er  Er11  1  0.812488  0.188190  0.188190  1
  Er  Er12  1  0.812488  0.188190  0.811133  1
  Er  Er13  1  0.191461  0.810762  0.187015  1
  Er  Er14  1  0.812488  0.811133  0.188190  1
  Er  Er15  1  0.191461  0.187015  0.810762  1
  In  In16  1  0.831144  0.833152  0.833152  1
  In  In17  1  0.831144  0.833152  0.502550  1
  In  In18  1  0.831144  0.502550  0.833152  1
  Co  Co19  1  0.390872  0.390645  0.390645  1
  Co  Co20  1  0.390872  0.390645  0.827839  1
  Co  Co21  1  0.390872  0.827839  0.390645  1
  Co  Co22  1  0.826417  0.391195  0.391195  1
  Hg  Hg23  1  0.494107  0.835298  0.835298  1
