# generated using pymatgen
data_ScV3O9
_symmetry_space_group_name_H-M   'P 1'
_cell_length_a   13.33366508
_cell_length_b   13.33366511
_cell_length_c   13.33366500
_cell_angle_alpha   109.47122046
_cell_angle_beta   109.47122052
_cell_angle_gamma   109.47122069
_symmetry_Int_Tables_number   1
_chemical_formula_structural   ScV3O9
_chemical_formula_sum   'Sc8 V24 O72'
_cell_volume   1824.84816558
_cell_formula_units_Z   8
loop_
 _symmetry_equiv_pos_site_id
 _symmetry_equiv_pos_as_xyz
  1  'x, y, z'
loop_
 _atom_site_type_symbol
 _atom_site_label
 _atom_site_symmetry_multiplicity
 _atom_site_fract_x
 _atom_site_fract_y
 _atom_site_fract_z
 _atom_site_occupancy
  Sc  Sc0  1  0.716325  0.716325  0.716325  1
  Sc  Sc1  1  0.500000  0.000000  0.283675  1
  Sc  Sc2  1  0.000000  0.283675  0.500000  1
  Sc  Sc3  1  0.283675  0.500000  0.000000  1
  Sc  Sc4  1  0.000000  0.783675  0.500000  1
  Sc  Sc5  1  0.783675  0.500000  0.000000  1
  Sc  Sc6  1  0.500000  0.000000  0.783675  1
  Sc  Sc7  1  0.216325  0.216325  0.216325  1
  V  V8  1  0.663997  0.879048  0.952880  1
  V  V9  1  0.788882  0.215051  0.836003  1
  V  V10  1  0.284949  0.073831  0.620952  1
  V  V11  1  0.426169  0.711118  0.547120  1
  V  V12  1  0.711118  0.547120  0.426169  1
  V  V13  1  0.547120  0.426169  0.711118  1
  V  V14  1  0.379048  0.163997  0.452880  1
  V  V15  1  0.288882  0.336003  0.715051  1
  V  V16  1  0.120952  0.573831  0.784949  1
  V  V17  1  0.926169  0.047120  0.211118  1
  V  V18  1  0.047120  0.211118  0.926169  1
  V  V19  1  0.452880  0.379048  0.163997  1
  V  V20  1  0.336003  0.715051  0.288882  1
  V  V21  1  0.784949  0.120952  0.573831  1
  V  V22  1  0.163997  0.452880  0.379048  1
  V  V23  1  0.715051  0.288882  0.336003  1
  V  V24  1  0.573831  0.784949  0.120952  1
  V  V25  1  0.836003  0.788882  0.215051  1
  V  V26  1  0.073831  0.620952  0.284949  1
  V  V27  1  0.620952  0.284949  0.073831  1
  V  V28  1  0.879048  0.952880  0.663997  1
  V  V29  1  0.952880  0.663997  0.879048  1
  V  V30  1  0.215051  0.836003  0.788882  1
  V  V31  1  0.211118  0.926169  0.047120  1
  O  O32  1  0.571564  0.914051  0.868043  1
  O  O33  1  0.796479  0.342487  0.928436  1
  O  O34  1  0.157513  0.953991  0.585949  1
  O  O35  1  0.546009  0.703521  0.631957  1
  O  O36  1  0.703521  0.631957  0.546009  1
  O  O37  1  0.631957  0.546009  0.703521  1
  O  O38  1  0.414051  0.071564  0.368043  1
  O  O39  1  0.296479  0.428436  0.842487  1
  O  O40  1  0.085949  0.453991  0.657513  1
  O  O41  1  0.046009  0.131957  0.203521  1
  O  O42  1  0.131957  0.203521  0.046009  1
  O  O43  1  0.368043  0.414051  0.071564  1
  O  O44  1  0.428436  0.842487  0.296479  1
  O  O45  1  0.657513  0.085949  0.453991  1
  O  O46  1  0.071564  0.368043  0.414051  1
  O  O47  1  0.842487  0.296479  0.428436  1
  O  O48  1  0.453991  0.657513  0.085949  1
  O  O49  1  0.928436  0.796479  0.342487  1
  O  O50  1  0.953991  0.585949  0.157513  1
  O  O51  1  0.585949  0.157513  0.953991  1
  O  O52  1  0.914051  0.868043  0.571564  1
  O  O53  1  0.868043  0.571564  0.914051  1
  O  O54  1  0.342487  0.928436  0.796479  1
  O  O55  1  0.203521  0.046009  0.131957  1
  O  O56  1  0.728662  0.816388  0.882247  1
  O  O57  1  0.183612  0.565859  0.912274  1
  O  O58  1  0.653585  0.087726  0.771338  1
  O  O59  1  0.434141  0.846415  0.617753  1
  O  O60  1  0.846415  0.617753  0.434141  1
  O  O61  1  0.617753  0.434141  0.846415  1
  O  O62  1  0.316388  0.228662  0.382247  1
  O  O63  1  0.153585  0.271338  0.587726  1
  O  O64  1  0.094739  0.783391  0.016004  1
  O  O65  1  0.188652  0.921264  0.905261  1
  O  O66  1  0.983996  0.578736  0.767386  1
  O  O67  1  0.767386  0.983996  0.578736  1
  O  O68  1  0.732614  0.311348  0.216609  1
  O  O69  1  0.216609  0.732614  0.311348  1
  O  O70  1  0.921264  0.905261  0.188652  1
  O  O71  1  0.716609  0.811348  0.232614  1
  O  O72  1  0.688652  0.405261  0.421264  1
  O  O73  1  0.078736  0.483996  0.267386  1
  O  O74  1  0.811348  0.232614  0.716609  1
  O  O75  1  0.421264  0.688652  0.405261  1
  O  O76  1  0.483996  0.267386  0.078736  1
  O  O77  1  0.016004  0.094739  0.783391  1
  O  O78  1  0.783391  0.016004  0.094739  1
  O  O79  1  0.232614  0.716609  0.811348  1
  O  O80  1  0.405261  0.421264  0.688652  1
  O  O81  1  0.267386  0.078736  0.483996  1
  O  O82  1  0.516004  0.283391  0.594739  1
  O  O83  1  0.594739  0.516004  0.283391  1
  O  O84  1  0.283391  0.594739  0.516004  1
  O  O85  1  0.311348  0.216609  0.732614  1
  O  O86  1  0.905261  0.188652  0.921264  1
  O  O87  1  0.578736  0.767386  0.983996  1
  O  O88  1  0.346415  0.934141  0.117753  1
  O  O89  1  0.087726  0.771338  0.653585  1
  O  O90  1  0.882247  0.728662  0.816388  1
  O  O91  1  0.816388  0.882247  0.728662  1
  O  O92  1  0.683612  0.412274  0.065859  1
  O  O93  1  0.065859  0.683612  0.412274  1
  O  O94  1  0.771338  0.653585  0.087726  1
  O  O95  1  0.565859  0.912274  0.183612  1
  O  O96  1  0.587726  0.153585  0.271338  1
  O  O97  1  0.228662  0.382247  0.316388  1
  O  O98  1  0.912274  0.183612  0.565859  1
  O  O99  1  0.271338  0.587726  0.153585  1
  O  O100  1  0.382247  0.316388  0.228662  1
  O  O101  1  0.117753  0.346415  0.934141  1
  O  O102  1  0.934141  0.117753  0.346415  1
  O  O103  1  0.412274  0.065859  0.683612  1
