# generated using pymatgen
data_Ba8V(PN4)3
_symmetry_space_group_name_H-M   'P 1'
_cell_length_a   6.50242141
_cell_length_b   6.50242008
_cell_length_c   12.83229449
_cell_angle_alpha   90.29408561
_cell_angle_beta   89.70591513
_cell_angle_gamma   128.21403678
_symmetry_Int_Tables_number   1
_chemical_formula_structural   Ba8V(PN4)3
_chemical_formula_sum   'Ba8 V1 P3 N12'
_cell_volume   426.29192303
_cell_formula_units_Z   1
loop_
 _symmetry_equiv_pos_site_id
 _symmetry_equiv_pos_as_xyz
  1  'x, y, z'
loop_
 _atom_site_type_symbol
 _atom_site_label
 _atom_site_symmetry_multiplicity
 _atom_site_fract_x
 _atom_site_fract_y
 _atom_site_fract_z
 _atom_site_occupancy
  Ba  Ba0  1  0.552931  0.447069  0.641775  1
  Ba  Ba1  1  0.445221  0.554779  0.357521  1
  Ba  Ba2  1  0.948190  0.051810  0.145376  1
  Ba  Ba3  1  0.057923  0.942077  0.855826  1
  Ba  Ba4  1  0.856743  0.143257  0.573339  1
  Ba  Ba5  1  0.141296  0.858704  0.420739  1
  Ba  Ba6  1  0.641220  0.358780  0.081488  1
  Ba  Ba7  1  0.355180  0.644820  0.927218  1
  V  V8  1  0.741203  0.258797  0.826487  1
  P  P9  1  0.262716  0.737284  0.174220  1
  P  P10  1  0.761603  0.238397  0.327604  1
  P  P11  1  0.240034  0.759966  0.665825  1
  N  N12  1  0.829772  0.170228  0.939202  1
  N  N13  1  0.175584  0.824416  0.075182  1
  N  N14  1  0.673448  0.326552  0.427001  1
  N  N15  1  0.326353  0.673647  0.564821  1
  N  N16  1  0.593170  0.406830  0.863425  1
  N  N17  1  0.400663  0.599337  0.147731  1
  N  N18  1  0.899241  0.100759  0.354500  1
  N  N19  1  0.100986  0.899014  0.641072  1
  N  N20  1  0.504694  0.964391  0.743828  1
  N  N21  1  0.978162  0.521942  0.250997  1
  N  N22  1  0.478058  0.021838  0.250997  1
  N  N23  1  0.035609  0.495306  0.743828  1
