# generated using pymatgen
data_Nd2Sm2B4I5
_symmetry_space_group_name_H-M   'P 1'
_cell_length_a   9.83347121
_cell_length_b   9.83347042
_cell_length_c   9.99738179
_cell_angle_alpha   75.19813731
_cell_angle_beta   75.19813970
_cell_angle_gamma   25.44772013
_symmetry_Int_Tables_number   1
_chemical_formula_structural   Nd2Sm2B4I5
_chemical_formula_sum   'Nd2 Sm2 B4 I5'
_cell_volume   400.88656116
_cell_formula_units_Z   1
loop_
 _symmetry_equiv_pos_site_id
 _symmetry_equiv_pos_as_xyz
  1  'x, y, z'
loop_
 _atom_site_type_symbol
 _atom_site_label
 _atom_site_symmetry_multiplicity
 _atom_site_fract_x
 _atom_site_fract_y
 _atom_site_fract_z
 _atom_site_occupancy
  Nd  Nd0  1  0.133230  0.133230  0.932643  1
  Nd  Nd1  1  0.868430  0.868430  0.066017  1
  Sm  Sm2  1  0.503707  0.503707  0.752695  1
  Sm  Sm3  1  0.498084  0.498084  0.246165  1
  B  B4  1  0.315874  0.685783  0.999468  1
  B  B5  1  0.685783  0.315874  0.999468  1
  B  B6  1  0.000599  0.000599  0.094812  1
  B  B7  1  0.001032  0.001032  0.904116  1
  I  I8  1  0.674269  0.674269  0.678975  1
  I  I9  1  0.327558  0.327558  0.320212  1
  I  I10  1  0.329049  0.329049  0.847827  1
  I  I11  1  0.673021  0.673021  0.149870  1
  I  I12  1  0.003665  0.003665  0.497931  1
