# generated using pymatgen
data_Ho5Er2FeBr12
_symmetry_space_group_name_H-M   'P 1'
_cell_length_a   9.09370655
_cell_length_b   9.19678027
_cell_length_c   9.19781768
_cell_angle_alpha   106.91568508
_cell_angle_beta   106.88968958
_cell_angle_gamma   106.96115198
_symmetry_Int_Tables_number   1
_chemical_formula_structural   Ho5Er2FeBr12
_chemical_formula_sum   'Ho5 Er2 Fe1 Br12'
_cell_volume   641.98494787
_cell_formula_units_Z   1
loop_
 _symmetry_equiv_pos_site_id
 _symmetry_equiv_pos_as_xyz
  1  'x, y, z'
loop_
 _atom_site_type_symbol
 _atom_site_label
 _atom_site_symmetry_multiplicity
 _atom_site_fract_x
 _atom_site_fract_y
 _atom_site_fract_z
 _atom_site_occupancy
  Ho  Ho0  1  0.903094  0.977878  0.696512  1
  Ho  Ho1  1  0.706970  0.906851  0.978599  1
  Ho  Ho2  1  0.979178  0.695094  0.902603  1
  Ho  Ho3  1  0.097407  0.020396  0.303536  1
  Ho  Ho4  1  0.293841  0.093823  0.021938  1
  Er  Er5  1  0.021251  0.301957  0.097254  1
  Er  Er6  1  0.498836  0.500813  0.499707  1
  Fe  Fe7  1  0.000122  0.997994  0.999542  1
  Br  Br8  1  0.832256  0.612335  0.535354  1
  Br  Br9  1  0.535727  0.832155  0.613266  1
  Br  Br10  1  0.611566  0.538469  0.831354  1
  Br  Br11  1  0.165033  0.387009  0.462267  1
  Br  Br12  1  0.464695  0.170177  0.386977  1
  Br  Br13  1  0.385399  0.462285  0.167720  1
  Br  Br14  1  0.930615  0.322263  0.779394  1
  Br  Br15  1  0.775599  0.929141  0.319094  1
  Br  Br16  1  0.323130  0.779932  0.930860  1
  Br  Br17  1  0.069793  0.676214  0.222592  1
  Br  Br18  1  0.224878  0.072105  0.681294  1
  Br  Br19  1  0.680609  0.223107  0.070136  1
