# generated using pymatgen
data_TmSc5(SnPd)6
_symmetry_space_group_name_H-M   'P 1'
_cell_length_a   7.57956442
_cell_length_b   7.56377833
_cell_length_c   7.27116100
_cell_angle_alpha   90.00000000
_cell_angle_beta   90.00000000
_cell_angle_gamma   119.73344213
_symmetry_Int_Tables_number   1
_chemical_formula_structural   TmSc5(SnPd)6
_chemical_formula_sum   'Tm1 Sc5 Sn6 Pd6'
_cell_volume   361.97426838
_cell_formula_units_Z   1
loop_
 _symmetry_equiv_pos_site_id
 _symmetry_equiv_pos_as_xyz
  1  'x, y, z'
loop_
 _atom_site_type_symbol
 _atom_site_label
 _atom_site_symmetry_multiplicity
 _atom_site_fract_x
 _atom_site_fract_y
 _atom_site_fract_z
 _atom_site_occupancy
  Tm  Tm0  1  0.389804  0.985528  0.750000  1
  Sc  Sc1  1  0.396758  0.011508  0.250000  1
  Sc  Sc2  1  0.613375  0.601622  0.250000  1
  Sc  Sc3  1  0.989130  0.386734  0.250000  1
  Sc  Sc4  1  0.601581  0.612994  0.750000  1
  Sc  Sc5  1  0.010506  0.398070  0.750000  1
  Sn  Sn6  1  0.728176  0.998415  0.005737  1
  Sn  Sn7  1  0.272917  0.276970  0.499449  1
  Sn  Sn8  1  0.998192  0.724670  0.498313  1
  Sn  Sn9  1  0.998192  0.724670  0.001687  1
  Sn  Sn10  1  0.272917  0.276970  0.000551  1
  Sn  Sn11  1  0.728176  0.998415  0.494263  1
  Pd  Pd12  1  0.332662  0.666674  0.032680  1
  Pd  Pd13  1  0.332662  0.666674  0.467320  1
  Pd  Pd14  1  0.667303  0.334447  0.981256  1
  Pd  Pd15  1  0.667303  0.334447  0.518744  1
  Pd  Pd16  1  0.002713  0.001220  0.250000  1
  Pd  Pd17  1  0.997634  0.999971  0.750000  1
