# generated using pymatgen
data_LiPrCdPt3
_symmetry_space_group_name_H-M   'P 1'
_cell_length_a   5.26233200
_cell_length_b   5.26233154
_cell_length_c   5.26233202
_cell_angle_alpha   63.23948049
_cell_angle_beta   63.23947043
_cell_angle_gamma   63.23948467
_symmetry_Int_Tables_number   1
_chemical_formula_structural   LiPrCdPt3
_chemical_formula_sum   'Li1 Pr1 Cd1 Pt3'
_cell_volume   110.44012759
_cell_formula_units_Z   1
loop_
 _symmetry_equiv_pos_site_id
 _symmetry_equiv_pos_as_xyz
  1  'x, y, z'
loop_
 _atom_site_type_symbol
 _atom_site_label
 _atom_site_symmetry_multiplicity
 _atom_site_fract_x
 _atom_site_fract_y
 _atom_site_fract_z
 _atom_site_occupancy
  Li  Li0  1  0.627014  0.627014  0.627014  1
  Pr  Pr1  1  0.246942  0.246942  0.246942  1
  Cd  Cd2  1  0.997113  0.997113  0.997113  1
  Pt  Pt3  1  0.627068  0.627068  0.124794  1
  Pt  Pt4  1  0.627068  0.124794  0.627068  1
  Pt  Pt5  1  0.124794  0.627068  0.627068  1
