# generated using pymatgen
data_Ho2TmIn3CuPt2
_symmetry_space_group_name_H-M   'P 1'
_cell_length_a   7.70307911
_cell_length_b   7.72767933
_cell_length_c   3.71479700
_cell_angle_alpha   90.00000000
_cell_angle_beta   90.00000000
_cell_angle_gamma   120.10570372
_symmetry_Int_Tables_number   1
_chemical_formula_structural   Ho2TmIn3CuPt2
_chemical_formula_sum   'Ho2 Tm1 In3 Cu1 Pt2'
_cell_volume   191.30027634
_cell_formula_units_Z   1
loop_
 _symmetry_equiv_pos_site_id
 _symmetry_equiv_pos_as_xyz
  1  'x, y, z'
loop_
 _atom_site_type_symbol
 _atom_site_label
 _atom_site_symmetry_multiplicity
 _atom_site_fract_x
 _atom_site_fract_y
 _atom_site_fract_z
 _atom_site_occupancy
  Ho  Ho0  1  0.412288  0.412148  0.500000  1
  Ho  Ho1  1  0.587712  0.999859  0.500000  1
  Tm  Tm2  1  0.000000  0.586909  0.500000  1
  In  In3  1  0.000000  0.255446  0.000000  1
  In  In4  1  0.745739  0.744560  0.000000  1
  In  In5  1  0.254261  0.998821  0.000000  1
  Cu  Cu6  1  0.000000  0.001003  0.500000  1
  Pt  Pt7  1  0.668328  0.334791  0.000000  1
  Pt  Pt8  1  0.331672  0.666464  0.000000  1
