# generated using pymatgen
data_KLa2CuS4
_symmetry_space_group_name_H-M   'P 1'
_cell_length_a   4.16374700
_cell_length_b   7.39917673
_cell_length_c   14.18156000
_cell_angle_alpha   90.00000000
_cell_angle_beta   90.00000000
_cell_angle_gamma   106.34171844
_symmetry_Int_Tables_number   1
_chemical_formula_structural   KLa2CuS4
_chemical_formula_sum   'K2 La4 Cu2 S8'
_cell_volume   419.25889548
_cell_formula_units_Z   2
loop_
 _symmetry_equiv_pos_site_id
 _symmetry_equiv_pos_as_xyz
  1  'x, y, z'
loop_
 _atom_site_type_symbol
 _atom_site_label
 _atom_site_symmetry_multiplicity
 _atom_site_fract_x
 _atom_site_fract_y
 _atom_site_fract_z
 _atom_site_occupancy
  K  K0  1  0.105468  0.210936  0.250000  1
  K  K1  1  0.894531  0.789063  0.750000  1
  La  La2  1  0.365751  0.731503  0.061601  1
  La  La3  1  0.365751  0.731503  0.438399  1
  La  La4  1  0.634248  0.268497  0.561601  1
  La  La5  1  0.634248  0.268497  0.938399  1
  Cu  Cu6  1  0.833992  0.667985  0.250000  1
  Cu  Cu7  1  0.166007  0.332015  0.750000  1
  S  S8  1  0.000000  0.000000  0.000000  1
  S  S9  1  0.738768  0.477538  0.115099  1
  S  S10  1  0.425887  0.851774  0.250000  1
  S  S11  1  0.738768  0.477538  0.384901  1
  S  S12  1  0.000000  0.000000  0.500000  1
  S  S13  1  0.261232  0.522462  0.615099  1
  S  S14  1  0.574112  0.148225  0.750000  1
  S  S15  1  0.261232  0.522462  0.884901  1
