# generated using pymatgen
data_Sr4Si8IrRu7
_symmetry_space_group_name_H-M   'P 1'
_cell_length_a   6.18173922
_cell_length_b   8.05195115
_cell_length_c   8.05250630
_cell_angle_alpha   79.37443908
_cell_angle_beta   90.23707228
_cell_angle_gamma   89.76426194
_symmetry_Int_Tables_number   1
_chemical_formula_structural   Sr4Si8IrRu7
_chemical_formula_sum   'Sr4 Si8 Ir1 Ru7'
_cell_volume   393.93309640
_cell_formula_units_Z   1
loop_
 _symmetry_equiv_pos_site_id
 _symmetry_equiv_pos_as_xyz
  1  'x, y, z'
loop_
 _atom_site_type_symbol
 _atom_site_label
 _atom_site_symmetry_multiplicity
 _atom_site_fract_x
 _atom_site_fract_y
 _atom_site_fract_z
 _atom_site_occupancy
  Sr  Sr0  1  0.375081  0.000434  0.249895  1
  Sr  Sr1  1  0.874996  0.500933  0.751491  1
  Sr  Sr2  1  0.125945  0.501228  0.248618  1
  Sr  Sr3  1  0.624024  0.997806  0.750435  1
  Si  Si4  1  0.377286  0.321149  0.928459  1
  Si  Si5  1  0.125829  0.178425  0.573982  1
  Si  Si6  1  0.625583  0.324196  0.428645  1
  Si  Si7  1  0.876234  0.818195  0.428224  1
  Si  Si8  1  0.873917  0.178536  0.067989  1
  Si  Si9  1  0.624125  0.678870  0.071824  1
  Si  Si10  1  0.124146  0.821479  0.928520  1
  Si  Si11  1  0.372851  0.678239  0.571470  1
  Ir  Ir12  1  0.875529  0.121775  0.371533  1
  Ru  Ru13  1  0.375515  0.377279  0.627529  1
  Ru  Ru14  1  0.623806  0.623157  0.372059  1
  Ru  Ru15  1  0.122858  0.878915  0.627222  1
  Ru  Ru16  1  0.126253  0.121858  0.872976  1
  Ru  Ru17  1  0.627172  0.377436  0.129046  1
  Ru  Ru18  1  0.874429  0.878417  0.128104  1
  Ru  Ru19  1  0.374423  0.621675  0.871980  1
