# generated using pymatgen
data_HoAgPt2O7
_symmetry_space_group_name_H-M   'P 1'
_cell_length_a   7.22655892
_cell_length_b   7.22655881
_cell_length_c   7.38637200
_cell_angle_alpha   59.26570574
_cell_angle_beta   59.26570628
_cell_angle_gamma   59.21428416
_symmetry_Int_Tables_number   1
_chemical_formula_structural   HoAgPt2O7
_chemical_formula_sum   'Ho2 Ag2 Pt4 O14'
_cell_volume   268.09056185
_cell_formula_units_Z   2
loop_
 _symmetry_equiv_pos_site_id
 _symmetry_equiv_pos_as_xyz
  1  'x, y, z'
loop_
 _atom_site_type_symbol
 _atom_site_label
 _atom_site_symmetry_multiplicity
 _atom_site_fract_x
 _atom_site_fract_y
 _atom_site_fract_z
 _atom_site_occupancy
  Ho  Ho0  1  0.625000  0.625000  0.125000  1
  Ho  Ho1  1  0.625000  0.625000  0.625000  1
  Ag  Ag2  1  0.625000  0.125000  0.625000  1
  Ag  Ag3  1  0.125000  0.625000  0.625000  1
  Pt  Pt4  1  0.125000  0.125000  0.125000  1
  Pt  Pt5  1  0.625000  0.125000  0.125000  1
  Pt  Pt6  1  0.125000  0.625000  0.125000  1
  Pt  Pt7  1  0.125000  0.125000  0.625000  1
  O  O8  1  0.027968  0.461854  0.456619  1
  O  O9  1  0.779850  0.779850  0.220150  1
  O  O10  1  0.788146  0.222032  0.196441  1
  O  O11  1  0.461854  0.027968  0.456619  1
  O  O12  1  0.760829  0.760829  0.739171  1
  O  O13  1  0.046368  0.046368  0.453632  1
  O  O14  1  0.027968  0.461854  0.053559  1
  O  O15  1  0.788146  0.222032  0.793381  1
  O  O16  1  0.222032  0.788146  0.196441  1
  O  O17  1  0.203632  0.203632  0.796368  1
  O  O18  1  0.489171  0.489171  0.510829  1
  O  O19  1  0.461854  0.027968  0.053559  1
  O  O20  1  0.470150  0.470150  0.029850  1
  O  O21  1  0.222032  0.788146  0.793381  1
