# generated using pymatgen
data_K6ScSe4Cl
_symmetry_space_group_name_H-M   'P 1'
_cell_length_a   10.57449500
_cell_length_b   10.57449499
_cell_length_c   7.78358100
_cell_angle_alpha   90.00000000
_cell_angle_beta   90.00000000
_cell_angle_gamma   120.00000316
_symmetry_Int_Tables_number   1
_chemical_formula_structural   K6ScSe4Cl
_chemical_formula_sum   'K12 Sc2 Se8 Cl2'
_cell_volume   753.75349523
_cell_formula_units_Z   2
loop_
 _symmetry_equiv_pos_site_id
 _symmetry_equiv_pos_as_xyz
  1  'x, y, z'
loop_
 _atom_site_type_symbol
 _atom_site_label
 _atom_site_symmetry_multiplicity
 _atom_site_fract_x
 _atom_site_fract_y
 _atom_site_fract_z
 _atom_site_occupancy
  K  K0  1  0.130008  0.869992  0.514983  1
  K  K1  1  0.739984  0.869992  0.514983  1
  K  K2  1  0.946681  0.473341  0.319335  1
  K  K3  1  0.526659  0.473341  0.319335  1
  K  K4  1  0.869992  0.739984  0.014983  1
  K  K5  1  0.260016  0.130008  0.014983  1
  K  K6  1  0.526659  0.053319  0.319335  1
  K  K7  1  0.130008  0.260016  0.514983  1
  K  K8  1  0.869992  0.130008  0.014983  1
  K  K9  1  0.053319  0.526659  0.819335  1
  K  K10  1  0.473341  0.946681  0.819335  1
  K  K11  1  0.473341  0.526659  0.819335  1
  Sc  Sc12  1  0.666667  0.333333  0.710035  1
  Sc  Sc13  1  0.333333  0.666667  0.210035  1
  Se  Se14  1  0.403075  0.201537  0.603608  1
  Se  Se15  1  0.596925  0.798463  0.103608  1
  Se  Se16  1  0.666667  0.333333  0.042220  1
  Se  Se17  1  0.798463  0.596925  0.603608  1
  Se  Se18  1  0.201537  0.403075  0.103608  1
  Se  Se19  1  0.333333  0.666667  0.542220  1
  Se  Se20  1  0.201537  0.798463  0.103608  1
  Se  Se21  1  0.798463  0.201537  0.603608  1
  Cl  Cl22  1  0.000000  0.000000  0.274567  1
  Cl  Cl23  1  0.000000  0.000000  0.774567  1
