# generated using pymatgen
data_CsHo8Tm2(C2I9)2
_symmetry_space_group_name_H-M   'P 1'
_cell_length_a   11.45656976
_cell_length_b   11.45443736
_cell_length_c   11.45080138
_cell_angle_alpha   113.20832076
_cell_angle_beta   86.61000976
_cell_angle_gamma   120.15453735
_symmetry_Int_Tables_number   1
_chemical_formula_structural   CsHo8Tm2(C2I9)2
_chemical_formula_sum   'Cs1 Ho8 Tm2 C4 I18'
_cell_volume   1175.81556210
_cell_formula_units_Z   1
loop_
 _symmetry_equiv_pos_site_id
 _symmetry_equiv_pos_as_xyz
  1  'x, y, z'
loop_
 _atom_site_type_symbol
 _atom_site_label
 _atom_site_symmetry_multiplicity
 _atom_site_fract_x
 _atom_site_fract_y
 _atom_site_fract_z
 _atom_site_occupancy
  Cs  Cs0  1  0.499979  0.999876  0.499921  1
  Ho  Ho1  1  0.093174  0.387110  0.289371  1
  Ho  Ho2  1  0.963963  0.036986  0.322392  1
  Ho  Ho3  1  0.907045  0.612969  0.710653  1
  Ho  Ho4  1  0.103143  0.944999  0.000449  1
  Ho  Ho5  1  0.036012  0.963146  0.677174  1
  Ho  Ho6  1  0.318187  0.273320  0.285932  1
  Ho  Ho7  1  0.723742  0.648740  0.985200  1
  Ho  Ho8  1  0.896745  0.055093  0.999669  1
  Tm  Tm9  1  0.683641  0.727489  0.715468  1
  Tm  Tm10  1  0.275038  0.350041  0.015300  1
  C  C11  1  0.151206  0.218529  0.118601  1
  C  C12  1  0.848234  0.781284  0.880709  1
  C  C13  1  0.924930  0.858178  0.803891  1
  C  C14  1  0.074490  0.141691  0.195320  1
  I  I15  1  0.451800  0.530956  0.832065  1
  I  I16  1  0.381716  0.040728  0.157249  1
  I  I17  1  0.778510  0.854650  0.503030  1
  I  I18  1  0.838984  0.308491  0.152793  1
  I  I19  1  0.546663  0.468883  0.166371  1
  I  I20  1  0.220716  0.144705  0.497836  1
  I  I21  1  0.316901  0.098807  0.830530  1
  I  I22  1  0.682938  0.903070  0.170694  1
  I  I23  1  0.973517  0.755943  0.169727  1
  I  I24  1  0.934108  0.297313  0.500380  1
  I  I25  1  0.028513  0.245229  0.831514  1
  I  I26  1  0.066031  0.702839  0.499642  1
  I  I27  1  0.260393  0.617747  0.179795  1
  I  I28  1  0.740146  0.380281  0.818432  1
  I  I29  1  0.644375  0.440232  0.504447  1
  I  I30  1  0.160930  0.691448  0.846944  1
  I  I31  1  0.618697  0.956943  0.841426  1
  I  I32  1  0.355534  0.562285  0.497074  1
