# generated using pymatgen
data_Er5Nb3Co16Si5P7
_symmetry_space_group_name_H-M   'P 1'
_cell_length_a   12.23271329
_cell_length_b   12.24557812
_cell_length_c   3.71510100
_cell_angle_alpha   90.00000000
_cell_angle_beta   90.00000000
_cell_angle_gamma   120.10632882
_symmetry_Int_Tables_number   1
_chemical_formula_structural   Er5Nb3Co16Si5P7
_chemical_formula_sum   'Er5 Nb3 Co16 Si5 P7'
_cell_volume   481.43429989
_cell_formula_units_Z   1
loop_
 _symmetry_equiv_pos_site_id
 _symmetry_equiv_pos_as_xyz
  1  'x, y, z'
loop_
 _atom_site_type_symbol
 _atom_site_label
 _atom_site_symmetry_multiplicity
 _atom_site_fract_x
 _atom_site_fract_y
 _atom_site_fract_z
 _atom_site_occupancy
  Er  Er0  1  0.817082  0.999456  0.500000  1
  Er  Er1  1  0.000043  0.815803  0.500000  1
  Er  Er2  1  0.182713  0.183318  0.500000  1
  Er  Er3  1  0.333126  0.666690  0.000000  1
  Er  Er4  1  0.669279  0.333165  0.000000  1
  Nb  Nb5  1  0.442347  0.001005  0.000000  1
  Nb  Nb6  1  0.998249  0.440255  0.000000  1
  Nb  Nb7  1  0.558689  0.558849  0.000000  1
  Co  Co8  1  0.276247  0.999973  0.500000  1
  Co  Co9  1  0.996766  0.275910  0.500000  1
  Co  Co10  1  0.724362  0.723458  0.500000  1
  Co  Co11  1  0.630135  0.807959  0.000000  1
  Co  Co12  1  0.192618  0.821897  0.000000  1
  Co  Co13  1  0.176434  0.369752  0.000000  1
  Co  Co14  1  0.370342  0.178407  0.000000  1
  Co  Co15  1  0.807915  0.627984  0.000000  1
  Co  Co16  1  0.821647  0.194128  0.000000  1
  Co  Co17  1  0.525700  0.881364  0.500000  1
  Co  Co18  1  0.120275  0.644247  0.500000  1
  Co  Co19  1  0.354714  0.476763  0.500000  1
  Co  Co20  1  0.476168  0.355410  0.500000  1
  Co  Co21  1  0.875802  0.517756  0.500000  1
  Co  Co22  1  0.648446  0.126515  0.500000  1
  Co  Co23  1  0.000011  0.000241  0.000000  1
  Si  Si24  1  0.521733  0.691632  0.500000  1
  Si  Si25  1  0.309515  0.831003  0.500000  1
  Si  Si26  1  0.168986  0.478705  0.500000  1
  Si  Si27  1  0.478745  0.170191  0.500000  1
  Si  Si28  1  0.690044  0.520505  0.500000  1
  P  P29  1  0.179150  0.999822  0.000000  1
  P  P30  1  0.999311  0.178432  0.000000  1
  P  P31  1  0.821332  0.820150  0.000000  1
  P  P32  1  0.831266  0.309607  0.500000  1
  P  P33  1  0.644901  0.000291  0.000000  1
  P  P34  1  0.000424  0.643493  0.000000  1
  P  P35  1  0.355485  0.355864  0.000000  1
