# generated using pymatgen
data_CaYb6InN4
_symmetry_space_group_name_H-M   'P 1'
_cell_length_a   3.52869100
_cell_length_b   12.03495163
_cell_length_c   11.56213615
_cell_angle_alpha   89.63641124
_cell_angle_beta   90.00000000
_cell_angle_gamma   90.00000000
_symmetry_Int_Tables_number   1
_chemical_formula_structural   CaYb6InN4
_chemical_formula_sum   'Ca2 Yb12 In2 N8'
_cell_volume   491.00658167
_cell_formula_units_Z   2
loop_
 _symmetry_equiv_pos_site_id
 _symmetry_equiv_pos_as_xyz
  1  'x, y, z'
loop_
 _atom_site_type_symbol
 _atom_site_label
 _atom_site_symmetry_multiplicity
 _atom_site_fract_x
 _atom_site_fract_y
 _atom_site_fract_z
 _atom_site_occupancy
  Ca  Ca0  1  0.498957  0.670386  0.237281  1
  Ca  Ca1  1  0.498957  0.329614  0.762719  1
  Yb  Yb2  1  0.500856  0.166562  0.259701  1
  Yb  Yb3  1  0.500856  0.833438  0.740299  1
  Yb  Yb4  1  0.499280  0.500000  0.000000  1
  Yb  Yb5  1  0.500780  0.000000  0.500000  1
  Yb  Yb6  1  0.999858  0.928843  0.268525  1
  Yb  Yb7  1  0.999858  0.071157  0.731475  1
  Yb  Yb8  1  0.000242  0.427224  0.232246  1
  Yb  Yb9  1  0.000242  0.572776  0.767754  1
  Yb  Yb10  1  0.001660  0.767702  0.482720  1
  Yb  Yb11  1  0.001660  0.232298  0.517280  1
  Yb  Yb12  1  0.998181  0.267530  0.020408  1
  Yb  Yb13  1  0.998181  0.732470  0.979592  1
  In  In14  1  0.536294  0.500000  0.500000  1
  In  In15  1  0.464732  0.000000  0.000000  1
  N  N16  1  0.998690  0.597841  0.127724  1
  N  N17  1  0.998690  0.402159  0.872276  1
  N  N18  1  0.000984  0.098985  0.370944  1
  N  N19  1  0.000984  0.901015  0.629056  1
  N  N20  1  0.500621  0.833288  0.361970  1
  N  N21  1  0.500621  0.166712  0.638030  1
  N  N22  1  0.499409  0.331912  0.139937  1
  N  N23  1  0.499409  0.668088  0.860063  1
