# generated using pymatgen
data_TaTiGaRh5
_symmetry_space_group_name_H-M   'P 1'
_cell_length_a   4.01104600
_cell_length_b   5.45378061
_cell_length_c   10.75540509
_cell_angle_alpha   90.63852993
_cell_angle_beta   90.00000000
_cell_angle_gamma   90.00000000
_symmetry_Int_Tables_number   1
_chemical_formula_structural   TaTiGaRh5
_chemical_formula_sum   'Ta2 Ti2 Ga2 Rh10'
_cell_volume   235.26380054
_cell_formula_units_Z   2
loop_
 _symmetry_equiv_pos_site_id
 _symmetry_equiv_pos_as_xyz
  1  'x, y, z'
loop_
 _atom_site_type_symbol
 _atom_site_label
 _atom_site_symmetry_multiplicity
 _atom_site_fract_x
 _atom_site_fract_y
 _atom_site_fract_z
 _atom_site_occupancy
  Ta  Ta0  1  0.500000  0.315046  0.142056  1
  Ta  Ta1  1  0.500000  0.684954  0.857944  1
  Ti  Ti2  1  0.500000  0.818847  0.363607  1
  Ti  Ti3  1  0.500000  0.181153  0.636393  1
  Ga  Ga4  1  0.000000  0.000000  0.000000  1
  Ga  Ga5  1  0.000000  0.500000  0.500000  1
  Rh  Rh6  1  0.000000  0.000000  0.500000  1
  Rh  Rh7  1  0.000000  0.500000  0.000000  1
  Rh  Rh8  1  0.000000  0.064721  0.246446  1
  Rh  Rh9  1  0.000000  0.935279  0.753554  1
  Rh  Rh10  1  0.000000  0.566086  0.254768  1
  Rh  Rh11  1  0.000000  0.433914  0.745232  1
  Rh  Rh12  1  0.500000  0.304097  0.389578  1
  Rh  Rh13  1  0.500000  0.695903  0.610422  1
  Rh  Rh14  1  0.500000  0.803798  0.111656  1
  Rh  Rh15  1  0.500000  0.196202  0.888344  1
