# generated using pymatgen
data_ReMo(OsRu)3
_symmetry_space_group_name_H-M   'P 1'
_cell_length_a   5.52688300
_cell_length_b   5.52688318
_cell_length_c   4.36252100
_cell_angle_alpha   90.00000000
_cell_angle_beta   90.00000000
_cell_angle_gamma   120.00000491
_symmetry_Int_Tables_number   1
_chemical_formula_structural   ReMo(OsRu)3
_chemical_formula_sum   'Re1 Mo1 Os3 Ru3'
_cell_volume   115.40608192
_cell_formula_units_Z   1
loop_
 _symmetry_equiv_pos_site_id
 _symmetry_equiv_pos_as_xyz
  1  'x, y, z'
loop_
 _atom_site_type_symbol
 _atom_site_label
 _atom_site_symmetry_multiplicity
 _atom_site_fract_x
 _atom_site_fract_y
 _atom_site_fract_z
 _atom_site_occupancy
  Re  Re0  1  0.666667  0.333333  0.250000  1
  Mo  Mo1  1  0.333333  0.666667  0.750000  1
  Os  Os2  1  0.833428  0.666854  0.750000  1
  Os  Os3  1  0.333146  0.166572  0.750000  1
  Os  Os4  1  0.833428  0.166572  0.750000  1
  Ru  Ru5  1  0.166786  0.333572  0.250000  1
  Ru  Ru6  1  0.666428  0.833214  0.250000  1
  Ru  Ru7  1  0.166786  0.833214  0.250000  1
