# generated using pymatgen
data_Ta2Nb4Re5Si6Rh
_symmetry_space_group_name_H-M   'P 1'
_cell_length_a   7.55732736
_cell_length_b   7.52922244
_cell_length_c   7.52922233
_cell_angle_alpha   127.66088420
_cell_angle_beta   122.72726831
_cell_angle_gamma   81.19487904
_symmetry_Int_Tables_number   1
_chemical_formula_structural   Ta2Nb4Re5Si6Rh
_chemical_formula_sum   'Ta2 Nb4 Re5 Si6 Rh1'
_cell_volume   275.02326855
_cell_formula_units_Z   1
loop_
 _symmetry_equiv_pos_site_id
 _symmetry_equiv_pos_as_xyz
  1  'x, y, z'
loop_
 _atom_site_type_symbol
 _atom_site_label
 _atom_site_symmetry_multiplicity
 _atom_site_fract_x
 _atom_site_fract_y
 _atom_site_fract_z
 _atom_site_occupancy
  Ta  Ta0  1  0.555039  0.094709  0.050647  1
  Ta  Ta1  1  0.444961  0.495608  0.539670  1
  Nb  Nb2  1  0.980362  0.501741  0.045173  1
  Nb  Nb3  1  0.019638  0.064809  0.521378  1
  Nb  Nb4  1  0.758851  0.911245  0.664228  1
  Nb  Nb5  1  0.241149  0.905377  0.152394  1
  Re  Re6  1  0.000000  0.243717  0.243717  1
  Re  Re7  1  0.163565  0.748116  0.660415  1
  Re  Re8  1  0.836435  0.496850  0.584552  1
  Re  Re9  1  0.591928  0.748678  0.090361  1
  Re  Re10  1  0.408072  0.498433  0.156751  1
  Si  Si11  1  0.776673  0.522913  0.245119  1
  Si  Si12  1  0.223327  0.468447  0.746241  1
  Si  Si13  1  0.338592  0.838717  0.506832  1
  Si  Si14  1  0.661408  0.168241  0.500125  1
  Si  Si15  1  0.828469  0.824080  0.988656  1
  Si  Si16  1  0.171531  0.160188  0.995611  1
  Rh  Rh17  1  0.500000  0.250331  0.750331  1
