# generated using pymatgen
data_Ba4SiGe7Ir8
_symmetry_space_group_name_H-M   'P 1'
_cell_length_a   6.80084532
_cell_length_b   8.03187516
_cell_length_c   8.24933821
_cell_angle_alpha   86.30175488
_cell_angle_beta   89.69482152
_cell_angle_gamma   89.67936007
_symmetry_Int_Tables_number   1
_chemical_formula_structural   Ba4SiGe7Ir8
_chemical_formula_sum   'Ba4 Si1 Ge7 Ir8'
_cell_volume   449.65710413
_cell_formula_units_Z   1
loop_
 _symmetry_equiv_pos_site_id
 _symmetry_equiv_pos_as_xyz
  1  'x, y, z'
loop_
 _atom_site_type_symbol
 _atom_site_label
 _atom_site_symmetry_multiplicity
 _atom_site_fract_x
 _atom_site_fract_y
 _atom_site_fract_z
 _atom_site_occupancy
  Ba  Ba0  1  0.381881  0.000762  0.235277  1
  Ba  Ba1  1  0.882088  0.498836  0.765441  1
  Ba  Ba2  1  0.118320  0.502795  0.235761  1
  Ba  Ba3  1  0.617455  0.997286  0.765011  1
  Si  Si4  1  0.351901  0.686889  0.562778  1
  Ge  Ge5  1  0.417376  0.365012  0.927447  1
  Ge  Ge6  1  0.150871  0.189297  0.558047  1
  Ge  Ge7  1  0.648083  0.311335  0.441693  1
  Ge  Ge8  1  0.850568  0.809045  0.442020  1
  Ge  Ge9  1  0.918388  0.134804  0.073057  1
  Ge  Ge10  1  0.580683  0.635605  0.073673  1
  Ge  Ge11  1  0.083468  0.865315  0.925402  1
  Ir  Ir12  1  0.392479  0.394941  0.624297  1
  Ir  Ir13  1  0.596298  0.614519  0.379533  1
  Ir  Ir14  1  0.112642  0.884216  0.620054  1
  Ir  Ir15  1  0.165662  0.167618  0.855967  1
  Ir  Ir16  1  0.663764  0.332362  0.143617  1
  Ir  Ir17  1  0.834602  0.831846  0.142959  1
  Ir  Ir18  1  0.336974  0.667430  0.852279  1
  Ir  Ir19  1  0.896497  0.110090  0.375689  1
