# generated using pymatgen
data_TbTiCo(PIr)3
_symmetry_space_group_name_H-M   'P 1'
_cell_length_a   3.72026400
_cell_length_b   11.02051900
_cell_length_c   12.68648700
_cell_angle_alpha   90.00000000
_cell_angle_beta   90.00000000
_cell_angle_gamma   90.00000000
_symmetry_Int_Tables_number   1
_chemical_formula_structural   TbTiCo(PIr)3
_chemical_formula_sum   'Tb4 Ti4 Co4 P12 Ir12'
_cell_volume   520.13632650
_cell_formula_units_Z   4
loop_
 _symmetry_equiv_pos_site_id
 _symmetry_equiv_pos_as_xyz
  1  'x, y, z'
loop_
 _atom_site_type_symbol
 _atom_site_label
 _atom_site_symmetry_multiplicity
 _atom_site_fract_x
 _atom_site_fract_y
 _atom_site_fract_z
 _atom_site_occupancy
  Tb  Tb0  1  0.250000  0.584466  0.710407  1
  Tb  Tb1  1  0.250000  0.915534  0.210407  1
  Tb  Tb2  1  0.750000  0.415534  0.289593  1
  Tb  Tb3  1  0.750000  0.084466  0.789593  1
  Ti  Ti4  1  0.250000  0.700226  0.987562  1
  Ti  Ti5  1  0.250000  0.799774  0.487562  1
  Ti  Ti6  1  0.750000  0.299774  0.012438  1
  Ti  Ti7  1  0.750000  0.200226  0.512438  1
  Co  Co8  1  0.250000  0.462531  0.937793  1
  Co  Co9  1  0.250000  0.037469  0.437793  1
  Co  Co10  1  0.750000  0.537469  0.062207  1
  Co  Co11  1  0.750000  0.962531  0.562207  1
  P  P12  1  0.250000  0.424948  0.107962  1
  P  P13  1  0.250000  0.075052  0.607962  1
  P  P14  1  0.750000  0.575052  0.892038  1
  P  P15  1  0.750000  0.924948  0.392038  1
  P  P16  1  0.250000  0.269901  0.868696  1
  P  P17  1  0.250000  0.230099  0.368696  1
  P  P18  1  0.750000  0.730099  0.131304  1
  P  P19  1  0.750000  0.769901  0.631304  1
  P  P20  1  0.250000  0.591750  0.388033  1
  P  P21  1  0.250000  0.908250  0.888033  1
  P  P22  1  0.750000  0.408250  0.611967  1
  P  P23  1  0.750000  0.091750  0.111967  1
  Ir  Ir24  1  0.250000  0.401133  0.484984  1
  Ir  Ir25  1  0.250000  0.098867  0.984984  1
  Ir  Ir26  1  0.750000  0.598867  0.515016  1
  Ir  Ir27  1  0.750000  0.901133  0.015016  1
  Ir  Ir28  1  0.250000  0.232990  0.178091  1
  Ir  Ir29  1  0.250000  0.267010  0.678091  1
  Ir  Ir30  1  0.750000  0.767010  0.821909  1
  Ir  Ir31  1  0.750000  0.732990  0.321909  1
  Ir  Ir32  1  0.250000  0.890840  0.698842  1
  Ir  Ir33  1  0.250000  0.609160  0.198842  1
  Ir  Ir34  1  0.750000  0.109160  0.301158  1
  Ir  Ir35  1  0.750000  0.390840  0.801158  1
