# generated using pymatgen
data_CaY(TiRh2)2
_symmetry_space_group_name_H-M   'P 1'
_cell_length_a   5.72574000
_cell_length_b   5.72574011
_cell_length_c   15.51767000
_cell_angle_alpha   90.00000000
_cell_angle_beta   90.00000000
_cell_angle_gamma   119.99998781
_symmetry_Int_Tables_number   1
_chemical_formula_structural   CaY(TiRh2)2
_chemical_formula_sum   'Ca3 Y3 Ti6 Rh12'
_cell_volume   440.57561063
_cell_formula_units_Z   3
loop_
 _symmetry_equiv_pos_site_id
 _symmetry_equiv_pos_as_xyz
  1  'x, y, z'
loop_
 _atom_site_type_symbol
 _atom_site_label
 _atom_site_symmetry_multiplicity
 _atom_site_fract_x
 _atom_site_fract_y
 _atom_site_fract_z
 _atom_site_occupancy
  Ca  Ca0  1  0.666667  0.333333  0.958873  1
  Ca  Ca1  1  0.666667  0.333333  0.754108  1
  Ca  Ca2  1  0.333333  0.666667  0.249400  1
  Y  Y3  1  0.666667  0.333333  0.541500  1
  Y  Y4  1  0.333333  0.666667  0.038943  1
  Y  Y5  1  0.333333  0.666667  0.459745  1
  Ti  Ti6  1  0.666667  0.333333  0.250174  1
  Ti  Ti7  1  0.000000  0.000000  0.499998  1
  Ti  Ti8  1  0.000000  0.000000  0.249536  1
  Ti  Ti9  1  0.000000  0.000000  0.750203  1
  Ti  Ti10  1  0.333333  0.666667  0.749848  1
  Ti  Ti11  1  0.000000  0.000000  0.999745  1
  Rh  Rh12  1  0.167874  0.335747  0.872496  1
  Rh  Rh13  1  0.168119  0.336239  0.625222  1
  Rh  Rh14  1  0.664253  0.832126  0.872496  1
  Rh  Rh15  1  0.336527  0.168264  0.374814  1
  Rh  Rh16  1  0.831736  0.663473  0.374814  1
  Rh  Rh17  1  0.831736  0.168264  0.374814  1
  Rh  Rh18  1  0.832184  0.167816  0.126778  1
  Rh  Rh19  1  0.335633  0.167816  0.126778  1
  Rh  Rh20  1  0.663761  0.831881  0.625222  1
  Rh  Rh21  1  0.168119  0.831881  0.625222  1
  Rh  Rh22  1  0.832184  0.664367  0.126778  1
  Rh  Rh23  1  0.167874  0.832126  0.872496  1
