# generated using pymatgen
data_SmY5C2Cl7
_symmetry_space_group_name_H-M   'P 1'
_cell_length_a   10.19979562
_cell_length_b   10.19979507
_cell_length_c   11.60370720
_cell_angle_alpha   56.59603961
_cell_angle_beta   56.59604266
_cell_angle_gamma   21.20008941
_symmetry_Int_Tables_number   1
_chemical_formula_structural   SmY5C2Cl7
_chemical_formula_sum   'Sm1 Y5 C2 Cl7'
_cell_volume   361.65447825
_cell_formula_units_Z   1
loop_
 _symmetry_equiv_pos_site_id
 _symmetry_equiv_pos_as_xyz
  1  'x, y, z'
loop_
 _atom_site_type_symbol
 _atom_site_label
 _atom_site_symmetry_multiplicity
 _atom_site_fract_x
 _atom_site_fract_y
 _atom_site_fract_z
 _atom_site_occupancy
  Sm  Sm0  1  0.224140  0.224140  0.853494  1
  Y  Y1  1  0.317997  0.317997  0.358712  1
  Y  Y2  1  0.128360  0.128360  0.440874  1
  Y  Y3  1  0.871326  0.871326  0.559602  1
  Y  Y4  1  0.682648  0.682648  0.640821  1
  Y  Y5  1  0.775195  0.775195  0.149619  1
  C  C6  1  0.279570  0.279570  0.607721  1
  C  C7  1  0.721061  0.721061  0.388908  1
  Cl  Cl8  1  0.169547  0.169547  0.163017  1
  Cl  Cl9  1  0.834966  0.834966  0.838210  1
  Cl  Cl10  1  0.059428  0.059428  0.714198  1
  Cl  Cl11  1  0.940874  0.940874  0.284413  1
  Cl  Cl12  1  0.500293  0.500293  0.499548  1
  Cl  Cl13  1  0.388916  0.388916  0.067408  1
  Cl  Cl14  1  0.605679  0.605679  0.933456  1
