# generated using pymatgen
data_YHf5Mg2(Co4P3)4
_symmetry_space_group_name_H-M   'P 1'
_cell_length_a   12.00816303
_cell_length_b   12.03680300
_cell_length_c   3.66032900
_cell_angle_alpha   90.00000000
_cell_angle_beta   90.00000000
_cell_angle_gamma   120.10634397
_symmetry_Int_Tables_number   1
_chemical_formula_structural   YHf5Mg2(Co4P3)4
_chemical_formula_sum   'Y1 Hf5 Mg2 Co16 P12'
_cell_volume   457.69071050
_cell_formula_units_Z   1
loop_
 _symmetry_equiv_pos_site_id
 _symmetry_equiv_pos_as_xyz
  1  'x, y, z'
loop_
 _atom_site_type_symbol
 _atom_site_label
 _atom_site_symmetry_multiplicity
 _atom_site_fract_x
 _atom_site_fract_y
 _atom_site_fract_z
 _atom_site_occupancy
  Y  Y0  1  0.332836  0.665775  0.000000  1
  Hf  Hf1  1  0.817997  0.817822  0.500000  1
  Hf  Hf2  1  0.000195  0.180198  0.500000  1
  Hf  Hf3  1  0.667929  0.333118  0.000000  1
  Hf  Hf4  1  0.998109  0.555542  0.000000  1
  Hf  Hf5  1  0.182356  0.999112  0.500000  1
  Mg  Mg6  1  0.444858  0.442725  0.000000  1
  Mg  Mg7  1  0.556313  0.000031  0.000000  1
  Co  Co8  1  0.631141  0.826158  0.000000  1
  Co  Co9  1  0.373585  0.195312  0.000000  1
  Co  Co10  1  0.997707  0.722574  0.500000  1
  Co  Co11  1  0.281064  0.278659  0.500000  1
  Co  Co12  1  0.870606  0.353468  0.500000  1
  Co  Co13  1  0.721285  0.002709  0.500000  1
  Co  Co14  1  0.820111  0.629992  0.000000  1
  Co  Co15  1  0.175523  0.810032  0.000000  1
  Co  Co16  1  0.354338  0.876172  0.500000  1
  Co  Co17  1  0.122144  0.473748  0.500000  1
  Co  Co18  1  0.644211  0.513597  0.500000  1
  Co  Co19  1  0.999851  0.000946  0.000000  1
  Co  Co20  1  0.525040  0.647183  0.500000  1
  Co  Co21  1  0.483105  0.128976  0.500000  1
  Co  Co22  1  0.195868  0.369228  0.000000  1
  Co  Co23  1  0.803907  0.178232  0.000000  1
  P  P24  1  0.000900  0.345693  0.000000  1
  P  P25  1  0.825149  0.516315  0.500000  1
  P  P26  1  0.686898  0.171553  0.500000  1
  P  P27  1  0.176290  0.173558  0.000000  1
  P  P28  1  0.645307  0.648670  0.000000  1
  P  P29  1  0.825547  0.001281  0.000000  1
  P  P30  1  0.521714  0.831043  0.500000  1
  P  P31  1  0.170368  0.692872  0.500000  1
  P  P32  1  0.354265  0.001978  0.000000  1
  P  P33  1  0.484010  0.310814  0.500000  1
  P  P34  1  0.998203  0.826417  0.000000  1
  P  P35  1  0.311269  0.478499  0.500000  1
