# generated using pymatgen
data_Tm6InNiOs
_symmetry_space_group_name_H-M   'P 1'
_cell_length_a   8.38544431
_cell_length_b   8.38544395
_cell_length_c   8.38544400
_cell_angle_alpha   113.35983703
_cell_angle_beta   110.21548787
_cell_angle_gamma   104.94807868
_symmetry_Int_Tables_number   1
_chemical_formula_structural   Tm6InNiOs
_chemical_formula_sum   'Tm12 In2 Ni2 Os2'
_cell_volume   451.42571563
_cell_formula_units_Z   2
loop_
 _symmetry_equiv_pos_site_id
 _symmetry_equiv_pos_as_xyz
  1  'x, y, z'
loop_
 _atom_site_type_symbol
 _atom_site_label
 _atom_site_symmetry_multiplicity
 _atom_site_fract_x
 _atom_site_fract_y
 _atom_site_fract_z
 _atom_site_occupancy
  Tm  Tm0  1  0.440570  0.240679  0.199893  1
  Tm  Tm1  1  0.559430  0.759321  0.800107  1
  Tm  Tm2  1  0.040785  0.240679  0.800107  1
  Tm  Tm3  1  0.959215  0.759321  0.199893  1
  Tm  Tm4  1  0.184845  0.282203  0.467049  1
  Tm  Tm5  1  0.815155  0.717797  0.532951  1
  Tm  Tm6  1  0.184845  0.717797  0.902642  1
  Tm  Tm7  1  0.815155  0.282203  0.097358  1
  Tm  Tm8  1  0.328569  0.643222  0.314653  1
  Tm  Tm9  1  0.671431  0.356778  0.685347  1
  Tm  Tm10  1  0.328569  0.013917  0.685347  1
  Tm  Tm11  1  0.671431  0.986083  0.314653  1
  In  In12  1  0.500000  0.500000  0.000000  1
  In  In13  1  0.000000  0.000000  0.000000  1
  Ni  Ni14  1  0.116591  0.616591  0.500000  1
  Ni  Ni15  1  0.883409  0.383409  0.500000  1
  Os  Os16  1  0.331507  0.000000  0.331507  1
  Os  Os17  1  0.668493  0.000000  0.668493  1
