# generated using pymatgen
data_Tb3ScMnC6
_symmetry_space_group_name_H-M   'P 1'
_cell_length_a   8.33756600
_cell_length_b   8.33756503
_cell_length_c   5.15251800
_cell_angle_alpha   90.00000000
_cell_angle_beta   90.00000000
_cell_angle_gamma   120.00000171
_symmetry_Int_Tables_number   1
_chemical_formula_structural   Tb3ScMnC6
_chemical_formula_sum   'Tb6 Sc2 Mn2 C12'
_cell_volume   310.19062018
_cell_formula_units_Z   2
loop_
 _symmetry_equiv_pos_site_id
 _symmetry_equiv_pos_as_xyz
  1  'x, y, z'
loop_
 _atom_site_type_symbol
 _atom_site_label
 _atom_site_symmetry_multiplicity
 _atom_site_fract_x
 _atom_site_fract_y
 _atom_site_fract_z
 _atom_site_occupancy
  Tb  Tb0  1  0.616249  0.675933  0.750000  1
  Tb  Tb1  1  0.940318  0.616249  0.250000  1
  Tb  Tb2  1  0.675933  0.059682  0.250000  1
  Tb  Tb3  1  0.324067  0.940318  0.750000  1
  Tb  Tb4  1  0.059682  0.383751  0.750000  1
  Tb  Tb5  1  0.383751  0.324067  0.250000  1
  Sc  Sc6  1  0.000000  0.000000  0.500000  1
  Sc  Sc7  1  0.000000  0.000000  0.000000  1
  Mn  Mn8  1  0.666667  0.333333  0.750000  1
  Mn  Mn9  1  0.333333  0.666667  0.250000  1
  C  C10  1  0.965833  0.753081  0.750000  1
  C  C11  1  0.212753  0.965833  0.250000  1
  C  C12  1  0.753081  0.787247  0.250000  1
  C  C13  1  0.246919  0.212753  0.750000  1
  C  C14  1  0.787247  0.034167  0.750000  1
  C  C15  1  0.034167  0.246919  0.250000  1
  C  C16  1  0.860232  0.565780  0.750000  1
  C  C17  1  0.294453  0.860232  0.250000  1
  C  C18  1  0.565780  0.705547  0.250000  1
  C  C19  1  0.434220  0.294453  0.750000  1
  C  C20  1  0.139768  0.434220  0.250000  1
  C  C21  1  0.705547  0.139768  0.750000  1
