# generated using pymatgen
data_Pr10IrOsRu2
_symmetry_space_group_name_H-M   'P 1'
_cell_length_a   9.01741678
_cell_length_b   9.04008979
_cell_length_c   7.46002706
_cell_angle_alpha   83.65812832
_cell_angle_beta   83.67337420
_cell_angle_gamma   43.43146888
_symmetry_Int_Tables_number   1
_chemical_formula_structural   Pr10IrOsRu2
_chemical_formula_sum   'Pr10 Ir1 Os1 Ru2'
_cell_volume   415.12144271
_cell_formula_units_Z   1
loop_
 _symmetry_equiv_pos_site_id
 _symmetry_equiv_pos_as_xyz
  1  'x, y, z'
loop_
 _atom_site_type_symbol
 _atom_site_label
 _atom_site_symmetry_multiplicity
 _atom_site_fract_x
 _atom_site_fract_y
 _atom_site_fract_z
 _atom_site_occupancy
  Pr  Pr0  1  0.015484  0.801428  0.915970  1
  Pr  Pr1  1  0.200606  0.984972  0.585571  1
  Pr  Pr2  1  0.984756  0.200304  0.086165  1
  Pr  Pr3  1  0.797387  0.018572  0.413233  1
  Pr  Pr4  1  0.359604  0.206143  0.816096  1
  Pr  Pr5  1  0.788473  0.642635  0.685252  1
  Pr  Pr6  1  0.643056  0.790284  0.185262  1
  Pr  Pr7  1  0.209093  0.355865  0.314641  1
  Pr  Pr8  1  0.572519  0.428218  0.749799  1
  Pr  Pr9  1  0.427768  0.573794  0.247550  1
  Ir  Ir10  1  0.178505  0.596915  0.575251  1
  Os  Os11  1  0.399755  0.822882  0.924337  1
  Ru  Ru12  1  0.823977  0.399917  0.426120  1
  Ru  Ru13  1  0.599017  0.178072  0.074754  1
