# generated using pymatgen
data_Er12Co3NiBiOs
_symmetry_space_group_name_H-M   'P 1'
_cell_length_a   8.23821057
_cell_length_b   8.23820980
_cell_length_c   8.23820994
_cell_angle_alpha   109.96756703
_cell_angle_beta   111.52547783
_cell_angle_gamma   106.95357894
_symmetry_Int_Tables_number   1
_chemical_formula_structural   Er12Co3NiBiOs
_chemical_formula_sum   'Er12 Co3 Ni1 Bi1 Os1'
_cell_volume   429.70130687
_cell_formula_units_Z   1
loop_
 _symmetry_equiv_pos_site_id
 _symmetry_equiv_pos_as_xyz
  1  'x, y, z'
loop_
 _atom_site_type_symbol
 _atom_site_label
 _atom_site_symmetry_multiplicity
 _atom_site_fract_x
 _atom_site_fract_y
 _atom_site_fract_z
 _atom_site_occupancy
  Er  Er0  1  0.281966  0.177464  0.459428  1
  Er  Er1  1  0.720454  0.819650  0.540105  1
  Er  Er2  1  0.279546  0.819650  0.099196  1
  Er  Er3  1  0.718034  0.177464  0.895498  1
  Er  Er4  1  0.626662  0.317989  0.312693  1
  Er  Er5  1  0.373338  0.686031  0.691327  1
  Er  Er6  1  0.005298  0.317989  0.691327  1
  Er  Er7  1  0.994702  0.686031  0.312693  1
  Er  Er8  1  0.218184  0.412949  0.194765  1
  Er  Er9  1  0.782584  0.587855  0.805271  1
  Er  Er10  1  0.217416  0.022687  0.805271  1
  Er  Er11  1  0.781816  0.976581  0.194765  1
  Co  Co12  1  0.000000  0.639968  0.639968  1
  Co  Co13  1  0.387107  0.885472  0.498366  1
  Co  Co14  1  0.612893  0.111259  0.498366  1
  Ni  Ni15  1  0.000000  0.361485  0.361485  1
  Bi  Bi16  1  0.500000  0.499166  0.999166  1
  Os  Os17  1  0.000000  0.000311  0.000311  1
