# generated using pymatgen
data_Er5Lu6PaGa20
_symmetry_space_group_name_H-M   'P 1'
_cell_length_a   6.07676700
_cell_length_b   9.53264235
_cell_length_c   11.35733646
_cell_angle_alpha   89.99938891
_cell_angle_beta   89.87422221
_cell_angle_gamma   89.98697764
_symmetry_Int_Tables_number   1
_chemical_formula_structural   Er5Lu6PaGa20
_chemical_formula_sum   'Er5 Lu6 Pa1 Ga20'
_cell_volume   657.90216880
_cell_formula_units_Z   1
loop_
 _symmetry_equiv_pos_site_id
 _symmetry_equiv_pos_as_xyz
  1  'x, y, z'
loop_
 _atom_site_type_symbol
 _atom_site_label
 _atom_site_symmetry_multiplicity
 _atom_site_fract_x
 _atom_site_fract_y
 _atom_site_fract_z
 _atom_site_occupancy
  Er  Er0  1  0.389431  0.489586  0.148552  1
  Er  Er1  1  0.110422  0.489742  0.648721  1
  Er  Er2  1  0.389191  0.011318  0.148198  1
  Er  Er3  1  0.889561  0.989717  0.352383  1
  Er  Er4  1  0.609292  0.510341  0.851186  1
  Lu  Lu5  1  0.850265  0.748955  0.073771  1
  Lu  Lu6  1  0.651350  0.749588  0.574289  1
  Lu  Lu7  1  0.151083  0.249808  0.924709  1
  Lu  Lu8  1  0.352128  0.252135  0.426503  1
  Lu  Lu9  1  0.608919  0.988291  0.851774  1
  Lu  Lu10  1  0.111687  0.010318  0.648611  1
  Pa  Pa11  1  0.887961  0.510714  0.352937  1
  Ga  Ga12  1  0.873692  0.051893  0.091268  1
  Ga  Ga13  1  0.627497  0.446953  0.589626  1
  Ga  Ga14  1  0.126559  0.552847  0.908906  1
  Ga  Ga15  1  0.373707  0.949525  0.409118  1
  Ga  Ga16  1  0.126873  0.947712  0.909290  1
  Ga  Ga17  1  0.377884  0.552824  0.408927  1
  Ga  Ga18  1  0.874144  0.446660  0.090056  1
  Ga  Ga19  1  0.627750  0.051363  0.592196  1
  Ga  Ga20  1  0.171409  0.749789  0.252765  1
  Ga  Ga21  1  0.325724  0.750861  0.751353  1
  Ga  Ga22  1  0.824576  0.247995  0.749564  1
  Ga  Ga23  1  0.672985  0.249735  0.247021  1
  Ga  Ga24  1  0.376218  0.750501  0.006042  1
  Ga  Ga25  1  0.122683  0.749934  0.503629  1
  Ga  Ga26  1  0.623327  0.248701  0.992987  1
  Ga  Ga27  1  0.876936  0.249621  0.494905  1
  Ga  Ga28  1  0.603907  0.751021  0.297676  1
  Ga  Ga29  1  0.895754  0.750711  0.798189  1
  Ga  Ga30  1  0.395347  0.248932  0.701009  1
  Ga  Ga31  1  0.101736  0.251912  0.203845  1
