# generated using pymatgen
data_TbCe2(Co3As2)3
_symmetry_space_group_name_H-M   'P 1'
_cell_length_a   3.88166100
_cell_length_b   11.11834000
_cell_length_c   12.97746100
_cell_angle_alpha   90.00000000
_cell_angle_beta   90.00000000
_cell_angle_gamma   90.00000000
_symmetry_Int_Tables_number   1
_chemical_formula_structural   TbCe2(Co3As2)3
_chemical_formula_sum   'Tb2 Ce4 Co18 As12'
_cell_volume   560.07641817
_cell_formula_units_Z   2
loop_
 _symmetry_equiv_pos_site_id
 _symmetry_equiv_pos_as_xyz
  1  'x, y, z'
loop_
 _atom_site_type_symbol
 _atom_site_label
 _atom_site_symmetry_multiplicity
 _atom_site_fract_x
 _atom_site_fract_y
 _atom_site_fract_z
 _atom_site_occupancy
  Tb  Tb0  1  0.000000  0.500000  0.517759  1
  Tb  Tb1  1  0.500000  0.000000  0.482241  1
  Ce  Ce2  1  0.500000  0.818544  0.209658  1
  Ce  Ce3  1  0.500000  0.181456  0.209658  1
  Ce  Ce4  1  0.000000  0.681456  0.790342  1
  Ce  Ce5  1  0.000000  0.318544  0.790342  1
  Co  Co6  1  0.500000  0.500000  0.154686  1
  Co  Co7  1  0.000000  0.000000  0.845314  1
  Co  Co8  1  0.500000  0.500000  0.705532  1
  Co  Co9  1  0.000000  0.000000  0.294468  1
  Co  Co10  1  0.000000  0.500000  0.986432  1
  Co  Co11  1  0.500000  0.000000  0.013568  1
  Co  Co12  1  0.500000  0.333574  0.996275  1
  Co  Co13  1  0.500000  0.666426  0.996275  1
  Co  Co14  1  0.000000  0.166426  0.003725  1
  Co  Co15  1  0.000000  0.833574  0.003725  1
  Co  Co16  1  0.500000  0.301262  0.426989  1
  Co  Co17  1  0.500000  0.698738  0.426989  1
  Co  Co18  1  0.000000  0.198738  0.573011  1
  Co  Co19  1  0.000000  0.801262  0.573011  1
  Co  Co20  1  0.500000  0.879919  0.710246  1
  Co  Co21  1  0.500000  0.120081  0.710246  1
  Co  Co22  1  0.000000  0.620081  0.289754  1
  Co  Co23  1  0.000000  0.379919  0.289754  1
  As  As24  1  0.500000  0.500000  0.884771  1
  As  As25  1  0.000000  0.000000  0.115229  1
  As  As26  1  0.500000  0.500000  0.342621  1
  As  As27  1  0.000000  0.000000  0.657379  1
  As  As28  1  0.500000  0.312365  0.611367  1
  As  As29  1  0.500000  0.687635  0.611367  1
  As  As30  1  0.000000  0.187635  0.388633  1
  As  As31  1  0.000000  0.812365  0.388633  1
  As  As32  1  0.500000  0.846904  0.893074  1
  As  As33  1  0.500000  0.153096  0.893074  1
  As  As34  1  0.000000  0.653096  0.106926  1
  As  As35  1  0.000000  0.346904  0.106926  1
