# generated using pymatgen
data_BaLa2PtS5
_symmetry_space_group_name_H-M   'P 1'
_cell_length_a   7.97736000
_cell_length_b   7.97736000
_cell_length_c   7.02758900
_cell_angle_alpha   90.00000000
_cell_angle_beta   90.00000000
_cell_angle_gamma   90.00000000
_symmetry_Int_Tables_number   1
_chemical_formula_structural   BaLa2PtS5
_chemical_formula_sum   'Ba2 La4 Pt2 S10'
_cell_volume   447.22362429
_cell_formula_units_Z   2
loop_
 _symmetry_equiv_pos_site_id
 _symmetry_equiv_pos_as_xyz
  1  'x, y, z'
loop_
 _atom_site_type_symbol
 _atom_site_label
 _atom_site_symmetry_multiplicity
 _atom_site_fract_x
 _atom_site_fract_y
 _atom_site_fract_z
 _atom_site_occupancy
  Ba  Ba0  1  0.000000  0.000000  0.000000  1
  Ba  Ba1  1  0.500000  0.500000  0.000000  1
  La  La2  1  0.334439  0.165561  0.500001  1
  La  La3  1  0.834439  0.334439  0.500001  1
  La  La4  1  0.165561  0.665562  0.500001  1
  La  La5  1  0.665562  0.834439  0.500001  1
  Pt  Pt6  1  0.500000  0.000000  0.000000  1
  Pt  Pt7  1  0.000000  0.500000  0.000000  1
  S  S8  1  0.641810  0.141468  0.240659  1
  S  S9  1  0.141810  0.358532  0.240659  1
  S  S10  1  0.858189  0.641468  0.240659  1
  S  S11  1  0.358189  0.858532  0.240659  1
  S  S12  1  0.000000  0.000000  0.500001  1
  S  S13  1  0.500000  0.500000  0.500001  1
  S  S14  1  0.641468  0.141810  0.759342  1
  S  S15  1  0.141468  0.358189  0.759342  1
  S  S16  1  0.858532  0.641810  0.759342  1
  S  S17  1  0.358532  0.858189  0.759342  1
