# generated using pymatgen
data_Rb4LiGaS4
_symmetry_space_group_name_H-M   'P 1'
_cell_length_a   8.31411020
_cell_length_b   8.31411014
_cell_length_c   8.31411100
_cell_angle_alpha   135.46984534
_cell_angle_beta   128.47380534
_cell_angle_gamma   70.42513664
_symmetry_Int_Tables_number   1
_chemical_formula_structural   Rb4LiGaS4
_chemical_formula_sum   'Rb4 Li1 Ga1 S4'
_cell_volume   309.31120573
_cell_formula_units_Z   1
loop_
 _symmetry_equiv_pos_site_id
 _symmetry_equiv_pos_as_xyz
  1  'x, y, z'
loop_
 _atom_site_type_symbol
 _atom_site_label
 _atom_site_symmetry_multiplicity
 _atom_site_fract_x
 _atom_site_fract_y
 _atom_site_fract_z
 _atom_site_occupancy
  Rb  Rb0  1  0.526272  0.865601  0.682871  1
  Rb  Rb1  1  0.473728  0.156600  0.339329  1
  Rb  Rb2  1  0.817271  0.634399  0.160671  1
  Rb  Rb3  1  0.182729  0.343400  0.817129  1
  Li  Li4  1  0.000000  0.250000  0.250000  1
  Ga  Ga5  1  0.000000  0.750000  0.750000  1
  S  S6  1  0.079671  0.880392  0.155516  1
  S  S7  1  0.724876  0.424155  0.344484  1
  S  S8  1  0.920329  0.075845  0.800721  1
  S  S9  1  0.275125  0.619608  0.699279  1
