# generated using pymatgen
data_CeThMnOs3
_symmetry_space_group_name_H-M   'P 1'
_cell_length_a   5.31347621
_cell_length_b   5.31347602
_cell_length_c   5.31347670
_cell_angle_alpha   62.20206297
_cell_angle_beta   62.20205800
_cell_angle_gamma   62.20207657
_symmetry_Int_Tables_number   1
_chemical_formula_structural   CeThMnOs3
_chemical_formula_sum   'Ce1 Th1 Mn1 Os3'
_cell_volume   111.29411166
_cell_formula_units_Z   1
loop_
 _symmetry_equiv_pos_site_id
 _symmetry_equiv_pos_as_xyz
  1  'x, y, z'
loop_
 _atom_site_type_symbol
 _atom_site_label
 _atom_site_symmetry_multiplicity
 _atom_site_fract_x
 _atom_site_fract_y
 _atom_site_fract_z
 _atom_site_occupancy
  Ce  Ce0  1  0.501858  0.501858  0.501858  1
  Th  Th1  1  0.748031  0.748031  0.748031  1
  Mn  Mn2  1  0.125467  0.125467  0.125467  1
  Os  Os3  1  0.125200  0.624242  0.125200  1
  Os  Os4  1  0.125200  0.125200  0.624242  1
  Os  Os5  1  0.624242  0.125200  0.125200  1
