# generated using pymatgen
data_SmY2U(ReB6)2
_symmetry_space_group_name_H-M   'P 1'
_cell_length_a   3.69651300
_cell_length_b   9.23877455
_cell_length_c   11.51361312
_cell_angle_alpha   89.41846154
_cell_angle_beta   90.00000000
_cell_angle_gamma   90.00000000
_symmetry_Int_Tables_number   1
_chemical_formula_structural   SmY2U(ReB6)2
_chemical_formula_sum   'Sm2 Y4 U2 Re4 B24'
_cell_volume   393.18402928
_cell_formula_units_Z   2
loop_
 _symmetry_equiv_pos_site_id
 _symmetry_equiv_pos_as_xyz
  1  'x, y, z'
loop_
 _atom_site_type_symbol
 _atom_site_label
 _atom_site_symmetry_multiplicity
 _atom_site_fract_x
 _atom_site_fract_y
 _atom_site_fract_z
 _atom_site_occupancy
  Sm  Sm0  1  0.000000  0.325266  0.411851  1
  Sm  Sm1  1  0.000000  0.674734  0.588149  1
  Y  Y2  1  0.000000  0.834990  0.089077  1
  Y  Y3  1  0.000000  0.165010  0.910923  1
  Y  Y4  1  0.000000  0.945581  0.370777  1
  Y  Y5  1  0.000000  0.054419  0.629223  1
  U  U6  1  0.000000  0.454613  0.105356  1
  U  U7  1  0.000000  0.545387  0.894644  1
  Re  Re8  1  0.000000  0.637611  0.312697  1
  Re  Re9  1  0.000000  0.362389  0.687303  1
  Re  Re10  1  0.000000  0.149186  0.175920  1
  Re  Re11  1  0.000000  0.850814  0.824080  1
  B  B12  1  0.500000  0.555416  0.430408  1
  B  B13  1  0.500000  0.444584  0.569592  1
  B  B14  1  0.500000  0.052993  0.067266  1
  B  B15  1  0.500000  0.947007  0.932734  1
  B  B16  1  0.500000  0.749506  0.417095  1
  B  B17  1  0.500000  0.250494  0.582905  1
  B  B18  1  0.500000  0.245902  0.078998  1
  B  B19  1  0.500000  0.754098  0.921002  1
  B  B20  1  0.500000  0.797052  0.266967  1
  B  B21  1  0.500000  0.202948  0.733033  1
  B  B22  1  0.500000  0.297781  0.228467  1
  B  B23  1  0.500000  0.702219  0.771533  1
  B  B24  1  0.500000  0.638226  0.185915  1
  B  B25  1  0.500000  0.361774  0.814085  1
  B  B26  1  0.500000  0.135546  0.312417  1
  B  B27  1  0.500000  0.864454  0.687583  1
  B  B28  1  0.500000  0.988218  0.212664  1
  B  B29  1  0.500000  0.011782  0.787336  1
  B  B30  1  0.500000  0.485923  0.280902  1
  B  B31  1  0.500000  0.514077  0.719098  1
  B  B32  1  0.500000  0.632201  0.035904  1
  B  B33  1  0.500000  0.367799  0.964096  1
  B  B34  1  0.500000  0.104852  0.471209  1
  B  B35  1  0.500000  0.895148  0.528791  1
