# generated using pymatgen
data_Tb18Ho2CoBi8Os3
_symmetry_space_group_name_H-M   'P 1'
_cell_length_a   8.01358643
_cell_length_b   9.02891872
_cell_length_c   12.51892576
_cell_angle_alpha   90.02511486
_cell_angle_beta   89.72134780
_cell_angle_gamma   89.96211166
_symmetry_Int_Tables_number   1
_chemical_formula_structural   Tb18Ho2CoBi8Os3
_chemical_formula_sum   'Tb18 Ho2 Co1 Bi8 Os3'
_cell_volume   905.78361303
_cell_formula_units_Z   1
loop_
 _symmetry_equiv_pos_site_id
 _symmetry_equiv_pos_as_xyz
  1  'x, y, z'
loop_
 _atom_site_type_symbol
 _atom_site_label
 _atom_site_symmetry_multiplicity
 _atom_site_fract_x
 _atom_site_fract_y
 _atom_site_fract_z
 _atom_site_occupancy
  Tb  Tb0  1  0.344384  0.750100  0.701851  1
  Tb  Tb1  1  0.658092  0.249892  0.292340  1
  Tb  Tb2  1  0.842797  0.249813  0.791544  1
  Tb  Tb3  1  0.155960  0.750188  0.206624  1
  Tb  Tb4  1  0.879081  0.750410  0.805696  1
  Tb  Tb5  1  0.120018  0.249573  0.193897  1
  Tb  Tb6  1  0.378279  0.249900  0.693533  1
  Tb  Tb7  1  0.617300  0.750055  0.311675  1
  Tb  Tb8  1  0.676315  0.541978  0.563910  1
  Tb  Tb9  1  0.324358  0.460798  0.436778  1
  Tb  Tb10  1  0.175596  0.458005  0.935922  1
  Tb  Tb11  1  0.324367  0.039205  0.436750  1
  Tb  Tb12  1  0.823781  0.542844  0.064323  1
  Tb  Tb13  1  0.676304  0.958030  0.563926  1
  Tb  Tb14  1  0.054892  0.750046  0.496787  1
  Tb  Tb15  1  0.945419  0.249964  0.503028  1
  Tb  Tb16  1  0.557633  0.249609  0.003643  1
  Tb  Tb17  1  0.442541  0.750385  0.995726  1
  Ho  Ho18  1  0.825470  0.957320  0.064020  1
  Ho  Ho19  1  0.173889  0.041920  0.936242  1
  Co  Co20  1  0.429356  0.749954  0.490983  1
  Bi  Bi21  1  0.570567  0.508757  0.827111  1
  Bi  Bi22  1  0.429188  0.492215  0.173110  1
  Bi  Bi23  1  0.071920  0.491995  0.671970  1
  Bi  Bi24  1  0.429639  0.007726  0.172940  1
  Bi  Bi25  1  0.928843  0.508994  0.328332  1
  Bi  Bi26  1  0.570122  0.991293  0.827293  1
  Bi  Bi27  1  0.928744  0.990996  0.328211  1
  Bi  Bi28  1  0.072013  0.008007  0.672093  1
  Os  Os29  1  0.075162  0.751005  0.989156  1
  Os  Os30  1  0.924035  0.248989  0.010337  1
  Os  Os31  1  0.573937  0.250034  0.510252  1
