# generated using pymatgen
data_Ti13Ga3(Pt2N)4
_symmetry_space_group_name_H-M   'P 1'
_cell_length_a   8.23714404
_cell_length_b   8.24631353
_cell_length_c   8.23714400
_cell_angle_alpha   60.03677635
_cell_angle_beta   60.00000014
_cell_angle_gamma   60.03677399
_symmetry_Int_Tables_number   1
_chemical_formula_structural   Ti13Ga3(Pt2N)4
_chemical_formula_sum   'Ti13 Ga3 Pt8 N4'
_cell_volume   395.85792671
_cell_formula_units_Z   1
loop_
 _symmetry_equiv_pos_site_id
 _symmetry_equiv_pos_as_xyz
  1  'x, y, z'
loop_
 _atom_site_type_symbol
 _atom_site_label
 _atom_site_symmetry_multiplicity
 _atom_site_fract_x
 _atom_site_fract_y
 _atom_site_fract_z
 _atom_site_occupancy
  Ti  Ti0  1  0.625000  0.125000  0.625000  1
  Ti  Ti1  1  0.817579  0.816708  0.182857  1
  Ti  Ti2  1  0.180967  0.183005  0.818014  1
  Ti  Ti3  1  0.818014  0.183005  0.818014  1
  Ti  Ti4  1  0.182857  0.816708  0.182857  1
  Ti  Ti5  1  0.182857  0.816708  0.817579  1
  Ti  Ti6  1  0.818014  0.183005  0.180967  1
  Ti  Ti7  1  0.432421  0.433292  0.067143  1
  Ti  Ti8  1  0.069033  0.066995  0.431986  1
  Ti  Ti9  1  0.431986  0.066995  0.431986  1
  Ti  Ti10  1  0.067143  0.433292  0.067143  1
  Ti  Ti11  1  0.067143  0.433292  0.432421  1
  Ti  Ti12  1  0.431986  0.066995  0.069033  1
  Ga  Ga13  1  0.125000  0.625000  0.625000  1
  Ga  Ga14  1  0.625000  0.625000  0.125000  1
  Ga  Ga15  1  0.625000  0.625000  0.625000  1
  Pt  Pt16  1  0.774111  0.406142  0.409874  1
  Pt  Pt17  1  0.408130  0.775608  0.408130  1
  Pt  Pt18  1  0.409874  0.406142  0.774111  1
  Pt  Pt19  1  0.409874  0.406142  0.409874  1
  Pt  Pt20  1  0.475889  0.843858  0.840126  1
  Pt  Pt21  1  0.841870  0.474392  0.841870  1
  Pt  Pt22  1  0.840126  0.843858  0.475889  1
  Pt  Pt23  1  0.840126  0.843858  0.840126  1
  N  N24  1  0.625000  0.125000  0.125000  1
  N  N25  1  0.125000  0.625000  0.125000  1
  N  N26  1  0.125000  0.125000  0.625000  1
  N  N27  1  0.125000  0.125000  0.125000  1
