# generated using pymatgen
data_Th8Re(Si4Pd)3
_symmetry_space_group_name_H-M   'P 1'
_cell_length_a   8.28840600
_cell_length_b   8.28840623
_cell_length_c   8.43531200
_cell_angle_alpha   90.00000000
_cell_angle_beta   90.00000000
_cell_angle_gamma   119.99999109
_symmetry_Int_Tables_number   1
_chemical_formula_structural   Th8Re(Si4Pd)3
_chemical_formula_sum   'Th8 Re1 Si12 Pd3'
_cell_volume   501.84992833
_cell_formula_units_Z   1
loop_
 _symmetry_equiv_pos_site_id
 _symmetry_equiv_pos_as_xyz
  1  'x, y, z'
loop_
 _atom_site_type_symbol
 _atom_site_label
 _atom_site_symmetry_multiplicity
 _atom_site_fract_x
 _atom_site_fract_y
 _atom_site_fract_z
 _atom_site_occupancy
  Th  Th0  1  0.504180  0.495820  0.756408  1
  Th  Th1  1  0.504375  0.495625  0.243554  1
  Th  Th2  1  0.991639  0.495820  0.756408  1
  Th  Th3  1  0.991250  0.495625  0.243554  1
  Th  Th4  1  0.504180  0.008361  0.756408  1
  Th  Th5  1  0.504375  0.008750  0.243554  1
  Th  Th6  1  0.000000  0.000000  0.749475  1
  Th  Th7  1  0.000000  0.000000  0.250544  1
  Re  Re8  1  0.666667  0.333333  0.999884  1
  Si  Si9  1  0.834725  0.165275  0.999778  1
  Si  Si10  1  0.164872  0.835128  0.000201  1
  Si  Si11  1  0.330551  0.165275  0.999778  1
  Si  Si12  1  0.166176  0.833824  0.499809  1
  Si  Si13  1  0.670256  0.835128  0.000201  1
  Si  Si14  1  0.834688  0.165312  0.500163  1
  Si  Si15  1  0.834725  0.669449  0.999778  1
  Si  Si16  1  0.667647  0.833824  0.499809  1
  Si  Si17  1  0.164872  0.329744  0.000201  1
  Si  Si18  1  0.330626  0.165312  0.500163  1
  Si  Si19  1  0.166176  0.332353  0.499809  1
  Si  Si20  1  0.834688  0.669374  0.500163  1
  Pd  Pd21  1  0.333333  0.666667  0.000231  1
  Pd  Pd22  1  0.333333  0.666667  0.499783  1
  Pd  Pd23  1  0.666667  0.333333  0.500345  1
