# generated using pymatgen
data_Pr2CoIrCl
_symmetry_space_group_name_H-M   'P 1'
_cell_length_a   4.13349000
_cell_length_b   4.13349057
_cell_length_c   16.78669500
_cell_angle_alpha   90.00000000
_cell_angle_beta   90.00000000
_cell_angle_gamma   119.99999547
_symmetry_Int_Tables_number   1
_chemical_formula_structural   Pr2CoIrCl
_chemical_formula_sum   'Pr4 Co2 Ir2 Cl2'
_cell_volume   248.38747539
_cell_formula_units_Z   2
loop_
 _symmetry_equiv_pos_site_id
 _symmetry_equiv_pos_as_xyz
  1  'x, y, z'
loop_
 _atom_site_type_symbol
 _atom_site_label
 _atom_site_symmetry_multiplicity
 _atom_site_fract_x
 _atom_site_fract_y
 _atom_site_fract_z
 _atom_site_occupancy
  Pr  Pr0  1  0.000000  0.000000  0.613324  1
  Pr  Pr1  1  0.000000  0.000000  0.386646  1
  Pr  Pr2  1  0.000000  0.000000  0.113324  1
  Pr  Pr3  1  0.000000  0.000000  0.886646  1
  Co  Co4  1  0.666667  0.333333  0.998127  1
  Co  Co5  1  0.333333  0.666667  0.498127  1
  Ir  Ir6  1  0.666667  0.333333  0.501939  1
  Ir  Ir7  1  0.333333  0.666667  0.001939  1
  Cl  Cl8  1  0.666667  0.333333  0.249964  1
  Cl  Cl9  1  0.333333  0.666667  0.749964  1
