# generated using pymatgen
data_Pr3SmGeBr6
_symmetry_space_group_name_H-M   'P 1'
_cell_length_a   4.23164500
_cell_length_b   13.82952340
_cell_length_c   14.61342638
_cell_angle_alpha   90.45044959
_cell_angle_beta   90.00000000
_cell_angle_gamma   90.00000000
_symmetry_Int_Tables_number   1
_chemical_formula_structural   Pr3SmGeBr6
_chemical_formula_sum   'Pr6 Sm2 Ge2 Br12'
_cell_volume   855.17515419
_cell_formula_units_Z   2
loop_
 _symmetry_equiv_pos_site_id
 _symmetry_equiv_pos_as_xyz
  1  'x, y, z'
loop_
 _atom_site_type_symbol
 _atom_site_label
 _atom_site_symmetry_multiplicity
 _atom_site_fract_x
 _atom_site_fract_y
 _atom_site_fract_z
 _atom_site_occupancy
  Pr  Pr0  1  0.500000  0.119673  0.339561  1
  Pr  Pr1  1  0.500000  0.880327  0.660439  1
  Pr  Pr2  1  0.000000  0.122024  0.581288  1
  Pr  Pr3  1  0.000000  0.877976  0.418712  1
  Pr  Pr4  1  0.000000  0.620460  0.920212  1
  Pr  Pr5  1  0.000000  0.379540  0.079788  1
  Sm  Sm6  1  0.500000  0.618215  0.158469  1
  Sm  Sm7  1  0.500000  0.381785  0.841531  1
  Ge  Ge8  1  0.500000  0.000000  0.500000  1
  Ge  Ge9  1  0.500000  0.500000  0.000000  1
  Br  Br10  1  0.500000  0.242679  0.161698  1
  Br  Br11  1  0.500000  0.757321  0.838302  1
  Br  Br12  1  0.500000  0.740890  0.334852  1
  Br  Br13  1  0.500000  0.259110  0.665148  1
  Br  Br14  1  0.000000  0.255128  0.411573  1
  Br  Br15  1  0.000000  0.744872  0.588427  1
  Br  Br16  1  0.000000  0.750539  0.092874  1
  Br  Br17  1  0.000000  0.249461  0.907126  1
  Br  Br18  1  0.000000  0.001199  0.243649  1
  Br  Br19  1  0.000000  0.998801  0.756351  1
  Br  Br20  1  0.000000  0.507196  0.253551  1
  Br  Br21  1  0.000000  0.492804  0.746449  1
