# generated using pymatgen
data_Nb5ZnSn3
_symmetry_space_group_name_H-M   'P 1'
_cell_length_a   8.35649300
_cell_length_b   8.35649256
_cell_length_c   5.62948000
_cell_angle_alpha   90.00000000
_cell_angle_beta   90.00000000
_cell_angle_gamma   119.99999780
_symmetry_Int_Tables_number   1
_chemical_formula_structural   Nb5ZnSn3
_chemical_formula_sum   'Nb10 Zn2 Sn6'
_cell_volume   340.44503604
_cell_formula_units_Z   2
loop_
 _symmetry_equiv_pos_site_id
 _symmetry_equiv_pos_as_xyz
  1  'x, y, z'
loop_
 _atom_site_type_symbol
 _atom_site_label
 _atom_site_symmetry_multiplicity
 _atom_site_fract_x
 _atom_site_fract_y
 _atom_site_fract_z
 _atom_site_occupancy
  Nb  Nb0  1  0.666667  0.333333  0.000000  1
  Nb  Nb1  1  0.333333  0.666667  0.000000  1
  Nb  Nb2  1  0.333333  0.666667  0.500000  1
  Nb  Nb3  1  0.666667  0.333333  0.500000  1
  Nb  Nb4  1  0.728713  0.728713  0.750000  1
  Nb  Nb5  1  0.271287  0.000000  0.750000  1
  Nb  Nb6  1  0.000000  0.271287  0.750000  1
  Nb  Nb7  1  0.271287  0.271287  0.250000  1
  Nb  Nb8  1  0.728713  0.000000  0.250000  1
  Nb  Nb9  1  0.000000  0.728713  0.250000  1
  Zn  Zn10  1  0.000000  0.000000  0.000000  1
  Zn  Zn11  1  0.000000  0.000000  0.500000  1
  Sn  Sn12  1  0.386235  0.386235  0.750000  1
  Sn  Sn13  1  0.613765  0.000000  0.750000  1
  Sn  Sn14  1  0.000000  0.613765  0.750000  1
  Sn  Sn15  1  0.613765  0.613765  0.250000  1
  Sn  Sn16  1  0.386235  0.000000  0.250000  1
  Sn  Sn17  1  0.000000  0.386235  0.250000  1
