# generated using pymatgen
data_Y6MgCd22As
_symmetry_space_group_name_H-M   'P 1'
_cell_length_a   9.92578305
_cell_length_b   9.92578260
_cell_length_c   9.92578100
_cell_angle_alpha   59.99999535
_cell_angle_beta   59.99999684
_cell_angle_gamma   59.99999448
_symmetry_Int_Tables_number   1
_chemical_formula_structural   Y6MgCd22As
_chemical_formula_sum   'Y6 Mg1 Cd22 As1'
_cell_volume   691.47930155
_cell_formula_units_Z   1
loop_
 _symmetry_equiv_pos_site_id
 _symmetry_equiv_pos_as_xyz
  1  'x, y, z'
loop_
 _atom_site_type_symbol
 _atom_site_label
 _atom_site_symmetry_multiplicity
 _atom_site_fract_x
 _atom_site_fract_y
 _atom_site_fract_z
 _atom_site_occupancy
  Y  Y0  1  0.795678  0.795678  0.204322  1
  Y  Y1  1  0.204322  0.795678  0.204322  1
  Y  Y2  1  0.795678  0.204322  0.204322  1
  Y  Y3  1  0.204322  0.204322  0.795678  1
  Y  Y4  1  0.795678  0.204322  0.795678  1
  Y  Y5  1  0.204322  0.795678  0.795678  1
  Mg  Mg6  1  0.500000  0.500000  0.500000  1
  Cd  Cd7  1  0.835293  0.835293  0.494119  1
  Cd  Cd8  1  0.835293  0.494119  0.835293  1
  Cd  Cd9  1  0.494119  0.835293  0.835293  1
  Cd  Cd10  1  0.835293  0.835293  0.835293  1
  Cd  Cd11  1  0.164707  0.164707  0.505881  1
  Cd  Cd12  1  0.164707  0.505881  0.164707  1
  Cd  Cd13  1  0.505881  0.164707  0.164707  1
  Cd  Cd14  1  0.164707  0.164707  0.164707  1
  Cd  Cd15  1  0.620355  0.620355  0.138932  1
  Cd  Cd16  1  0.620355  0.138932  0.620355  1
  Cd  Cd17  1  0.138932  0.620355  0.620355  1
  Cd  Cd18  1  0.620355  0.620355  0.620355  1
  Cd  Cd19  1  0.379645  0.379645  0.861068  1
  Cd  Cd20  1  0.379645  0.861068  0.379645  1
  Cd  Cd21  1  0.861068  0.379645  0.379645  1
  Cd  Cd22  1  0.379645  0.379645  0.379645  1
  Cd  Cd23  1  0.000000  0.000000  0.500000  1
  Cd  Cd24  1  0.500000  0.000000  0.500000  1
  Cd  Cd25  1  0.000000  0.500000  0.500000  1
  Cd  Cd26  1  0.500000  0.500000  0.000000  1
  Cd  Cd27  1  0.000000  0.500000  0.000000  1
  Cd  Cd28  1  0.500000  0.000000  0.000000  1
  As  As29  1  0.000000  0.000000  0.000000  1
