# generated using pymatgen
data_TbTmLu6(CdPt)2
_symmetry_space_group_name_H-M   'P 1'
_cell_length_a   9.53351026
_cell_length_b   9.52328636
_cell_length_c   9.51407333
_cell_angle_alpha   60.10307162
_cell_angle_beta   59.99638501
_cell_angle_gamma   59.90053879
_symmetry_Int_Tables_number   1
_chemical_formula_structural   TbTmLu6(CdPt)2
_chemical_formula_sum   'Tb2 Tm2 Lu12 Cd4 Pt4'
_cell_volume   610.78511850
_cell_formula_units_Z   2
loop_
 _symmetry_equiv_pos_site_id
 _symmetry_equiv_pos_as_xyz
  1  'x, y, z'
loop_
 _atom_site_type_symbol
 _atom_site_label
 _atom_site_symmetry_multiplicity
 _atom_site_fract_x
 _atom_site_fract_y
 _atom_site_fract_z
 _atom_site_occupancy
  Tb  Tb0  1  0.565422  0.565422  0.934578  1
  Tb  Tb1  1  0.934578  0.934578  0.565422  1
  Tm  Tm2  1  0.564431  0.935569  0.564431  1
  Tm  Tm3  1  0.935569  0.564431  0.935569  1
  Lu  Lu4  1  0.353061  0.351861  0.352272  1
  Lu  Lu5  1  0.351861  0.353061  0.942806  1
  Lu  Lu6  1  0.352272  0.942806  0.353061  1
  Lu  Lu7  1  0.942806  0.352272  0.351861  1
  Lu  Lu8  1  0.810801  0.189199  0.189199  1
  Lu  Lu9  1  0.189199  0.810801  0.810801  1
  Lu  Lu10  1  0.188955  0.811045  0.188955  1
  Lu  Lu11  1  0.811045  0.188955  0.811045  1
  Lu  Lu12  1  0.188966  0.188966  0.811034  1
  Lu  Lu13  1  0.811034  0.811034  0.188966  1
  Lu  Lu14  1  0.938912  0.561088  0.561088  1
  Lu  Lu15  1  0.561088  0.938912  0.938912  1
  Cd  Cd16  1  0.582902  0.581106  0.580766  1
  Cd  Cd17  1  0.581106  0.582902  0.255225  1
  Cd  Cd18  1  0.580766  0.255225  0.582902  1
  Cd  Cd19  1  0.255225  0.580766  0.581106  1
  Pt  Pt20  1  0.144343  0.142673  0.142331  1
  Pt  Pt21  1  0.142673  0.144343  0.570653  1
  Pt  Pt22  1  0.142331  0.570653  0.144343  1
  Pt  Pt23  1  0.570653  0.142331  0.142673  1
