# generated using pymatgen
data_Ac5Tl3Cl
_symmetry_space_group_name_H-M   'P 1'
_cell_length_a   10.10024700
_cell_length_b   10.10024583
_cell_length_c   7.25095400
_cell_angle_alpha   90.00000000
_cell_angle_beta   90.00000000
_cell_angle_gamma   119.99999401
_symmetry_Int_Tables_number   1
_chemical_formula_structural   Ac5Tl3Cl
_chemical_formula_sum   'Ac10 Tl6 Cl2'
_cell_volume   640.60414815
_cell_formula_units_Z   2
loop_
 _symmetry_equiv_pos_site_id
 _symmetry_equiv_pos_as_xyz
  1  'x, y, z'
loop_
 _atom_site_type_symbol
 _atom_site_label
 _atom_site_symmetry_multiplicity
 _atom_site_fract_x
 _atom_site_fract_y
 _atom_site_fract_z
 _atom_site_occupancy
  Ac  Ac0  1  0.666667  0.333333  0.000000  1
  Ac  Ac1  1  0.333333  0.666667  0.500000  1
  Ac  Ac2  1  0.666667  0.333333  0.500000  1
  Ac  Ac3  1  0.333333  0.666667  0.000000  1
  Ac  Ac4  1  0.739992  0.000000  0.750000  1
  Ac  Ac5  1  0.739992  0.739992  0.250000  1
  Ac  Ac6  1  0.000000  0.260008  0.250000  1
  Ac  Ac7  1  0.000000  0.739992  0.750000  1
  Ac  Ac8  1  0.260008  0.260008  0.750000  1
  Ac  Ac9  1  0.260008  0.000000  0.250000  1
  Tl  Tl10  1  0.610538  0.610538  0.750000  1
  Tl  Tl11  1  0.000000  0.610538  0.250000  1
  Tl  Tl12  1  0.610538  0.000000  0.250000  1
  Tl  Tl13  1  0.389462  0.000000  0.750000  1
  Tl  Tl14  1  0.000000  0.389462  0.750000  1
  Tl  Tl15  1  0.389462  0.389462  0.250000  1
  Cl  Cl16  1  0.000000  0.000000  0.500000  1
  Cl  Cl17  1  0.000000  0.000000  0.000000  1
