# generated using pymatgen
data_TbEr3Ti4(Co4P3)4
_symmetry_space_group_name_H-M   'P 1'
_cell_length_a   3.65984400
_cell_length_b   10.47557401
_cell_length_c   11.96788001
_cell_angle_alpha   89.99653177
_cell_angle_beta   90.00000000
_cell_angle_gamma   90.00000000
_symmetry_Int_Tables_number   1
_chemical_formula_structural   TbEr3Ti4(Co4P3)4
_chemical_formula_sum   'Tb1 Er3 Ti4 Co16 P12'
_cell_volume   458.83615178
_cell_formula_units_Z   1
loop_
 _symmetry_equiv_pos_site_id
 _symmetry_equiv_pos_as_xyz
  1  'x, y, z'
loop_
 _atom_site_type_symbol
 _atom_site_label
 _atom_site_symmetry_multiplicity
 _atom_site_fract_x
 _atom_site_fract_y
 _atom_site_fract_z
 _atom_site_occupancy
  Tb  Tb0  1  0.750000  0.082209  0.793882  1
  Er  Er1  1  0.250000  0.582225  0.706189  1
  Er  Er2  1  0.250000  0.917978  0.206030  1
  Er  Er3  1  0.750000  0.417998  0.293923  1
  Ti  Ti4  1  0.250000  0.702146  0.991121  1
  Ti  Ti5  1  0.250000  0.797369  0.490297  1
  Ti  Ti6  1  0.750000  0.297935  0.009962  1
  Ti  Ti7  1  0.750000  0.202612  0.509069  1
  Co  Co8  1  0.250000  0.406189  0.489161  1
  Co  Co9  1  0.250000  0.093409  0.990684  1
  Co  Co10  1  0.750000  0.593717  0.510696  1
  Co  Co11  1  0.750000  0.905745  0.011014  1
  Co  Co12  1  0.250000  0.222421  0.175859  1
  Co  Co13  1  0.250000  0.278664  0.675318  1
  Co  Co14  1  0.750000  0.777742  0.824335  1
  Co  Co15  1  0.750000  0.721849  0.324373  1
  Co  Co16  1  0.250000  0.884002  0.699994  1
  Co  Co17  1  0.250000  0.614857  0.200948  1
  Co  Co18  1  0.750000  0.114806  0.299000  1
  Co  Co19  1  0.750000  0.385860  0.799365  1
  Co  Co20  1  0.250000  0.464736  0.933372  1
  Co  Co21  1  0.250000  0.035714  0.432429  1
  Co  Co22  1  0.750000  0.536033  0.067192  1
  Co  Co23  1  0.750000  0.963705  0.566160  1
  P  P24  1  0.250000  0.422112  0.116016  1
  P  P25  1  0.250000  0.077955  0.614536  1
  P  P26  1  0.750000  0.578367  0.884413  1
  P  P27  1  0.750000  0.921715  0.383785  1
  P  P28  1  0.250000  0.270127  0.862277  1
  P  P29  1  0.250000  0.231488  0.361807  1
  P  P30  1  0.750000  0.731465  0.138327  1
  P  P31  1  0.750000  0.768402  0.637914  1
  P  P32  1  0.250000  0.591974  0.390059  1
  P  P33  1  0.250000  0.906565  0.890572  1
  P  P34  1  0.750000  0.407760  0.610003  1
  P  P35  1  0.750000  0.092147  0.109920  1
