# generated using pymatgen
data_Rb2AuIBr8
_symmetry_space_group_name_H-M   'P 1'
_cell_length_a   6.44700200
_cell_length_b   7.84580674
_cell_length_c   11.10902857
_cell_angle_alpha   57.34149571
_cell_angle_beta   92.18291414
_cell_angle_gamma   91.32377346
_symmetry_Int_Tables_number   1
_chemical_formula_structural   Rb2AuIBr8
_chemical_formula_sum   'Rb2 Au1 I1 Br8'
_cell_volume   472.73273850
_cell_formula_units_Z   1
loop_
 _symmetry_equiv_pos_site_id
 _symmetry_equiv_pos_as_xyz
  1  'x, y, z'
loop_
 _atom_site_type_symbol
 _atom_site_label
 _atom_site_symmetry_multiplicity
 _atom_site_fract_x
 _atom_site_fract_y
 _atom_site_fract_z
 _atom_site_occupancy
  Rb  Rb0  1  0.000000  0.500000  0.500000  1
  Rb  Rb1  1  0.500000  0.500000  0.000000  1
  Au  Au2  1  0.000000  0.000000  0.000000  1
  I  I3  1  0.500000  0.000000  0.500000  1
  Br  Br4  1  0.202093  0.958897  0.680029  1
  Br  Br5  1  0.716069  0.037738  0.830228  1
  Br  Br6  1  0.797907  0.041103  0.319971  1
  Br  Br7  1  0.283931  0.962262  0.169772  1
  Br  Br8  1  0.984599  0.627791  0.118489  1
  Br  Br9  1  0.485273  0.408105  0.368999  1
  Br  Br10  1  0.015401  0.372209  0.881511  1
  Br  Br11  1  0.514727  0.591895  0.631001  1
