# generated using pymatgen
data_NaNd3(SiN3)2
_symmetry_space_group_name_H-M   'P 1'
_cell_length_a   6.00018960
_cell_length_b   6.00019010
_cell_length_c   11.72021449
_cell_angle_alpha   90.89015708
_cell_angle_beta   89.10984301
_cell_angle_gamma   126.28223376
_symmetry_Int_Tables_number   1
_chemical_formula_structural   NaNd3(SiN3)2
_chemical_formula_sum   'Na2 Nd6 Si4 N12'
_cell_volume   340.09086695
_cell_formula_units_Z   2
loop_
 _symmetry_equiv_pos_site_id
 _symmetry_equiv_pos_as_xyz
  1  'x, y, z'
loop_
 _atom_site_type_symbol
 _atom_site_label
 _atom_site_symmetry_multiplicity
 _atom_site_fract_x
 _atom_site_fract_y
 _atom_site_fract_z
 _atom_site_occupancy
  Na  Na0  1  0.045823  0.954177  0.871386  1
  Na  Na1  1  0.954177  0.045823  0.128614  1
  Nd  Nd2  1  0.454225  0.545775  0.344934  1
  Nd  Nd3  1  0.545775  0.454225  0.655066  1
  Nd  Nd4  1  0.646081  0.353919  0.075262  1
  Nd  Nd5  1  0.353919  0.646081  0.924738  1
  Nd  Nd6  1  0.858556  0.141444  0.578435  1
  Nd  Nd7  1  0.141444  0.858556  0.421565  1
  Si  Si8  1  0.738873  0.261127  0.833503  1
  Si  Si9  1  0.261127  0.738873  0.166497  1
  Si  Si10  1  0.764830  0.235170  0.336362  1
  Si  Si11  1  0.235170  0.764830  0.663638  1
  N  N12  1  0.576101  0.423899  0.861654  1
  N  N13  1  0.423899  0.576101  0.138346  1
  N  N14  1  0.924114  0.075886  0.371930  1
  N  N15  1  0.075886  0.924114  0.628070  1
  N  N16  1  0.529719  0.976632  0.742131  1
  N  N17  1  0.976632  0.529719  0.257869  1
  N  N18  1  0.470281  0.023368  0.257869  1
  N  N19  1  0.023368  0.470281  0.742131  1
  N  N20  1  0.830315  0.169685  0.951024  1
  N  N21  1  0.169685  0.830315  0.048976  1
  N  N22  1  0.658154  0.341846  0.457789  1
  N  N23  1  0.341846  0.658154  0.542211  1
