# generated using pymatgen
data_PrNdTm4(Co3P2)6
_symmetry_space_group_name_H-M   'P 1'
_cell_length_a   3.70095000
_cell_length_b   10.52488400
_cell_length_c   12.19313800
_cell_angle_alpha   90.00000000
_cell_angle_beta   90.00000000
_cell_angle_gamma   90.00000000
_symmetry_Int_Tables_number   1
_chemical_formula_structural   PrNdTm4(Co3P2)6
_chemical_formula_sum   'Pr1 Nd1 Tm4 Co18 P12'
_cell_volume   474.94795807
_cell_formula_units_Z   1
loop_
 _symmetry_equiv_pos_site_id
 _symmetry_equiv_pos_as_xyz
  1  'x, y, z'
loop_
 _atom_site_type_symbol
 _atom_site_label
 _atom_site_symmetry_multiplicity
 _atom_site_fract_x
 _atom_site_fract_y
 _atom_site_fract_z
 _atom_site_occupancy
  Pr  Pr0  1  0.500000  0.000000  0.477530  1
  Nd  Nd1  1  0.000000  0.500000  0.522400  1
  Tm  Tm2  1  0.500000  0.817662  0.204462  1
  Tm  Tm3  1  0.500000  0.182338  0.204462  1
  Tm  Tm4  1  0.000000  0.681949  0.795291  1
  Tm  Tm5  1  0.000000  0.318051  0.795291  1
  Co  Co6  1  0.500000  0.500000  0.156416  1
  Co  Co7  1  0.000000  0.000000  0.844074  1
  Co  Co8  1  0.500000  0.500000  0.707119  1
  Co  Co9  1  0.000000  0.000000  0.292441  1
  Co  Co10  1  0.000000  0.500000  0.986383  1
  Co  Co11  1  0.500000  0.000000  0.013416  1
  Co  Co12  1  0.500000  0.333307  0.994761  1
  Co  Co13  1  0.500000  0.666693  0.994761  1
  Co  Co14  1  0.000000  0.166947  0.005328  1
  Co  Co15  1  0.000000  0.833053  0.005328  1
  Co  Co16  1  0.500000  0.297197  0.428495  1
  Co  Co17  1  0.500000  0.702803  0.428495  1
  Co  Co18  1  0.000000  0.204043  0.571601  1
  Co  Co19  1  0.000000  0.795957  0.571601  1
  Co  Co20  1  0.500000  0.878776  0.713470  1
  Co  Co21  1  0.500000  0.121224  0.713470  1
  Co  Co22  1  0.000000  0.620831  0.286591  1
  Co  Co23  1  0.000000  0.379169  0.286591  1
  P  P24  1  0.500000  0.500000  0.883556  1
  P  P25  1  0.000000  0.000000  0.116239  1
  P  P26  1  0.500000  0.500000  0.339491  1
  P  P27  1  0.000000  0.000000  0.661376  1
  P  P28  1  0.500000  0.308152  0.618575  1
  P  P29  1  0.500000  0.691848  0.618575  1
  P  P30  1  0.000000  0.192938  0.381118  1
  P  P31  1  0.000000  0.807062  0.381118  1
  P  P32  1  0.500000  0.845912  0.893914  1
  P  P33  1  0.500000  0.154088  0.893914  1
  P  P34  1  0.000000  0.653681  0.106172  1
  P  P35  1  0.000000  0.346319  0.106172  1
