# generated using pymatgen
data_Rb2VMoH10
_symmetry_space_group_name_H-M   'P 1'
_cell_length_a   11.00812204
_cell_length_b   7.27398400
_cell_length_c   4.76108900
_cell_angle_alpha   90.00000000
_cell_angle_beta   90.17447252
_cell_angle_gamma   90.00000000
_symmetry_Int_Tables_number   1
_chemical_formula_structural   Rb2VMoH10
_chemical_formula_sum   'Rb4 V2 Mo2 H20'
_cell_volume   381.23245285
_cell_formula_units_Z   2
loop_
 _symmetry_equiv_pos_site_id
 _symmetry_equiv_pos_as_xyz
  1  'x, y, z'
loop_
 _atom_site_type_symbol
 _atom_site_label
 _atom_site_symmetry_multiplicity
 _atom_site_fract_x
 _atom_site_fract_y
 _atom_site_fract_z
 _atom_site_occupancy
  Rb  Rb0  1  0.671337  0.079757  0.341955  1
  Rb  Rb1  1  0.171337  0.420242  0.341955  1
  Rb  Rb2  1  0.830269  0.573658  0.837088  1
  Rb  Rb3  1  0.330269  0.926342  0.837088  1
  V  V4  1  0.981651  0.065440  0.812346  1
  V  V5  1  0.481651  0.434560  0.812346  1
  Mo  Mo6  1  0.517081  0.563643  0.303075  1
  Mo  Mo7  1  0.017081  0.936357  0.303075  1
  H  H8  1  0.347995  0.318393  0.814910  1
  H  H9  1  0.847995  0.181607  0.814910  1
  H  H10  1  0.977851  0.702824  0.319276  1
  H  H11  1  0.477851  0.797175  0.319276  1
  H  H12  1  0.602893  0.409552  0.071632  1
  H  H13  1  0.102892  0.090448  0.071632  1
  H  H14  1  0.384379  0.545543  0.068864  1
  H  H15  1  0.884379  0.954458  0.068864  1
  H  H16  1  0.958491  0.153851  0.439735  1
  H  H17  1  0.458491  0.346150  0.439735  1
  H  H18  1  0.154285  0.816221  0.313713  1
  H  H19  1  0.654285  0.683778  0.313713  1
  H  H20  1  0.517293  0.206523  0.823420  1
  H  H21  1  0.017293  0.293476  0.823420  1
  H  H22  1  0.900643  0.907343  0.568453  1
  H  H23  1  0.400643  0.592657  0.568453  1
  H  H24  1  0.113314  0.037913  0.570538  1
  H  H25  1  0.613314  0.462087  0.570538  1
  H  H26  1  0.542519  0.656851  0.948993  1
  H  H27  1  0.042519  0.843150  0.948993  1
