# generated using pymatgen
data_Cs4TaCrCl12
_symmetry_space_group_name_H-M   'P 1'
_cell_length_a   10.46987068
_cell_length_b   10.50452372
_cell_length_c   12.69382900
_cell_angle_alpha   114.43710171
_cell_angle_beta   114.34737097
_cell_angle_gamma   90.00129564
_symmetry_Int_Tables_number   1
_chemical_formula_structural   Cs4TaCrCl12
_chemical_formula_sum   'Cs8 Ta2 Cr2 Cl24'
_cell_volume   1133.22221137
_cell_formula_units_Z   2
loop_
 _symmetry_equiv_pos_site_id
 _symmetry_equiv_pos_as_xyz
  1  'x, y, z'
loop_
 _atom_site_type_symbol
 _atom_site_label
 _atom_site_symmetry_multiplicity
 _atom_site_fract_x
 _atom_site_fract_y
 _atom_site_fract_z
 _atom_site_occupancy
  Cs  Cs0  1  0.217488  0.000009  0.000039  1
  Cs  Cs1  1  0.782512  0.999991  0.999961  1
  Cs  Cs2  1  0.217557  0.500006  0.000043  1
  Cs  Cs3  1  0.782443  0.499994  0.999957  1
  Cs  Cs4  1  0.000002  0.282848  0.499967  1
  Cs  Cs5  1  0.999998  0.717151  0.500031  1
  Cs  Cs6  1  0.500022  0.282979  0.500002  1
  Cs  Cs7  1  0.499978  0.717020  0.499996  1
  Ta  Ta8  1  0.624995  0.874996  0.250011  1
  Ta  Ta9  1  0.375005  0.125004  0.749990  1
  Cr  Cr10  1  0.124923  0.375004  0.250013  1
  Cr  Cr11  1  0.875077  0.624996  0.749988  1
  Cl  Cl12  1  0.009396  0.259468  0.019145  1
  Cl  Cl13  1  0.509970  0.759864  0.020240  1
  Cl  Cl14  1  0.349803  0.372790  0.245347  1
  Cl  Cl15  1  0.895458  0.372646  0.245246  1
  Cl  Cl16  1  0.623890  0.099857  0.247669  1
  Cl  Cl17  1  0.623574  0.647580  0.247263  1
  Cl  Cl18  1  0.399468  0.876114  0.252411  1
  Cl  Cl19  1  0.853010  0.876350  0.252581  1
  Cl  Cl20  1  0.127147  0.150885  0.254585  1
  Cl  Cl21  1  0.127363  0.603919  0.254858  1
  Cl  Cl22  1  0.740006  0.990108  0.479766  1
  Cl  Cl23  1  0.240443  0.490627  0.480846  1
  Cl  Cl24  1  0.759557  0.509373  0.519154  1
  Cl  Cl25  1  0.259995  0.009893  0.520234  1
  Cl  Cl26  1  0.872637  0.396081  0.745141  1
  Cl  Cl27  1  0.872853  0.849114  0.745414  1
  Cl  Cl28  1  0.146990  0.123650  0.747420  1
  Cl  Cl29  1  0.600532  0.123886  0.747590  1
  Cl  Cl30  1  0.376426  0.352419  0.752736  1
  Cl  Cl31  1  0.376110  0.900143  0.752330  1
  Cl  Cl32  1  0.104543  0.627354  0.754754  1
  Cl  Cl33  1  0.650197  0.627210  0.754653  1
  Cl  Cl34  1  0.490030  0.240136  0.979759  1
  Cl  Cl35  1  0.990604  0.740532  0.980855  1
