# generated using pymatgen
data_Sm2Co3B8Os5
_symmetry_space_group_name_H-M   'P 1'
_cell_length_a   7.39533520
_cell_length_b   7.32891990
_cell_length_c   3.96682296
_cell_angle_alpha   90.02843018
_cell_angle_beta   90.22188401
_cell_angle_gamma   90.91036811
_symmetry_Int_Tables_number   1
_chemical_formula_structural   Sm2Co3B8Os5
_chemical_formula_sum   'Sm2 Co3 B8 Os5'
_cell_volume   214.97230327
_cell_formula_units_Z   1
loop_
 _symmetry_equiv_pos_site_id
 _symmetry_equiv_pos_as_xyz
  1  'x, y, z'
loop_
 _atom_site_type_symbol
 _atom_site_label
 _atom_site_symmetry_multiplicity
 _atom_site_fract_x
 _atom_site_fract_y
 _atom_site_fract_z
 _atom_site_occupancy
  Sm  Sm0  1  0.999022  0.999598  0.928883  1
  Sm  Sm1  1  0.506577  0.500203  0.404239  1
  Co  Co2  1  0.878681  0.627677  0.623881  1
  Co  Co3  1  0.115225  0.625370  0.120309  1
  Co  Co4  1  0.867063  0.388629  0.124067  1
  B  B5  1  0.814709  0.660863  0.119230  1
  B  B6  1  0.197832  0.336338  0.120477  1
  B  B7  1  0.839427  0.312656  0.620193  1
  B  B8  1  0.155698  0.686331  0.618837  1
  B  B9  1  0.729209  0.826748  0.401889  1
  B  B10  1  0.276622  0.167563  0.398859  1
  B  B11  1  0.673038  0.229717  0.901242  1
  B  B12  1  0.323218  0.772887  0.901497  1
  Os  Os13  1  0.396531  0.151572  0.898288  1
  Os  Os14  1  0.607947  0.840376  0.897944  1
  Os  Os15  1  0.344221  0.886651  0.398685  1
  Os  Os16  1  0.658171  0.106277  0.397992  1
  Os  Os17  1  0.116809  0.380543  0.623486  1
