# generated using pymatgen
data_La8Y12Si15S
_symmetry_space_group_name_H-M   'P 1'
_cell_length_a   7.75394728
_cell_length_b   7.92609240
_cell_length_c   15.12476200
_cell_angle_alpha   89.76620696
_cell_angle_beta   86.59613967
_cell_angle_gamma   89.96770366
_symmetry_Int_Tables_number   1
_chemical_formula_structural   La8Y12Si15S
_chemical_formula_sum   'La8 Y12 Si15 S1'
_cell_volume   927.89757570
_cell_formula_units_Z   1
loop_
 _symmetry_equiv_pos_site_id
 _symmetry_equiv_pos_as_xyz
  1  'x, y, z'
loop_
 _atom_site_type_symbol
 _atom_site_label
 _atom_site_symmetry_multiplicity
 _atom_site_fract_x
 _atom_site_fract_y
 _atom_site_fract_z
 _atom_site_occupancy
  La  La0  1  0.021515  0.182040  0.100250  1
  La  La1  1  0.978782  0.820074  0.898676  1
  La  La2  1  0.478754  0.681952  0.899376  1
  La  La3  1  0.002624  0.821108  0.599330  1
  La  La4  1  0.521760  0.319018  0.100540  1
  La  La5  1  0.993167  0.174378  0.398475  1
  La  La6  1  0.499563  0.313043  0.399527  1
  La  La7  1  0.504682  0.683989  0.599527  1
  Y  Y8  1  0.170750  0.506001  0.750283  1
  Y  Y9  1  0.828985  0.495533  0.254719  1
  Y  Y10  1  0.326745  0.003010  0.253928  1
  Y  Y11  1  0.672865  0.996285  0.746307  1
  Y  Y12  1  0.355123  0.166786  0.620213  1
  Y  Y13  1  0.644644  0.833646  0.379775  1
  Y  Y14  1  0.145895  0.661732  0.382756  1
  Y  Y15  1  0.672030  0.822259  0.123264  1
  Y  Y16  1  0.854222  0.336365  0.617400  1
  Y  Y17  1  0.327542  0.177995  0.875636  1
  Y  Y18  1  0.827588  0.323494  0.875509  1
  Y  Y19  1  0.171755  0.677313  0.123259  1
  Si  Si20  1  0.047074  0.119329  0.748899  1
  Si  Si21  1  0.953451  0.881597  0.248963  1
  Si  Si22  1  0.451672  0.615222  0.249535  1
  Si  Si23  1  0.546506  0.384845  0.748973  1
  Si  Si24  1  0.288939  0.879601  0.750372  1
  Si  Si25  1  0.711802  0.120110  0.248202  1
  Si  Si26  1  0.212529  0.379536  0.249149  1
  Si  Si27  1  0.789430  0.621642  0.749973  1
  Si  Si28  1  0.797079  0.535546  0.453971  1
  Si  Si29  1  0.298818  0.960593  0.456470  1
  Si  Si30  1  0.857189  0.530200  0.039914  1
  Si  Si31  1  0.696919  0.038167  0.546063  1
  Si  Si32  1  0.141734  0.471943  0.958007  1
  Si  Si33  1  0.641852  0.030418  0.958850  1
  Si  Si34  1  0.357372  0.971109  0.040556  1
  S  S35  1  0.208650  0.464122  0.553352  1
