# generated using pymatgen
data_La5YbIn3
_symmetry_space_group_name_H-M   'P 1'
_cell_length_a   9.79033200
_cell_length_b   9.79033231
_cell_length_c   7.10278400
_cell_angle_alpha   90.00000000
_cell_angle_beta   90.00000000
_cell_angle_gamma   120.00000572
_symmetry_Int_Tables_number   1
_chemical_formula_structural   La5YbIn3
_chemical_formula_sum   'La10 Yb2 In6'
_cell_volume   589.59537322
_cell_formula_units_Z   2
loop_
 _symmetry_equiv_pos_site_id
 _symmetry_equiv_pos_as_xyz
  1  'x, y, z'
loop_
 _atom_site_type_symbol
 _atom_site_label
 _atom_site_symmetry_multiplicity
 _atom_site_fract_x
 _atom_site_fract_y
 _atom_site_fract_z
 _atom_site_occupancy
  La  La0  1  0.668094  0.668094  0.250000  1
  La  La1  1  0.000000  0.668094  0.750000  1
  La  La2  1  0.668094  0.000000  0.750000  1
  La  La3  1  0.333333  0.666667  0.500000  1
  La  La4  1  0.331906  0.331906  0.750000  1
  La  La5  1  0.000000  0.331906  0.250000  1
  La  La6  1  0.666667  0.333333  0.500000  1
  La  La7  1  0.331906  0.000000  0.250000  1
  La  La8  1  0.333333  0.666667  0.000000  1
  La  La9  1  0.666667  0.333333  0.000000  1
  Yb  Yb10  1  0.000000  0.000000  0.500000  1
  Yb  Yb11  1  0.000000  0.000000  0.000000  1
  In  In12  1  0.332397  0.000000  0.750000  1
  In  In13  1  0.000000  0.667603  0.250000  1
  In  In14  1  0.667603  0.000000  0.250000  1
  In  In15  1  0.000000  0.332397  0.750000  1
  In  In16  1  0.332397  0.332397  0.250000  1
  In  In17  1  0.667603  0.667603  0.750000  1
