# generated using pymatgen
data_Dy3Er3Ni2
_symmetry_space_group_name_H-M   'P 1'
_cell_length_a   6.30624690
_cell_length_b   6.78851000
_cell_length_c   9.50110436
_cell_angle_alpha   90.00000000
_cell_angle_beta   90.06133150
_cell_angle_gamma   90.00000000
_symmetry_Int_Tables_number   1
_chemical_formula_structural   Dy3Er3Ni2
_chemical_formula_sum   'Dy6 Er6 Ni4'
_cell_volume   406.74223625
_cell_formula_units_Z   2
loop_
 _symmetry_equiv_pos_site_id
 _symmetry_equiv_pos_as_xyz
  1  'x, y, z'
loop_
 _atom_site_type_symbol
 _atom_site_label
 _atom_site_symmetry_multiplicity
 _atom_site_fract_x
 _atom_site_fract_y
 _atom_site_fract_z
 _atom_site_occupancy
  Dy  Dy0  1  0.320767  0.678548  0.065410  1
  Dy  Dy1  1  0.179233  0.178548  0.434590  1
  Dy  Dy2  1  0.861538  0.532484  0.250123  1
  Dy  Dy3  1  0.638462  0.032484  0.249877  1
  Dy  Dy4  1  0.138096  0.467404  0.749963  1
  Dy  Dy5  1  0.361904  0.967404  0.750037  1
  Er  Er6  1  0.679080  0.321569  0.565826  1
  Er  Er7  1  0.820920  0.821569  0.934174  1
  Er  Er8  1  0.679266  0.321470  0.934287  1
  Er  Er9  1  0.820734  0.821470  0.565713  1
  Er  Er10  1  0.320950  0.678524  0.434570  1
  Er  Er11  1  0.179050  0.178524  0.065430  1
  Ni  Ni12  1  0.056117  0.891893  0.249991  1
  Ni  Ni13  1  0.443883  0.391893  0.250009  1
  Ni  Ni14  1  0.943519  0.108107  0.750115  1
  Ni  Ni15  1  0.556481  0.608107  0.749885  1
