# generated using pymatgen
data_ZnFe(SO4)2
_symmetry_space_group_name_H-M   'P 1'
_cell_length_a   4.92899644
_cell_length_b   6.94743396
_cell_length_c   8.71409800
_cell_angle_alpha   90.00000000
_cell_angle_beta   90.00000000
_cell_angle_gamma   93.23541746
_symmetry_Int_Tables_number   1
_chemical_formula_structural   ZnFe(SO4)2
_chemical_formula_sum   'Zn2 Fe2 S4 O16'
_cell_volume   297.92886547
_cell_formula_units_Z   2
loop_
 _symmetry_equiv_pos_site_id
 _symmetry_equiv_pos_as_xyz
  1  'x, y, z'
loop_
 _atom_site_type_symbol
 _atom_site_label
 _atom_site_symmetry_multiplicity
 _atom_site_fract_x
 _atom_site_fract_y
 _atom_site_fract_z
 _atom_site_occupancy
  Zn  Zn0  1  0.558873  0.974078  0.472756  1
  Zn  Zn1  1  0.941127  0.525922  0.972756  1
  Fe  Fe2  1  0.489642  0.491166  0.498888  1
  Fe  Fe3  1  0.010358  0.008834  0.998888  1
  S  S4  1  0.041296  0.738475  0.319097  1
  S  S5  1  0.458704  0.761525  0.819097  1
  S  S6  1  0.959410  0.266550  0.678506  1
  S  S7  1  0.540590  0.233450  0.178506  1
  O  O8  1  0.338660  0.942450  0.864127  1
  O  O9  1  0.161340  0.557550  0.364127  1
  O  O10  1  0.681189  0.059585  0.132523  1
  O  O11  1  0.818811  0.440415  0.632523  1
  O  O12  1  0.752644  0.736983  0.378701  1
  O  O13  1  0.747356  0.763017  0.878701  1
  O  O14  1  0.243586  0.280297  0.625749  1
  O  O15  1  0.256414  0.219703  0.125749  1
  O  O16  1  0.040312  0.751076  0.146880  1
  O  O17  1  0.459688  0.748924  0.646880  1
  O  O18  1  0.947971  0.260113  0.853401  1
  O  O19  1  0.552029  0.239887  0.353401  1
  O  O20  1  0.189682  0.912457  0.381121  1
  O  O21  1  0.310318  0.587543  0.881121  1
  O  O22  1  0.821810  0.084229  0.624651  1
  O  O23  1  0.678190  0.415771  0.124651  1
