# generated using pymatgen
data_DyY15(AlRh)4
_symmetry_space_group_name_H-M   'P 1'
_cell_length_a   9.57296433
_cell_length_b   9.56599543
_cell_length_c   9.56599700
_cell_angle_alpha   60.00000493
_cell_angle_beta   60.02408333
_cell_angle_gamma   60.02408527
_symmetry_Int_Tables_number   1
_chemical_formula_structural   DyY15(AlRh)4
_chemical_formula_sum   'Dy1 Y15 Al4 Rh4'
_cell_volume   619.65487459
_cell_formula_units_Z   1
loop_
 _symmetry_equiv_pos_site_id
 _symmetry_equiv_pos_as_xyz
  1  'x, y, z'
loop_
 _atom_site_type_symbol
 _atom_site_label
 _atom_site_symmetry_multiplicity
 _atom_site_fract_x
 _atom_site_fract_y
 _atom_site_fract_z
 _atom_site_occupancy
  Dy  Dy0  1  0.557213  0.147596  0.147596  1
  Y  Y1  1  0.690904  0.308988  0.308988  1
  Y  Y2  1  0.690904  0.691119  0.308988  1
  Y  Y3  1  0.308965  0.690978  0.309079  1
  Y  Y4  1  0.936673  0.936757  0.563285  1
  Y  Y5  1  0.147045  0.147030  0.558894  1
  Y  Y6  1  0.563270  0.936889  0.562952  1
  Y  Y7  1  0.147045  0.147030  0.147030  1
  Y  Y8  1  0.308965  0.309079  0.690978  1
  Y  Y9  1  0.936673  0.563285  0.563285  1
  Y  Y10  1  0.563270  0.562952  0.936889  1
  Y  Y11  1  0.563270  0.936889  0.936889  1
  Y  Y12  1  0.936673  0.563285  0.936757  1
  Y  Y13  1  0.147045  0.558894  0.147030  1
  Y  Y14  1  0.308965  0.690978  0.690978  1
  Y  Y15  1  0.690904  0.308988  0.691119  1
  Al  Al16  1  0.922060  0.922035  0.233868  1
  Al  Al17  1  0.233991  0.922003  0.922003  1
  Al  Al18  1  0.922060  0.233868  0.922035  1
  Al  Al19  1  0.922060  0.922035  0.922035  1
  Rh  Rh20  1  0.357542  0.356072  0.356072  1
  Rh  Rh21  1  0.929415  0.356862  0.356862  1
  Rh  Rh22  1  0.357542  0.356072  0.930315  1
  Rh  Rh23  1  0.357542  0.930315  0.356072  1
