# generated using pymatgen
data_Ca(NbS2)5
_symmetry_space_group_name_H-M   'P 1'
_cell_length_a   5.84445500
_cell_length_b   8.06599642
_cell_length_c   8.77396700
_cell_angle_alpha   116.03033572
_cell_angle_beta   96.59073320
_cell_angle_gamma   103.90143440
_symmetry_Int_Tables_number   1
_chemical_formula_structural   Ca(NbS2)5
_chemical_formula_sum   'Ca1 Nb5 S10'
_cell_volume   349.08753168
_cell_formula_units_Z   1
loop_
 _symmetry_equiv_pos_site_id
 _symmetry_equiv_pos_as_xyz
  1  'x, y, z'
loop_
 _atom_site_type_symbol
 _atom_site_label
 _atom_site_symmetry_multiplicity
 _atom_site_fract_x
 _atom_site_fract_y
 _atom_site_fract_z
 _atom_site_occupancy
  Ca  Ca0  1  0.668132  0.504332  0.997486  1
  Nb  Nb1  1  0.002873  0.999645  0.000158  1
  Nb  Nb2  1  0.598893  0.200295  0.202519  1
  Nb  Nb3  1  0.199121  0.399152  0.400050  1
  Nb  Nb4  1  0.800808  0.599481  0.599768  1
  Nb  Nb5  1  0.398610  0.797768  0.797052  1
  S  S6  1  0.236566  0.067812  0.287838  1
  S  S7  1  0.042526  0.665838  0.888564  1
  S  S8  1  0.836681  0.267291  0.487214  1
  S  S9  1  0.637392  0.870405  0.090732  1
  S  S10  1  0.433941  0.462737  0.685157  1
  S  S11  1  0.896900  0.534791  0.313392  1
  S  S12  1  0.696002  0.131146  0.912276  1
  S  S13  1  0.495132  0.731350  0.513577  1
  S  S14  1  0.294034  0.333949  0.112150  1
  S  S15  1  0.095188  0.931611  0.713668  1
