# generated using pymatgen
data_Er5(Tl2Pd)2
_symmetry_space_group_name_H-M   'P 1'
_cell_length_a   18.30406500
_cell_length_b   8.18757400
_cell_length_c   3.61555400
_cell_angle_alpha   90.00000000
_cell_angle_beta   90.00000000
_cell_angle_gamma   90.00000000
_symmetry_Int_Tables_number   1
_chemical_formula_structural   Er5(Tl2Pd)2
_chemical_formula_sum   'Er10 Tl8 Pd4'
_cell_volume   541.84820608
_cell_formula_units_Z   2
loop_
 _symmetry_equiv_pos_site_id
 _symmetry_equiv_pos_as_xyz
  1  'x, y, z'
loop_
 _atom_site_type_symbol
 _atom_site_label
 _atom_site_symmetry_multiplicity
 _atom_site_fract_x
 _atom_site_fract_y
 _atom_site_fract_z
 _atom_site_occupancy
  Er  Er0  1  0.000000  0.000000  0.000000  1
  Er  Er1  1  0.413790  0.114930  0.000000  1
  Er  Er2  1  0.218314  0.241005  0.000000  1
  Er  Er3  1  0.718315  0.258994  0.000000  1
  Er  Er4  1  0.913790  0.385070  0.000000  1
  Er  Er5  1  0.500000  0.500000  0.000000  1
  Er  Er6  1  0.086210  0.614930  0.000000  1
  Er  Er7  1  0.281685  0.741005  0.000000  1
  Er  Er8  1  0.781685  0.758994  0.000000  1
  Er  Er9  1  0.586210  0.885070  0.000000  1
  Tl  Tl10  1  0.851269  0.083938  0.500000  1
  Tl  Tl11  1  0.564646  0.206764  0.500000  1
  Tl  Tl12  1  0.064646  0.293236  0.500000  1
  Tl  Tl13  1  0.351269  0.416061  0.500000  1
  Tl  Tl14  1  0.648731  0.583938  0.500000  1
  Tl  Tl15  1  0.935354  0.706764  0.500000  1
  Tl  Tl16  1  0.435354  0.793235  0.500000  1
  Tl  Tl17  1  0.148731  0.916061  0.500000  1
  Pd  Pd18  1  0.302901  0.025575  0.500000  1
  Pd  Pd19  1  0.802901  0.474425  0.500000  1
  Pd  Pd20  1  0.197099  0.525575  0.500000  1
  Pd  Pd21  1  0.697099  0.974424  0.500000  1
