# generated using pymatgen
data_Nd3Ni5Sb5Au
_symmetry_space_group_name_H-M   'P 1'
_cell_length_a   4.37937000
_cell_length_b   9.88613500
_cell_length_c   13.15457300
_cell_angle_alpha   90.00000000
_cell_angle_beta   90.00000000
_cell_angle_gamma   90.00000000
_symmetry_Int_Tables_number   1
_chemical_formula_structural   Nd3Ni5Sb5Au
_chemical_formula_sum   'Nd6 Ni10 Sb10 Au2'
_cell_volume   569.52780414
_cell_formula_units_Z   2
loop_
 _symmetry_equiv_pos_site_id
 _symmetry_equiv_pos_as_xyz
  1  'x, y, z'
loop_
 _atom_site_type_symbol
 _atom_site_label
 _atom_site_symmetry_multiplicity
 _atom_site_fract_x
 _atom_site_fract_y
 _atom_site_fract_z
 _atom_site_occupancy
  Nd  Nd0  1  0.000000  0.237680  0.000000  1
  Nd  Nd1  1  0.500000  0.762320  0.500000  1
  Nd  Nd2  1  0.000000  0.242843  0.325223  1
  Nd  Nd3  1  0.500000  0.757157  0.174777  1
  Nd  Nd4  1  0.000000  0.242843  0.674777  1
  Nd  Nd5  1  0.500000  0.757157  0.825223  1
  Ni  Ni6  1  0.000000  0.994585  0.161362  1
  Ni  Ni7  1  0.500000  0.005415  0.338638  1
  Ni  Ni8  1  0.000000  0.994585  0.838638  1
  Ni  Ni9  1  0.500000  0.005415  0.661362  1
  Ni  Ni10  1  0.500000  0.985232  0.000000  1
  Ni  Ni11  1  0.000000  0.014768  0.500000  1
  Ni  Ni12  1  0.000000  0.618948  0.325275  1
  Ni  Ni13  1  0.500000  0.381052  0.174725  1
  Ni  Ni14  1  0.000000  0.618948  0.674725  1
  Ni  Ni15  1  0.500000  0.381052  0.825275  1
  Sb  Sb16  1  0.000000  0.510033  0.148068  1
  Sb  Sb17  1  0.500000  0.489967  0.351932  1
  Sb  Sb18  1  0.000000  0.510033  0.851932  1
  Sb  Sb19  1  0.500000  0.489967  0.648068  1
  Sb  Sb20  1  0.000000  0.873211  0.335852  1
  Sb  Sb21  1  0.500000  0.126789  0.164148  1
  Sb  Sb22  1  0.000000  0.873211  0.664148  1
  Sb  Sb23  1  0.500000  0.126789  0.835852  1
  Sb  Sb24  1  0.000000  0.848151  0.000000  1
  Sb  Sb25  1  0.500000  0.151849  0.500000  1
  Au  Au26  1  0.500000  0.510422  0.000000  1
  Au  Au27  1  0.000000  0.489578  0.500000  1
