# generated using pymatgen
data_PrCo(As4Ru)3
_symmetry_space_group_name_H-M   'P 1'
_cell_length_a   7.39007812
_cell_length_b   7.39007762
_cell_length_c   7.39007810
_cell_angle_alpha   109.35908063
_cell_angle_beta   109.35907785
_cell_angle_gamma   109.35908758
_symmetry_Int_Tables_number   1
_chemical_formula_structural   PrCo(As4Ru)3
_chemical_formula_sum   'Pr1 Co1 As12 Ru3'
_cell_volume   311.97174786
_cell_formula_units_Z   1
loop_
 _symmetry_equiv_pos_site_id
 _symmetry_equiv_pos_as_xyz
  1  'x, y, z'
loop_
 _atom_site_type_symbol
 _atom_site_label
 _atom_site_symmetry_multiplicity
 _atom_site_fract_x
 _atom_site_fract_y
 _atom_site_fract_z
 _atom_site_occupancy
  Pr  Pr0  1  0.000000  0.000000  0.000000  1
  Co  Co1  1  0.500000  0.500000  0.500000  1
  As  As2  1  0.497714  0.350414  0.157285  1
  As  As3  1  0.198485  0.347963  0.849775  1
  As  As4  1  0.502287  0.649586  0.842715  1
  As  As5  1  0.801515  0.652036  0.150225  1
  As  As6  1  0.157285  0.497714  0.350414  1
  As  As7  1  0.350414  0.157285  0.497714  1
  As  As8  1  0.150225  0.801515  0.652036  1
  As  As9  1  0.347963  0.849775  0.198485  1
  As  As10  1  0.849775  0.198485  0.347963  1
  As  As11  1  0.649586  0.842715  0.502287  1
  As  As12  1  0.842715  0.502287  0.649586  1
  As  As13  1  0.652036  0.150225  0.801515  1
  Ru  Ru14  1  0.000000  0.000000  0.500000  1
  Ru  Ru15  1  0.500000  0.000000  0.000000  1
  Ru  Ru16  1  0.000000  0.500000  0.000000  1
