# generated using pymatgen
data_Sr3AlP3
_symmetry_space_group_name_H-M   'P 1'
_cell_length_a   9.94133704
_cell_length_b   9.94133712
_cell_length_c   12.45994800
_cell_angle_alpha   90.00000000
_cell_angle_beta   90.00000000
_cell_angle_gamma   142.02265633
_symmetry_Int_Tables_number   1
_chemical_formula_structural   Sr3AlP3
_chemical_formula_sum   'Sr12 Al4 P12'
_cell_volume   757.75343016
_cell_formula_units_Z   4
loop_
 _symmetry_equiv_pos_site_id
 _symmetry_equiv_pos_as_xyz
  1  'x, y, z'
loop_
 _atom_site_type_symbol
 _atom_site_label
 _atom_site_symmetry_multiplicity
 _atom_site_fract_x
 _atom_site_fract_y
 _atom_site_fract_z
 _atom_site_occupancy
  Sr  Sr0  1  0.828566  0.828566  0.348029  1
  Sr  Sr1  1  0.171434  0.171434  0.651971  1
  Sr  Sr2  1  0.671434  0.671434  0.848029  1
  Sr  Sr3  1  0.328566  0.328566  0.151971  1
  Sr  Sr4  1  0.863642  0.508761  0.131601  1
  Sr  Sr5  1  0.491239  0.136358  0.868399  1
  Sr  Sr6  1  0.991239  0.636358  0.631601  1
  Sr  Sr7  1  0.363642  0.008761  0.368399  1
  Sr  Sr8  1  0.136358  0.491239  0.868399  1
  Sr  Sr9  1  0.508761  0.863642  0.131601  1
  Sr  Sr10  1  0.008761  0.363642  0.368399  1
  Sr  Sr11  1  0.636358  0.991239  0.631601  1
  Al  Al12  1  0.084343  0.915657  0.000000  1
  Al  Al13  1  0.584343  0.415657  0.500000  1
  Al  Al14  1  0.915657  0.084343  0.000000  1
  Al  Al15  1  0.415657  0.584343  0.500000  1
  P  P16  1  0.793895  0.793895  0.100678  1
  P  P17  1  0.206105  0.206105  0.899322  1
  P  P18  1  0.706105  0.706105  0.600678  1
  P  P19  1  0.293895  0.293895  0.399322  1
  P  P20  1  0.044110  0.359536  0.118724  1
  P  P21  1  0.640464  0.955890  0.881276  1
  P  P22  1  0.140464  0.455890  0.618724  1
  P  P23  1  0.544110  0.859536  0.381276  1
  P  P24  1  0.955890  0.640464  0.881276  1
  P  P25  1  0.359536  0.044110  0.118724  1
  P  P26  1  0.859536  0.544110  0.381276  1
  P  P27  1  0.455890  0.140464  0.618724  1
