# generated using pymatgen
data_Dy3Tm(ZnSi)4
_symmetry_space_group_name_H-M   'P 1'
_cell_length_a   4.15358300
_cell_length_b   4.15358291
_cell_length_c   15.61823700
_cell_angle_alpha   90.00000000
_cell_angle_beta   90.00000000
_cell_angle_gamma   120.00000870
_symmetry_Int_Tables_number   1
_chemical_formula_structural   Dy3Tm(ZnSi)4
_chemical_formula_sum   'Dy3 Tm1 Zn4 Si4'
_cell_volume   233.35030850
_cell_formula_units_Z   1
loop_
 _symmetry_equiv_pos_site_id
 _symmetry_equiv_pos_as_xyz
  1  'x, y, z'
loop_
 _atom_site_type_symbol
 _atom_site_label
 _atom_site_symmetry_multiplicity
 _atom_site_fract_x
 _atom_site_fract_y
 _atom_site_fract_z
 _atom_site_occupancy
  Dy  Dy0  1  0.000000  0.000000  0.001246  1
  Dy  Dy1  1  0.000000  0.000000  0.498754  1
  Dy  Dy2  1  0.000000  0.000000  0.750000  1
  Tm  Tm3  1  0.000000  0.000000  0.250000  1
  Zn  Zn4  1  0.666666  0.333334  0.141181  1
  Zn  Zn5  1  0.666666  0.333334  0.358819  1
  Zn  Zn6  1  0.333333  0.666665  0.637943  1
  Zn  Zn7  1  0.333333  0.666665  0.862057  1
  Si  Si8  1  0.333333  0.666665  0.119309  1
  Si  Si9  1  0.333333  0.666665  0.380691  1
  Si  Si10  1  0.666666  0.333334  0.617610  1
  Si  Si11  1  0.666666  0.333334  0.882390  1
