# generated using pymatgen
data_GdSiSnIr2
_symmetry_space_group_name_H-M   'P 1'
_cell_length_a   4.24292200
_cell_length_b   4.24292900
_cell_length_c   10.55120500
_cell_angle_alpha   90.00000000
_cell_angle_beta   90.00000000
_cell_angle_gamma   90.00000000
_symmetry_Int_Tables_number   1
_chemical_formula_structural   GdSiSnIr2
_chemical_formula_sum   'Gd2 Si2 Sn2 Ir4'
_cell_volume   189.94719014
_cell_formula_units_Z   2
loop_
 _symmetry_equiv_pos_site_id
 _symmetry_equiv_pos_as_xyz
  1  'x, y, z'
loop_
 _atom_site_type_symbol
 _atom_site_label
 _atom_site_symmetry_multiplicity
 _atom_site_fract_x
 _atom_site_fract_y
 _atom_site_fract_z
 _atom_site_occupancy
  Gd  Gd0  1  0.000000  0.500000  0.233893  1
  Gd  Gd1  1  0.500000  0.000000  0.766107  1
  Si  Si2  1  0.000000  0.500000  0.881203  1
  Si  Si3  1  0.500000  0.000000  0.118797  1
  Sn  Sn4  1  0.000000  0.000000  0.500000  1
  Sn  Sn5  1  0.500000  0.500000  0.500000  1
  Ir  Ir6  1  0.000000  0.000000  0.000000  1
  Ir  Ir7  1  0.500000  0.500000  0.000000  1
  Ir  Ir8  1  0.000000  0.500000  0.660513  1
  Ir  Ir9  1  0.500000  0.000000  0.339487  1
