# generated using pymatgen
data_U4Mn5FeGe2
_symmetry_space_group_name_H-M   'P 1'
_cell_length_a   5.20190856
_cell_length_b   5.20190929
_cell_length_c   7.90476600
_cell_angle_alpha   90.00000000
_cell_angle_beta   90.00000000
_cell_angle_gamma   119.93606226
_symmetry_Int_Tables_number   1
_chemical_formula_structural   U4Mn5FeGe2
_chemical_formula_sum   'U4 Mn5 Fe1 Ge2'
_cell_volume   185.36365541
_cell_formula_units_Z   1
loop_
 _symmetry_equiv_pos_site_id
 _symmetry_equiv_pos_as_xyz
  1  'x, y, z'
loop_
 _atom_site_type_symbol
 _atom_site_label
 _atom_site_symmetry_multiplicity
 _atom_site_fract_x
 _atom_site_fract_y
 _atom_site_fract_z
 _atom_site_occupancy
  U  U0  1  0.666764  0.333236  0.420703  1
  U  U1  1  0.332800  0.667200  0.577956  1
  U  U2  1  0.332800  0.667200  0.922044  1
  U  U3  1  0.666764  0.333236  0.079297  1
  Mn  Mn4  1  0.171890  0.828110  0.250000  1
  Mn  Mn5  1  0.344534  0.172328  0.750000  1
  Mn  Mn6  1  0.656587  0.828560  0.250000  1
  Mn  Mn7  1  0.827672  0.655466  0.750000  1
  Mn  Mn8  1  0.171440  0.343413  0.250000  1
  Fe  Fe9  1  0.829161  0.170839  0.750000  1
  Ge  Ge10  1  0.999794  0.000206  0.999724  1
  Ge  Ge11  1  0.999794  0.000206  0.500276  1
