# generated using pymatgen
data_Y6Ho10Cd4Pd3Rh
_symmetry_space_group_name_H-M   'P 1'
_cell_length_a   9.68515942
_cell_length_b   9.68515939
_cell_length_c   9.68515046
_cell_angle_alpha   59.79337953
_cell_angle_beta   59.79337880
_cell_angle_gamma   59.79345999
_symmetry_Int_Tables_number   1
_chemical_formula_structural   Y6Ho10Cd4Pd3Rh
_chemical_formula_sum   'Y6 Ho10 Cd4 Pd3 Rh1'
_cell_volume   639.38621071
_cell_formula_units_Z   1
loop_
 _symmetry_equiv_pos_site_id
 _symmetry_equiv_pos_as_xyz
  1  'x, y, z'
loop_
 _atom_site_type_symbol
 _atom_site_label
 _atom_site_symmetry_multiplicity
 _atom_site_fract_x
 _atom_site_fract_y
 _atom_site_fract_z
 _atom_site_occupancy
  Y  Y0  1  0.934678  0.565505  0.565503  1
  Y  Y1  1  0.563185  0.935734  0.935735  1
  Y  Y2  1  0.565513  0.934668  0.565509  1
  Y  Y3  1  0.935738  0.563187  0.935736  1
  Y  Y4  1  0.565500  0.565512  0.934673  1
  Y  Y5  1  0.935738  0.935736  0.563182  1
  Ho  Ho6  1  0.352254  0.352255  0.352256  1
  Ho  Ho7  1  0.351792  0.351792  0.942835  1
  Ho  Ho8  1  0.351792  0.942833  0.351794  1
  Ho  Ho9  1  0.942835  0.351793  0.351793  1
  Ho  Ho10  1  0.814438  0.189201  0.189201  1
  Ho  Ho11  1  0.188002  0.811309  0.811308  1
  Ho  Ho12  1  0.189199  0.814439  0.189201  1
  Ho  Ho13  1  0.811308  0.188004  0.811308  1
  Ho  Ho14  1  0.189201  0.189201  0.814438  1
  Ho  Ho15  1  0.811308  0.811308  0.188002  1
  Cd  Cd16  1  0.581026  0.581024  0.581024  1
  Cd  Cd17  1  0.581071  0.581072  0.254461  1
  Cd  Cd18  1  0.581071  0.254462  0.581073  1
  Cd  Cd19  1  0.254461  0.581071  0.581072  1
  Pd  Pd20  1  0.143796  0.143794  0.568106  1
  Pd  Pd21  1  0.143794  0.568108  0.143794  1
  Pd  Pd22  1  0.568105  0.143795  0.143796  1
  Rh  Rh23  1  0.144197  0.144198  0.144201  1
