# generated using pymatgen
data_Ac3AgSnS7
_symmetry_space_group_name_H-M   'P 1'
_cell_length_a   10.81006100
_cell_length_b   10.81005628
_cell_length_c   6.16427200
_cell_angle_alpha   90.00000000
_cell_angle_beta   90.00000000
_cell_angle_gamma   119.99987124
_symmetry_Int_Tables_number   1
_chemical_formula_structural   Ac3AgSnS7
_chemical_formula_sum   'Ac6 Ag2 Sn2 S14'
_cell_volume   623.83406857
_cell_formula_units_Z   2
loop_
 _symmetry_equiv_pos_site_id
 _symmetry_equiv_pos_as_xyz
  1  'x, y, z'
loop_
 _atom_site_type_symbol
 _atom_site_label
 _atom_site_symmetry_multiplicity
 _atom_site_fract_x
 _atom_site_fract_y
 _atom_site_fract_z
 _atom_site_occupancy
  Ac  Ac0  1  0.641754  0.770851  0.079590  1
  Ac  Ac1  1  0.129094  0.358242  0.079585  1
  Ac  Ac2  1  0.229148  0.870906  0.079586  1
  Ac  Ac3  1  0.358246  0.229150  0.579592  1
  Ac  Ac4  1  0.770852  0.129094  0.579585  1
  Ac  Ac5  1  0.870906  0.641758  0.579584  1
  Ag  Ag6  1  0.999997  0.999998  0.016575  1
  Ag  Ag7  1  0.000003  0.000002  0.516574  1
  Sn  Sn8  1  0.666665  0.333333  0.158013  1
  Sn  Sn9  1  0.333334  0.666667  0.658013  1
  S  S10  1  0.833839  0.096451  0.057342  1
  S  S11  1  0.903547  0.737388  0.057341  1
  S  S12  1  0.262609  0.166159  0.057339  1
  S  S13  1  0.333329  0.666664  0.271942  1
  S  S14  1  0.517639  0.099755  0.320998  1
  S  S15  1  0.582115  0.482360  0.321000  1
  S  S16  1  0.900251  0.417885  0.320997  1
  S  S17  1  0.166163  0.903550  0.557341  1
  S  S18  1  0.096453  0.262612  0.557341  1
  S  S19  1  0.737391  0.833841  0.557338  1
  S  S20  1  0.666671  0.333336  0.771941  1
  S  S21  1  0.482362  0.900245  0.820997  1
  S  S22  1  0.417884  0.517640  0.821000  1
  S  S23  1  0.099749  0.582115  0.820997  1
