# generated using pymatgen
data_HoEr7SnPd24
_symmetry_space_group_name_H-M   'P 1'
_cell_length_a   8.36924700
_cell_length_b   8.36924700
_cell_length_c   8.36924700
_cell_angle_alpha   90.00032861
_cell_angle_beta   90.00032861
_cell_angle_gamma   90.00032861
_symmetry_Int_Tables_number   1
_chemical_formula_structural   HoEr7SnPd24
_chemical_formula_sum   'Ho1 Er7 Sn1 Pd24'
_cell_volume   586.21800869
_cell_formula_units_Z   1
loop_
 _symmetry_equiv_pos_site_id
 _symmetry_equiv_pos_as_xyz
  1  'x, y, z'
loop_
 _atom_site_type_symbol
 _atom_site_label
 _atom_site_symmetry_multiplicity
 _atom_site_fract_x
 _atom_site_fract_y
 _atom_site_fract_z
 _atom_site_occupancy
  Ho  Ho0  1  0.252623  0.252623  0.252623  1
  Er  Er1  1  0.747369  0.747369  0.747369  1
  Er  Er2  1  0.747368  0.747368  0.252635  1
  Er  Er3  1  0.747368  0.252635  0.747368  1
  Er  Er4  1  0.252630  0.252630  0.747371  1
  Er  Er5  1  0.252630  0.747371  0.252630  1
  Er  Er6  1  0.252635  0.747368  0.747368  1
  Er  Er7  1  0.747371  0.252630  0.252630  1
  Sn  Sn8  1  0.000000  0.000000  0.000000  1
  Pd  Pd9  1  0.265300  0.500033  0.999965  1
  Pd  Pd10  1  0.734701  0.499999  0.999998  1
  Pd  Pd11  1  0.999965  0.265300  0.500033  1
  Pd  Pd12  1  0.500033  0.265300  0.999965  1
  Pd  Pd13  1  0.999998  0.734701  0.499999  1
  Pd  Pd14  1  0.499999  0.734701  0.999998  1
  Pd  Pd15  1  0.500033  0.999965  0.265300  1
  Pd  Pd16  1  0.265300  0.999965  0.500033  1
  Pd  Pd17  1  0.499999  0.999998  0.734701  1
  Pd  Pd18  1  0.734701  0.999998  0.499999  1
  Pd  Pd19  1  0.999965  0.500033  0.265300  1
  Pd  Pd20  1  0.999998  0.499999  0.734701  1
  Pd  Pd21  1  0.255161  0.500036  0.500036  1
  Pd  Pd22  1  0.744841  0.500001  0.500001  1
  Pd  Pd23  1  0.500036  0.255161  0.500036  1
  Pd  Pd24  1  0.500001  0.744841  0.500001  1
  Pd  Pd25  1  0.500036  0.500036  0.255161  1
  Pd  Pd26  1  0.500001  0.500001  0.744841  1
  Pd  Pd27  1  0.307775  0.999967  0.999967  1
  Pd  Pd28  1  0.692233  0.999999  0.999999  1
  Pd  Pd29  1  0.999967  0.307775  0.999967  1
  Pd  Pd30  1  0.999999  0.692233  0.999999  1
  Pd  Pd31  1  0.999967  0.999967  0.307775  1
  Pd  Pd32  1  0.999999  0.999999  0.692233  1
