# generated using pymatgen
data_LuSc3Be2(B3Ru5)2
_symmetry_space_group_name_H-M   'P 1'
_cell_length_a   3.05226700
_cell_length_b   8.56873102
_cell_length_c   10.18210974
_cell_angle_alpha   90.28772601
_cell_angle_beta   90.00000000
_cell_angle_gamma   90.00000000
_symmetry_Int_Tables_number   1
_chemical_formula_structural   LuSc3Be2(B3Ru5)2
_chemical_formula_sum   'Lu1 Sc3 Be2 B6 Ru10'
_cell_volume   266.30009952
_cell_formula_units_Z   1
loop_
 _symmetry_equiv_pos_site_id
 _symmetry_equiv_pos_as_xyz
  1  'x, y, z'
loop_
 _atom_site_type_symbol
 _atom_site_label
 _atom_site_symmetry_multiplicity
 _atom_site_fract_x
 _atom_site_fract_y
 _atom_site_fract_z
 _atom_site_occupancy
  Lu  Lu0  1  0.500000  0.842426  0.182660  1
  Sc  Sc1  1  0.500000  0.157049  0.814704  1
  Sc  Sc2  1  0.500000  0.656003  0.680097  1
  Sc  Sc3  1  0.500000  0.343649  0.322120  1
  Be  Be4  1  0.500000  0.961867  0.593977  1
  Be  Be5  1  0.500000  0.039263  0.406983  1
  B  B6  1  0.500000  0.852442  0.897449  1
  B  B7  1  0.500000  0.150126  0.101264  1
  B  B8  1  0.500000  0.651914  0.403973  1
  B  B9  1  0.500000  0.346494  0.598023  1
  B  B10  1  0.500000  0.464126  0.909567  1
  B  B11  1  0.500000  0.532730  0.089803  1
  Ru  Ru12  1  0.000000  0.657446  0.955914  1
  Ru  Ru13  1  0.000000  0.343072  0.042390  1
  Ru  Ru14  1  0.000000  0.831850  0.450277  1
  Ru  Ru15  1  0.000000  0.167329  0.551470  1
  Ru  Ru16  1  0.000000  0.004761  0.996908  1
  Ru  Ru17  1  0.000000  0.405710  0.761536  1
  Ru  Ru18  1  0.000000  0.588361  0.239682  1
  Ru  Ru19  1  0.000000  0.499682  0.501230  1
  Ru  Ru20  1  0.000000  0.895722  0.747465  1
  Ru  Ru21  1  0.000000  0.107976  0.252509  1
