# generated using pymatgen
data_Th(GaCu)6
_symmetry_space_group_name_H-M   'P 1'
_cell_length_a   6.71399703
_cell_length_b   6.71399633
_cell_length_c   6.71399705
_cell_angle_alpha   134.41186610
_cell_angle_beta   99.61939543
_cell_angle_gamma   97.64797028
_symmetry_Int_Tables_number   1
_chemical_formula_structural   Th(GaCu)6
_chemical_formula_sum   'Th1 Ga6 Cu6'
_cell_volume   199.26879265
_cell_formula_units_Z   1
loop_
 _symmetry_equiv_pos_site_id
 _symmetry_equiv_pos_as_xyz
  1  'x, y, z'
loop_
 _atom_site_type_symbol
 _atom_site_label
 _atom_site_symmetry_multiplicity
 _atom_site_fract_x
 _atom_site_fract_y
 _atom_site_fract_z
 _atom_site_occupancy
  Th  Th0  1  0.000000  0.000000  0.000000  1
  Ga  Ga1  1  0.649325  0.000000  0.649325  1
  Ga  Ga2  1  0.350675  0.000000  0.350675  1
  Ga  Ga3  1  0.648737  0.648737  0.000000  1
  Ga  Ga4  1  0.351263  0.351263  0.000000  1
  Ga  Ga5  1  0.201795  0.701795  0.500000  1
  Ga  Ga6  1  0.798205  0.298205  0.500000  1
  Cu  Cu7  1  0.000000  0.000000  0.500000  1
  Cu  Cu8  1  0.000000  0.500000  0.000000  1
  Cu  Cu9  1  0.500000  0.500000  0.500000  1
  Cu  Cu10  1  0.500000  0.000000  0.000000  1
  Cu  Cu11  1  0.233212  0.500000  0.733212  1
  Cu  Cu12  1  0.766788  0.500000  0.266788  1
