# generated using pymatgen
data_Nd9Ho11(BiPb3)4
_symmetry_space_group_name_H-M   'P 1'
_cell_length_a   8.35935637
_cell_length_b   8.38168913
_cell_length_c   15.77223232
_cell_angle_alpha   90.00822052
_cell_angle_beta   90.10931448
_cell_angle_gamma   90.08937356
_symmetry_Int_Tables_number   1
_chemical_formula_structural   Nd9Ho11(BiPb3)4
_chemical_formula_sum   'Nd9 Ho11 Bi4 Pb12'
_cell_volume   1105.08639247
_cell_formula_units_Z   1
loop_
 _symmetry_equiv_pos_site_id
 _symmetry_equiv_pos_as_xyz
  1  'x, y, z'
loop_
 _atom_site_type_symbol
 _atom_site_label
 _atom_site_symmetry_multiplicity
 _atom_site_fract_x
 _atom_site_fract_y
 _atom_site_fract_z
 _atom_site_occupancy
  Nd  Nd0  1  0.133521  0.339263  0.620754  1
  Nd  Nd1  1  0.464592  0.677083  0.600720  1
  Nd  Nd2  1  0.965668  0.823912  0.900640  1
  Nd  Nd3  1  0.534770  0.324576  0.100594  1
  Nd  Nd4  1  0.036133  0.173192  0.396941  1
  Nd  Nd5  1  0.523819  0.324626  0.399649  1
  Nd  Nd6  1  0.023910  0.175490  0.099874  1
  Nd  Nd7  1  0.476601  0.676076  0.900993  1
  Nd  Nd8  1  0.975035  0.825371  0.600530  1
  Ho  Ho9  1  0.629824  0.157518  0.625044  1
  Ho  Ho10  1  0.130229  0.343790  0.876154  1
  Ho  Ho11  1  0.369844  0.843455  0.124333  1
  Ho  Ho12  1  0.870454  0.655598  0.375820  1
  Ho  Ho13  1  0.366392  0.841747  0.374860  1
  Ho  Ho14  1  0.864070  0.658879  0.123238  1
  Ho  Ho15  1  0.635747  0.158635  0.878126  1
  Ho  Ho16  1  0.798802  0.497308  0.753059  1
  Ho  Ho17  1  0.300170  0.002194  0.748422  1
  Ho  Ho18  1  0.200522  0.503362  0.250941  1
  Ho  Ho19  1  0.701115  0.997169  0.247985  1
  Bi  Bi20  1  0.710787  0.962570  0.455861  1
  Bi  Bi21  1  0.209621  0.538377  0.043928  1
  Bi  Bi22  1  0.290296  0.038853  0.956554  1
  Bi  Bi23  1  0.783082  0.465384  0.543818  1
  Pb  Pb24  1  0.293421  0.031856  0.542739  1
  Pb  Pb25  1  0.791072  0.461966  0.956709  1
  Pb  Pb26  1  0.709143  0.961425  0.044209  1
  Pb  Pb27  1  0.211002  0.540972  0.453115  1
  Pb  Pb28  1  0.437933  0.370577  0.752417  1
  Pb  Pb29  1  0.934962  0.126943  0.751810  1
  Pb  Pb30  1  0.563770  0.629366  0.249878  1
  Pb  Pb31  1  0.063214  0.870230  0.249124  1
  Pb  Pb32  1  0.660602  0.849836  0.750119  1
  Pb  Pb33  1  0.160847  0.651558  0.752108  1
  Pb  Pb34  1  0.339503  0.150880  0.248773  1
  Pb  Pb35  1  0.839525  0.349964  0.250160  1
