# generated using pymatgen
data_Ce3(ReN3)2
_symmetry_space_group_name_H-M   'P 1'
_cell_length_a   9.92967551
_cell_length_b   9.92967558
_cell_length_c   9.92967593
_cell_angle_alpha   157.09154384
_cell_angle_beta   157.09154871
_cell_angle_gamma   32.62088604
_symmetry_Int_Tables_number   1
_chemical_formula_structural   Ce3(ReN3)2
_chemical_formula_sum   'Ce3 Re2 N6'
_cell_volume   148.22386163
_cell_formula_units_Z   1
loop_
 _symmetry_equiv_pos_site_id
 _symmetry_equiv_pos_as_xyz
  1  'x, y, z'
loop_
 _atom_site_type_symbol
 _atom_site_label
 _atom_site_symmetry_multiplicity
 _atom_site_fract_x
 _atom_site_fract_y
 _atom_site_fract_z
 _atom_site_occupancy
  Ce  Ce0  1  0.000000  0.000000  0.000000  1
  Ce  Ce1  1  0.182537  0.182537  0.000000  1
  Ce  Ce2  1  0.817463  0.817463  0.000000  1
  Re  Re3  1  0.406524  0.406524  0.000000  1
  Re  Re4  1  0.593476  0.593476  0.000000  1
  N  N5  1  0.298381  0.298381  0.000000  1
  N  N6  1  0.701619  0.701619  0.000000  1
  N  N7  1  0.587662  0.087664  0.499999  1
  N  N8  1  0.912335  0.412336  0.499999  1
  N  N9  1  0.087664  0.587662  0.499999  1
  N  N10  1  0.412336  0.912335  0.499999  1
