# generated using pymatgen
data_Er17Tm3(IrRh5)2
_symmetry_space_group_name_H-M   'P 1'
_cell_length_a   10.80417877
_cell_length_b   10.80495500
_cell_length_c   6.31751219
_cell_angle_alpha   90.00090384
_cell_angle_beta   90.00753663
_cell_angle_gamma   89.99703019
_symmetry_Int_Tables_number   1
_chemical_formula_structural   Er17Tm3(IrRh5)2
_chemical_formula_sum   'Er17 Tm3 Ir2 Rh10'
_cell_volume   737.49793425
_cell_formula_units_Z   1
loop_
 _symmetry_equiv_pos_site_id
 _symmetry_equiv_pos_as_xyz
  1  'x, y, z'
loop_
 _atom_site_type_symbol
 _atom_site_label
 _atom_site_symmetry_multiplicity
 _atom_site_fract_x
 _atom_site_fract_y
 _atom_site_fract_z
 _atom_site_occupancy
  Er  Er0  1  0.290761  0.089422  0.377753  1
  Er  Er1  1  0.290679  0.910625  0.877775  1
  Er  Er2  1  0.709158  0.087968  0.877055  1
  Er  Er3  1  0.709067  0.911999  0.376972  1
  Er  Er4  1  0.586591  0.790215  0.877498  1
  Er  Er5  1  0.586570  0.209804  0.377498  1
  Er  Er6  1  0.411306  0.790574  0.377919  1
  Er  Er7  1  0.411295  0.209411  0.877856  1
  Er  Er8  1  0.210320  0.413218  0.622013  1
  Er  Er9  1  0.210309  0.586783  0.122033  1
  Er  Er10  1  0.791094  0.411430  0.122592  1
  Er  Er11  1  0.791089  0.588567  0.622584  1
  Er  Er12  1  0.912181  0.709419  0.122530  1
  Er  Er13  1  0.912148  0.290675  0.622579  1
  Er  Er14  1  0.089634  0.708956  0.622755  1
  Er  Er15  1  0.089630  0.290949  0.122700  1
  Er  Er16  1  0.999743  0.999705  0.500016  1
  Tm  Tm17  1  0.999809  0.000294  0.999991  1
  Tm  Tm18  1  0.499983  0.499771  0.999940  1
  Tm  Tm19  1  0.499980  0.500227  0.499935  1
  Ir  Ir20  1  0.346776  0.345759  0.250008  1
  Ir  Ir21  1  0.346771  0.654233  0.750014  1
  Rh  Rh22  1  0.845647  0.153699  0.249824  1
  Rh  Rh23  1  0.845648  0.846309  0.750743  1
  Rh  Rh24  1  0.152880  0.153512  0.750216  1
  Rh  Rh25  1  0.152900  0.846472  0.249269  1
  Rh  Rh26  1  0.654753  0.346353  0.750019  1
  Rh  Rh27  1  0.654749  0.653672  0.250001  1
  Rh  Rh28  1  0.500411  0.999881  0.123192  1
  Rh  Rh29  1  0.500395  0.000095  0.623229  1
  Rh  Rh30  1  0.998848  0.499880  0.876762  1
  Rh  Rh31  1  0.998875  0.500124  0.376730  1
