# generated using pymatgen
data_La2CuNi8Ge
_symmetry_space_group_name_H-M   'P 1'
_cell_length_a   4.97458584
_cell_length_b   4.97458433
_cell_length_c   8.05606200
_cell_angle_alpha   90.00000000
_cell_angle_beta   90.00000000
_cell_angle_gamma   118.47064813
_symmetry_Int_Tables_number   1
_chemical_formula_structural   La2CuNi8Ge
_chemical_formula_sum   'La2 Cu1 Ni8 Ge1'
_cell_volume   175.24908388
_cell_formula_units_Z   1
loop_
 _symmetry_equiv_pos_site_id
 _symmetry_equiv_pos_as_xyz
  1  'x, y, z'
loop_
 _atom_site_type_symbol
 _atom_site_label
 _atom_site_symmetry_multiplicity
 _atom_site_fract_x
 _atom_site_fract_y
 _atom_site_fract_z
 _atom_site_occupancy
  La  La0  1  0.000000  0.000000  0.756214  1
  La  La1  1  0.000000  0.000000  0.243786  1
  Cu  Cu2  1  0.500000  0.500000  0.000000  1
  Ni  Ni3  1  0.669493  0.330507  0.751697  1
  Ni  Ni4  1  0.669493  0.330507  0.248303  1
  Ni  Ni5  1  0.330507  0.669493  0.751697  1
  Ni  Ni6  1  0.500000  0.000000  0.500000  1
  Ni  Ni7  1  0.000000  0.500000  0.000000  1
  Ni  Ni8  1  0.500000  0.000000  0.000000  1
  Ni  Ni9  1  0.330507  0.669493  0.248303  1
  Ni  Ni10  1  0.000000  0.500000  0.500000  1
  Ge  Ge11  1  0.500000  0.500000  0.500000  1
