# generated using pymatgen
data_Ac3Pr5Si12(PtRh)2
_symmetry_space_group_name_H-M   'P 1'
_cell_length_a   8.31363700
_cell_length_b   8.31361979
_cell_length_c   8.79216400
_cell_angle_alpha   90.00000000
_cell_angle_beta   90.00000000
_cell_angle_gamma   119.99935818
_symmetry_Int_Tables_number   1
_chemical_formula_structural   Ac3Pr5Si12(PtRh)2
_chemical_formula_sum   'Ac3 Pr5 Si12 Pt2 Rh2'
_cell_volume   526.27221006
_cell_formula_units_Z   1
loop_
 _symmetry_equiv_pos_site_id
 _symmetry_equiv_pos_as_xyz
  1  'x, y, z'
loop_
 _atom_site_type_symbol
 _atom_site_label
 _atom_site_symmetry_multiplicity
 _atom_site_fract_x
 _atom_site_fract_y
 _atom_site_fract_z
 _atom_site_occupancy
  Ac  Ac0  1  0.498471  0.501528  0.250000  1
  Ac  Ac1  1  0.003028  0.501523  0.250000  1
  Ac  Ac2  1  0.498473  0.996967  0.250000  1
  Pr  Pr3  1  0.000003  0.999998  0.750000  1
  Pr  Pr4  1  0.000010  0.999987  0.250000  1
  Pr  Pr5  1  0.497665  0.502333  0.750000  1
  Pr  Pr6  1  0.497672  0.995358  0.750000  1
  Pr  Pr7  1  0.004642  0.502328  0.750000  1
  Si  Si8  1  0.836188  0.163812  0.992427  1
  Si  Si9  1  0.836207  0.672401  0.992433  1
  Si  Si10  1  0.327596  0.163792  0.992432  1
  Si  Si11  1  0.836188  0.163812  0.507573  1
  Si  Si12  1  0.836207  0.672401  0.507567  1
  Si  Si13  1  0.327596  0.163792  0.507568  1
  Si  Si14  1  0.166360  0.833640  0.509782  1
  Si  Si15  1  0.667329  0.833675  0.509776  1
  Si  Si16  1  0.166326  0.332675  0.509776  1
  Si  Si17  1  0.166360  0.833640  0.990218  1
  Si  Si18  1  0.667329  0.833675  0.990224  1
  Si  Si19  1  0.166326  0.332675  0.990224  1
  Pt  Pt20  1  0.666657  0.333344  0.990602  1
  Pt  Pt21  1  0.666657  0.333344  0.509398  1
  Rh  Rh22  1  0.333353  0.666651  0.504200  1
  Rh  Rh23  1  0.333353  0.666651  0.995800  1
