# generated using pymatgen
data_Zr6Zn19SiNi3Ag
_symmetry_space_group_name_H-M   'P 1'
_cell_length_a   8.70062950
_cell_length_b   8.70062928
_cell_length_c   8.70062846
_cell_angle_alpha   60.31852681
_cell_angle_beta   60.31852604
_cell_angle_gamma   60.31852448
_symmetry_Int_Tables_number   1
_chemical_formula_structural   Zr6Zn19SiNi3Ag
_chemical_formula_sum   'Zr6 Zn19 Si1 Ni3 Ag1'
_cell_volume   469.08954889
_cell_formula_units_Z   1
loop_
 _symmetry_equiv_pos_site_id
 _symmetry_equiv_pos_as_xyz
  1  'x, y, z'
loop_
 _atom_site_type_symbol
 _atom_site_label
 _atom_site_symmetry_multiplicity
 _atom_site_fract_x
 _atom_site_fract_y
 _atom_site_fract_z
 _atom_site_occupancy
  Zr  Zr0  1  0.714590  0.288143  0.288143  1
  Zr  Zr1  1  0.285410  0.711857  0.711857  1
  Zr  Zr2  1  0.288143  0.714590  0.288143  1
  Zr  Zr3  1  0.711857  0.285410  0.711857  1
  Zr  Zr4  1  0.288143  0.288143  0.714590  1
  Zr  Zr5  1  0.711857  0.711857  0.285410  1
  Zn  Zn6  1  0.127051  0.127051  0.127051  1
  Zn  Zn7  1  0.872949  0.872949  0.872949  1
  Zn  Zn8  1  0.120465  0.120465  0.621120  1
  Zn  Zn9  1  0.120465  0.621120  0.120465  1
  Zn  Zn10  1  0.879535  0.879535  0.378880  1
  Zn  Zn11  1  0.879535  0.378880  0.879535  1
  Zn  Zn12  1  0.621120  0.120465  0.120465  1
  Zn  Zn13  1  0.378880  0.879535  0.879535  1
  Zn  Zn14  1  0.000000  0.500000  0.500000  1
  Zn  Zn15  1  0.500000  0.000000  0.500000  1
  Zn  Zn16  1  0.500000  0.500000  0.000000  1
  Zn  Zn17  1  0.338381  0.338381  0.338381  1
  Zn  Zn18  1  0.661619  0.661619  0.661619  1
  Zn  Zn19  1  0.333796  0.333796  0.988413  1
  Zn  Zn20  1  0.333796  0.988413  0.333796  1
  Zn  Zn21  1  0.666204  0.666204  0.011587  1
  Zn  Zn22  1  0.666204  0.011587  0.666204  1
  Zn  Zn23  1  0.988413  0.333796  0.333796  1
  Zn  Zn24  1  0.011587  0.666204  0.666204  1
  Si  Si25  1  0.500000  0.500000  0.500000  1
  Ni  Ni26  1  0.500000  0.000000  0.000000  1
  Ni  Ni27  1  0.000000  0.500000  0.000000  1
  Ni  Ni28  1  0.000000  0.000000  0.500000  1
  Ag  Ag29  1  0.000000  0.000000  0.000000  1
