# generated using pymatgen
data_Ac3(In2Pd)2
_symmetry_space_group_name_H-M   'P 1'
_cell_length_a   7.87697600
_cell_length_b   7.87697722
_cell_length_c   4.64218800
_cell_angle_alpha   90.00000000
_cell_angle_beta   90.00000000
_cell_angle_gamma   119.99999824
_symmetry_Int_Tables_number   1
_chemical_formula_structural   Ac3(In2Pd)2
_chemical_formula_sum   'Ac3 In4 Pd2'
_cell_volume   249.44366327
_cell_formula_units_Z   1
loop_
 _symmetry_equiv_pos_site_id
 _symmetry_equiv_pos_as_xyz
  1  'x, y, z'
loop_
 _atom_site_type_symbol
 _atom_site_label
 _atom_site_symmetry_multiplicity
 _atom_site_fract_x
 _atom_site_fract_y
 _atom_site_fract_z
 _atom_site_occupancy
  Ac  Ac0  1  0.318464  0.249791  0.500000  1
  Ac  Ac1  1  0.750209  0.068672  0.500000  1
  Ac  Ac2  1  0.931328  0.681536  0.500000  1
  In  In3  1  0.102188  0.424996  0.000000  1
  In  In4  1  0.575004  0.677192  0.000000  1
  In  In5  1  0.322808  0.897812  0.000000  1
  In  In6  1  0.666667  0.333333  0.000000  1
  Pd  Pd7  1  0.333333  0.666667  0.500000  1
  Pd  Pd8  1  0.000000  0.000000  0.000000  1
