# generated using pymatgen
data_Dy12AlInCo4
_symmetry_space_group_name_H-M   'P 1'
_cell_length_a   8.35015280
_cell_length_b   8.35015201
_cell_length_c   8.35015218
_cell_angle_alpha   112.17587770
_cell_angle_beta   109.70764959
_cell_angle_gamma   106.57846480
_symmetry_Int_Tables_number   1
_chemical_formula_structural   Dy12AlInCo4
_chemical_formula_sum   'Dy12 Al1 In1 Co4'
_cell_volume   447.11856587
_cell_formula_units_Z   1
loop_
 _symmetry_equiv_pos_site_id
 _symmetry_equiv_pos_as_xyz
  1  'x, y, z'
loop_
 _atom_site_type_symbol
 _atom_site_label
 _atom_site_symmetry_multiplicity
 _atom_site_fract_x
 _atom_site_fract_y
 _atom_site_fract_z
 _atom_site_occupancy
  Dy  Dy0  1  0.434169  0.233610  0.200559  1
  Dy  Dy1  1  0.565831  0.766390  0.799441  1
  Dy  Dy2  1  0.033053  0.233610  0.799441  1
  Dy  Dy3  1  0.966947  0.766390  0.200559  1
  Dy  Dy4  1  0.181343  0.284191  0.465534  1
  Dy  Dy5  1  0.818657  0.715809  0.534466  1
  Dy  Dy6  1  0.181343  0.715809  0.897151  1
  Dy  Dy7  1  0.818657  0.284191  0.102849  1
  Dy  Dy8  1  0.324051  0.636972  0.312923  1
  Dy  Dy9  1  0.675949  0.363028  0.687077  1
  Dy  Dy10  1  0.324051  0.011129  0.687077  1
  Dy  Dy11  1  0.675949  0.988871  0.312923  1
  Al  Al12  1  0.000000  0.000000  0.000000  1
  In  In13  1  0.500000  0.500000  0.000000  1
  Co  Co14  1  0.330632  0.000000  0.330632  1
  Co  Co15  1  0.669368  0.000000  0.669368  1
  Co  Co16  1  0.113794  0.613794  0.500000  1
  Co  Co17  1  0.886206  0.386206  0.500000  1
