# generated using pymatgen
data_Gd7Er3Ir4
_symmetry_space_group_name_H-M   'P 1'
_cell_length_a   6.50857063
_cell_length_b   7.22632556
_cell_length_c   8.52651300
_cell_angle_alpha   96.64573485
_cell_angle_beta   112.67430756
_cell_angle_gamma   90.15387973
_symmetry_Int_Tables_number   1
_chemical_formula_structural   Gd7Er3Ir4
_chemical_formula_sum   'Gd7 Er3 Ir4'
_cell_volume   367.05675117
_cell_formula_units_Z   1
loop_
 _symmetry_equiv_pos_site_id
 _symmetry_equiv_pos_as_xyz
  1  'x, y, z'
loop_
 _atom_site_type_symbol
 _atom_site_label
 _atom_site_symmetry_multiplicity
 _atom_site_fract_x
 _atom_site_fract_y
 _atom_site_fract_z
 _atom_site_occupancy
  Gd  Gd0  1  0.970125  0.920042  0.181996  1
  Gd  Gd1  1  0.788437  0.579688  0.817279  1
  Gd  Gd2  1  0.028399  0.081320  0.817649  1
  Gd  Gd3  1  0.212377  0.419213  0.182907  1
  Gd  Gd4  1  0.653380  0.816827  0.440214  1
  Gd  Gd5  1  0.211246  0.682318  0.559049  1
  Gd  Gd6  1  0.347382  0.184310  0.559225  1
  Er  Er7  1  0.787842  0.317455  0.439579  1
  Er  Er8  1  0.428123  0.749748  0.000056  1
  Er  Er9  1  0.572263  0.249729  0.000729  1
  Ir  Ir10  1  0.820623  0.571162  0.218533  1
  Ir  Ir11  1  0.604221  0.927660  0.784051  1
  Ir  Ir12  1  0.176377  0.427003  0.780779  1
  Ir  Ir13  1  0.399208  0.073527  0.217954  1
