# generated using pymatgen
data_Tb4IrRu6W
_symmetry_space_group_name_H-M   'P 1'
_cell_length_a   5.20506881
_cell_length_b   5.20506911
_cell_length_c   9.10528879
_cell_angle_alpha   90.06066338
_cell_angle_beta   89.93933436
_cell_angle_gamma   116.33160189
_symmetry_Int_Tables_number   1
_chemical_formula_structural   Tb4IrRu6W
_chemical_formula_sum   'Tb4 Ir1 Ru6 W1'
_cell_volume   221.09127955
_cell_formula_units_Z   1
loop_
 _symmetry_equiv_pos_site_id
 _symmetry_equiv_pos_as_xyz
  1  'x, y, z'
loop_
 _atom_site_type_symbol
 _atom_site_label
 _atom_site_symmetry_multiplicity
 _atom_site_fract_x
 _atom_site_fract_y
 _atom_site_fract_z
 _atom_site_occupancy
  Tb  Tb0  1  0.327480  0.672520  0.437026  1
  Tb  Tb1  1  0.663685  0.336315  0.568474  1
  Tb  Tb2  1  0.662478  0.337522  0.931200  1
  Tb  Tb3  1  0.325168  0.674832  0.063301  1
  Ir  Ir4  1  0.990898  0.009102  0.501536  1
  Ru  Ru5  1  0.986335  0.013665  0.998588  1
  Ru  Ru6  1  0.829291  0.646018  0.250930  1
  Ru  Ru7  1  0.353982  0.170709  0.250930  1
  Ru  Ru8  1  0.179530  0.820470  0.750241  1
  Ru  Ru9  1  0.164582  0.327632  0.749911  1
  Ru  Ru10  1  0.672368  0.835418  0.749911  1
  W  W11  1  0.844202  0.155798  0.247950  1
