# generated using pymatgen
data_Nd4Ga4Co3Ni
_symmetry_space_group_name_H-M   'P 1'
_cell_length_a   4.54905800
_cell_length_b   7.33760585
_cell_length_c   6.87049052
_cell_angle_alpha   89.32812781
_cell_angle_beta   90.00000000
_cell_angle_gamma   90.00000000
_symmetry_Int_Tables_number   1
_chemical_formula_structural   Nd4Ga4Co3Ni
_chemical_formula_sum   'Nd4 Ga4 Co3 Ni1'
_cell_volume   229.31567287
_cell_formula_units_Z   1
loop_
 _symmetry_equiv_pos_site_id
 _symmetry_equiv_pos_as_xyz
  1  'x, y, z'
loop_
 _atom_site_type_symbol
 _atom_site_label
 _atom_site_symmetry_multiplicity
 _atom_site_fract_x
 _atom_site_fract_y
 _atom_site_fract_z
 _atom_site_occupancy
  Nd  Nd0  1  0.250000  0.035296  0.811940  1
  Nd  Nd1  1  0.250000  0.528619  0.687975  1
  Nd  Nd2  1  0.750000  0.967048  0.187912  1
  Nd  Nd3  1  0.750000  0.466535  0.312830  1
  Ga  Ga4  1  0.250000  0.187920  0.387162  1
  Ga  Ga5  1  0.250000  0.687169  0.104540  1
  Ga  Ga6  1  0.750000  0.814895  0.618270  1
  Ga  Ga7  1  0.750000  0.312611  0.891583  1
  Co  Co8  1  0.250000  0.352533  0.065415  1
  Co  Co9  1  0.750000  0.151811  0.568447  1
  Co  Co10  1  0.750000  0.648265  0.935279  1
  Ni  Ni11  1  0.250000  0.847297  0.428647  1
