# generated using pymatgen
data_Nd5Tl2Ir
_symmetry_space_group_name_H-M   'P 1'
_cell_length_a   12.79208200
_cell_length_b   9.50374600
_cell_length_c   8.02279800
_cell_angle_alpha   90.00000000
_cell_angle_beta   90.00000000
_cell_angle_gamma   90.00000000
_symmetry_Int_Tables_number   1
_chemical_formula_structural   Nd5Tl2Ir
_chemical_formula_sum   'Nd20 Tl8 Ir4'
_cell_volume   975.35319949
_cell_formula_units_Z   4
loop_
 _symmetry_equiv_pos_site_id
 _symmetry_equiv_pos_as_xyz
  1  'x, y, z'
loop_
 _atom_site_type_symbol
 _atom_site_label
 _atom_site_symmetry_multiplicity
 _atom_site_fract_x
 _atom_site_fract_y
 _atom_site_fract_z
 _atom_site_occupancy
  Nd  Nd0  1  0.999487  0.249999  0.053638  1
  Nd  Nd1  1  0.310514  0.750000  0.118700  1
  Nd  Nd2  1  0.279974  0.249999  0.155453  1
  Nd  Nd3  1  0.579514  0.534435  0.174048  1
  Nd  Nd4  1  0.579514  0.965564  0.174048  1
  Nd  Nd5  1  0.079514  0.534435  0.325951  1
  Nd  Nd6  1  0.079514  0.965564  0.325951  1
  Nd  Nd7  1  0.779975  0.249999  0.344547  1
  Nd  Nd8  1  0.810514  0.750000  0.381301  1
  Nd  Nd9  1  0.499488  0.249999  0.446364  1
  Nd  Nd10  1  0.500512  0.750000  0.553637  1
  Nd  Nd11  1  0.189486  0.249999  0.618699  1
  Nd  Nd12  1  0.220025  0.750000  0.655454  1
  Nd  Nd13  1  0.920487  0.034435  0.674050  1
  Nd  Nd14  1  0.920487  0.465565  0.674050  1
  Nd  Nd15  1  0.420486  0.034435  0.825952  1
  Nd  Nd16  1  0.420486  0.465565  0.825952  1
  Nd  Nd17  1  0.720025  0.750000  0.844548  1
  Nd  Nd18  1  0.689486  0.249999  0.881301  1
  Nd  Nd19  1  0.000512  0.750000  0.946364  1
  Tl  Tl20  1  0.834236  0.506352  0.074418  1
  Tl  Tl21  1  0.834236  0.993648  0.074418  1
  Tl  Tl22  1  0.334236  0.506352  0.425582  1
  Tl  Tl23  1  0.334236  0.993648  0.425582  1
  Tl  Tl24  1  0.665765  0.006351  0.574418  1
  Tl  Tl25  1  0.665765  0.493648  0.574418  1
  Tl  Tl26  1  0.165765  0.006351  0.925582  1
  Tl  Tl27  1  0.165765  0.493648  0.925582  1
  Ir  Ir28  1  0.501149  0.249999  0.074499  1
  Ir  Ir29  1  0.001149  0.249999  0.425501  1
  Ir  Ir30  1  0.998851  0.750000  0.574498  1
  Ir  Ir31  1  0.498851  0.750000  0.925502  1
