# generated using pymatgen
data_Lu4Sc3AlPt4
_symmetry_space_group_name_H-M   'P 1'
_cell_length_a   4.47632800
_cell_length_b   6.90750637
_cell_length_c   8.20983357
_cell_angle_alpha   87.32250263
_cell_angle_beta   90.00000000
_cell_angle_gamma   90.00000000
_symmetry_Int_Tables_number   1
_chemical_formula_structural   Lu4Sc3AlPt4
_chemical_formula_sum   'Lu4 Sc3 Al1 Pt4'
_cell_volume   253.57309422
_cell_formula_units_Z   1
loop_
 _symmetry_equiv_pos_site_id
 _symmetry_equiv_pos_as_xyz
  1  'x, y, z'
loop_
 _atom_site_type_symbol
 _atom_site_label
 _atom_site_symmetry_multiplicity
 _atom_site_fract_x
 _atom_site_fract_y
 _atom_site_fract_z
 _atom_site_occupancy
  Lu  Lu0  1  0.250000  0.039204  0.671095  1
  Lu  Lu1  1  0.250000  0.519549  0.816041  1
  Lu  Lu2  1  0.750000  0.991347  0.341857  1
  Lu  Lu3  1  0.750000  0.466818  0.182028  1
  Sc  Sc4  1  0.250000  0.134232  0.070730  1
  Sc  Sc5  1  0.250000  0.644017  0.435101  1
  Sc  Sc6  1  0.750000  0.858744  0.929251  1
  Al  Al7  1  0.750000  0.361716  0.567454  1
  Pt  Pt8  1  0.250000  0.262732  0.383670  1
  Pt  Pt9  1  0.250000  0.739960  0.102182  1
  Pt  Pt10  1  0.750000  0.734688  0.616313  1
  Pt  Pt11  1  0.750000  0.246996  0.884279  1
