# generated using pymatgen
data_Dy3Mg3Hg2Ge
_symmetry_space_group_name_H-M   'P 1'
_cell_length_a   7.50412000
_cell_length_b   7.50411952
_cell_length_c   4.37204300
_cell_angle_alpha   90.00000000
_cell_angle_beta   90.00000000
_cell_angle_gamma   120.00000211
_symmetry_Int_Tables_number   1
_chemical_formula_structural   Dy3Mg3Hg2Ge
_chemical_formula_sum   'Dy3 Mg3 Hg2 Ge1'
_cell_volume   213.21343161
_cell_formula_units_Z   1
loop_
 _symmetry_equiv_pos_site_id
 _symmetry_equiv_pos_as_xyz
  1  'x, y, z'
loop_
 _atom_site_type_symbol
 _atom_site_label
 _atom_site_symmetry_multiplicity
 _atom_site_fract_x
 _atom_site_fract_y
 _atom_site_fract_z
 _atom_site_occupancy
  Dy  Dy0  1  0.578855  0.006724  0.000000  1
  Dy  Dy1  1  0.993276  0.572129  0.000000  1
  Dy  Dy2  1  0.427871  0.421145  0.000000  1
  Mg  Mg3  1  0.249115  0.000847  0.500000  1
  Mg  Mg4  1  0.999153  0.248268  0.500000  1
  Mg  Mg5  1  0.751732  0.750885  0.500000  1
  Hg  Hg6  1  0.333333  0.666667  0.500000  1
  Hg  Hg7  1  0.000000  0.000000  0.000000  1
  Ge  Ge8  1  0.666667  0.333333  0.500000  1
