# generated using pymatgen
data_Ho16MgIn3Ir3Rh
_symmetry_space_group_name_H-M   'P 1'
_cell_length_a   9.63130256
_cell_length_b   9.63130287
_cell_length_c   9.61510976
_cell_angle_alpha   59.96337705
_cell_angle_beta   59.96337462
_cell_angle_gamma   60.02831563
_symmetry_Int_Tables_number   1
_chemical_formula_structural   Ho16MgIn3Ir3Rh
_chemical_formula_sum   'Ho16 Mg1 In3 Ir3 Rh1'
_cell_volume   630.46564472
_cell_formula_units_Z   1
loop_
 _symmetry_equiv_pos_site_id
 _symmetry_equiv_pos_as_xyz
  1  'x, y, z'
loop_
 _atom_site_type_symbol
 _atom_site_label
 _atom_site_symmetry_multiplicity
 _atom_site_fract_x
 _atom_site_fract_y
 _atom_site_fract_z
 _atom_site_occupancy
  Ho  Ho0  1  0.189380  0.189380  0.810028  1
  Ho  Ho1  1  0.599608  0.599608  0.203420  1
  Ho  Ho2  1  0.440861  0.058957  0.440283  1
  Ho  Ho3  1  0.440369  0.440369  0.059501  1
  Ho  Ho4  1  0.814246  0.187175  0.812655  1
  Ho  Ho5  1  0.190222  0.810092  0.190108  1
  Ho  Ho6  1  0.436822  0.061664  0.062260  1
  Ho  Ho7  1  0.187175  0.814246  0.812655  1
  Ho  Ho8  1  0.061664  0.436822  0.062260  1
  Ho  Ho9  1  0.812674  0.812674  0.187832  1
  Ho  Ho10  1  0.202720  0.600086  0.599591  1
  Ho  Ho11  1  0.058957  0.440861  0.440283  1
  Ho  Ho12  1  0.061716  0.061716  0.436777  1
  Ho  Ho13  1  0.810092  0.190222  0.190108  1
  Ho  Ho14  1  0.600086  0.202720  0.599591  1
  Ho  Ho15  1  0.598457  0.598457  0.597497  1
  Mg  Mg16  1  0.827552  0.827552  0.827461  1
  In  In17  1  0.832435  0.832435  0.502163  1
  In  In18  1  0.502285  0.832364  0.832235  1
  In  In19  1  0.832364  0.502285  0.832235  1
  Ir  Ir20  1  0.391243  0.825379  0.391516  1
  Ir  Ir21  1  0.392373  0.392373  0.392723  1
  Ir  Ir22  1  0.825379  0.391243  0.391516  1
  Rh  Rh23  1  0.391322  0.391322  0.825305  1
