# generated using pymatgen
data_Ca6LaCeP6
_symmetry_space_group_name_H-M   'P 1'
_cell_length_a   7.63707762
_cell_length_b   7.57467757
_cell_length_c   7.66282400
_cell_angle_alpha   109.42389590
_cell_angle_beta   109.81112541
_cell_angle_gamma   109.30587302
_symmetry_Int_Tables_number   1
_chemical_formula_structural   Ca6LaCeP6
_chemical_formula_sum   'Ca6 La1 Ce1 P6'
_cell_volume   340.69641570
_cell_formula_units_Z   1
loop_
 _symmetry_equiv_pos_site_id
 _symmetry_equiv_pos_as_xyz
  1  'x, y, z'
loop_
 _atom_site_type_symbol
 _atom_site_label
 _atom_site_symmetry_multiplicity
 _atom_site_fract_x
 _atom_site_fract_y
 _atom_site_fract_z
 _atom_site_occupancy
  Ca  Ca0  1  0.626475  0.630829  0.632619  1
  Ca  Ca1  1  0.866131  0.498309  0.993932  1
  Ca  Ca2  1  0.504984  0.004562  0.872302  1
  Ca  Ca3  1  0.502047  0.995834  0.369093  1
  Ca  Ca4  1  0.368738  0.503798  0.996004  1
  Ca  Ca5  1  0.996032  0.368166  0.502673  1
  La  La6  1  0.139101  0.139079  0.137521  1
  Ce  Ce7  1  0.999741  0.860449  0.498288  1
  P  P8  1  0.754713  0.875063  0.129324  1
  P  P9  1  0.370034  0.243200  0.621056  1
  P  P10  1  0.244335  0.624863  0.374264  1
  P  P11  1  0.877198  0.122191  0.748284  1
  P  P12  1  0.624393  0.379686  0.252304  1
  P  P13  1  0.126077  0.753972  0.872339  1
