# generated using pymatgen
data_Y3HoCoAg
_symmetry_space_group_name_H-M   'P 1'
_cell_length_a   9.43759696
_cell_length_b   9.43759684
_cell_length_c   9.43759800
_cell_angle_alpha   60.00000295
_cell_angle_beta   60.00000338
_cell_angle_gamma   60.00000587
_symmetry_Int_Tables_number   1
_chemical_formula_structural   Y3HoCoAg
_chemical_formula_sum   'Y12 Ho4 Co4 Ag4'
_cell_volume   594.38708485
_cell_formula_units_Z   4
loop_
 _symmetry_equiv_pos_site_id
 _symmetry_equiv_pos_as_xyz
  1  'x, y, z'
loop_
 _atom_site_type_symbol
 _atom_site_label
 _atom_site_symmetry_multiplicity
 _atom_site_fract_x
 _atom_site_fract_y
 _atom_site_fract_z
 _atom_site_occupancy
  Y  Y0  1  0.811469  0.188531  0.188531  1
  Y  Y1  1  0.188531  0.811469  0.811469  1
  Y  Y2  1  0.188531  0.811469  0.188531  1
  Y  Y3  1  0.811469  0.188531  0.811469  1
  Y  Y4  1  0.188531  0.188531  0.811469  1
  Y  Y5  1  0.811469  0.811469  0.188531  1
  Y  Y6  1  0.937944  0.562056  0.562056  1
  Y  Y7  1  0.562056  0.937944  0.937944  1
  Y  Y8  1  0.562056  0.937944  0.562056  1
  Y  Y9  1  0.937944  0.562056  0.937944  1
  Y  Y10  1  0.562056  0.562056  0.937944  1
  Y  Y11  1  0.937944  0.937944  0.562056  1
  Ho  Ho12  1  0.347407  0.347407  0.347407  1
  Ho  Ho13  1  0.347407  0.347407  0.957779  1
  Ho  Ho14  1  0.347407  0.957779  0.347407  1
  Ho  Ho15  1  0.957779  0.347407  0.347407  1
  Co  Co16  1  0.142278  0.142278  0.142278  1
  Co  Co17  1  0.142278  0.142278  0.573167  1
  Co  Co18  1  0.142278  0.573167  0.142278  1
  Co  Co19  1  0.573167  0.142278  0.142278  1
  Ag  Ag20  1  0.580929  0.580929  0.580929  1
  Ag  Ag21  1  0.580929  0.580929  0.257215  1
  Ag  Ag22  1  0.580929  0.257215  0.580929  1
  Ag  Ag23  1  0.257215  0.580929  0.580929  1
