# generated using pymatgen
data_Ce5ReWC7
_symmetry_space_group_name_H-M   'P 1'
_cell_length_a   8.61503885
_cell_length_b   8.61503762
_cell_length_c   3.47798000
_cell_angle_alpha   90.00000000
_cell_angle_beta   90.00000000
_cell_angle_gamma   125.37043615
_symmetry_Int_Tables_number   1
_chemical_formula_structural   Ce5ReWC7
_chemical_formula_sum   'Ce5 Re1 W1 C7'
_cell_volume   210.48752760
_cell_formula_units_Z   1
loop_
 _symmetry_equiv_pos_site_id
 _symmetry_equiv_pos_as_xyz
  1  'x, y, z'
loop_
 _atom_site_type_symbol
 _atom_site_label
 _atom_site_symmetry_multiplicity
 _atom_site_fract_x
 _atom_site_fract_y
 _atom_site_fract_z
 _atom_site_occupancy
  Ce  Ce0  1  0.498528  0.501472  0.000000  1
  Ce  Ce1  1  0.059139  0.320601  0.500000  1
  Ce  Ce2  1  0.942808  0.680857  0.500000  1
  Ce  Ce3  1  0.679399  0.940861  0.500000  1
  Ce  Ce4  1  0.319143  0.057192  0.500000  1
  Re  Re5  1  0.289839  0.710161  0.000000  1
  W  W6  1  0.711927  0.288073  0.000000  1
  C  C7  1  0.628253  0.371747  0.500000  1
  C  C8  1  0.368191  0.631809  0.500000  1
  C  C9  1  0.000236  0.999764  0.000000  1
  C  C10  1  0.174165  0.173290  0.000000  1
  C  C11  1  0.826710  0.825835  0.000000  1
  C  C12  1  0.002005  0.500343  0.000000  1
  C  C13  1  0.499657  0.997995  0.000000  1
