# generated using pymatgen
data_CaSe27
_symmetry_space_group_name_H-M   'P 1'
_cell_length_a   15.29320201
_cell_length_b   15.24203976
_cell_length_c   15.21581672
_cell_angle_alpha   118.47948005
_cell_angle_beta   118.87292619
_cell_angle_gamma   119.07267088
_symmetry_Int_Tables_number   1
_chemical_formula_structural   CaSe27
_chemical_formula_sum   'Ca1 Se27'
_cell_volume   1000.50224071
_cell_formula_units_Z   1
loop_
 _symmetry_equiv_pos_site_id
 _symmetry_equiv_pos_as_xyz
  1  'x, y, z'
loop_
 _atom_site_type_symbol
 _atom_site_label
 _atom_site_symmetry_multiplicity
 _atom_site_fract_x
 _atom_site_fract_y
 _atom_site_fract_z
 _atom_site_occupancy
  Ca  Ca0  1  0.464437  0.444391  0.442843  1
  Se  Se1  1  0.008652  0.630776  0.631261  1
  Se  Se2  1  0.630005  0.630120  0.008869  1
  Se  Se3  1  0.628555  0.008229  0.629311  1
  Se  Se4  1  0.265490  0.894606  0.752292  1
  Se  Se5  1  0.893454  0.751768  0.266220  1
  Se  Se6  1  0.752755  0.266681  0.894727  1
  Se  Se7  1  0.892574  0.265315  0.750682  1
  Se  Se8  1  0.266123  0.752483  0.894965  1
  Se  Se9  1  0.752477  0.894045  0.265664  1
  Se  Se10  1  0.069732  0.611303  0.410553  1
  Se  Se11  1  0.609937  0.411030  0.072496  1
  Se  Se12  1  0.410165  0.069845  0.610311  1
  Se  Se13  1  0.609166  0.071566  0.410150  1
  Se  Se14  1  0.070073  0.410771  0.611929  1
  Se  Se15  1  0.409563  0.608990  0.069000  1
  Se  Se16  1  0.368403  0.751108  0.605683  1
  Se  Se17  1  0.753289  0.607888  0.374156  1
  Se  Se18  1  0.603650  0.367807  0.748602  1
  Se  Se19  1  0.752763  0.373018  0.607002  1
  Se  Se20  1  0.368596  0.605876  0.750952  1
  Se  Se21  1  0.603537  0.748428  0.367843  1
  Se  Se22  1  0.165271  0.424234  0.423926  1
  Se  Se23  1  0.425623  0.424887  0.170948  1
  Se  Se24  1  0.425181  0.169624  0.424249  1
  Se  Se25  1  0.031087  0.910099  0.910303  1
  Se  Se26  1  0.908105  0.925223  0.016266  1
  Se  Se27  1  0.908439  0.016989  0.925899  1
