# generated using pymatgen
data_Ti12Al5Cu3O4
_symmetry_space_group_name_H-M   'P 1'
_cell_length_a   6.86008650
_cell_length_b   6.86008576
_cell_length_c   6.86008627
_cell_angle_alpha   90.15045232
_cell_angle_beta   90.15045156
_cell_angle_gamma   90.15045592
_symmetry_Int_Tables_number   1
_chemical_formula_structural   Ti12Al5Cu3O4
_chemical_formula_sum   'Ti12 Al5 Cu3 O4'
_cell_volume   322.83767719
_cell_formula_units_Z   1
loop_
 _symmetry_equiv_pos_site_id
 _symmetry_equiv_pos_as_xyz
  1  'x, y, z'
loop_
 _atom_site_type_symbol
 _atom_site_label
 _atom_site_symmetry_multiplicity
 _atom_site_fract_x
 _atom_site_fract_y
 _atom_site_fract_z
 _atom_site_occupancy
  Ti  Ti0  1  0.789520  0.959318  0.375067  1
  Ti  Ti1  1  0.710461  0.040955  0.873333  1
  Ti  Ti2  1  0.210717  0.459105  0.125896  1
  Ti  Ti3  1  0.289733  0.541591  0.625157  1
  Ti  Ti4  1  0.959318  0.375067  0.789520  1
  Ti  Ti5  1  0.040955  0.873333  0.710461  1
  Ti  Ti6  1  0.459105  0.125896  0.210717  1
  Ti  Ti7  1  0.541591  0.625157  0.289733  1
  Ti  Ti8  1  0.375067  0.789520  0.959318  1
  Ti  Ti9  1  0.873333  0.710461  0.040955  1
  Ti  Ti10  1  0.125896  0.210717  0.459105  1
  Ti  Ti11  1  0.625157  0.289733  0.541591  1
  Al  Al12  1  0.677798  0.677798  0.677798  1
  Al  Al13  1  0.571195  0.417899  0.934042  1
  Al  Al14  1  0.417899  0.934042  0.571195  1
  Al  Al15  1  0.934042  0.571195  0.417899  1
  Al  Al16  1  0.074098  0.074098  0.074098  1
  Cu  Cu17  1  0.178146  0.822807  0.319784  1
  Cu  Cu18  1  0.319784  0.178146  0.822807  1
  Cu  Cu19  1  0.822807  0.319784  0.178146  1
  O  O20  1  0.879015  0.125256  0.623315  1
  O  O21  1  0.623315  0.879015  0.125256  1
  O  O22  1  0.125256  0.623315  0.879015  1
  O  O23  1  0.375791  0.375791  0.375791  1
