# generated using pymatgen
data_Dy4Al18ReNi5
_symmetry_space_group_name_H-M   'P 1'
_cell_length_a   7.44781652
_cell_length_b   7.44745808
_cell_length_c   9.25136500
_cell_angle_alpha   89.74429582
_cell_angle_beta   89.74890087
_cell_angle_gamma   119.88035508
_symmetry_Int_Tables_number   1
_chemical_formula_structural   Dy4Al18ReNi5
_chemical_formula_sum   'Dy4 Al18 Re1 Ni5'
_cell_volume   444.91688499
_cell_formula_units_Z   1
loop_
 _symmetry_equiv_pos_site_id
 _symmetry_equiv_pos_as_xyz
  1  'x, y, z'
loop_
 _atom_site_type_symbol
 _atom_site_label
 _atom_site_symmetry_multiplicity
 _atom_site_fract_x
 _atom_site_fract_y
 _atom_site_fract_z
 _atom_site_occupancy
  Dy  Dy0  1  0.988906  0.662827  0.251968  1
  Dy  Dy1  1  0.000766  0.328942  0.748647  1
  Dy  Dy2  1  0.671027  0.999158  0.251331  1
  Dy  Dy3  1  0.337158  0.011052  0.748010  1
  Al  Al4  1  0.120838  0.121137  0.248939  1
  Al  Al5  1  0.878983  0.879295  0.751163  1
  Al  Al6  1  0.999114  0.335462  0.072413  1
  Al  Al7  1  0.004865  0.669844  0.926003  1
  Al  Al8  1  0.005312  0.667311  0.574258  1
  Al  Al9  1  0.332721  0.994687  0.425694  1
  Al  Al10  1  0.007338  0.333713  0.426873  1
  Al  Al11  1  0.666254  0.992629  0.573059  1
  Al  Al12  1  0.664524  0.000833  0.927599  1
  Al  Al13  1  0.330154  0.995090  0.074020  1
  Al  Al14  1  0.332796  0.331085  0.548841  1
  Al  Al15  1  0.668905  0.667188  0.451109  1
  Al  Al16  1  0.667135  0.669671  0.050564  1
  Al  Al17  1  0.330282  0.332833  0.949450  1
  Al  Al18  1  0.338411  0.555122  0.248923  1
  Al  Al19  1  0.661606  0.456352  0.753694  1
  Al  Al20  1  0.543645  0.338356  0.246334  1
  Al  Al21  1  0.444796  0.661530  0.751024  1
  Re  Re22  1  0.674328  0.325755  0.500068  1
  Ni  Ni23  1  0.671146  0.328783  0.999994  1
  Ni  Ni24  1  0.327626  0.672222  0.000028  1
  Ni  Ni25  1  0.330652  0.669332  0.499922  1
  Ni  Ni26  1  0.998746  0.001400  0.000236  1
  Ni  Ni27  1  0.001966  0.998388  0.499834  1
