# generated using pymatgen
data_YEr7Re(B8Ir)3
_symmetry_space_group_name_H-M   'P 1'
_cell_length_a   3.64290800
_cell_length_b   9.14573517
_cell_length_c   11.48139300
_cell_angle_alpha   90.12837747
_cell_angle_beta   90.00000000
_cell_angle_gamma   90.00000000
_symmetry_Int_Tables_number   1
_chemical_formula_structural   YEr7Re(B8Ir)3
_chemical_formula_sum   'Y1 Er7 Re1 B24 Ir3'
_cell_volume   382.52543489
_cell_formula_units_Z   1
loop_
 _symmetry_equiv_pos_site_id
 _symmetry_equiv_pos_as_xyz
  1  'x, y, z'
loop_
 _atom_site_type_symbol
 _atom_site_label
 _atom_site_symmetry_multiplicity
 _atom_site_fract_x
 _atom_site_fract_y
 _atom_site_fract_z
 _atom_site_occupancy
  Y  Y0  1  0.000000  0.320601  0.413525  1
  Er  Er1  1  0.000000  0.683481  0.590769  1
  Er  Er2  1  0.000000  0.820515  0.082549  1
  Er  Er3  1  0.000000  0.175901  0.912069  1
  Er  Er4  1  0.000000  0.943583  0.373161  1
  Er  Er5  1  0.000000  0.053650  0.626404  1
  Er  Er6  1  0.000000  0.443568  0.125950  1
  Er  Er7  1  0.000000  0.557295  0.875106  1
  Re  Re8  1  0.000000  0.862804  0.821609  1
  B  B9  1  0.500000  0.553973  0.434398  1
  B  B10  1  0.500000  0.448174  0.566979  1
  B  B11  1  0.500000  0.053109  0.066027  1
  B  B12  1  0.500000  0.947007  0.933470  1
  B  B13  1  0.500000  0.750377  0.420807  1
  B  B14  1  0.500000  0.250327  0.579556  1
  B  B15  1  0.500000  0.248868  0.078654  1
  B  B16  1  0.500000  0.752022  0.920172  1
  B  B17  1  0.500000  0.792265  0.265105  1
  B  B18  1  0.500000  0.207655  0.733576  1
  B  B19  1  0.500000  0.292721  0.234388  1
  B  B20  1  0.500000  0.708024  0.766232  1
  B  B21  1  0.500000  0.631218  0.184395  1
  B  B22  1  0.500000  0.368232  0.815805  1
  B  B23  1  0.500000  0.131576  0.315143  1
  B  B24  1  0.500000  0.868814  0.685489  1
  B  B25  1  0.500000  0.981123  0.212670  1
  B  B26  1  0.500000  0.017658  0.786622  1
  B  B27  1  0.500000  0.481482  0.287026  1
  B  B28  1  0.500000  0.518574  0.714287  1
  B  B29  1  0.500000  0.608912  0.031309  1
  B  B30  1  0.500000  0.388737  0.969982  1
  B  B31  1  0.500000  0.108850  0.469390  1
  B  B32  1  0.500000  0.891283  0.528873  1
  Ir  Ir33  1  0.000000  0.637827  0.322394  1
  Ir  Ir34  1  0.000000  0.362915  0.678336  1
  Ir  Ir35  1  0.000000  0.136878  0.177774  1
