# generated using pymatgen
data_U2Fe6B
_symmetry_space_group_name_H-M   'P 1'
_cell_length_a   5.39801911
_cell_length_b   5.39801764
_cell_length_c   5.39801900
_cell_angle_alpha   59.99999778
_cell_angle_beta   60.00000680
_cell_angle_gamma   60.00000613
_symmetry_Int_Tables_number   1
_chemical_formula_structural   U2Fe6B
_chemical_formula_sum   'U2 Fe6 B1'
_cell_volume   111.22135025
_cell_formula_units_Z   1
loop_
 _symmetry_equiv_pos_site_id
 _symmetry_equiv_pos_as_xyz
  1  'x, y, z'
loop_
 _atom_site_type_symbol
 _atom_site_label
 _atom_site_symmetry_multiplicity
 _atom_site_fract_x
 _atom_site_fract_y
 _atom_site_fract_z
 _atom_site_occupancy
  U  U0  1  0.250000  0.250000  0.250000  1
  U  U1  1  0.750000  0.750000  0.750000  1
  Fe  Fe2  1  0.241565  0.758434  0.241565  1
  Fe  Fe3  1  0.758434  0.758434  0.241565  1
  Fe  Fe4  1  0.758434  0.241565  0.241565  1
  Fe  Fe5  1  0.758434  0.241565  0.758434  1
  Fe  Fe6  1  0.241565  0.241565  0.758434  1
  Fe  Fe7  1  0.241565  0.758434  0.758434  1
  B  B8  1  0.499999  0.499999  0.499999  1
