# generated using pymatgen
data_Sr2IrPd3(PbO7)2
_symmetry_space_group_name_H-M   'P 1'
_cell_length_a   7.31998870
_cell_length_b   7.41098038
_cell_length_c   7.41098072
_cell_angle_alpha   59.90507857
_cell_angle_beta   60.06345885
_cell_angle_gamma   60.06345551
_symmetry_Int_Tables_number   1
_chemical_formula_structural   Sr2IrPd3(PbO7)2
_chemical_formula_sum   'Sr2 Ir1 Pd3 Pb2 O14'
_cell_volume   284.34758072
_cell_formula_units_Z   1
loop_
 _symmetry_equiv_pos_site_id
 _symmetry_equiv_pos_as_xyz
  1  'x, y, z'
loop_
 _atom_site_type_symbol
 _atom_site_label
 _atom_site_symmetry_multiplicity
 _atom_site_fract_x
 _atom_site_fract_y
 _atom_site_fract_z
 _atom_site_occupancy
  Sr  Sr0  1  0.625000  0.125000  0.125000  1
  Sr  Sr1  1  0.125000  0.125000  0.125000  1
  Ir  Ir2  1  0.125000  0.625000  0.625000  1
  Pd  Pd3  1  0.625000  0.125000  0.625000  1
  Pd  Pd4  1  0.625000  0.625000  0.125000  1
  Pd  Pd5  1  0.625000  0.625000  0.625000  1
  Pb  Pb6  1  0.125000  0.625000  0.125000  1
  Pb  Pb7  1  0.125000  0.125000  0.625000  1
  O  O8  1  0.720209  0.696789  0.292542  1
  O  O9  1  0.289478  0.305108  0.691245  1
  O  O10  1  0.720209  0.292542  0.696789  1
  O  O11  1  0.289478  0.691245  0.305108  1
  O  O12  1  0.293665  0.703349  0.703349  1
  O  O13  1  0.708794  0.292774  0.292774  1
  O  O14  1  0.529791  0.553211  0.957458  1
  O  O15  1  0.960522  0.944892  0.558755  1
  O  O16  1  0.529791  0.957458  0.553211  1
  O  O17  1  0.960522  0.558755  0.944892  1
  O  O18  1  0.956335  0.546651  0.546651  1
  O  O19  1  0.541206  0.957226  0.957226  1
  O  O20  1  0.226174  0.271172  0.271172  1
  O  O21  1  0.023826  0.978828  0.978828  1
