# generated using pymatgen
data_Sr4Ga14NiAg
_symmetry_space_group_name_H-M   'P 1'
_cell_length_a   6.19271894
_cell_length_b   6.19325958
_cell_length_c   11.87842790
_cell_angle_alpha   74.88878634
_cell_angle_beta   74.89012871
_cell_angle_gamma   90.00000066
_symmetry_Int_Tables_number   1
_chemical_formula_structural   Sr4Ga14NiAg
_chemical_formula_sum   'Sr4 Ga14 Ni1 Ag1'
_cell_volume   423.48595835
_cell_formula_units_Z   1
loop_
 _symmetry_equiv_pos_site_id
 _symmetry_equiv_pos_as_xyz
  1  'x, y, z'
loop_
 _atom_site_type_symbol
 _atom_site_label
 _atom_site_symmetry_multiplicity
 _atom_site_fract_x
 _atom_site_fract_y
 _atom_site_fract_z
 _atom_site_occupancy
  Sr  Sr0  1  0.001650  0.001650  0.996701  1
  Sr  Sr1  1  0.501762  0.501762  0.996475  1
  Sr  Sr2  1  0.749591  0.249591  0.500819  1
  Sr  Sr3  1  0.245525  0.745525  0.508952  1
  Ga  Ga4  1  0.192836  0.192836  0.614329  1
  Ga  Ga5  1  0.807955  0.807955  0.384091  1
  Ga  Ga6  1  0.621978  0.117634  0.246102  1
  Ga  Ga7  1  0.131918  0.636263  0.246102  1
  Ga  Ga8  1  0.621978  0.636263  0.246102  1
  Ga  Ga9  1  0.131918  0.117634  0.246102  1
  Ga  Ga10  1  0.859381  0.355770  0.758083  1
  Ga  Ga11  1  0.382536  0.886147  0.758083  1
  Ga  Ga12  1  0.859381  0.886147  0.758083  1
  Ga  Ga13  1  0.382536  0.355770  0.758083  1
  Ga  Ga14  1  0.690707  0.690707  0.618585  1
  Ga  Ga15  1  0.060768  0.560768  0.878464  1
  Ga  Ga16  1  0.455393  0.955393  0.089212  1
  Ga  Ga17  1  0.943248  0.443248  0.113504  1
  Ni  Ni18  1  0.563739  0.063739  0.872524  1
  Ag  Ag19  1  0.310029  0.310029  0.379942  1
