# generated using pymatgen
data_Sr6Sc2RuO12
_symmetry_space_group_name_H-M   'P 1'
_cell_length_a   9.02230769
_cell_length_b   9.02230737
_cell_length_c   6.99953618
_cell_angle_alpha   67.31585972
_cell_angle_beta   67.31586347
_cell_angle_gamma   36.87189596
_symmetry_Int_Tables_number   1
_chemical_formula_structural   Sr6Sc2RuO12
_chemical_formula_sum   'Sr6 Sc2 Ru1 O12'
_cell_volume   312.35845519
_cell_formula_units_Z   1
loop_
 _symmetry_equiv_pos_site_id
 _symmetry_equiv_pos_as_xyz
  1  'x, y, z'
loop_
 _atom_site_type_symbol
 _atom_site_label
 _atom_site_symmetry_multiplicity
 _atom_site_fract_x
 _atom_site_fract_y
 _atom_site_fract_z
 _atom_site_occupancy
  Sr  Sr0  1  0.876484  0.876484  0.711731  1
  Sr  Sr1  1  0.219703  0.219703  0.710080  1
  Sr  Sr2  1  0.547936  0.547936  0.706481  1
  Sr  Sr3  1  0.452064  0.452064  0.293519  1
  Sr  Sr4  1  0.780297  0.780297  0.289920  1
  Sr  Sr5  1  0.123516  0.123516  0.288269  1
  Sc  Sc6  1  0.667351  0.667351  0.998774  1
  Sc  Sc7  1  0.332649  0.332649  0.001226  1
  Ru  Ru8  1  0.000000  0.000000  0.000000  1
  O  O9  1  0.948258  0.948258  0.312600  1
  O  O10  1  0.281469  0.281469  0.332719  1
  O  O11  1  0.607010  0.607010  0.332251  1
  O  O12  1  0.392990  0.392990  0.667749  1
  O  O13  1  0.718531  0.718531  0.667281  1
  O  O14  1  0.051742  0.051742  0.687400  1
  O  O15  1  0.500000  0.000000  0.000000  1
  O  O16  1  0.840075  0.318118  0.000383  1
  O  O17  1  0.159925  0.681882  0.999617  1
  O  O18  1  0.000000  0.500000  0.000000  1
  O  O19  1  0.318118  0.840075  0.000383  1
  O  O20  1  0.681882  0.159925  0.999617  1
