# generated using pymatgen
data_Er3Th(AlRu2)2
_symmetry_space_group_name_H-M   'P 1'
_cell_length_a   5.66344733
_cell_length_b   5.66344769
_cell_length_c   7.02130784
_cell_angle_alpha   88.80716360
_cell_angle_beta   91.19284158
_cell_angle_gamma   116.05010588
_symmetry_Int_Tables_number   1
_chemical_formula_structural   Er3Th(AlRu2)2
_chemical_formula_sum   'Er3 Th1 Al2 Ru4'
_cell_volume   202.26637893
_cell_formula_units_Z   1
loop_
 _symmetry_equiv_pos_site_id
 _symmetry_equiv_pos_as_xyz
  1  'x, y, z'
loop_
 _atom_site_type_symbol
 _atom_site_label
 _atom_site_symmetry_multiplicity
 _atom_site_fract_x
 _atom_site_fract_y
 _atom_site_fract_z
 _atom_site_occupancy
  Er  Er0  1  0.340748  0.659252  0.086087  1
  Er  Er1  1  0.658261  0.341739  0.910471  1
  Er  Er2  1  0.163689  0.836311  0.598929  1
  Th  Th3  1  0.834034  0.165966  0.409285  1
  Al  Al4  1  0.004380  0.995620  0.999168  1
  Al  Al5  1  0.496636  0.503364  0.502059  1
  Ru  Ru6  1  0.851889  0.644423  0.253352  1
  Ru  Ru7  1  0.654216  0.859429  0.743648  1
  Ru  Ru8  1  0.140571  0.345784  0.743648  1
  Ru  Ru9  1  0.355577  0.148111  0.253352  1
