# generated using pymatgen
data_La5Sn15Ir3Rh5
_symmetry_space_group_name_H-M   'P 1'
_cell_length_a   4.57429900
_cell_length_b   7.35068044
_cell_length_c   18.87753223
_cell_angle_alpha   89.97240113
_cell_angle_beta   90.00000000
_cell_angle_gamma   90.00000000
_symmetry_Int_Tables_number   1
_chemical_formula_structural   La5Sn15Ir3Rh5
_chemical_formula_sum   'La5 Sn15 Ir3 Rh5'
_cell_volume   634.74203796
_cell_formula_units_Z   1
loop_
 _symmetry_equiv_pos_site_id
 _symmetry_equiv_pos_as_xyz
  1  'x, y, z'
loop_
 _atom_site_type_symbol
 _atom_site_label
 _atom_site_symmetry_multiplicity
 _atom_site_fract_x
 _atom_site_fract_y
 _atom_site_fract_z
 _atom_site_occupancy
  La  La0  1  0.500000  0.003501  0.857014  1
  La  La1  1  0.500000  0.501659  0.358089  1
  La  La2  1  0.000000  0.999550  0.143699  1
  La  La3  1  0.000000  0.501014  0.640281  1
  La  La4  1  0.500000  0.496543  0.929734  1
  Sn  Sn5  1  0.000000  0.716859  0.804566  1
  Sn  Sn6  1  0.000000  0.783158  0.306223  1
  Sn  Sn7  1  0.500000  0.279204  0.194719  1
  Sn  Sn8  1  0.500000  0.216446  0.692602  1
  Sn  Sn9  1  0.000000  0.853027  0.971436  1
  Sn  Sn10  1  0.000000  0.633233  0.468454  1
  Sn  Sn11  1  0.500000  0.135948  0.032513  1
  Sn  Sn12  1  0.500000  0.362861  0.530291  1
  Sn  Sn13  1  0.000000  0.304640  0.817034  1
  Sn  Sn14  1  0.000000  0.198427  0.317995  1
  Sn  Sn15  1  0.500000  0.695057  0.187192  1
  Sn  Sn16  1  0.500000  0.808741  0.678327  1
  Sn  Sn17  1  0.500000  0.019074  0.433261  1
  Sn  Sn18  1  0.000000  0.509167  0.069071  1
  Sn  Sn19  1  0.000000  0.981711  0.567760  1
  Ir  Ir20  1  0.000000  0.228150  0.964411  1
  Ir  Ir21  1  0.500000  0.764753  0.046238  1
  Ir  Ir22  1  0.500000  0.749194  0.533015  1
  Rh  Rh23  1  0.000000  0.248668  0.464668  1
  Rh  Rh24  1  0.000000  0.017336  0.714325  1
  Rh  Rh25  1  0.000000  0.483426  0.214279  1
  Rh  Rh26  1  0.500000  0.988541  0.289813  1
  Rh  Rh27  1  0.500000  0.520109  0.772992  1
