# generated using pymatgen
data_TbLu2GaSn3Ir2
_symmetry_space_group_name_H-M   'P 1'
_cell_length_a   7.43068257
_cell_length_b   7.37262126
_cell_length_c   4.08080100
_cell_angle_alpha   90.00000000
_cell_angle_beta   90.00000000
_cell_angle_gamma   120.09668091
_symmetry_Int_Tables_number   1
_chemical_formula_structural   TbLu2GaSn3Ir2
_chemical_formula_sum   'Tb1 Lu2 Ga1 Sn3 Ir2'
_cell_volume   193.42061420
_cell_formula_units_Z   1
loop_
 _symmetry_equiv_pos_site_id
 _symmetry_equiv_pos_as_xyz
  1  'x, y, z'
loop_
 _atom_site_type_symbol
 _atom_site_label
 _atom_site_symmetry_multiplicity
 _atom_site_fract_x
 _atom_site_fract_y
 _atom_site_fract_z
 _atom_site_occupancy
  Tb  Tb0  1  0.987403  0.397848  0.500000  1
  Lu  Lu1  1  0.607359  0.589925  0.500000  1
  Lu  Lu2  1  0.409808  0.018264  0.500000  1
  Ga  Ga3  1  0.336374  0.668981  0.000000  1
  Sn  Sn4  1  0.995681  0.741972  0.000000  1
  Sn  Sn5  1  0.256943  0.253476  0.000000  1
  Sn  Sn6  1  0.745169  0.001728  0.000000  1
  Ir  Ir7  1  0.661517  0.331580  0.000000  1
  Ir  Ir8  1  0.999746  0.996228  0.500000  1
