# generated using pymatgen
data_Ag(PtO2)3
_symmetry_space_group_name_H-M   'P 1'
_cell_length_a   3.17822500
_cell_length_b   6.38752502
_cell_length_c   6.38752570
_cell_angle_alpha   110.02721033
_cell_angle_beta   90.00000000
_cell_angle_gamma   90.00000000
_symmetry_Int_Tables_number   1
_chemical_formula_structural   Ag(PtO2)3
_chemical_formula_sum   'Ag1 Pt3 O6'
_cell_volume   121.83178473
_cell_formula_units_Z   1
loop_
 _symmetry_equiv_pos_site_id
 _symmetry_equiv_pos_as_xyz
  1  'x, y, z'
loop_
 _atom_site_type_symbol
 _atom_site_label
 _atom_site_symmetry_multiplicity
 _atom_site_fract_x
 _atom_site_fract_y
 _atom_site_fract_z
 _atom_site_occupancy
  Ag  Ag0  1  0.000000  0.500000  0.500000  1
  Pt  Pt1  1  0.000000  0.000000  0.000000  1
  Pt  Pt2  1  0.499999  0.500000  0.000000  1
  Pt  Pt3  1  0.499999  0.000001  0.500000  1
  O  O4  1  0.000000  0.927810  0.667916  1
  O  O5  1  0.000000  0.072191  0.332084  1
  O  O6  1  0.000000  0.667916  0.927810  1
  O  O7  1  0.000000  0.332085  0.072191  1
  O  O8  1  0.499999  0.337334  0.662668  1
  O  O9  1  0.499999  0.662667  0.337333  1
