# generated using pymatgen
data_ZnFe8Si3(Mo3N)4
_symmetry_space_group_name_H-M   'P 1'
_cell_length_a   7.86520136
_cell_length_b   7.87947541
_cell_length_c   7.86520100
_cell_angle_alpha   60.05990476
_cell_angle_beta   59.99999731
_cell_angle_gamma   60.05990566
_symmetry_Int_Tables_number   1
_chemical_formula_structural   ZnFe8Si3(Mo3N)4
_chemical_formula_sum   'Zn1 Fe8 Si3 Mo12 N4'
_cell_volume   344.98055421
_cell_formula_units_Z   1
loop_
 _symmetry_equiv_pos_site_id
 _symmetry_equiv_pos_as_xyz
  1  'x, y, z'
loop_
 _atom_site_type_symbol
 _atom_site_label
 _atom_site_symmetry_multiplicity
 _atom_site_fract_x
 _atom_site_fract_y
 _atom_site_fract_z
 _atom_site_occupancy
  Zn  Zn0  1  0.125000  0.625000  0.125000  1
  Fe  Fe1  1  0.916487  0.923960  0.243066  1
  Fe  Fe2  1  0.243066  0.923960  0.916487  1
  Fe  Fe3  1  0.918141  0.245577  0.918141  1
  Fe  Fe4  1  0.331859  0.004423  0.331859  1
  Fe  Fe5  1  0.333513  0.326040  0.006934  1
  Fe  Fe6  1  0.333513  0.326040  0.333513  1
  Fe  Fe7  1  0.916487  0.923960  0.916487  1
  Fe  Fe8  1  0.006934  0.326040  0.333513  1
  Si  Si9  1  0.625000  0.125000  0.125000  1
  Si  Si10  1  0.125000  0.125000  0.625000  1
  Si  Si11  1  0.125000  0.125000  0.125000  1
  Mo  Mo12  1  0.555895  0.944170  0.944040  1
  Mo  Mo13  1  0.305283  0.695014  0.305283  1
  Mo  Mo14  1  0.944040  0.944170  0.555895  1
  Mo  Mo15  1  0.944717  0.554986  0.555580  1
  Mo  Mo16  1  0.694105  0.305830  0.694105  1
  Mo  Mo17  1  0.305960  0.305830  0.694105  1
  Mo  Mo18  1  0.694105  0.305830  0.305960  1
  Mo  Mo19  1  0.555895  0.944170  0.555895  1
  Mo  Mo20  1  0.305283  0.695014  0.694420  1
  Mo  Mo21  1  0.944717  0.554986  0.944717  1
  Mo  Mo22  1  0.555580  0.554986  0.944717  1
  Mo  Mo23  1  0.694420  0.695014  0.305283  1
  N  N24  1  0.625000  0.625000  0.625000  1
  N  N25  1  0.125000  0.625000  0.625000  1
  N  N26  1  0.625000  0.125000  0.625000  1
  N  N27  1  0.625000  0.625000  0.125000  1
