# generated using pymatgen
data_Tb5YTiAl23Os8
_symmetry_space_group_name_H-M   'P 1'
_cell_length_a   8.86440008
_cell_length_b   8.86440117
_cell_length_c   9.57928401
_cell_angle_alpha   90.00539105
_cell_angle_beta   89.99460696
_cell_angle_gamma   120.01473098
_symmetry_Int_Tables_number   1
_chemical_formula_structural   Tb5YTiAl23Os8
_chemical_formula_sum   'Tb5 Y1 Ti1 Al23 Os8'
_cell_volume   651.77537026
_cell_formula_units_Z   1
loop_
 _symmetry_equiv_pos_site_id
 _symmetry_equiv_pos_as_xyz
  1  'x, y, z'
loop_
 _atom_site_type_symbol
 _atom_site_label
 _atom_site_symmetry_multiplicity
 _atom_site_fract_x
 _atom_site_fract_y
 _atom_site_fract_z
 _atom_site_occupancy
  Tb  Tb0  1  0.193464  0.386962  0.250562  1
  Tb  Tb1  1  0.807212  0.614481  0.748315  1
  Tb  Tb2  1  0.613038  0.806536  0.250562  1
  Tb  Tb3  1  0.385519  0.192788  0.748315  1
  Tb  Tb4  1  0.193532  0.806468  0.250569  1
  Y  Y5  1  0.807115  0.192885  0.748370  1
  Ti  Ti6  1  0.333321  0.666679  0.991235  1
  Al  Al7  1  0.666696  0.333304  0.981994  1
  Al  Al8  1  0.666716  0.333284  0.516189  1
  Al  Al9  1  0.333328  0.666672  0.482591  1
  Al  Al10  1  0.162385  0.324938  0.574994  1
  Al  Al11  1  0.837196  0.674319  0.424734  1
  Al  Al12  1  0.675062  0.837615  0.574994  1
  Al  Al13  1  0.836886  0.673725  0.076315  1
  Al  Al14  1  0.325681  0.162804  0.424734  1
  Al  Al15  1  0.159643  0.319373  0.926345  1
  Al  Al16  1  0.162464  0.837536  0.575028  1
  Al  Al17  1  0.326275  0.163114  0.076315  1
  Al  Al18  1  0.837163  0.162837  0.424811  1
  Al  Al19  1  0.680627  0.840357  0.926345  1
  Al  Al20  1  0.836863  0.163137  0.076287  1
  Al  Al21  1  0.159699  0.840301  0.926296  1
  Al  Al22  1  0.561702  0.123359  0.252949  1
  Al  Al23  1  0.441062  0.881997  0.750021  1
  Al  Al24  1  0.876641  0.438298  0.252949  1
  Al  Al25  1  0.118003  0.558938  0.750021  1
  Al  Al26  1  0.561685  0.438315  0.252945  1
  Al  Al27  1  0.440881  0.559119  0.750030  1
  Al  Al28  1  0.000026  0.999974  0.249984  1
  Al  Al29  1  0.000016  0.999984  0.749317  1
  Os  Os30  1  0.499109  0.998106  0.002675  1
  Os  Os31  1  0.001894  0.500891  0.002675  1
  Os  Os32  1  0.499622  0.999175  0.502707  1
  Os  Os33  1  0.499056  0.500944  0.002701  1
  Os  Os34  1  0.000825  0.500378  0.502707  1
  Os  Os35  1  0.499608  0.500392  0.502732  1
  Os  Os36  1  0.999993  0.000007  0.000095  1
  Os  Os37  1  0.999992  0.000008  0.499590  1
