# generated using pymatgen
data_Sr8Tc3MoO16
_symmetry_space_group_name_H-M   'P 1'
_cell_length_a   5.62352576
_cell_length_b   8.98985372
_cell_length_c   8.99025294
_cell_angle_alpha   88.74228979
_cell_angle_beta   71.76720626
_cell_angle_gamma   108.23802131
_symmetry_Int_Tables_number   1
_chemical_formula_structural   Sr8Tc3MoO16
_chemical_formula_sum   'Sr8 Tc3 Mo1 O16'
_cell_volume   406.35882542
_cell_formula_units_Z   1
loop_
 _symmetry_equiv_pos_site_id
 _symmetry_equiv_pos_as_xyz
  1  'x, y, z'
loop_
 _atom_site_type_symbol
 _atom_site_label
 _atom_site_symmetry_multiplicity
 _atom_site_fract_x
 _atom_site_fract_y
 _atom_site_fract_z
 _atom_site_occupancy
  Sr  Sr0  1  0.249459  0.397926  0.897245  1
  Sr  Sr1  1  0.999880  0.647500  0.647525  1
  Sr  Sr2  1  0.750354  0.897043  0.398113  1
  Sr  Sr3  1  0.500122  0.147005  0.146779  1
  Sr  Sr4  1  0.000131  0.352489  0.352484  1
  Sr  Sr5  1  0.750528  0.602072  0.102772  1
  Sr  Sr6  1  0.499909  0.852988  0.853232  1
  Sr  Sr7  1  0.249576  0.102901  0.601924  1
  Tc  Tc8  1  0.255540  0.754981  0.245079  1
  Tc  Tc9  1  0.000012  0.000015  0.000000  1
  Tc  Tc10  1  0.744459  0.245021  0.754920  1
  Mo  Mo11  1  0.499984  0.499979  0.500009  1
  O  O12  1  0.250685  0.589220  0.087753  1
  O  O13  1  0.999738  0.836996  0.837476  1
  O  O14  1  0.749945  0.088203  0.588737  1
  O  O15  1  0.499567  0.333503  0.333927  1
  O  O16  1  0.000317  0.163090  0.162453  1
  O  O17  1  0.749310  0.410815  0.912215  1
  O  O18  1  0.500396  0.666476  0.666079  1
  O  O19  1  0.250075  0.911773  0.411284  1
  O  O20  1  0.879086  0.124867  0.874861  1
  O  O21  1  0.618263  0.370753  0.629438  1
  O  O22  1  0.381729  0.629207  0.370538  1
  O  O23  1  0.120911  0.875163  0.125150  1
  O  O24  1  0.372535  0.122456  0.877206  1
  O  O25  1  0.117824  0.375269  0.625309  1
  O  O26  1  0.882164  0.624727  0.374693  1
  O  O27  1  0.627502  0.877561  0.122797  1
