# generated using pymatgen
data_RbTm2(H6Os)2
_symmetry_space_group_name_H-M   'P 1'
_cell_length_a   4.96672700
_cell_length_b   4.96672833
_cell_length_c   8.39076300
_cell_angle_alpha   90.00000000
_cell_angle_beta   90.00000000
_cell_angle_gamma   119.99999782
_symmetry_Int_Tables_number   1
_chemical_formula_structural   RbTm2(H6Os)2
_chemical_formula_sum   'Rb1 Tm2 H12 Os2'
_cell_volume   179.25562410
_cell_formula_units_Z   1
loop_
 _symmetry_equiv_pos_site_id
 _symmetry_equiv_pos_as_xyz
  1  'x, y, z'
loop_
 _atom_site_type_symbol
 _atom_site_label
 _atom_site_symmetry_multiplicity
 _atom_site_fract_x
 _atom_site_fract_y
 _atom_site_fract_z
 _atom_site_occupancy
  Rb  Rb0  1  0.000000  0.000000  0.000000  1
  Tm  Tm1  1  0.666667  0.333333  0.361994  1
  Tm  Tm2  1  0.333333  0.666667  0.638006  1
  H  H3  1  0.160143  0.839857  0.390569  1
  H  H4  1  0.679716  0.839857  0.390569  1
  H  H5  1  0.160143  0.320284  0.390569  1
  H  H6  1  0.839857  0.160143  0.609431  1
  H  H7  1  0.320284  0.160143  0.609431  1
  H  H8  1  0.839857  0.679716  0.609431  1
  H  H9  1  0.510807  0.021617  0.837056  1
  H  H10  1  0.510807  0.489193  0.837056  1
  H  H11  1  0.978383  0.489193  0.837056  1
  H  H12  1  0.489193  0.978383  0.162944  1
  H  H13  1  0.489193  0.510807  0.162944  1
  H  H14  1  0.021617  0.510807  0.162944  1
  Os  Os15  1  0.666667  0.333333  0.710776  1
  Os  Os16  1  0.333333  0.666667  0.289224  1
