# generated using pymatgen
data_Tm2Th(SnRh)3
_symmetry_space_group_name_H-M   'P 1'
_cell_length_a   7.49566671
_cell_length_b   7.59234109
_cell_length_c   3.94852400
_cell_angle_alpha   90.00000000
_cell_angle_beta   90.00000000
_cell_angle_gamma   120.42756687
_symmetry_Int_Tables_number   1
_chemical_formula_structural   Tm2Th(SnRh)3
_chemical_formula_sum   'Tm2 Th1 Sn3 Rh3'
_cell_volume   193.75998282
_cell_formula_units_Z   1
loop_
 _symmetry_equiv_pos_site_id
 _symmetry_equiv_pos_as_xyz
  1  'x, y, z'
loop_
 _atom_site_type_symbol
 _atom_site_label
 _atom_site_symmetry_multiplicity
 _atom_site_fract_x
 _atom_site_fract_y
 _atom_site_fract_z
 _atom_site_occupancy
  Tm  Tm0  1  0.405656  0.405957  0.500000  1
  Tm  Tm1  1  0.594344  0.000301  0.500000  1
  Th  Th2  1  0.000000  0.586139  0.500000  1
  Sn  Sn3  1  0.730522  0.743477  0.000000  1
  Sn  Sn4  1  0.269478  0.012955  0.000000  1
  Sn  Sn5  1  0.000000  0.244821  0.000000  1
  Rh  Rh6  1  0.680391  0.346992  0.000000  1
  Rh  Rh7  1  0.319609  0.666602  0.000000  1
  Rh  Rh8  1  0.000000  0.992756  0.500000  1
