# generated using pymatgen
data_Hg(S8Cl)3
_symmetry_space_group_name_H-M   'P 1'
_cell_length_a   5.09264044
_cell_length_b   14.95086106
_cell_length_c   14.96126535
_cell_angle_alpha   118.19720125
_cell_angle_beta   96.51242829
_cell_angle_gamma   96.52221912
_symmetry_Int_Tables_number   1
_chemical_formula_structural   Hg(S8Cl)3
_chemical_formula_sum   'Hg1 S24 Cl3'
_cell_volume   979.12851297
_cell_formula_units_Z   1
loop_
 _symmetry_equiv_pos_site_id
 _symmetry_equiv_pos_as_xyz
  1  'x, y, z'
loop_
 _atom_site_type_symbol
 _atom_site_label
 _atom_site_symmetry_multiplicity
 _atom_site_fract_x
 _atom_site_fract_y
 _atom_site_fract_z
 _atom_site_occupancy
  Hg  Hg0  1  0.942576  0.995894  0.996243  1
  S  S1  1  0.342275  0.397200  0.000896  1
  S  S2  1  0.525779  0.722666  0.999130  1
  S  S3  1  0.251454  0.515768  0.129723  1
  S  S4  1  0.379862  0.743697  0.129214  1
  S  S5  1  0.526488  0.650628  0.181697  1
  S  S6  1  0.637269  0.386898  0.256286  1
  S  S7  1  0.801950  0.276724  0.276773  1
  S  S8  1  0.876860  0.531130  0.348184  1
  S  S9  1  0.123294  0.870541  0.386444  1
  S  S10  1  0.637239  0.256237  0.386884  1
  S  S11  1  0.342516  0.000941  0.397262  1
  S  S12  1  0.346657  0.818296  0.469872  1
  S  S13  1  0.737607  0.613554  0.482987  1
  S  S14  1  0.251267  0.129846  0.515869  1
  S  S15  1  0.876820  0.348115  0.531041  1
  S  S16  1  0.946210  0.602166  0.602109  1
  S  S17  1  0.250117  0.869823  0.614237  1
  S  S18  1  0.737537  0.482961  0.613495  1
  S  S19  1  0.526693  0.181824  0.650659  1
  S  S20  1  0.525968  0.999097  0.722686  1
  S  S21  1  0.379628  0.129302  0.743717  1
  S  S22  1  0.346462  0.469872  0.818409  1
  S  S23  1  0.250403  0.614270  0.869943  1
  S  S24  1  0.123523  0.386428  0.870660  1
  Cl  Cl25  1  0.000749  0.164653  0.005660  1
  Cl  Cl26  1  0.000979  0.006142  0.165028  1
  Cl  Cl27  1  0.837127  0.835353  0.834896  1
