# generated using pymatgen
data_NbSCl9
_symmetry_space_group_name_H-M   'P 1'
_cell_length_a   9.01515549
_cell_length_b   9.01515467
_cell_length_c   9.01515565
_cell_angle_alpha   76.26431577
_cell_angle_beta   76.26431850
_cell_angle_gamma   76.26430730
_symmetry_Int_Tables_number   1
_chemical_formula_structural   NbSCl9
_chemical_formula_sum   'Nb2 S2 Cl18'
_cell_volume   678.53321445
_cell_formula_units_Z   2
loop_
 _symmetry_equiv_pos_site_id
 _symmetry_equiv_pos_as_xyz
  1  'x, y, z'
loop_
 _atom_site_type_symbol
 _atom_site_label
 _atom_site_symmetry_multiplicity
 _atom_site_fract_x
 _atom_site_fract_y
 _atom_site_fract_z
 _atom_site_occupancy
  Nb  Nb0  1  0.500000  0.500000  0.500000  1
  Nb  Nb1  1  0.000000  0.000000  0.000000  1
  S  S2  1  0.707368  0.707368  0.707368  1
  S  S3  1  0.292632  0.292632  0.292632  1
  Cl  Cl4  1  0.027939  0.027939  0.725442  1
  Cl  Cl5  1  0.972061  0.972061  0.274558  1
  Cl  Cl6  1  0.972061  0.274558  0.972061  1
  Cl  Cl7  1  0.725442  0.027939  0.027939  1
  Cl  Cl8  1  0.027939  0.725442  0.027939  1
  Cl  Cl9  1  0.274558  0.972061  0.972061  1
  Cl  Cl10  1  0.372512  0.673868  0.673868  1
  Cl  Cl11  1  0.326132  0.627488  0.326132  1
  Cl  Cl12  1  0.627488  0.326132  0.326132  1
  Cl  Cl13  1  0.673868  0.372512  0.673868  1
  Cl  Cl14  1  0.326132  0.326132  0.627488  1
  Cl  Cl15  1  0.673868  0.673868  0.372512  1
  Cl  Cl16  1  0.059690  0.341991  0.341991  1
  Cl  Cl17  1  0.658009  0.940310  0.658009  1
  Cl  Cl18  1  0.940310  0.658009  0.658009  1
  Cl  Cl19  1  0.341991  0.059690  0.341991  1
  Cl  Cl20  1  0.341991  0.341991  0.059690  1
  Cl  Cl21  1  0.658009  0.658009  0.940310  1
