# generated using pymatgen
data_NdTh2Ga6(CuNi2)3
_symmetry_space_group_name_H-M   'P 1'
_cell_length_a   8.90802800
_cell_length_b   8.90802889
_cell_length_c   4.18501000
_cell_angle_alpha   90.00000000
_cell_angle_beta   90.00000000
_cell_angle_gamma   120.00000411
_symmetry_Int_Tables_number   1
_chemical_formula_structural   NdTh2Ga6(CuNi2)3
_chemical_formula_sum   'Nd1 Th2 Ga6 Cu3 Ni6'
_cell_volume   287.60094204
_cell_formula_units_Z   1
loop_
 _symmetry_equiv_pos_site_id
 _symmetry_equiv_pos_as_xyz
  1  'x, y, z'
loop_
 _atom_site_type_symbol
 _atom_site_label
 _atom_site_symmetry_multiplicity
 _atom_site_fract_x
 _atom_site_fract_y
 _atom_site_fract_z
 _atom_site_occupancy
  Nd  Nd0  1  0.666667  0.333333  0.500000  1
  Th  Th1  1  0.333333  0.666667  0.500000  1
  Th  Th2  1  0.000000  0.000000  0.000000  1
  Ga  Ga3  1  0.479531  0.002302  0.000000  1
  Ga  Ga4  1  0.997698  0.477229  0.000000  1
  Ga  Ga5  1  0.522771  0.520469  0.000000  1
  Ga  Ga6  1  0.717967  0.001225  0.500000  1
  Ga  Ga7  1  0.998775  0.716742  0.500000  1
  Ga  Ga8  1  0.283258  0.282033  0.500000  1
  Cu  Cu9  1  0.290596  0.999253  0.500000  1
  Cu  Cu10  1  0.000747  0.291343  0.500000  1
  Cu  Cu11  1  0.708657  0.709404  0.500000  1
  Ni  Ni12  1  0.202458  0.374270  0.000000  1
  Ni  Ni13  1  0.625730  0.828188  0.000000  1
  Ni  Ni14  1  0.171812  0.797542  0.000000  1
  Ni  Ni15  1  0.831407  0.632637  0.000000  1
  Ni  Ni16  1  0.801230  0.168593  0.000000  1
  Ni  Ni17  1  0.367363  0.198770  0.000000  1
