# generated using pymatgen
data_Al6Fe5CuRh12
_symmetry_space_group_name_H-M   'P 1'
_cell_length_a   4.25730500
_cell_length_b   5.99017600
_cell_length_c   12.77750400
_cell_angle_alpha   89.99998147
_cell_angle_beta   90.00270900
_cell_angle_gamma   90.00002302
_symmetry_Int_Tables_number   1
_chemical_formula_structural   Al6Fe5CuRh12
_chemical_formula_sum   'Al6 Fe5 Cu1 Rh12'
_cell_volume   325.85198650
_cell_formula_units_Z   1
loop_
 _symmetry_equiv_pos_site_id
 _symmetry_equiv_pos_as_xyz
  1  'x, y, z'
loop_
 _atom_site_type_symbol
 _atom_site_label
 _atom_site_symmetry_multiplicity
 _atom_site_fract_x
 _atom_site_fract_y
 _atom_site_fract_z
 _atom_site_occupancy
  Al  Al0  1  0.000000  0.000000  0.000000  1
  Al  Al1  1  0.499673  0.500001  0.163761  1
  Al  Al2  1  0.999706  0.999998  0.332633  1
  Al  Al3  1  0.500000  0.500001  0.500000  1
  Al  Al4  1  0.000294  0.000002  0.667367  1
  Al  Al5  1  0.500325  0.500001  0.836239  1
  Fe  Fe6  1  0.499677  0.000001  0.165262  1
  Fe  Fe7  1  0.999737  0.500001  0.332625  1
  Fe  Fe8  1  0.500000  0.000000  0.500000  1
  Fe  Fe9  1  0.000264  0.500001  0.667375  1
  Fe  Fe10  1  0.500322  0.999999  0.834738  1
  Cu  Cu11  1  0.000000  0.500001  0.000000  1
  Rh  Rh12  1  0.500000  0.246117  0.000000  1
  Rh  Rh13  1  0.500000  0.753882  0.000000  1
  Rh  Rh14  1  0.999692  0.248879  0.169126  1
  Rh  Rh15  1  0.999686  0.751123  0.169125  1
  Rh  Rh16  1  0.499741  0.250167  0.334054  1
  Rh  Rh17  1  0.499739  0.749833  0.334055  1
  Rh  Rh18  1  0.000001  0.250481  0.499999  1
  Rh  Rh19  1  0.999999  0.749521  0.500001  1
  Rh  Rh20  1  0.500262  0.250167  0.665944  1
  Rh  Rh21  1  0.500260  0.749833  0.665945  1
  Rh  Rh22  1  0.000315  0.248879  0.830876  1
  Rh  Rh23  1  0.000309  0.751123  0.830875  1
