# generated using pymatgen
data_Y4LuBi2Sb
_symmetry_space_group_name_H-M   'P 1'
_cell_length_a   8.16449200
_cell_length_b   9.46244300
_cell_length_c   12.00537200
_cell_angle_alpha   90.00000000
_cell_angle_beta   90.00000000
_cell_angle_gamma   90.00000000
_symmetry_Int_Tables_number   1
_chemical_formula_structural   Y4LuBi2Sb
_chemical_formula_sum   'Y16 Lu4 Bi8 Sb4'
_cell_volume   927.48750154
_cell_formula_units_Z   4
loop_
 _symmetry_equiv_pos_site_id
 _symmetry_equiv_pos_as_xyz
  1  'x, y, z'
loop_
 _atom_site_type_symbol
 _atom_site_label
 _atom_site_symmetry_multiplicity
 _atom_site_fract_x
 _atom_site_fract_y
 _atom_site_fract_z
 _atom_site_occupancy
  Y  Y0  1  0.183287  0.750000  0.718349  1
  Y  Y1  1  0.683287  0.750000  0.781651  1
  Y  Y2  1  0.816713  0.250000  0.281651  1
  Y  Y3  1  0.316713  0.250000  0.218349  1
  Y  Y4  1  0.308818  0.438426  0.941492  1
  Y  Y5  1  0.808818  0.061574  0.558508  1
  Y  Y6  1  0.691182  0.938426  0.058508  1
  Y  Y7  1  0.191182  0.561574  0.441492  1
  Y  Y8  1  0.691182  0.561574  0.058508  1
  Y  Y9  1  0.191182  0.938426  0.441492  1
  Y  Y10  1  0.308818  0.061574  0.941492  1
  Y  Y11  1  0.808818  0.438426  0.558508  1
  Y  Y12  1  0.354226  0.750000  0.213085  1
  Y  Y13  1  0.854226  0.750000  0.286915  1
  Y  Y14  1  0.645774  0.250000  0.786915  1
  Y  Y15  1  0.145774  0.250000  0.713085  1
  Lu  Lu16  1  0.027787  0.750000  0.988852  1
  Lu  Lu17  1  0.527787  0.750000  0.511148  1
  Lu  Lu18  1  0.972213  0.250000  0.011148  1
  Lu  Lu19  1  0.472213  0.250000  0.488852  1
  Bi  Bi20  1  0.434314  0.003528  0.672017  1
  Bi  Bi21  1  0.934314  0.496472  0.827983  1
  Bi  Bi22  1  0.565686  0.503528  0.327983  1
  Bi  Bi23  1  0.065686  0.996472  0.172017  1
  Bi  Bi24  1  0.565686  0.996472  0.327983  1
  Bi  Bi25  1  0.065686  0.503528  0.172017  1
  Bi  Bi26  1  0.434314  0.496472  0.672017  1
  Bi  Bi27  1  0.934314  0.003528  0.827983  1
  Sb  Sb28  1  0.408128  0.750000  0.959232  1
  Sb  Sb29  1  0.908128  0.750000  0.540768  1
  Sb  Sb30  1  0.591872  0.250000  0.040768  1
  Sb  Sb31  1  0.091872  0.250000  0.459232  1
