# generated using pymatgen
data_Tb2PtRh3
_symmetry_space_group_name_H-M   'P 1'
_cell_length_a   5.36754994
_cell_length_b   5.36755012
_cell_length_c   5.36755111
_cell_angle_alpha   60.16139624
_cell_angle_beta   60.16139796
_cell_angle_gamma   60.16139605
_symmetry_Int_Tables_number   1
_chemical_formula_structural   Tb2PtRh3
_chemical_formula_sum   'Tb2 Pt1 Rh3'
_cell_volume   109.74836872
_cell_formula_units_Z   1
loop_
 _symmetry_equiv_pos_site_id
 _symmetry_equiv_pos_as_xyz
  1  'x, y, z'
loop_
 _atom_site_type_symbol
 _atom_site_label
 _atom_site_symmetry_multiplicity
 _atom_site_fract_x
 _atom_site_fract_y
 _atom_site_fract_z
 _atom_site_occupancy
  Tb  Tb0  1  0.624591  0.624591  0.624591  1
  Tb  Tb1  1  0.375409  0.375409  0.375409  1
  Pt  Pt2  1  0.000000  0.000000  0.000000  1
  Rh  Rh3  1  0.000000  0.500000  0.000000  1
  Rh  Rh4  1  0.500000  0.000000  0.000000  1
  Rh  Rh5  1  0.000000  0.000000  0.500000  1
