# generated using pymatgen
data_Y6Al7Cu16
_symmetry_space_group_name_H-M   'P 1'
_cell_length_a   8.73064400
_cell_length_b   8.73064876
_cell_length_c   8.73060200
_cell_angle_alpha   119.99982282
_cell_angle_beta   90.00000000
_cell_angle_gamma   120.00054632
_symmetry_Int_Tables_number   1
_chemical_formula_structural   Y6Al7Cu16
_chemical_formula_sum   'Y6 Al7 Cu16'
_cell_volume   470.56493977
_cell_formula_units_Z   1
loop_
 _symmetry_equiv_pos_site_id
 _symmetry_equiv_pos_as_xyz
  1  'x, y, z'
loop_
 _atom_site_type_symbol
 _atom_site_label
 _atom_site_symmetry_multiplicity
 _atom_site_fract_x
 _atom_site_fract_y
 _atom_site_fract_z
 _atom_site_occupancy
  Y  Y0  1  0.286300  0.000000  0.286300  1
  Y  Y1  1  0.713700  0.000000  0.286300  1
  Y  Y2  1  0.286299  0.572599  0.286300  1
  Y  Y3  1  0.286300  0.000000  0.713700  1
  Y  Y4  1  0.713700  0.000000  0.713700  1
  Y  Y5  1  0.713701  0.427402  0.713700  1
  Al  Al6  1  0.000000  0.000000  0.000000  1
  Al  Al7  1  0.500000  0.000000  0.000000  1
  Al  Al8  1  0.000000  0.500000  0.000000  1
  Al  Al9  1  0.500000  0.500000  0.000000  1
  Al  Al10  1  0.000000  0.000000  0.500000  1
  Al  Al11  1  0.000000  0.500000  0.500000  1
  Al  Al12  1  0.500000  0.500000  0.500000  1
  Cu  Cu13  1  0.673129  0.346257  0.019384  1
  Cu  Cu14  1  0.366206  0.244136  0.122067  1
  Cu  Cu15  1  0.877931  0.244136  0.122067  1
  Cu  Cu16  1  0.877934  0.755867  0.122067  1
  Cu  Cu17  1  0.673129  0.346257  0.326874  1
  Cu  Cu18  1  0.673130  0.653745  0.326872  1
  Cu  Cu19  1  0.980618  0.653744  0.326872  1
  Cu  Cu20  1  0.122066  0.244134  0.366202  1
  Cu  Cu21  1  0.877934  0.755867  0.633798  1
  Cu  Cu22  1  0.019383  0.346256  0.673128  1
  Cu  Cu23  1  0.326870  0.346255  0.673128  1
  Cu  Cu24  1  0.326871  0.653743  0.673126  1
  Cu  Cu25  1  0.122066  0.244134  0.877933  1
  Cu  Cu26  1  0.122069  0.755865  0.877933  1
  Cu  Cu27  1  0.633794  0.755865  0.877933  1
  Cu  Cu28  1  0.326871  0.653743  0.980617  1
