# generated using pymatgen
data_Zr6Be7Co16
_symmetry_space_group_name_H-M   'P 1'
_cell_length_a   7.90094108
_cell_length_b   7.90094044
_cell_length_c   7.90094100
_cell_angle_alpha   60.00000182
_cell_angle_beta   60.00000452
_cell_angle_gamma   60.00000273
_symmetry_Int_Tables_number   1
_chemical_formula_structural   Zr6Be7Co16
_chemical_formula_sum   'Zr6 Be7 Co16'
_cell_volume   348.75581811
_cell_formula_units_Z   1
loop_
 _symmetry_equiv_pos_site_id
 _symmetry_equiv_pos_as_xyz
  1  'x, y, z'
loop_
 _atom_site_type_symbol
 _atom_site_label
 _atom_site_symmetry_multiplicity
 _atom_site_fract_x
 _atom_site_fract_y
 _atom_site_fract_z
 _atom_site_occupancy
  Zr  Zr0  1  0.711733  0.288267  0.288267  1
  Zr  Zr1  1  0.288267  0.288267  0.711733  1
  Zr  Zr2  1  0.288267  0.711733  0.711733  1
  Zr  Zr3  1  0.711733  0.711733  0.288267  1
  Zr  Zr4  1  0.288267  0.711733  0.288267  1
  Zr  Zr5  1  0.711733  0.288267  0.711733  1
  Be  Be6  1  0.000000  0.500000  0.000000  1
  Be  Be7  1  0.000000  0.000000  0.500000  1
  Be  Be8  1  0.000000  0.000000  0.000000  1
  Be  Be9  1  0.500000  0.500000  0.000000  1
  Be  Be10  1  0.500000  0.000000  0.500000  1
  Be  Be11  1  0.500000  0.000000  0.000000  1
  Be  Be12  1  0.000000  0.500000  0.500000  1
  Co  Co13  1  0.121371  0.121371  0.635886  1
  Co  Co14  1  0.674809  0.975571  0.674809  1
  Co  Co15  1  0.364114  0.878629  0.878629  1
  Co  Co16  1  0.024429  0.325191  0.325191  1
  Co  Co17  1  0.975571  0.674809  0.674809  1
  Co  Co18  1  0.325191  0.325191  0.024429  1
  Co  Co19  1  0.674809  0.674809  0.975571  1
  Co  Co20  1  0.635886  0.121371  0.121371  1
  Co  Co21  1  0.674809  0.674809  0.674809  1
  Co  Co22  1  0.878629  0.878629  0.364114  1
  Co  Co23  1  0.121371  0.121371  0.121371  1
  Co  Co24  1  0.878629  0.364114  0.878629  1
  Co  Co25  1  0.878629  0.878629  0.878629  1
  Co  Co26  1  0.325191  0.325191  0.325191  1
  Co  Co27  1  0.121371  0.635886  0.121371  1
  Co  Co28  1  0.325191  0.024429  0.325191  1
