# generated using pymatgen
data_TmLu4HgBi2
_symmetry_space_group_name_H-M   'P 1'
_cell_length_a   8.05013600
_cell_length_b   9.33932000
_cell_length_c   11.83571500
_cell_angle_alpha   90.00000000
_cell_angle_beta   90.00000000
_cell_angle_gamma   90.00000000
_symmetry_Int_Tables_number   1
_chemical_formula_structural   TmLu4HgBi2
_chemical_formula_sum   'Tm4 Lu16 Hg4 Bi8'
_cell_volume   889.84214811
_cell_formula_units_Z   4
loop_
 _symmetry_equiv_pos_site_id
 _symmetry_equiv_pos_as_xyz
  1  'x, y, z'
loop_
 _atom_site_type_symbol
 _atom_site_label
 _atom_site_symmetry_multiplicity
 _atom_site_fract_x
 _atom_site_fract_y
 _atom_site_fract_z
 _atom_site_occupancy
  Tm  Tm0  1  0.183142  0.250000  0.783789  1
  Tm  Tm1  1  0.816858  0.750000  0.216211  1
  Tm  Tm2  1  0.316858  0.750000  0.283789  1
  Tm  Tm3  1  0.683142  0.250000  0.716211  1
  Lu  Lu4  1  0.034764  0.250000  0.507938  1
  Lu  Lu5  1  0.965236  0.750000  0.492062  1
  Lu  Lu6  1  0.465236  0.750000  0.007938  1
  Lu  Lu7  1  0.534764  0.250000  0.992062  1
  Lu  Lu8  1  0.351865  0.250000  0.291353  1
  Lu  Lu9  1  0.648135  0.750000  0.708647  1
  Lu  Lu10  1  0.148135  0.750000  0.791353  1
  Lu  Lu11  1  0.851865  0.250000  0.208647  1
  Lu  Lu12  1  0.188330  0.061490  0.058216  1
  Lu  Lu13  1  0.811670  0.938510  0.941784  1
  Lu  Lu14  1  0.311670  0.938510  0.558216  1
  Lu  Lu15  1  0.811670  0.561490  0.941784  1
  Lu  Lu16  1  0.688330  0.061490  0.441784  1
  Lu  Lu17  1  0.188330  0.438510  0.058216  1
  Lu  Lu18  1  0.688330  0.438510  0.441784  1
  Lu  Lu19  1  0.311670  0.561490  0.558216  1
  Hg  Hg20  1  0.406933  0.250000  0.539999  1
  Hg  Hg21  1  0.593067  0.750000  0.460001  1
  Hg  Hg22  1  0.093067  0.750000  0.039999  1
  Hg  Hg23  1  0.906933  0.250000  0.960001  1
  Bi  Bi24  1  0.059163  0.001336  0.323564  1
  Bi  Bi25  1  0.940837  0.998664  0.676436  1
  Bi  Bi26  1  0.440837  0.998664  0.823564  1
  Bi  Bi27  1  0.940837  0.501336  0.676436  1
  Bi  Bi28  1  0.559163  0.001336  0.176436  1
  Bi  Bi29  1  0.059163  0.498664  0.323564  1
  Bi  Bi30  1  0.559163  0.498664  0.176436  1
  Bi  Bi31  1  0.440837  0.501336  0.823564  1
