# generated using pymatgen
data_Y3ErRe5Os3
_symmetry_space_group_name_H-M   'P 1'
_cell_length_a   5.37749540
_cell_length_b   5.26110058
_cell_length_c   9.03648518
_cell_angle_alpha   90.00000100
_cell_angle_beta   90.02005353
_cell_angle_gamma   119.28655907
_symmetry_Int_Tables_number   1
_chemical_formula_structural   Y3ErRe5Os3
_chemical_formula_sum   'Y3 Er1 Re5 Os3'
_cell_volume   222.97917240
_cell_formula_units_Z   1
loop_
 _symmetry_equiv_pos_site_id
 _symmetry_equiv_pos_as_xyz
  1  'x, y, z'
loop_
 _atom_site_type_symbol
 _atom_site_label
 _atom_site_symmetry_multiplicity
 _atom_site_fract_x
 _atom_site_fract_y
 _atom_site_fract_z
 _atom_site_occupancy
  Y  Y0  1  0.332605  0.666302  0.437240  1
  Y  Y1  1  0.670142  0.335071  0.563899  1
  Y  Y2  1  0.670109  0.335055  0.936459  1
  Er  Er3  1  0.332251  0.666125  0.062533  1
  Re  Re4  1  0.829661  0.169475  0.249382  1
  Re  Re5  1  0.829661  0.660186  0.249382  1
  Re  Re6  1  0.344098  0.172049  0.249270  1
  Re  Re7  1  0.163472  0.829171  0.750471  1
  Re  Re8  1  0.163472  0.334301  0.750471  1
  Os  Os9  1  0.010097  0.005049  0.500789  1
  Os  Os10  1  0.010399  0.005200  0.999502  1
  Os  Os11  1  0.644031  0.822016  0.750601  1
