# generated using pymatgen
data_Tm9Sc(Si3O)2
_symmetry_space_group_name_H-M   'P 1'
_cell_length_a   8.25134100
_cell_length_b   8.25134132
_cell_length_c   6.05458600
_cell_angle_alpha   90.00000000
_cell_angle_beta   90.00000000
_cell_angle_gamma   120.00000273
_symmetry_Int_Tables_number   1
_chemical_formula_structural   Tm9Sc(Si3O)2
_chemical_formula_sum   'Tm9 Sc1 Si6 O2'
_cell_volume   356.99666550
_cell_formula_units_Z   1
loop_
 _symmetry_equiv_pos_site_id
 _symmetry_equiv_pos_as_xyz
  1  'x, y, z'
loop_
 _atom_site_type_symbol
 _atom_site_label
 _atom_site_symmetry_multiplicity
 _atom_site_fract_x
 _atom_site_fract_y
 _atom_site_fract_z
 _atom_site_occupancy
  Tm  Tm0  1  0.232505  0.999309  0.251124  1
  Tm  Tm1  1  0.766805  0.999309  0.748876  1
  Tm  Tm2  1  0.000691  0.233195  0.251124  1
  Tm  Tm3  1  0.000691  0.767495  0.748876  1
  Tm  Tm4  1  0.766805  0.767495  0.251124  1
  Tm  Tm5  1  0.232505  0.233195  0.748876  1
  Tm  Tm6  1  0.333333  0.666667  0.000000  1
  Tm  Tm7  1  0.666667  0.333333  0.000000  1
  Tm  Tm8  1  0.666667  0.333333  0.500000  1
  Sc  Sc9  1  0.333333  0.666667  0.500000  1
  Si  Si10  1  0.598880  0.996726  0.255257  1
  Si  Si11  1  0.397846  0.996726  0.744743  1
  Si  Si12  1  0.003274  0.602154  0.255257  1
  Si  Si13  1  0.003274  0.401120  0.744743  1
  Si  Si14  1  0.397846  0.401120  0.255257  1
  Si  Si15  1  0.598880  0.602154  0.744743  1
  O  O16  1  0.000000  0.000000  0.000000  1
  O  O17  1  0.000000  0.000000  0.500000  1
