# generated using pymatgen
data_Er7Tm3(PtPb3)2
_symmetry_space_group_name_H-M   'P 1'
_cell_length_a   9.13533200
_cell_length_b   9.13555017
_cell_length_c   6.77298900
_cell_angle_alpha   90.00000000
_cell_angle_beta   90.00000000
_cell_angle_gamma   120.00079687
_symmetry_Int_Tables_number   1
_chemical_formula_structural   Er7Tm3(PtPb3)2
_chemical_formula_sum   'Er7 Tm3 Pt2 Pb6'
_cell_volume   489.51562310
_cell_formula_units_Z   1
loop_
 _symmetry_equiv_pos_site_id
 _symmetry_equiv_pos_as_xyz
  1  'x, y, z'
loop_
 _atom_site_type_symbol
 _atom_site_label
 _atom_site_symmetry_multiplicity
 _atom_site_fract_x
 _atom_site_fract_y
 _atom_site_fract_z
 _atom_site_occupancy
  Er  Er0  1  0.755526  0.755550  0.250000  1
  Er  Er1  1  0.000000  0.755548  0.750000  1
  Er  Er2  1  0.333323  0.666597  0.500059  1
  Er  Er3  1  0.244474  0.000024  0.250000  1
  Er  Er4  1  0.666677  0.333273  0.500059  1
  Er  Er5  1  0.333323  0.666597  0.999941  1
  Er  Er6  1  0.666677  0.333273  0.999941  1
  Tm  Tm7  1  0.244060  0.244079  0.750000  1
  Tm  Tm8  1  0.000000  0.244067  0.250000  1
  Tm  Tm9  1  0.755940  0.000018  0.750000  1
  Pt  Pt10  1  0.000000  0.000671  0.999782  1
  Pt  Pt11  1  0.000000  0.000671  0.500218  1
  Pb  Pb12  1  0.401592  0.000080  0.750000  1
  Pb  Pb13  1  0.598746  0.000086  0.250000  1
  Pb  Pb14  1  0.401254  0.401340  0.250000  1
  Pb  Pb15  1  0.000000  0.598383  0.250000  1
  Pb  Pb16  1  0.000000  0.401255  0.750000  1
  Pb  Pb17  1  0.598408  0.598487  0.750000  1
