# generated using pymatgen
data_Pr2Y3Zr3(As3Pd4)4
_symmetry_space_group_name_H-M   'P 1'
_cell_length_a   13.59650400
_cell_length_b   13.59650325
_cell_length_c   4.12970600
_cell_angle_alpha   90.00000000
_cell_angle_beta   90.00000000
_cell_angle_gamma   120.00000183
_symmetry_Int_Tables_number   1
_chemical_formula_structural   Pr2Y3Zr3(As3Pd4)4
_chemical_formula_sum   'Pr2 Y3 Zr3 As12 Pd16'
_cell_volume   661.15645743
_cell_formula_units_Z   1
loop_
 _symmetry_equiv_pos_site_id
 _symmetry_equiv_pos_as_xyz
  1  'x, y, z'
loop_
 _atom_site_type_symbol
 _atom_site_label
 _atom_site_symmetry_multiplicity
 _atom_site_fract_x
 _atom_site_fract_y
 _atom_site_fract_z
 _atom_site_occupancy
  Pr  Pr0  1  0.333333  0.666667  0.000000  1
  Pr  Pr1  1  0.666667  0.333333  0.000000  1
  Y  Y2  1  0.190347  0.190347  0.500000  1
  Y  Y3  1  0.809653  0.000000  0.500000  1
  Y  Y4  1  0.000000  0.809653  0.500000  1
  Zr  Zr5  1  0.557276  0.557276  0.000000  1
  Zr  Zr6  1  0.442724  0.000000  0.000000  1
  Zr  Zr7  1  0.000000  0.442724  0.000000  1
  As  As8  1  0.826482  0.826482  0.000000  1
  As  As9  1  0.173518  0.000000  0.000000  1
  As  As10  1  0.000000  0.173518  0.000000  1
  As  As11  1  0.165311  0.481363  0.500000  1
  As  As12  1  0.518637  0.683948  0.500000  1
  As  As13  1  0.316052  0.834689  0.500000  1
  As  As14  1  0.683948  0.518637  0.500000  1
  As  As15  1  0.834689  0.316052  0.500000  1
  As  As16  1  0.481363  0.165311  0.500000  1
  As  As17  1  0.358117  0.358117  0.000000  1
  As  As18  1  0.641883  0.000000  0.000000  1
  As  As19  1  0.000000  0.641883  0.000000  1
  Pd  Pd20  1  0.723859  0.723859  0.500000  1
  Pd  Pd21  1  0.276141  0.000000  0.500000  1
  Pd  Pd22  1  0.000000  0.276141  0.500000  1
  Pd  Pd23  1  0.180107  0.370293  0.000000  1
  Pd  Pd24  1  0.629707  0.809814  0.000000  1
  Pd  Pd25  1  0.190186  0.819893  0.000000  1
  Pd  Pd26  1  0.809814  0.629707  0.000000  1
  Pd  Pd27  1  0.819893  0.190186  0.000000  1
  Pd  Pd28  1  0.370293  0.180107  0.000000  1
  Pd  Pd29  1  0.357773  0.482728  0.500000  1
  Pd  Pd30  1  0.517272  0.875045  0.500000  1
  Pd  Pd31  1  0.124955  0.642227  0.500000  1
  Pd  Pd32  1  0.875045  0.517272  0.500000  1
  Pd  Pd33  1  0.642227  0.124955  0.500000  1
  Pd  Pd34  1  0.482728  0.357773  0.500000  1
  Pd  Pd35  1  0.000000  0.000000  0.000000  1
