# generated using pymatgen
data_Ce2Nd(HgPd)3
_symmetry_space_group_name_H-M   'P 1'
_cell_length_a   7.88202844
_cell_length_b   7.88202726
_cell_length_c   3.87667600
_cell_angle_alpha   90.00000000
_cell_angle_beta   90.00000000
_cell_angle_gamma   120.30784542
_symmetry_Int_Tables_number   1
_chemical_formula_structural   Ce2Nd(HgPd)3
_chemical_formula_sum   'Ce2 Nd1 Hg3 Pd3'
_cell_volume   207.92680822
_cell_formula_units_Z   1
loop_
 _symmetry_equiv_pos_site_id
 _symmetry_equiv_pos_as_xyz
  1  'x, y, z'
loop_
 _atom_site_type_symbol
 _atom_site_label
 _atom_site_symmetry_multiplicity
 _atom_site_fract_x
 _atom_site_fract_y
 _atom_site_fract_z
 _atom_site_occupancy
  Ce  Ce0  1  0.600820  0.000247  0.500000  1
  Ce  Ce1  1  0.000247  0.600820  0.500000  1
  Nd  Nd2  1  0.397646  0.397646  0.500000  1
  Hg  Hg3  1  0.732171  0.732171  0.000000  1
  Hg  Hg4  1  0.265743  0.002273  0.000000  1
  Hg  Hg5  1  0.002273  0.265743  0.000000  1
  Pd  Pd6  1  0.672947  0.332401  0.000000  1
  Pd  Pd7  1  0.332401  0.672947  0.000000  1
  Pd  Pd8  1  0.995751  0.995751  0.500000  1
