# generated using pymatgen
data_Y5Pa(Al3Os)8
_symmetry_space_group_name_H-M   'P 1'
_cell_length_a   8.80520800
_cell_length_b   8.84770112
_cell_length_c   9.57508000
_cell_angle_alpha   90.00000000
_cell_angle_beta   90.00000000
_cell_angle_gamma   119.84124628
_symmetry_Int_Tables_number   1
_chemical_formula_structural   Y5Pa(Al3Os)8
_chemical_formula_sum   'Y5 Pa1 Al24 Os8'
_cell_volume   647.04670452
_cell_formula_units_Z   1
loop_
 _symmetry_equiv_pos_site_id
 _symmetry_equiv_pos_as_xyz
  1  'x, y, z'
loop_
 _atom_site_type_symbol
 _atom_site_label
 _atom_site_symmetry_multiplicity
 _atom_site_fract_x
 _atom_site_fract_y
 _atom_site_fract_z
 _atom_site_occupancy
  Y  Y0  1  0.807966  0.615932  0.750000  1
  Y  Y1  1  0.611392  0.804034  0.250000  1
  Y  Y2  1  0.387187  0.192139  0.750000  1
  Y  Y3  1  0.192642  0.804034  0.250000  1
  Y  Y4  1  0.804952  0.192139  0.750000  1
  Pa  Pa5  1  0.196640  0.393281  0.250000  1
  Al  Al6  1  0.336208  0.672417  0.017823  1
  Al  Al7  1  0.667444  0.334887  0.981475  1
  Al  Al8  1  0.667444  0.334887  0.518525  1
  Al  Al9  1  0.336208  0.672417  0.482177  1
  Al  Al10  1  0.163146  0.326293  0.576789  1
  Al  Al11  1  0.836504  0.673008  0.425258  1
  Al  Al12  1  0.672215  0.835254  0.574648  1
  Al  Al13  1  0.836504  0.673008  0.074742  1
  Al  Al14  1  0.326371  0.162272  0.423767  1
  Al  Al15  1  0.163146  0.326293  0.923211  1
  Al  Al16  1  0.163039  0.835254  0.574648  1
  Al  Al17  1  0.326371  0.162272  0.076233  1
  Al  Al18  1  0.835901  0.162272  0.423767  1
  Al  Al19  1  0.672215  0.835254  0.925352  1
  Al  Al20  1  0.835901  0.162272  0.076233  1
  Al  Al21  1  0.163039  0.835254  0.925352  1
  Al  Al22  1  0.560133  0.120265  0.250000  1
  Al  Al23  1  0.438082  0.876164  0.750000  1
  Al  Al24  1  0.873159  0.437785  0.250000  1
  Al  Al25  1  0.120787  0.559948  0.750000  1
  Al  Al26  1  0.564627  0.437785  0.250000  1
  Al  Al27  1  0.439161  0.559948  0.750000  1
  Al  Al28  1  0.001822  0.003644  0.250000  1
  Al  Al29  1  0.000262  0.000524  0.750000  1
  Os  Os30  1  0.501410  0.002821  0.998506  1
  Os  Os31  1  0.003319  0.499192  0.004897  1
  Os  Os32  1  0.501410  0.002821  0.501494  1
  Os  Os33  1  0.495873  0.499192  0.004897  1
  Os  Os34  1  0.003319  0.499192  0.495103  1
  Os  Os35  1  0.495873  0.499192  0.495103  1
  Os  Os36  1  0.999164  0.998328  0.999322  1
  Os  Os37  1  0.999164  0.998328  0.500678  1
