# generated using pymatgen
data_SmPa3F15
_symmetry_space_group_name_H-M   'P 1'
_cell_length_a   8.74599336
_cell_length_b   8.74599265
_cell_length_c   8.72437459
_cell_angle_alpha   79.94563801
_cell_angle_beta   79.94563652
_cell_angle_gamma   100.20605576
_symmetry_Int_Tables_number   1
_chemical_formula_structural   SmPa3F15
_chemical_formula_sum   'Sm2 Pa6 F30'
_cell_volume   631.99150566
_cell_formula_units_Z   2
loop_
 _symmetry_equiv_pos_site_id
 _symmetry_equiv_pos_as_xyz
  1  'x, y, z'
loop_
 _atom_site_type_symbol
 _atom_site_label
 _atom_site_symmetry_multiplicity
 _atom_site_fract_x
 _atom_site_fract_y
 _atom_site_fract_z
 _atom_site_occupancy
  Sm  Sm0  1  0.178668  0.821332  0.250000  1
  Sm  Sm1  1  0.821332  0.178668  0.750000  1
  Pa  Pa2  1  0.749993  0.250007  0.250000  1
  Pa  Pa3  1  0.250007  0.749993  0.750000  1
  Pa  Pa4  1  0.753283  0.679241  0.674466  1
  Pa  Pa5  1  0.320759  0.246717  0.825534  1
  Pa  Pa6  1  0.246717  0.320759  0.325534  1
  Pa  Pa7  1  0.679241  0.753283  0.174466  1
  F  F8  1  0.468598  0.531402  0.250000  1
  F  F9  1  0.749971  0.963642  0.966263  1
  F  F10  1  0.036358  0.250029  0.533737  1
  F  F11  1  0.250029  0.036358  0.033737  1
  F  F12  1  0.963642  0.749971  0.466263  1
  F  F13  1  0.531402  0.468598  0.750000  1
  F  F14  1  0.774425  0.279238  0.991176  1
  F  F15  1  0.011944  0.274551  0.214725  1
  F  F16  1  0.780187  0.510153  0.226504  1
  F  F17  1  0.510153  0.780187  0.726504  1
  F  F18  1  0.274551  0.011944  0.714725  1
  F  F19  1  0.279238  0.774425  0.491176  1
  F  F20  1  0.225575  0.720762  0.008824  1
  F  F21  1  0.988056  0.725449  0.785275  1
  F  F22  1  0.219813  0.489847  0.773496  1
  F  F23  1  0.489847  0.219813  0.273496  1
  F  F24  1  0.725449  0.988056  0.285275  1
  F  F25  1  0.720762  0.225575  0.508824  1
  F  F26  1  0.316800  0.350626  0.051601  1
  F  F27  1  0.944236  0.812545  0.152366  1
  F  F28  1  0.843379  0.453335  0.683324  1
  F  F29  1  0.453335  0.843379  0.183324  1
  F  F30  1  0.812545  0.944236  0.652366  1
  F  F31  1  0.350626  0.316800  0.551601  1
  F  F32  1  0.683200  0.649374  0.948399  1
  F  F33  1  0.055764  0.187455  0.847634  1
  F  F34  1  0.156621  0.546665  0.316676  1
  F  F35  1  0.546665  0.156621  0.816676  1
  F  F36  1  0.187455  0.055764  0.347634  1
  F  F37  1  0.649374  0.683200  0.448399  1
