# generated using pymatgen
data_CaTm3(Si4Tc3)2
_symmetry_space_group_name_H-M   'P 1'
_cell_length_a   6.77886932
_cell_length_b   6.67282235
_cell_length_c   6.76738223
_cell_angle_alpha   70.29718428
_cell_angle_beta   90.02891214
_cell_angle_gamma   89.78200142
_symmetry_Int_Tables_number   1
_chemical_formula_structural   CaTm3(Si4Tc3)2
_chemical_formula_sum   'Ca1 Tm3 Si8 Tc6'
_cell_volume   288.19251637
_cell_formula_units_Z   1
loop_
 _symmetry_equiv_pos_site_id
 _symmetry_equiv_pos_as_xyz
  1  'x, y, z'
loop_
 _atom_site_type_symbol
 _atom_site_label
 _atom_site_symmetry_multiplicity
 _atom_site_fract_x
 _atom_site_fract_y
 _atom_site_fract_z
 _atom_site_occupancy
  Ca  Ca0  1  0.332676  0.556414  0.813290  1
  Tm  Tm1  1  0.831631  0.941968  0.192599  1
  Tm  Tm2  1  0.668135  0.442566  0.191736  1
  Tm  Tm3  1  0.169052  0.058579  0.806545  1
  Si  Si4  1  0.548594  0.878687  0.897610  1
  Si  Si5  1  0.048858  0.622086  0.102654  1
  Si  Si6  1  0.451497  0.122041  0.101472  1
  Si  Si7  1  0.951644  0.378682  0.896842  1
  Si  Si8  1  0.141859  0.865568  0.490347  1
  Si  Si9  1  0.640094  0.631730  0.513013  1
  Si  Si10  1  0.859184  0.132806  0.510714  1
  Si  Si11  1  0.358541  0.369237  0.488230  1
  Tc  Tc12  1  0.501222  0.003480  0.497202  1
  Tc  Tc13  1  0.996206  0.500261  0.496062  1
  Tc  Tc14  1  0.846875  0.758235  0.763479  1
  Tc  Tc15  1  0.346896  0.744466  0.236659  1
  Tc  Tc16  1  0.150399  0.239164  0.237839  1
  Tc  Tc17  1  0.656637  0.254032  0.763707  1
