# generated using pymatgen
data_NdTh5PtCl15
_symmetry_space_group_name_H-M   'P 1'
_cell_length_a   9.91808383
_cell_length_b   9.91802599
_cell_length_c   9.91802644
_cell_angle_alpha   109.36534879
_cell_angle_beta   109.52426647
_cell_angle_gamma   109.52457040
_symmetry_Int_Tables_number   1
_chemical_formula_structural   NdTh5PtCl15
_chemical_formula_sum   'Nd1 Th5 Pt1 Cl15'
_cell_volume   751.02214611
_cell_formula_units_Z   1
loop_
 _symmetry_equiv_pos_site_id
 _symmetry_equiv_pos_as_xyz
  1  'x, y, z'
loop_
 _atom_site_type_symbol
 _atom_site_label
 _atom_site_symmetry_multiplicity
 _atom_site_fract_x
 _atom_site_fract_y
 _atom_site_fract_z
 _atom_site_occupancy
  Nd  Nd0  1  0.000001  0.252163  0.252163  1
  Th  Th1  1  0.000000  0.748832  0.748833  1
  Th  Th2  1  0.248833  0.003139  0.251973  1
  Th  Th3  1  0.751167  0.003136  0.754304  1
  Th  Th4  1  0.248833  0.251972  0.003139  1
  Th  Th5  1  0.751167  0.754305  0.003137  1
  Pt  Pt6  1  0.000001  0.996599  0.996599  1
  Cl  Cl7  1  0.487507  0.243413  0.243412  1
  Cl  Cl8  1  0.512493  0.755907  0.755909  1
  Cl  Cl9  1  0.000001  0.243415  0.755911  1
  Cl  Cl10  1  0.000000  0.755910  0.243415  1
  Cl  Cl11  1  0.246894  0.488231  0.241334  1
  Cl  Cl12  1  0.753104  0.994440  0.241333  1
  Cl  Cl13  1  0.756489  0.514405  0.757915  1
  Cl  Cl14  1  0.243509  0.001427  0.757918  1
  Cl  Cl15  1  0.246895  0.241336  0.488232  1
  Cl  Cl16  1  0.756490  0.757916  0.514405  1
  Cl  Cl17  1  0.753105  0.241335  0.994441  1
  Cl  Cl18  1  0.243511  0.757919  0.001427  1
  Cl  Cl19  1  0.999998  0.505107  0.505106  1
  Cl  Cl20  1  0.500003  0.994546  0.494546  1
  Cl  Cl21  1  0.500001  0.494545  0.994545  1
