# generated using pymatgen
data_Er3Tm17(CoBi2)4
_symmetry_space_group_name_H-M   'P 1'
_cell_length_a   7.86819417
_cell_length_b   8.83146200
_cell_length_c   12.24941926
_cell_angle_alpha   90.00000000
_cell_angle_beta   89.97613691
_cell_angle_gamma   90.00000000
_symmetry_Int_Tables_number   1
_chemical_formula_structural   Er3Tm17(CoBi2)4
_chemical_formula_sum   'Er3 Tm17 Co4 Bi8'
_cell_volume   851.18338067
_cell_formula_units_Z   1
loop_
 _symmetry_equiv_pos_site_id
 _symmetry_equiv_pos_as_xyz
  1  'x, y, z'
loop_
 _atom_site_type_symbol
 _atom_site_label
 _atom_site_symmetry_multiplicity
 _atom_site_fract_x
 _atom_site_fract_y
 _atom_site_fract_z
 _atom_site_occupancy
  Er  Er0  1  0.345990  0.750000  0.699715  1
  Er  Er1  1  0.653929  0.250000  0.300214  1
  Er  Er2  1  0.846218  0.250000  0.800444  1
  Tm  Tm3  1  0.153624  0.750000  0.199380  1
  Tm  Tm4  1  0.886054  0.750000  0.812071  1
  Tm  Tm5  1  0.113891  0.250000  0.187882  1
  Tm  Tm6  1  0.386161  0.250000  0.687861  1
  Tm  Tm7  1  0.613697  0.750000  0.312136  1
  Tm  Tm8  1  0.674048  0.538305  0.562601  1
  Tm  Tm9  1  0.325929  0.461692  0.437379  1
  Tm  Tm10  1  0.174066  0.461765  0.937463  1
  Tm  Tm11  1  0.325929  0.038308  0.437379  1
  Tm  Tm12  1  0.826166  0.538554  0.062710  1
  Tm  Tm13  1  0.674048  0.961695  0.562601  1
  Tm  Tm14  1  0.826166  0.961446  0.062710  1
  Tm  Tm15  1  0.174066  0.038235  0.937463  1
  Tm  Tm16  1  0.054609  0.750000  0.497903  1
  Tm  Tm17  1  0.945446  0.250000  0.501962  1
  Tm  Tm18  1  0.554556  0.250000  0.001988  1
  Tm  Tm19  1  0.445109  0.750000  0.998175  1
  Co  Co20  1  0.067076  0.750000  0.991758  1
  Co  Co21  1  0.933035  0.250000  0.008412  1
  Co  Co22  1  0.567057  0.250000  0.508371  1
  Co  Co23  1  0.433060  0.750000  0.491628  1
  Bi  Bi24  1  0.570869  0.509939  0.827134  1
  Bi  Bi25  1  0.428893  0.490322  0.172923  1
  Bi  Bi26  1  0.070804  0.490084  0.672848  1
  Bi  Bi27  1  0.428893  0.009678  0.172923  1
  Bi  Bi28  1  0.929468  0.510201  0.326992  1
  Bi  Bi29  1  0.570869  0.990061  0.827134  1
  Bi  Bi30  1  0.929468  0.989799  0.326992  1
  Bi  Bi31  1  0.070804  0.009916  0.672848  1
