# generated using pymatgen
data_Dy3Ho5(Si3Rh)4
_symmetry_space_group_name_H-M   'P 1'
_cell_length_a   8.17060600
_cell_length_b   8.17060591
_cell_length_c   7.87282300
_cell_angle_alpha   90.00000000
_cell_angle_beta   90.00000000
_cell_angle_gamma   120.00225490
_symmetry_Int_Tables_number   1
_chemical_formula_structural   Dy3Ho5(Si3Rh)4
_chemical_formula_sum   'Dy3 Ho5 Si12 Rh4'
_cell_volume   455.15548764
_cell_formula_units_Z   1
loop_
 _symmetry_equiv_pos_site_id
 _symmetry_equiv_pos_as_xyz
  1  'x, y, z'
loop_
 _atom_site_type_symbol
 _atom_site_label
 _atom_site_symmetry_multiplicity
 _atom_site_fract_x
 _atom_site_fract_y
 _atom_site_fract_z
 _atom_site_occupancy
  Dy  Dy0  1  0.999992  0.000008  0.250000  1
  Dy  Dy1  1  0.000011  0.999989  0.750000  1
  Dy  Dy2  1  0.508969  0.491031  0.250000  1
  Ho  Ho3  1  0.508959  0.017884  0.250000  1
  Ho  Ho4  1  0.982116  0.491041  0.250000  1
  Ho  Ho5  1  0.491044  0.508956  0.750000  1
  Ho  Ho6  1  0.491044  0.982095  0.750000  1
  Ho  Ho7  1  0.017905  0.508956  0.750000  1
  Si  Si8  1  0.166884  0.833116  0.499414  1
  Si  Si9  1  0.166842  0.333742  0.499430  1
  Si  Si10  1  0.666258  0.833158  0.499430  1
  Si  Si11  1  0.833115  0.166885  0.500600  1
  Si  Si12  1  0.833174  0.666267  0.500650  1
  Si  Si13  1  0.333733  0.166826  0.500650  1
  Si  Si14  1  0.833115  0.166885  0.999400  1
  Si  Si15  1  0.833174  0.666267  0.999350  1
  Si  Si16  1  0.333733  0.166826  0.999350  1
  Si  Si17  1  0.166884  0.833116  0.000586  1
  Si  Si18  1  0.166842  0.333742  0.000570  1
  Si  Si19  1  0.666258  0.833158  0.000570  1
  Rh  Rh20  1  0.333281  0.666719  0.466648  1
  Rh  Rh21  1  0.666693  0.333307  0.533470  1
  Rh  Rh22  1  0.666693  0.333307  0.966530  1
  Rh  Rh23  1  0.333281  0.666719  0.033352  1
