# generated using pymatgen
data_Dy3In3Rh2Au
_symmetry_space_group_name_H-M   'P 1'
_cell_length_a   7.76257300
_cell_length_b   7.76257412
_cell_length_c   3.80389600
_cell_angle_alpha   90.00000000
_cell_angle_beta   90.00000000
_cell_angle_gamma   119.99999096
_symmetry_Int_Tables_number   1
_chemical_formula_structural   Dy3In3Rh2Au
_chemical_formula_sum   'Dy3 In3 Rh2 Au1'
_cell_volume   198.50468597
_cell_formula_units_Z   1
loop_
 _symmetry_equiv_pos_site_id
 _symmetry_equiv_pos_as_xyz
  1  'x, y, z'
loop_
 _atom_site_type_symbol
 _atom_site_label
 _atom_site_symmetry_multiplicity
 _atom_site_fract_x
 _atom_site_fract_y
 _atom_site_fract_z
 _atom_site_occupancy
  Dy  Dy0  1  0.018955  0.605350  0.500000  1
  Dy  Dy1  1  0.586396  0.981045  0.500000  1
  Dy  Dy2  1  0.394650  0.413604  0.500000  1
  In  In3  1  0.003727  0.258969  0.000000  1
  In  In4  1  0.255241  0.996273  0.000000  1
  In  In5  1  0.741031  0.744759  0.000000  1
  Rh  Rh6  1  0.000000  0.000000  0.500000  1
  Rh  Rh7  1  0.333333  0.666667  0.000000  1
  Au  Au8  1  0.666667  0.333333  0.000000  1
