# generated using pymatgen
data_Pr(Al3Ni)3
_symmetry_space_group_name_H-M   'P 1'
_cell_length_a   10.19485780
_cell_length_b   10.19531342
_cell_length_c   10.19522773
_cell_angle_alpha   42.34800633
_cell_angle_beta   42.32618550
_cell_angle_gamma   42.34804061
_symmetry_Int_Tables_number   1
_chemical_formula_structural   Pr(Al3Ni)3
_chemical_formula_sum   'Pr2 Al18 Ni6'
_cell_volume   435.15395390
_cell_formula_units_Z   2
loop_
 _symmetry_equiv_pos_site_id
 _symmetry_equiv_pos_as_xyz
  1  'x, y, z'
loop_
 _atom_site_type_symbol
 _atom_site_label
 _atom_site_symmetry_multiplicity
 _atom_site_fract_x
 _atom_site_fract_y
 _atom_site_fract_z
 _atom_site_occupancy
  Pr  Pr0  1  0.166845  0.167022  0.166718  1
  Pr  Pr1  1  0.833284  0.832972  0.833152  1
  Al  Al2  1  0.051078  0.051124  0.051109  1
  Al  Al3  1  0.704410  0.499998  0.295596  1
  Al  Al4  1  0.665241  0.334717  0.000041  1
  Al  Al5  1  0.102075  0.429328  0.756960  1
  Al  Al6  1  0.429397  0.756972  0.102160  1
  Al  Al7  1  0.385825  0.385894  0.385835  1
  Al  Al8  1  0.334624  0.999987  0.665362  1
  Al  Al9  1  0.614214  0.614082  0.614186  1
  Al  Al10  1  0.243070  0.570676  0.897910  1
  Al  Al11  1  0.570678  0.897961  0.242877  1
  Al  Al12  1  0.500056  0.295424  0.704537  1
  Al  Al13  1  0.757148  0.102063  0.429304  1
  Al  Al14  1  0.948864  0.948873  0.948961  1
  Al  Al15  1  0.295479  0.704559  0.499934  1
  Al  Al16  1  0.000008  0.665343  0.334666  1
  Al  Al17  1  0.717479  0.717626  0.717618  1
  Al  Al18  1  0.282408  0.282367  0.282499  1
  Al  Al19  1  0.897786  0.243007  0.570653  1
  Ni  Ni20  1  0.243898  0.921419  0.582584  1
  Ni  Ni21  1  0.921437  0.582695  0.244003  1
  Ni  Ni22  1  0.756066  0.417240  0.078595  1
  Ni  Ni23  1  0.078504  0.756081  0.417280  1
  Ni  Ni24  1  0.417435  0.078617  0.755964  1
  Ni  Ni25  1  0.582693  0.243954  0.921496  1
