# generated using pymatgen
data_YbSmYGa9Pd2
_symmetry_space_group_name_H-M   'P 1'
_cell_length_a   8.17580706
_cell_length_b   8.17580689
_cell_length_c   8.17580733
_cell_angle_alpha   149.19820748
_cell_angle_beta   109.42130932
_cell_angle_gamma   78.96224551
_symmetry_Int_Tables_number   1
_chemical_formula_structural   YbSmYGa9Pd2
_chemical_formula_sum   'Yb1 Sm1 Y1 Ga9 Pd2'
_cell_volume   258.85919874
_cell_formula_units_Z   1
loop_
 _symmetry_equiv_pos_site_id
 _symmetry_equiv_pos_as_xyz
  1  'x, y, z'
loop_
 _atom_site_type_symbol
 _atom_site_label
 _atom_site_symmetry_multiplicity
 _atom_site_fract_x
 _atom_site_fract_y
 _atom_site_fract_z
 _atom_site_occupancy
  Yb  Yb0  1  0.800067  0.800067  0.000000  1
  Sm  Sm1  1  0.500415  0.500415  0.000000  1
  Y  Y2  1  0.201102  0.201102  0.000000  1
  Ga  Ga3  1  0.076044  0.359718  0.716326  1
  Ga  Ga4  1  0.920031  0.637853  0.282178  1
  Ga  Ga5  1  0.643392  0.359718  0.283674  1
  Ga  Ga6  1  0.355674  0.637853  0.717822  1
  Ga  Ga7  1  0.794069  0.158403  0.635665  1
  Ga  Ga8  1  0.210510  0.844500  0.366010  1
  Ga  Ga9  1  0.522737  0.158403  0.364335  1
  Ga  Ga10  1  0.478491  0.844500  0.633990  1
  Ga  Ga11  1  0.999667  0.499667  0.500000  1
  Pd  Pd12  1  0.816619  0.998900  0.817719  1
  Pd  Pd13  1  0.181183  0.998900  0.182281  1
