# generated using pymatgen
data_Lu12CdFe3Bi
_symmetry_space_group_name_H-M   'P 1'
_cell_length_a   8.20987888
_cell_length_b   8.20987840
_cell_length_c   8.20987824
_cell_angle_alpha   108.08920943
_cell_angle_beta   108.90814605
_cell_angle_gamma   111.43531758
_symmetry_Int_Tables_number   1
_chemical_formula_structural   Lu12CdFe3Bi
_chemical_formula_sum   'Lu12 Cd1 Fe3 Bi1'
_cell_volume   425.58128043
_cell_formula_units_Z   1
loop_
 _symmetry_equiv_pos_site_id
 _symmetry_equiv_pos_as_xyz
  1  'x, y, z'
loop_
 _atom_site_type_symbol
 _atom_site_label
 _atom_site_symmetry_multiplicity
 _atom_site_fract_x
 _atom_site_fract_y
 _atom_site_fract_z
 _atom_site_occupancy
  Lu  Lu0  1  0.313351  0.303772  0.617123  1
  Lu  Lu1  1  0.686649  0.696228  0.382877  1
  Lu  Lu2  1  0.686649  0.303772  0.990421  1
  Lu  Lu3  1  0.313351  0.696228  0.009579  1
  Lu  Lu4  1  0.194151  0.424234  0.230082  1
  Lu  Lu5  1  0.805849  0.575766  0.769918  1
  Lu  Lu6  1  0.194151  0.964068  0.769918  1
  Lu  Lu7  1  0.951265  0.190080  0.761187  1
  Lu  Lu8  1  0.805849  0.035932  0.230082  1
  Lu  Lu9  1  0.048735  0.809920  0.238813  1
  Lu  Lu10  1  0.428893  0.190080  0.238813  1
  Lu  Lu11  1  0.571107  0.809920  0.761187  1
  Cd  Cd12  1  0.500000  0.000000  0.500000  1
  Fe  Fe13  1  0.383551  0.383551  0.000000  1
  Fe  Fe14  1  0.616449  0.616449  0.000000  1
  Fe  Fe15  1  0.000000  0.000000  0.000000  1
  Bi  Bi16  1  0.000000  0.500000  0.500000  1
