# generated using pymatgen
data_CeTm4(TcB3)2
_symmetry_space_group_name_H-M   'P 1'
_cell_length_a   5.50109922
_cell_length_b   5.50109917
_cell_length_c   8.34050806
_cell_angle_alpha   70.74446093
_cell_angle_beta   70.74446354
_cell_angle_gamma   60.00000651
_symmetry_Int_Tables_number   1
_chemical_formula_structural   CeTm4(TcB3)2
_chemical_formula_sum   'Ce1 Tm4 Tc2 B6'
_cell_volume   202.11712383
_cell_formula_units_Z   1
loop_
 _symmetry_equiv_pos_site_id
 _symmetry_equiv_pos_as_xyz
  1  'x, y, z'
loop_
 _atom_site_type_symbol
 _atom_site_label
 _atom_site_symmetry_multiplicity
 _atom_site_fract_x
 _atom_site_fract_y
 _atom_site_fract_z
 _atom_site_occupancy
  Ce  Ce0  1  0.000000  0.000000  0.000000  1
  Tm  Tm1  1  0.751911  0.751911  0.744266  1
  Tm  Tm2  1  0.248089  0.248089  0.255734  1
  Tm  Tm3  1  0.581727  0.581727  0.254818  1
  Tm  Tm4  1  0.418273  0.418273  0.745182  1
  Tc  Tc5  1  0.892687  0.892687  0.321940  1
  Tc  Tc6  1  0.107313  0.107313  0.678061  1
  B  B7  1  0.500000  0.171425  0.500000  1
  B  B8  1  0.828575  0.500000  0.500000  1
  B  B9  1  0.171425  0.828575  0.500000  1
  B  B10  1  0.171425  0.500000  0.500000  1
  B  B11  1  0.828575  0.171425  0.500000  1
  B  B12  1  0.500000  0.828575  0.500000  1
