# generated using pymatgen
data_Er15Tm5Sn7Pb9
_symmetry_space_group_name_H-M   'P 1'
_cell_length_a   8.09001985
_cell_length_b   8.13651272
_cell_length_c   15.44240301
_cell_angle_alpha   90.00408283
_cell_angle_beta   89.99975993
_cell_angle_gamma   90.05029516
_symmetry_Int_Tables_number   1
_chemical_formula_structural   Er15Tm5Sn7Pb9
_chemical_formula_sum   'Er15 Tm5 Sn7 Pb9'
_cell_volume   1016.48882592
_cell_formula_units_Z   1
loop_
 _symmetry_equiv_pos_site_id
 _symmetry_equiv_pos_as_xyz
  1  'x, y, z'
loop_
 _atom_site_type_symbol
 _atom_site_label
 _atom_site_symmetry_multiplicity
 _atom_site_fract_x
 _atom_site_fract_y
 _atom_site_fract_z
 _atom_site_occupancy
  Er  Er0  1  0.880482  0.661086  0.623487  1
  Er  Er1  1  0.619712  0.161120  0.377170  1
  Er  Er2  1  0.119613  0.337383  0.122935  1
  Er  Er3  1  0.619734  0.161183  0.122819  1
  Er  Er4  1  0.119592  0.337399  0.376999  1
  Er  Er5  1  0.380182  0.838473  0.623397  1
  Er  Er6  1  0.880557  0.661049  0.876564  1
  Er  Er7  1  0.537950  0.324843  0.895832  1
  Er  Er8  1  0.038447  0.174583  0.604395  1
  Er  Er9  1  0.464672  0.675157  0.397178  1
  Er  Er10  1  0.959791  0.827091  0.101557  1
  Er  Er11  1  0.464621  0.675154  0.102767  1
  Er  Er12  1  0.959835  0.827121  0.398451  1
  Er  Er13  1  0.537956  0.324874  0.604187  1
  Er  Er14  1  0.038480  0.174557  0.895603  1
  Tm  Tm15  1  0.380146  0.838525  0.876549  1
  Tm  Tm16  1  0.211014  0.503620  0.750057  1
  Tm  Tm17  1  0.710808  0.996317  0.750049  1
  Tm  Tm18  1  0.787224  0.494805  0.250008  1
  Tm  Tm19  1  0.291137  0.006581  0.250003  1
  Sn  Sn20  1  0.575587  0.623132  0.750101  1
  Sn  Sn21  1  0.075995  0.876510  0.750068  1
  Sn  Sn22  1  0.424856  0.376149  0.249998  1
  Sn  Sn23  1  0.924126  0.122093  0.249989  1
  Sn  Sn24  1  0.346227  0.149195  0.750064  1
  Sn  Sn25  1  0.846146  0.350631  0.749998  1
  Sn  Sn26  1  0.654829  0.850185  0.250006  1
  Pb  Pb27  1  0.280537  0.031423  0.040850  1
  Pb  Pb28  1  0.781488  0.467390  0.459056  1
  Pb  Pb29  1  0.718559  0.968456  0.542066  1
  Pb  Pb30  1  0.219367  0.531850  0.958683  1
  Pb  Pb31  1  0.718226  0.968390  0.957870  1
  Pb  Pb32  1  0.219208  0.531564  0.541278  1
  Pb  Pb33  1  0.280430  0.031616  0.458989  1
  Pb  Pb34  1  0.781476  0.467382  0.040960  1
  Pb  Pb35  1  0.150984  0.653111  0.250015  1
