# generated using pymatgen
data_Sc3In3Ni2Hg
_symmetry_space_group_name_H-M   'P 1'
_cell_length_a   7.64579400
_cell_length_b   7.64579328
_cell_length_c   3.45488900
_cell_angle_alpha   90.00000000
_cell_angle_beta   90.00000000
_cell_angle_gamma   120.00000313
_symmetry_Int_Tables_number   1
_chemical_formula_structural   Sc3In3Ni2Hg
_chemical_formula_sum   'Sc3 In3 Ni2 Hg1'
_cell_volume   174.90807537
_cell_formula_units_Z   1
loop_
 _symmetry_equiv_pos_site_id
 _symmetry_equiv_pos_as_xyz
  1  'x, y, z'
loop_
 _atom_site_type_symbol
 _atom_site_label
 _atom_site_symmetry_multiplicity
 _atom_site_fract_x
 _atom_site_fract_y
 _atom_site_fract_z
 _atom_site_occupancy
  Sc  Sc0  1  0.588856  0.967263  0.000000  1
  Sc  Sc1  1  0.378406  0.411144  0.000000  1
  Sc  Sc2  1  0.032737  0.621594  0.000000  1
  In  In3  1  0.736151  0.738777  0.500000  1
  In  In4  1  0.002627  0.263849  0.500000  1
  In  In5  1  0.261223  0.997373  0.500000  1
  Ni  Ni6  1  0.000000  0.000000  0.000000  1
  Ni  Ni7  1  0.333333  0.666667  0.500000  1
  Hg  Hg8  1  0.666667  0.333333  0.500000  1
