# generated using pymatgen
data_Sc12Ni4SnRu
_symmetry_space_group_name_H-M   'P 1'
_cell_length_a   7.75259513
_cell_length_b   7.75362760
_cell_length_c   7.77348106
_cell_angle_alpha   106.28552498
_cell_angle_beta   110.71029751
_cell_angle_gamma   111.32686845
_symmetry_Int_Tables_number   1
_chemical_formula_structural   Sc12Ni4SnRu
_chemical_formula_sum   'Sc12 Ni4 Sn1 Ru1'
_cell_volume   359.49286002
_cell_formula_units_Z   1
loop_
 _symmetry_equiv_pos_site_id
 _symmetry_equiv_pos_as_xyz
  1  'x, y, z'
loop_
 _atom_site_type_symbol
 _atom_site_label
 _atom_site_symmetry_multiplicity
 _atom_site_fract_x
 _atom_site_fract_y
 _atom_site_fract_z
 _atom_site_occupancy
  Sc  Sc0  1  0.694651  0.276504  0.971263  1
  Sc  Sc1  1  0.305308  0.723737  0.029004  1
  Sc  Sc2  1  0.694559  0.723637  0.418252  1
  Sc  Sc3  1  0.305376  0.276180  0.581553  1
  Sc  Sc4  1  0.800990  0.121445  0.320472  1
  Sc  Sc5  1  0.800995  0.480458  0.679598  1
  Sc  Sc6  1  0.199096  0.878744  0.679647  1
  Sc  Sc7  1  0.198948  0.519274  0.320199  1
  Sc  Sc8  1  0.597531  0.780108  0.817345  1
  Sc  Sc9  1  0.962507  0.780171  0.182377  1
  Sc  Sc10  1  0.037258  0.219745  0.817505  1
  Sc  Sc11  1  0.402072  0.219771  0.182368  1
  Ni  Ni12  1  0.855162  0.500192  0.355237  1
  Ni  Ni13  1  0.146065  0.500278  0.645583  1
  Ni  Ni14  1  0.999709  0.125697  0.125559  1
  Ni  Ni15  1  0.999766  0.873890  0.873943  1
  Sn  Sn16  1  0.500180  0.000239  0.500123  1
  Ru  Ru17  1  0.499826  0.499929  0.999970  1
