# generated using pymatgen
data_LaGd2Ho3Ta2O14
_symmetry_space_group_name_H-M   'P 1'
_cell_length_a   6.51844193
_cell_length_b   6.53366468
_cell_length_c   7.57609569
_cell_angle_alpha   89.90532592
_cell_angle_beta   90.14407154
_cell_angle_gamma   108.71543024
_symmetry_Int_Tables_number   1
_chemical_formula_structural   LaGd2Ho3Ta2O14
_chemical_formula_sum   'La1 Gd2 Ho3 Ta2 O14'
_cell_volume   305.59858863
_cell_formula_units_Z   1
loop_
 _symmetry_equiv_pos_site_id
 _symmetry_equiv_pos_as_xyz
  1  'x, y, z'
loop_
 _atom_site_type_symbol
 _atom_site_label
 _atom_site_symmetry_multiplicity
 _atom_site_fract_x
 _atom_site_fract_y
 _atom_site_fract_z
 _atom_site_occupancy
  La  La0  1  0.507445  0.508422  0.501040  1
  Gd  Gd1  1  0.465337  0.464675  0.998943  1
  Gd  Gd2  1  0.998752  0.534023  0.241725  1
  Ho  Ho3  1  0.998440  0.465890  0.746055  1
  Ho  Ho4  1  0.534387  0.000004  0.758422  1
  Ho  Ho5  1  0.467058  0.998060  0.253570  1
  Ta  Ta6  1  0.000742  0.000154  0.500948  1
  Ta  Ta7  1  0.997559  0.997178  0.998990  1
  O  O8  1  0.932567  0.065903  0.749644  1
  O  O9  1  0.066555  0.937874  0.250373  1
  O  O10  1  0.360172  0.643692  0.241046  1
  O  O11  1  0.643405  0.355444  0.758646  1
  O  O12  1  0.365182  0.635096  0.757798  1
  O  O13  1  0.628114  0.361484  0.242721  1
  O  O14  1  0.325730  0.076180  0.973241  1
  O  O15  1  0.677848  0.930406  0.471275  1
  O  O16  1  0.314792  0.059715  0.541102  1
  O  O17  1  0.692581  0.951873  0.041994  1
  O  O18  1  0.064143  0.315512  0.464078  1
  O  O19  1  0.949757  0.693427  0.954992  1
  O  O20  1  0.928990  0.678983  0.531298  1
  O  O21  1  0.080445  0.326005  0.022097  1
