# generated using pymatgen
data_Sm(OsO3)3
_symmetry_space_group_name_H-M   'P 1'
_cell_length_a   7.44649700
_cell_length_b   5.28344967
_cell_length_c   8.23070298
_cell_angle_alpha   85.37624517
_cell_angle_beta   90.00000000
_cell_angle_gamma   90.00000000
_symmetry_Int_Tables_number   1
_chemical_formula_structural   Sm(OsO3)3
_chemical_formula_sum   'Sm2 Os6 O18'
_cell_volume   322.76826281
_cell_formula_units_Z   2
loop_
 _symmetry_equiv_pos_site_id
 _symmetry_equiv_pos_as_xyz
  1  'x, y, z'
loop_
 _atom_site_type_symbol
 _atom_site_label
 _atom_site_symmetry_multiplicity
 _atom_site_fract_x
 _atom_site_fract_y
 _atom_site_fract_z
 _atom_site_occupancy
  Sm  Sm0  1  0.250000  0.971237  0.426596  1
  Sm  Sm1  1  0.750000  0.028763  0.573404  1
  Os  Os2  1  0.000000  0.000000  0.000000  1
  Os  Os3  1  0.500000  0.000000  0.000000  1
  Os  Os4  1  0.004573  0.536980  0.693149  1
  Os  Os5  1  0.495427  0.536980  0.693149  1
  Os  Os6  1  0.995427  0.463020  0.306851  1
  Os  Os7  1  0.504573  0.463020  0.306851  1
  O  O8  1  0.250000  0.916863  0.985682  1
  O  O9  1  0.938149  0.847460  0.790519  1
  O  O10  1  0.561851  0.847460  0.790519  1
  O  O11  1  0.963371  0.735942  0.471626  1
  O  O12  1  0.536629  0.735942  0.471626  1
  O  O13  1  0.250000  0.649018  0.670230  1
  O  O14  1  0.960628  0.690236  0.123282  1
  O  O15  1  0.539372  0.690236  0.123282  1
  O  O16  1  0.250000  0.574552  0.312379  1
  O  O17  1  0.750000  0.425448  0.687621  1
  O  O18  1  0.039372  0.309764  0.876718  1
  O  O19  1  0.460628  0.309764  0.876718  1
  O  O20  1  0.750000  0.350982  0.329770  1
  O  O21  1  0.036629  0.264058  0.528374  1
  O  O22  1  0.463371  0.264058  0.528374  1
  O  O23  1  0.061851  0.152540  0.209481  1
  O  O24  1  0.438149  0.152540  0.209481  1
  O  O25  1  0.750000  0.083137  0.014318  1
