# generated using pymatgen
data_Ba2Eu3(InSb3)2
_symmetry_space_group_name_H-M   'P 1'
_cell_length_a   12.79127900
_cell_length_b   14.87653000
_cell_length_c   4.86103100
_cell_angle_alpha   90.00000000
_cell_angle_beta   90.00000000
_cell_angle_gamma   90.00000000
_symmetry_Int_Tables_number   1
_chemical_formula_structural   Ba2Eu3(InSb3)2
_chemical_formula_sum   'Ba4 Eu6 In4 Sb12'
_cell_volume   925.00483933
_cell_formula_units_Z   2
loop_
 _symmetry_equiv_pos_site_id
 _symmetry_equiv_pos_as_xyz
  1  'x, y, z'
loop_
 _atom_site_type_symbol
 _atom_site_label
 _atom_site_symmetry_multiplicity
 _atom_site_fract_x
 _atom_site_fract_y
 _atom_site_fract_z
 _atom_site_occupancy
  Ba  Ba0  1  0.324930  0.024960  0.000000  1
  Ba  Ba1  1  0.675070  0.975040  0.000000  1
  Ba  Ba2  1  0.824931  0.475040  0.000000  1
  Ba  Ba3  1  0.175070  0.524959  0.000000  1
  Eu  Eu4  1  0.914637  0.744908  0.000000  1
  Eu  Eu5  1  0.085362  0.255092  0.000000  1
  Eu  Eu6  1  0.414638  0.755093  0.000000  1
  Eu  Eu7  1  0.585363  0.244907  0.000000  1
  Eu  Eu8  1  0.000000  0.000000  0.000000  1
  Eu  Eu9  1  0.500000  0.500000  0.000000  1
  In  In10  1  0.324463  0.217905  0.500001  1
  In  In11  1  0.675537  0.782094  0.500001  1
  In  In12  1  0.824462  0.282095  0.500001  1
  In  In13  1  0.175537  0.717906  0.500001  1
  Sb  Sb14  1  0.135086  0.106362  0.500001  1
  Sb  Sb15  1  0.864915  0.893638  0.500001  1
  Sb  Sb16  1  0.635086  0.393637  0.500001  1
  Sb  Sb17  1  0.364915  0.606363  0.500001  1
  Sb  Sb18  1  0.522389  0.098594  0.500001  1
  Sb  Sb19  1  0.477611  0.901406  0.500001  1
  Sb  Sb20  1  0.022389  0.401407  0.500001  1
  Sb  Sb21  1  0.977611  0.598593  0.500001  1
  Sb  Sb22  1  0.162012  0.823404  0.000000  1
  Sb  Sb23  1  0.837988  0.176595  0.000000  1
  Sb  Sb24  1  0.662012  0.676595  0.000000  1
  Sb  Sb25  1  0.337988  0.323405  0.000000  1
