# generated using pymatgen
data_Dy7ScHg4
_symmetry_space_group_name_H-M   'P 1'
_cell_length_a   5.04720700
_cell_length_b   7.05625360
_cell_length_c   9.20077610
_cell_angle_alpha   89.78946475
_cell_angle_beta   90.00000000
_cell_angle_gamma   90.00000000
_symmetry_Int_Tables_number   1
_chemical_formula_structural   Dy7ScHg4
_chemical_formula_sum   'Dy7 Sc1 Hg4'
_cell_volume   327.67765563
_cell_formula_units_Z   1
loop_
 _symmetry_equiv_pos_site_id
 _symmetry_equiv_pos_as_xyz
  1  'x, y, z'
loop_
 _atom_site_type_symbol
 _atom_site_label
 _atom_site_symmetry_multiplicity
 _atom_site_fract_x
 _atom_site_fract_y
 _atom_site_fract_z
 _atom_site_occupancy
  Dy  Dy0  1  0.250000  0.023219  0.808741  1
  Dy  Dy1  1  0.250000  0.516021  0.697983  1
  Dy  Dy2  1  0.750000  0.985268  0.189313  1
  Dy  Dy3  1  0.750000  0.481680  0.304810  1
  Dy  Dy4  1  0.250000  0.171537  0.424639  1
  Dy  Dy5  1  0.250000  0.663380  0.072209  1
  Dy  Dy6  1  0.750000  0.832181  0.574509  1
  Sc  Sc7  1  0.750000  0.333322  0.926749  1
  Hg  Hg8  1  0.250000  0.736554  0.395871  1
  Hg  Hg9  1  0.250000  0.237814  0.096500  1
  Hg  Hg10  1  0.750000  0.266713  0.611469  1
  Hg  Hg11  1  0.750000  0.752311  0.897206  1
