# generated using pymatgen
data_LaEu(Ni5As3)2
_symmetry_space_group_name_H-M   'P 1'
_cell_length_a   3.77908000
_cell_length_b   6.38320029
_cell_length_c   11.81951600
_cell_angle_alpha   90.00000000
_cell_angle_beta   90.00000000
_cell_angle_gamma   72.78142937
_symmetry_Int_Tables_number   1
_chemical_formula_structural   LaEu(Ni5As3)2
_chemical_formula_sum   'La1 Eu1 Ni10 As6'
_cell_volume   272.33947281
_cell_formula_units_Z   1
loop_
 _symmetry_equiv_pos_site_id
 _symmetry_equiv_pos_as_xyz
  1  'x, y, z'
loop_
 _atom_site_type_symbol
 _atom_site_label
 _atom_site_symmetry_multiplicity
 _atom_site_fract_x
 _atom_site_fract_y
 _atom_site_fract_z
 _atom_site_occupancy
  La  La0  1  0.833770  0.332464  0.250000  1
  Eu  Eu1  1  0.166232  0.667536  0.750000  1
  Ni  Ni2  1  0.999597  0.000806  0.001023  1
  Ni  Ni3  1  0.193452  0.613097  0.066380  1
  Ni  Ni4  1  0.548239  0.903524  0.144534  1
  Ni  Ni5  1  0.548239  0.903524  0.355466  1
  Ni  Ni6  1  0.193452  0.613097  0.433620  1
  Ni  Ni7  1  0.999597  0.000806  0.498977  1
  Ni  Ni8  1  0.806104  0.387794  0.567432  1
  Ni  Ni9  1  0.452723  0.094556  0.644847  1
  Ni  Ni10  1  0.452723  0.094556  0.855153  1
  Ni  Ni11  1  0.806104  0.387794  0.932567  1
  As  As12  1  0.379011  0.241980  0.041512  1
  As  As13  1  0.112480  0.775041  0.250000  1
  As  As14  1  0.379011  0.241980  0.458488  1
  As  As15  1  0.620868  0.758268  0.543198  1
  As  As16  1  0.887546  0.224908  0.750000  1
  As  As17  1  0.620868  0.758268  0.956802  1
