# generated using pymatgen
data_La16Y4Si15P
_symmetry_space_group_name_H-M   'P 1'
_cell_length_a   7.89513855
_cell_length_b   7.89865033
_cell_length_c   15.35671600
_cell_angle_alpha   89.87648827
_cell_angle_beta   89.86612823
_cell_angle_gamma   90.12531192
_symmetry_Int_Tables_number   1
_chemical_formula_structural   La16Y4Si15P
_chemical_formula_sum   'La16 Y4 Si15 P1'
_cell_volume   957.65208535
_cell_formula_units_Z   1
loop_
 _symmetry_equiv_pos_site_id
 _symmetry_equiv_pos_as_xyz
  1  'x, y, z'
loop_
 _atom_site_type_symbol
 _atom_site_label
 _atom_site_symmetry_multiplicity
 _atom_site_fract_x
 _atom_site_fract_y
 _atom_site_fract_z
 _atom_site_occupancy
  La  La0  1  0.379183  0.010416  0.445516  1
  La  La1  1  0.485409  0.877730  0.698114  1
  La  La2  1  0.513347  0.123035  0.197320  1
  La  La3  1  0.876336  0.485520  0.301957  1
  La  La4  1  0.124945  0.510249  0.801622  1
  La  La5  1  0.624327  0.986949  0.946929  1
  La  La6  1  0.011633  0.375084  0.553457  1
  La  La7  1  0.987193  0.622782  0.051971  1
  La  La8  1  0.130010  0.980082  0.875101  1
  La  La9  1  0.523935  0.627595  0.126544  1
  La  La10  1  0.470468  0.367134  0.628520  1
  La  La11  1  0.627737  0.524102  0.872348  1
  La  La12  1  0.370900  0.474161  0.373974  1
  La  La13  1  0.873566  0.024309  0.377769  1
  La  La14  1  0.976162  0.127605  0.122667  1
  La  La15  1  0.027982  0.878891  0.623467  1
  Y  Y16  1  0.312158  0.310994  0.999366  1
  Y  Y17  1  0.188741  0.809870  0.249775  1
  Y  Y18  1  0.808937  0.190211  0.750239  1
  Y  Y19  1  0.688907  0.688497  0.500306  1
  Si  Si20  1  0.327440  0.690687  0.956880  1
  Si  Si21  1  0.672130  0.311096  0.459497  1
  Si  Si22  1  0.691069  0.329286  0.042136  1
  Si  Si23  1  0.310468  0.671472  0.543196  1
  Si  Si24  1  0.811335  0.827152  0.208572  1
  Si  Si25  1  0.173021  0.187918  0.291070  1
  Si  Si26  1  0.830245  0.810507  0.791082  1
  Si  Si27  1  0.286712  0.922215  0.062785  1
  Si  Si28  1  0.578284  0.785455  0.313405  1
  Si  Si29  1  0.431302  0.212430  0.817159  1
  Si  Si30  1  0.787608  0.578952  0.685231  1
  Si  Si31  1  0.212442  0.423318  0.186360  1
  Si  Si32  1  0.709561  0.075729  0.564201  1
  Si  Si33  1  0.924249  0.287899  0.936368  1
  Si  Si34  1  0.076826  0.711860  0.437382  1
  P  P35  1  0.175430  0.178808  0.707718  1
