# generated using pymatgen
data_La8Zn4Si11Ge
_symmetry_space_group_name_H-M   'P 1'
_cell_length_a   8.28472404
_cell_length_b   8.28472445
_cell_length_c   8.82583000
_cell_angle_alpha   89.99971724
_cell_angle_beta   90.00028108
_cell_angle_gamma   119.91961830
_symmetry_Int_Tables_number   1
_chemical_formula_structural   La8Zn4Si11Ge
_chemical_formula_sum   'La8 Zn4 Si11 Ge1'
_cell_volume   525.04134650
_cell_formula_units_Z   1
loop_
 _symmetry_equiv_pos_site_id
 _symmetry_equiv_pos_as_xyz
  1  'x, y, z'
loop_
 _atom_site_type_symbol
 _atom_site_label
 _atom_site_symmetry_multiplicity
 _atom_site_fract_x
 _atom_site_fract_y
 _atom_site_fract_z
 _atom_site_occupancy
  La  La0  1  0.999482  0.000518  0.249269  1
  La  La1  1  0.999450  0.000550  0.750755  1
  La  La2  1  0.500444  0.499556  0.249542  1
  La  La3  1  0.501646  0.001454  0.249164  1
  La  La4  1  0.998546  0.498354  0.249164  1
  La  La5  1  0.499615  0.500385  0.750465  1
  La  La6  1  0.500801  0.999796  0.750838  1
  La  La7  1  0.000204  0.499199  0.750838  1
  Zn  Zn8  1  0.336288  0.663712  0.496494  1
  Zn  Zn9  1  0.666955  0.333045  0.503401  1
  Zn  Zn10  1  0.666421  0.333579  0.996646  1
  Zn  Zn11  1  0.333471  0.666529  0.003320  1
  Si  Si12  1  0.165122  0.331352  0.500732  1
  Si  Si13  1  0.668648  0.834878  0.500732  1
  Si  Si14  1  0.834461  0.165539  0.499291  1
  Si  Si15  1  0.828317  0.665711  0.499229  1
  Si  Si16  1  0.334289  0.171683  0.499229  1
  Si  Si17  1  0.834417  0.165583  0.000706  1
  Si  Si18  1  0.834419  0.668699  0.000699  1
  Si  Si19  1  0.331301  0.165581  0.000699  1
  Si  Si20  1  0.165538  0.834462  0.999302  1
  Si  Si21  1  0.165571  0.331306  0.999317  1
  Si  Si22  1  0.668694  0.834429  0.999317  1
  Ge  Ge23  1  0.165899  0.834101  0.500850  1
