# generated using pymatgen
data_Ho2Er2Zn4Ir3Pt
_symmetry_space_group_name_H-M   'P 1'
_cell_length_a   4.06398300
_cell_length_b   6.96460435
_cell_length_c   8.12052507
_cell_angle_alpha   89.96048924
_cell_angle_beta   90.00000000
_cell_angle_gamma   90.00000000
_symmetry_Int_Tables_number   1
_chemical_formula_structural   Ho2Er2Zn4Ir3Pt
_chemical_formula_sum   'Ho2 Er2 Zn4 Ir3 Pt1'
_cell_volume   229.84356031
_cell_formula_units_Z   1
loop_
 _symmetry_equiv_pos_site_id
 _symmetry_equiv_pos_as_xyz
  1  'x, y, z'
loop_
 _atom_site_type_symbol
 _atom_site_label
 _atom_site_symmetry_multiplicity
 _atom_site_fract_x
 _atom_site_fract_y
 _atom_site_fract_z
 _atom_site_occupancy
  Ho  Ho0  1  0.250000  0.034041  0.322023  1
  Ho  Ho1  1  0.250000  0.543923  0.183165  1
  Er  Er2  1  0.750000  0.961966  0.682212  1
  Er  Er3  1  0.750000  0.465512  0.813118  1
  Zn  Zn4  1  0.250000  0.638073  0.565501  1
  Zn  Zn5  1  0.250000  0.135458  0.931784  1
  Zn  Zn6  1  0.750000  0.362527  0.437814  1
  Zn  Zn7  1  0.750000  0.858593  0.064923  1
  Ir  Ir8  1  0.250000  0.255298  0.622676  1
  Ir  Ir9  1  0.250000  0.754903  0.878310  1
  Ir  Ir10  1  0.750000  0.744553  0.377969  1
  Pt  Pt11  1  0.750000  0.245154  0.120506  1
