# generated using pymatgen
data_Rb8Na4Nd3DySb8
_symmetry_space_group_name_H-M   'P 1'
_cell_length_a   11.44767803
_cell_length_b   11.44767755
_cell_length_c   7.56259532
_cell_angle_alpha   90.06775491
_cell_angle_beta   89.93224144
_cell_angle_gamma   97.71078380
_symmetry_Int_Tables_number   1
_chemical_formula_structural   Rb8Na4Nd3DySb8
_chemical_formula_sum   'Rb8 Na4 Nd3 Dy1 Sb8'
_cell_volume   982.11049737
_cell_formula_units_Z   1
loop_
 _symmetry_equiv_pos_site_id
 _symmetry_equiv_pos_as_xyz
  1  'x, y, z'
loop_
 _atom_site_type_symbol
 _atom_site_label
 _atom_site_symmetry_multiplicity
 _atom_site_fract_x
 _atom_site_fract_y
 _atom_site_fract_z
 _atom_site_occupancy
  Rb  Rb0  1  0.068861  0.431191  0.250451  1
  Rb  Rb1  1  0.431191  0.068861  0.749549  1
  Rb  Rb2  1  0.929575  0.569238  0.749092  1
  Rb  Rb3  1  0.569238  0.929575  0.250908  1
  Rb  Rb4  1  0.677563  0.323566  0.215082  1
  Rb  Rb5  1  0.822277  0.177768  0.714104  1
  Rb  Rb6  1  0.323566  0.677563  0.784918  1
  Rb  Rb7  1  0.177768  0.822277  0.285896  1
  Na  Na8  1  0.382703  0.382703  0.000000  1
  Na  Na9  1  0.117713  0.117713  0.500000  1
  Na  Na10  1  0.617588  0.617588  0.000000  1
  Na  Na11  1  0.881700  0.881700  0.500000  1
  Nd  Nd12  1  0.132102  0.132102  0.000000  1
  Nd  Nd13  1  0.369189  0.369189  0.500000  1
  Nd  Nd14  1  0.866602  0.866602  0.000000  1
  Dy  Dy15  1  0.631481  0.631481  0.500000  1
  Sb  Sb16  1  0.845328  0.649692  0.255360  1
  Sb  Sb17  1  0.649692  0.845328  0.744640  1
  Sb  Sb18  1  0.149704  0.350922  0.750142  1
  Sb  Sb19  1  0.350922  0.149704  0.249858  1
  Sb  Sb20  1  0.897751  0.101347  0.217543  1
  Sb  Sb21  1  0.603348  0.402788  0.714714  1
  Sb  Sb22  1  0.101347  0.897751  0.782457  1
  Sb  Sb23  1  0.402788  0.603348  0.285286  1
