# generated using pymatgen
data_Ca2Cd2PdRu3O14
_symmetry_space_group_name_H-M   'P 1'
_cell_length_a   7.30869968
_cell_length_b   7.16946831
_cell_length_c   7.30869935
_cell_angle_alpha   59.93504066
_cell_angle_beta   60.54833062
_cell_angle_gamma   59.93503593
_symmetry_Int_Tables_number   1
_chemical_formula_structural   Ca2Cd2PdRu3O14
_chemical_formula_sum   'Ca2 Cd2 Pd1 Ru3 O14'
_cell_volume   271.63698888
_cell_formula_units_Z   1
loop_
 _symmetry_equiv_pos_site_id
 _symmetry_equiv_pos_as_xyz
  1  'x, y, z'
loop_
 _atom_site_type_symbol
 _atom_site_label
 _atom_site_symmetry_multiplicity
 _atom_site_fract_x
 _atom_site_fract_y
 _atom_site_fract_z
 _atom_site_occupancy
  Ca  Ca0  1  0.125000  0.125000  0.625000  1
  Ca  Ca1  1  0.625000  0.125000  0.125000  1
  Cd  Cd2  1  0.125000  0.625000  0.125000  1
  Cd  Cd3  1  0.125000  0.125000  0.125000  1
  Pd  Pd4  1  0.625000  0.125000  0.625000  1
  Ru  Ru5  1  0.625000  0.625000  0.125000  1
  Ru  Ru6  1  0.125000  0.625000  0.625000  1
  Ru  Ru7  1  0.625000  0.625000  0.625000  1
  O  O8  1  0.697865  0.676220  0.313416  1
  O  O9  1  0.936584  0.573780  0.552135  1
  O  O10  1  0.544818  0.949800  0.962054  1
  O  O11  1  0.962054  0.949800  0.544818  1
  O  O12  1  0.934666  0.578669  0.934666  1
  O  O13  1  0.540387  0.954539  0.540387  1
  O  O14  1  0.315334  0.671331  0.315334  1
  O  O15  1  0.313416  0.676220  0.697865  1
  O  O16  1  0.705182  0.300200  0.287946  1
  O  O17  1  0.709613  0.295461  0.709613  1
  O  O18  1  0.552135  0.573780  0.936584  1
  O  O19  1  0.287946  0.300200  0.705182  1
  O  O20  1  0.238924  0.262845  0.238924  1
  O  O21  1  0.011076  0.987155  0.011076  1
