# generated using pymatgen
data_Tb2ThFe6(CoP2)3
_symmetry_space_group_name_H-M   'P 1'
_cell_length_a   3.75275400
_cell_length_b   10.67209200
_cell_length_c   12.18473300
_cell_angle_alpha   90.00000000
_cell_angle_beta   90.00000000
_cell_angle_gamma   90.00000000
_symmetry_Int_Tables_number   1
_chemical_formula_structural   Tb2ThFe6(CoP2)3
_chemical_formula_sum   'Tb4 Th2 Fe12 Co6 P12'
_cell_volume   487.99533917
_cell_formula_units_Z   2
loop_
 _symmetry_equiv_pos_site_id
 _symmetry_equiv_pos_as_xyz
  1  'x, y, z'
loop_
 _atom_site_type_symbol
 _atom_site_label
 _atom_site_symmetry_multiplicity
 _atom_site_fract_x
 _atom_site_fract_y
 _atom_site_fract_z
 _atom_site_occupancy
  Tb  Tb0  1  0.500000  0.818604  0.203410  1
  Tb  Tb1  1  0.500000  0.181396  0.203410  1
  Tb  Tb2  1  0.000000  0.681396  0.796590  1
  Tb  Tb3  1  0.000000  0.318604  0.796590  1
  Th  Th4  1  0.000000  0.500000  0.526350  1
  Th  Th5  1  0.500000  0.000000  0.473650  1
  Fe  Fe6  1  0.500000  0.500000  0.152692  1
  Fe  Fe7  1  0.000000  0.000000  0.847308  1
  Fe  Fe8  1  0.000000  0.500000  0.989003  1
  Fe  Fe9  1  0.500000  0.000000  0.010997  1
  Fe  Fe10  1  0.500000  0.332936  0.996491  1
  Fe  Fe11  1  0.500000  0.667064  0.996491  1
  Fe  Fe12  1  0.000000  0.167064  0.003509  1
  Fe  Fe13  1  0.000000  0.832936  0.003509  1
  Fe  Fe14  1  0.500000  0.300318  0.427618  1
  Fe  Fe15  1  0.500000  0.699682  0.427618  1
  Fe  Fe16  1  0.000000  0.199682  0.572382  1
  Fe  Fe17  1  0.000000  0.800318  0.572382  1
  Co  Co18  1  0.500000  0.500000  0.701474  1
  Co  Co19  1  0.000000  0.000000  0.298526  1
  Co  Co20  1  0.500000  0.881917  0.714417  1
  Co  Co21  1  0.500000  0.118083  0.714417  1
  Co  Co22  1  0.000000  0.618083  0.285583  1
  Co  Co23  1  0.000000  0.381917  0.285583  1
  P  P24  1  0.500000  0.500000  0.886813  1
  P  P25  1  0.000000  0.000000  0.113187  1
  P  P26  1  0.500000  0.500000  0.337635  1
  P  P27  1  0.000000  0.000000  0.662365  1
  P  P28  1  0.500000  0.301926  0.615752  1
  P  P29  1  0.500000  0.698074  0.615752  1
  P  P30  1  0.000000  0.198074  0.384248  1
  P  P31  1  0.000000  0.801926  0.384248  1
  P  P32  1  0.500000  0.845021  0.897122  1
  P  P33  1  0.500000  0.154979  0.897122  1
  P  P34  1  0.000000  0.654979  0.102878  1
  P  P35  1  0.000000  0.345021  0.102878  1
