# generated using pymatgen
data_Hf8Mn3Si14Ni5
_symmetry_space_group_name_H-M   'P 1'
_cell_length_a   9.46838552
_cell_length_b   9.46838439
_cell_length_c   9.51753475
_cell_angle_alpha   94.14945455
_cell_angle_beta   94.14945028
_cell_angle_gamma   148.74392590
_symmetry_Int_Tables_number   1
_chemical_formula_structural   Hf8Mn3Si14Ni5
_chemical_formula_sum   'Hf8 Mn3 Si14 Ni5'
_cell_volume   426.45147716
_cell_formula_units_Z   1
loop_
 _symmetry_equiv_pos_site_id
 _symmetry_equiv_pos_as_xyz
  1  'x, y, z'
loop_
 _atom_site_type_symbol
 _atom_site_label
 _atom_site_symmetry_multiplicity
 _atom_site_fract_x
 _atom_site_fract_y
 _atom_site_fract_z
 _atom_site_occupancy
  Hf  Hf0  1  0.136589  0.135786  0.275675  1
  Hf  Hf1  1  0.864214  0.863411  0.724325  1
  Hf  Hf2  1  0.861850  0.138150  0.000000  1
  Hf  Hf3  1  0.139881  0.860119  0.000000  1
  Hf  Hf4  1  0.505631  0.308954  0.802478  1
  Hf  Hf5  1  0.503103  0.698880  0.194985  1
  Hf  Hf6  1  0.691046  0.494369  0.197522  1
  Hf  Hf7  1  0.301120  0.496897  0.805015  1
  Mn  Mn8  1  0.402586  0.899906  0.803955  1
  Mn  Mn9  1  0.100094  0.597414  0.196045  1
  Mn  Mn10  1  0.097791  0.902209  0.500000  1
  Si  Si11  1  0.458765  0.049001  0.591901  1
  Si  Si12  1  0.474952  0.886690  0.405113  1
  Si  Si13  1  0.950999  0.541235  0.408099  1
  Si  Si14  1  0.113310  0.525048  0.594887  1
  Si  Si15  1  0.750024  0.748778  0.000598  1
  Si  Si16  1  0.251222  0.249976  0.999402  1
  Si  Si17  1  0.288792  0.289345  0.582473  1
  Si  Si18  1  0.710655  0.711208  0.417527  1
  Si  Si19  1  0.709584  0.290416  0.000000  1
  Si  Si20  1  0.291159  0.708841  0.000000  1
  Si  Si21  1  0.007293  0.305989  0.296823  1
  Si  Si22  1  0.016080  0.717911  0.701436  1
  Si  Si23  1  0.694011  0.992707  0.703177  1
  Si  Si24  1  0.282089  0.983920  0.298564  1
  Ni  Ni25  1  0.401118  0.598882  0.500000  1
  Ni  Ni26  1  0.607228  0.392772  0.500000  1
  Ni  Ni27  1  0.892195  0.107805  0.500000  1
  Ni  Ni28  1  0.889314  0.392695  0.786354  1
  Ni  Ni29  1  0.607305  0.110686  0.213646  1
