# generated using pymatgen
data_TbEr4In4PtAu
_symmetry_space_group_name_H-M   'P 1'
_cell_length_a   3.63443500
_cell_length_b   8.14866494
_cell_length_c   18.26829704
_cell_angle_alpha   90.05273812
_cell_angle_beta   90.00000000
_cell_angle_gamma   90.00000000
_symmetry_Int_Tables_number   1
_chemical_formula_structural   TbEr4In4PtAu
_chemical_formula_sum   'Tb2 Er8 In8 Pt2 Au2'
_cell_volume   541.02987568
_cell_formula_units_Z   2
loop_
 _symmetry_equiv_pos_site_id
 _symmetry_equiv_pos_as_xyz
  1  'x, y, z'
loop_
 _atom_site_type_symbol
 _atom_site_label
 _atom_site_symmetry_multiplicity
 _atom_site_fract_x
 _atom_site_fract_y
 _atom_site_fract_z
 _atom_site_occupancy
  Tb  Tb0  1  0.000000  0.000000  0.000000  1
  Tb  Tb1  1  0.000000  0.500000  0.500000  1
  Er  Er2  1  0.000000  0.119869  0.418632  1
  Er  Er3  1  0.000000  0.880131  0.581368  1
  Er  Er4  1  0.000000  0.384708  0.915682  1
  Er  Er5  1  0.000000  0.615292  0.084318  1
  Er  Er6  1  0.000000  0.251993  0.217533  1
  Er  Er7  1  0.000000  0.748007  0.782467  1
  Er  Er8  1  0.000000  0.268087  0.721245  1
  Er  Er9  1  0.000000  0.731913  0.278755  1
  In  In10  1  0.500000  0.423187  0.352296  1
  In  In11  1  0.500000  0.576813  0.647704  1
  In  In12  1  0.500000  0.077542  0.852596  1
  In  In13  1  0.500000  0.922458  0.147404  1
  In  In14  1  0.500000  0.292522  0.065913  1
  In  In15  1  0.500000  0.707478  0.934087  1
  In  In16  1  0.500000  0.208596  0.566463  1
  In  In17  1  0.500000  0.791404  0.433537  1
  Pt  Pt18  1  0.500000  0.473475  0.803501  1
  Pt  Pt19  1  0.500000  0.526525  0.196499  1
  Au  Au20  1  0.500000  0.027345  0.302450  1
  Au  Au21  1  0.500000  0.972655  0.697550  1
