# generated using pymatgen
data_Lu4Si4OsRu2Rh
_symmetry_space_group_name_H-M   'P 1'
_cell_length_a   4.22338100
_cell_length_b   6.84480988
_cell_length_c   7.20811589
_cell_angle_alpha   89.93938526
_cell_angle_beta   90.00000000
_cell_angle_gamma   90.00000000
_symmetry_Int_Tables_number   1
_chemical_formula_structural   Lu4Si4OsRu2Rh
_chemical_formula_sum   'Lu4 Si4 Os1 Ru2 Rh1'
_cell_volume   208.37382743
_cell_formula_units_Z   1
loop_
 _symmetry_equiv_pos_site_id
 _symmetry_equiv_pos_as_xyz
  1  'x, y, z'
loop_
 _atom_site_type_symbol
 _atom_site_label
 _atom_site_symmetry_multiplicity
 _atom_site_fract_x
 _atom_site_fract_y
 _atom_site_fract_z
 _atom_site_occupancy
  Lu  Lu0  1  0.250000  0.998175  0.813330  1
  Lu  Lu1  1  0.750000  0.005263  0.186406  1
  Lu  Lu2  1  0.250000  0.491691  0.688198  1
  Lu  Lu3  1  0.750000  0.507283  0.312069  1
  Si  Si4  1  0.250000  0.297027  0.110080  1
  Si  Si5  1  0.750000  0.700713  0.882833  1
  Si  Si6  1  0.250000  0.798587  0.397237  1
  Si  Si7  1  0.750000  0.199839  0.607700  1
  Os  Os8  1  0.750000  0.841726  0.564613  1
  Ru  Ru9  1  0.250000  0.156808  0.435934  1
  Ru  Ru10  1  0.750000  0.345439  0.938886  1
  Rh  Rh11  1  0.250000  0.657452  0.062715  1
