# generated using pymatgen
data_Pr6HoCoBr12
_symmetry_space_group_name_H-M   'P 1'
_cell_length_a   9.60232652
_cell_length_b   9.60232616
_cell_length_c   9.60232626
_cell_angle_alpha   107.09056821
_cell_angle_beta   107.09056279
_cell_angle_gamma   107.09056461
_symmetry_Int_Tables_number   1
_chemical_formula_structural   Pr6HoCoBr12
_chemical_formula_sum   'Pr6 Ho1 Co1 Br12'
_cell_volume   735.52314083
_cell_formula_units_Z   1
loop_
 _symmetry_equiv_pos_site_id
 _symmetry_equiv_pos_as_xyz
  1  'x, y, z'
loop_
 _atom_site_type_symbol
 _atom_site_label
 _atom_site_symmetry_multiplicity
 _atom_site_fract_x
 _atom_site_fract_y
 _atom_site_fract_z
 _atom_site_occupancy
  Pr  Pr0  1  0.976230  0.898829  0.691931  1
  Pr  Pr1  1  0.023770  0.101171  0.308069  1
  Pr  Pr2  1  0.101171  0.308069  0.023770  1
  Pr  Pr3  1  0.308069  0.023770  0.101171  1
  Pr  Pr4  1  0.898829  0.691931  0.976230  1
  Pr  Pr5  1  0.691931  0.976230  0.898829  1
  Ho  Ho6  1  0.500000  0.500000  0.500000  1
  Co  Co7  1  0.000000  0.000000  0.000000  1
  Br  Br8  1  0.535706  0.610835  0.819455  1
  Br  Br9  1  0.464294  0.389165  0.180545  1
  Br  Br10  1  0.317025  0.929896  0.779190  1
  Br  Br11  1  0.389165  0.180545  0.464294  1
  Br  Br12  1  0.929896  0.779190  0.317025  1
  Br  Br13  1  0.682975  0.070104  0.220810  1
  Br  Br14  1  0.070104  0.220810  0.682975  1
  Br  Br15  1  0.779190  0.317025  0.929896  1
  Br  Br16  1  0.220810  0.682975  0.070104  1
  Br  Br17  1  0.819455  0.535706  0.610835  1
  Br  Br18  1  0.180545  0.464294  0.389165  1
  Br  Br19  1  0.610835  0.819455  0.535706  1
