# generated using pymatgen
data_NdHo2Tm(NiP)4
_symmetry_space_group_name_H-M   'P 1'
_cell_length_a   3.90223300
_cell_length_b   3.90223369
_cell_length_c   15.51096800
_cell_angle_alpha   90.00000000
_cell_angle_beta   90.00000000
_cell_angle_gamma   119.99998564
_symmetry_Int_Tables_number   1
_chemical_formula_structural   NdHo2Tm(NiP)4
_chemical_formula_sum   'Nd1 Ho2 Tm1 Ni4 P4'
_cell_volume   204.54839131
_cell_formula_units_Z   1
loop_
 _symmetry_equiv_pos_site_id
 _symmetry_equiv_pos_as_xyz
  1  'x, y, z'
loop_
 _atom_site_type_symbol
 _atom_site_label
 _atom_site_symmetry_multiplicity
 _atom_site_fract_x
 _atom_site_fract_y
 _atom_site_fract_z
 _atom_site_occupancy
  Nd  Nd0  1  0.000000  0.000000  0.001790  1
  Ho  Ho1  1  0.000000  0.000000  0.498317  1
  Ho  Ho2  1  0.000000  0.000000  0.745274  1
  Tm  Tm3  1  0.000000  0.000000  0.254237  1
  Ni  Ni4  1  0.333333  0.666667  0.368263  1
  Ni  Ni5  1  0.666667  0.333333  0.626665  1
  Ni  Ni6  1  0.666667  0.333333  0.866963  1
  Ni  Ni7  1  0.333333  0.666667  0.139027  1
  P  P8  1  0.333333  0.666667  0.869725  1
  P  P9  1  0.666667  0.333333  0.131286  1
  P  P10  1  0.666667  0.333333  0.378988  1
  P  P11  1  0.333333  0.666667  0.619466  1
