# generated using pymatgen
data_AcPr(GePt)4
_symmetry_space_group_name_H-M   'P 1'
_cell_length_a   4.47779717
_cell_length_b   4.47587000
_cell_length_c   10.06060185
_cell_angle_alpha   90.00000000
_cell_angle_beta   89.96084606
_cell_angle_gamma   90.00000000
_symmetry_Int_Tables_number   1
_chemical_formula_structural   AcPr(GePt)4
_chemical_formula_sum   'Ac1 Pr1 Ge4 Pt4'
_cell_volume   201.63491751
_cell_formula_units_Z   1
loop_
 _symmetry_equiv_pos_site_id
 _symmetry_equiv_pos_as_xyz
  1  'x, y, z'
loop_
 _atom_site_type_symbol
 _atom_site_label
 _atom_site_symmetry_multiplicity
 _atom_site_fract_x
 _atom_site_fract_y
 _atom_site_fract_z
 _atom_site_occupancy
  Ac  Ac0  1  0.253601  0.000000  0.748057  1
  Pr  Pr1  1  0.755640  0.500000  0.252596  1
  Ge  Ge2  1  0.249802  0.000000  0.130946  1
  Ge  Ge3  1  0.751292  0.500000  0.873612  1
  Ge  Ge4  1  0.258175  0.500000  0.495182  1
  Ge  Ge5  1  0.758120  0.000000  0.495044  1
  Pt  Pt6  1  0.258558  0.000000  0.376029  1
  Pt  Pt7  1  0.757879  0.500000  0.619545  1
  Pt  Pt8  1  0.251350  0.500000  0.004365  1
  Pt  Pt9  1  0.749583  0.000000  0.004623  1
