# generated using pymatgen
data_DyHoNb4(B2Ru5)2
_symmetry_space_group_name_H-M   'P 1'
_cell_length_a   9.56488401
_cell_length_b   9.56488428
_cell_length_c   3.09285800
_cell_angle_alpha   90.00000000
_cell_angle_beta   90.00000000
_cell_angle_gamma   90.70013995
_symmetry_Int_Tables_number   1
_chemical_formula_structural   DyHoNb4(B2Ru5)2
_chemical_formula_sum   'Dy1 Ho1 Nb4 B4 Ru10'
_cell_volume   282.93520143
_cell_formula_units_Z   1
loop_
 _symmetry_equiv_pos_site_id
 _symmetry_equiv_pos_as_xyz
  1  'x, y, z'
loop_
 _atom_site_type_symbol
 _atom_site_label
 _atom_site_symmetry_multiplicity
 _atom_site_fract_x
 _atom_site_fract_y
 _atom_site_fract_z
 _atom_site_occupancy
  Dy  Dy0  1  0.823928  0.676072  0.000000  1
  Ho  Ho1  1  0.176172  0.323828  0.000000  1
  Nb  Nb2  1  0.324408  0.824440  0.000000  1
  Nb  Nb3  1  0.675560  0.175592  0.000000  1
  Nb  Nb4  1  0.499803  0.499922  0.000000  1
  Nb  Nb5  1  0.000078  0.000197  0.000000  1
  B  B6  1  0.620645  0.879355  0.000000  1
  B  B7  1  0.379157  0.120843  0.000000  1
  B  B8  1  0.121296  0.621137  0.000000  1
  B  B9  1  0.878863  0.378704  0.000000  1
  Ru  Ru10  1  0.559695  0.723046  0.500000  1
  Ru  Ru11  1  0.439999  0.277079  0.500000  1
  Ru  Ru12  1  0.081257  0.784872  0.500000  1
  Ru  Ru13  1  0.919069  0.215183  0.500000  1
  Ru  Ru14  1  0.284817  0.580931  0.500000  1
  Ru  Ru15  1  0.715128  0.418743  0.500000  1
  Ru  Ru16  1  0.222921  0.060001  0.500000  1
  Ru  Ru17  1  0.776954  0.940305  0.500000  1
  Ru  Ru18  1  0.499948  0.000052  0.500000  1
  Ru  Ru19  1  0.000303  0.499697  0.500000  1
