# generated using pymatgen
data_Sc7Nb(Co4P3)4
_symmetry_space_group_name_H-M   'P 1'
_cell_length_a   12.05732689
_cell_length_b   12.05732678
_cell_length_c   3.62808300
_cell_angle_alpha   90.00000000
_cell_angle_beta   90.00000000
_cell_angle_gamma   119.89678821
_symmetry_Int_Tables_number   1
_chemical_formula_structural   Sc7Nb(Co4P3)4
_chemical_formula_sum   'Sc7 Nb1 Co16 P12'
_cell_volume   457.25730553
_cell_formula_units_Z   1
loop_
 _symmetry_equiv_pos_site_id
 _symmetry_equiv_pos_as_xyz
  1  'x, y, z'
loop_
 _atom_site_type_symbol
 _atom_site_label
 _atom_site_symmetry_multiplicity
 _atom_site_fract_x
 _atom_site_fract_y
 _atom_site_fract_z
 _atom_site_occupancy
  Sc  Sc0  1  0.817658  0.999394  0.500000  1
  Sc  Sc1  1  0.999394  0.817658  0.500000  1
  Sc  Sc2  1  0.182369  0.182369  0.500000  1
  Sc  Sc3  1  0.333603  0.665583  0.000000  1
  Sc  Sc4  1  0.665583  0.333603  0.000000  1
  Sc  Sc5  1  0.443072  0.999394  0.000000  1
  Sc  Sc6  1  0.999394  0.443072  0.000000  1
  Nb  Nb7  1  0.555451  0.555451  0.000000  1
  Co  Co8  1  0.278382  0.001211  0.500000  1
  Co  Co9  1  0.001211  0.278382  0.500000  1
  Co  Co10  1  0.722602  0.722602  0.500000  1
  Co  Co11  1  0.628905  0.804369  0.000000  1
  Co  Co12  1  0.193753  0.821921  0.000000  1
  Co  Co13  1  0.179431  0.373525  0.000000  1
  Co  Co14  1  0.373525  0.179431  0.000000  1
  Co  Co15  1  0.804369  0.628905  0.000000  1
  Co  Co16  1  0.821921  0.193753  0.000000  1
  Co  Co17  1  0.518381  0.871598  0.500000  1
  Co  Co18  1  0.124333  0.645307  0.500000  1
  Co  Co19  1  0.355578  0.481878  0.500000  1
  Co  Co20  1  0.481878  0.355578  0.500000  1
  Co  Co21  1  0.871598  0.518381  0.500000  1
  Co  Co22  1  0.645307  0.124333  0.500000  1
  Co  Co23  1  0.000900  0.000900  0.000000  1
  P  P24  1  0.176856  0.000356  0.000000  1
  P  P25  1  0.000356  0.176856  0.000000  1
  P  P26  1  0.825255  0.825255  0.000000  1
  P  P27  1  0.517742  0.688808  0.500000  1
  P  P28  1  0.309239  0.826057  0.500000  1
  P  P29  1  0.172903  0.483952  0.500000  1
  P  P30  1  0.483952  0.172903  0.500000  1
  P  P31  1  0.688808  0.517742  0.500000  1
  P  P32  1  0.826057  0.309239  0.500000  1
  P  P33  1  0.650826  0.999292  0.000000  1
  P  P34  1  0.999292  0.650826  0.000000  1
  P  P35  1  0.350116  0.350116  0.000000  1
