# generated using pymatgen
data_LaTh(Co3Si2)2
_symmetry_space_group_name_H-M   'P 1'
_cell_length_a   5.39559029
_cell_length_b   6.38607156
_cell_length_c   6.38607065
_cell_angle_alpha   64.83031971
_cell_angle_beta   65.01063799
_cell_angle_gamma   65.01064272
_symmetry_Int_Tables_number   1
_chemical_formula_structural   LaTh(Co3Si2)2
_chemical_formula_sum   'La1 Th1 Co6 Si4'
_cell_volume   172.42024454
_cell_formula_units_Z   1
loop_
 _symmetry_equiv_pos_site_id
 _symmetry_equiv_pos_as_xyz
  1  'x, y, z'
loop_
 _atom_site_type_symbol
 _atom_site_label
 _atom_site_symmetry_multiplicity
 _atom_site_fract_x
 _atom_site_fract_y
 _atom_site_fract_z
 _atom_site_occupancy
  La  La0  1  0.459847  0.250000  0.250000  1
  Th  Th1  1  0.547275  0.750000  0.750000  1
  Co  Co2  1  0.499860  0.215074  0.780676  1
  Co  Co3  1  0.995611  0.719324  0.284926  1
  Co  Co4  1  0.499860  0.780676  0.215074  1
  Co  Co5  1  0.995611  0.284926  0.719324  1
  Co  Co6  1  0.998206  0.505139  0.994861  1
  Co  Co7  1  0.998206  0.994861  0.505139  1
  Si  Si8  1  0.225118  0.577897  0.577897  1
  Si  Si9  1  0.781840  0.417907  0.417907  1
  Si  Si10  1  0.117653  0.082093  0.082093  1
  Si  Si11  1  0.880913  0.922103  0.922103  1
