# generated using pymatgen
data_Th2BeP5Pd21
_symmetry_space_group_name_H-M   'P 1'
_cell_length_a   8.69508078
_cell_length_b   8.68718388
_cell_length_c   8.68718400
_cell_angle_alpha   60.06014581
_cell_angle_beta   59.96992829
_cell_angle_gamma   59.96992241
_symmetry_Int_Tables_number   1
_chemical_formula_structural   Th2BeP5Pd21
_chemical_formula_sum   'Th2 Be1 P5 Pd21'
_cell_volume   463.99780727
_cell_formula_units_Z   1
loop_
 _symmetry_equiv_pos_site_id
 _symmetry_equiv_pos_as_xyz
  1  'x, y, z'
loop_
 _atom_site_type_symbol
 _atom_site_label
 _atom_site_symmetry_multiplicity
 _atom_site_fract_x
 _atom_site_fract_y
 _atom_site_fract_z
 _atom_site_occupancy
  Th  Th0  1  0.750257  0.749743  0.749743  1
  Th  Th1  1  0.250257  0.249743  0.249743  1
  Be  Be2  1  0.259531  0.740469  0.740469  1
  P  P3  1  0.738829  0.738775  0.261171  1
  P  P4  1  0.261225  0.738775  0.261171  1
  P  P5  1  0.740969  0.259031  0.259031  1
  P  P6  1  0.261225  0.261171  0.738775  1
  P  P7  1  0.738829  0.261171  0.738775  1
  Pd  Pd8  1  0.002041  0.997959  0.997959  1
  Pd  Pd9  1  0.614380  0.614738  0.156502  1
  Pd  Pd10  1  0.614380  0.156502  0.614738  1
  Pd  Pd11  1  0.154090  0.616500  0.616500  1
  Pd  Pd12  1  0.612908  0.616500  0.616500  1
  Pd  Pd13  1  0.383500  0.387092  0.845910  1
  Pd  Pd14  1  0.383500  0.845910  0.387092  1
  Pd  Pd15  1  0.843498  0.385620  0.385620  1
  Pd  Pd16  1  0.385262  0.385620  0.385620  1
  Pd  Pd17  1  0.000491  0.999509  0.345469  1
  Pd  Pd18  1  0.654531  0.999509  0.345469  1
  Pd  Pd19  1  0.001451  0.655045  0.342054  1
  Pd  Pd20  1  0.654531  0.345469  0.999509  1
  Pd  Pd21  1  0.000491  0.345469  0.999509  1
  Pd  Pd22  1  0.001451  0.342054  0.655045  1
  Pd  Pd23  1  0.343129  0.656871  0.998393  1
  Pd  Pd24  1  0.343129  0.998393  0.656871  1
  Pd  Pd25  1  0.344955  0.998549  0.998549  1
  Pd  Pd26  1  0.001607  0.998393  0.656871  1
  Pd  Pd27  1  0.001607  0.656871  0.998393  1
  Pd  Pd28  1  0.657946  0.998549  0.998549  1
