# generated using pymatgen
data_Tb2Dy5Er13Sn16
_symmetry_space_group_name_H-M   'P 1'
_cell_length_a   8.00185946
_cell_length_b   8.13429817
_cell_length_c   15.37758603
_cell_angle_alpha   90.01557002
_cell_angle_beta   90.09925958
_cell_angle_gamma   89.95386989
_symmetry_Int_Tables_number   1
_chemical_formula_structural   Tb2Dy5Er13Sn16
_chemical_formula_sum   'Tb2 Dy5 Er13 Sn16'
_cell_volume   1000.91768838
_cell_formula_units_Z   1
loop_
 _symmetry_equiv_pos_site_id
 _symmetry_equiv_pos_as_xyz
  1  'x, y, z'
loop_
 _atom_site_type_symbol
 _atom_site_label
 _atom_site_symmetry_multiplicity
 _atom_site_fract_x
 _atom_site_fract_y
 _atom_site_fract_z
 _atom_site_occupancy
  Tb  Tb0  1  0.020421  0.179267  0.597229  1
  Tb  Tb1  1  0.479730  0.679034  0.403298  1
  Dy  Dy2  1  0.979318  0.820796  0.096880  1
  Dy  Dy3  1  0.479352  0.678849  0.096840  1
  Dy  Dy4  1  0.979740  0.820841  0.403352  1
  Dy  Dy5  1  0.520051  0.321169  0.596884  1
  Dy  Dy6  1  0.020641  0.179325  0.902916  1
  Er  Er7  1  0.367130  0.837428  0.877171  1
  Er  Er8  1  0.866410  0.662720  0.622888  1
  Er  Er9  1  0.633125  0.162644  0.377329  1
  Er  Er10  1  0.132704  0.337563  0.122414  1
  Er  Er11  1  0.632603  0.162498  0.122502  1
  Er  Er12  1  0.133279  0.337282  0.377362  1
  Er  Er13  1  0.366806  0.837562  0.623040  1
  Er  Er14  1  0.867346  0.662588  0.877250  1
  Er  Er15  1  0.521634  0.321313  0.902587  1
  Er  Er16  1  0.198328  0.503527  0.750152  1
  Er  Er17  1  0.698158  0.996466  0.750156  1
  Er  Er18  1  0.801738  0.495985  0.249890  1
  Er  Er19  1  0.301844  0.003694  0.250072  1
  Sn  Sn20  1  0.293782  0.037626  0.041483  1
  Sn  Sn21  1  0.794427  0.461961  0.458563  1
  Sn  Sn22  1  0.705535  0.962203  0.541573  1
  Sn  Sn23  1  0.207240  0.536838  0.958057  1
  Sn  Sn24  1  0.705759  0.962660  0.958326  1
  Sn  Sn25  1  0.205117  0.538442  0.541578  1
  Sn  Sn26  1  0.294328  0.037943  0.458637  1
  Sn  Sn27  1  0.793187  0.461727  0.041062  1
  Sn  Sn28  1  0.564245  0.619214  0.750152  1
  Sn  Sn29  1  0.064223  0.880376  0.749965  1
  Sn  Sn30  1  0.435562  0.380407  0.249780  1
  Sn  Sn31  1  0.935671  0.119615  0.249808  1
  Sn  Sn32  1  0.331025  0.148864  0.750474  1
  Sn  Sn33  1  0.829899  0.351772  0.750128  1
  Sn  Sn34  1  0.669924  0.851350  0.250063  1
  Sn  Sn35  1  0.169719  0.648452  0.250138  1
