# generated using pymatgen
data_Tb4Yb(PtPb2)2
_symmetry_space_group_name_H-M   'P 1'
_cell_length_a   3.77468400
_cell_length_b   8.27286100
_cell_length_c   18.42909200
_cell_angle_alpha   90.00000000
_cell_angle_beta   90.00000000
_cell_angle_gamma   90.00000000
_symmetry_Int_Tables_number   1
_chemical_formula_structural   Tb4Yb(PtPb2)2
_chemical_formula_sum   'Tb8 Yb2 Pt4 Pb8'
_cell_volume   575.49329191
_cell_formula_units_Z   2
loop_
 _symmetry_equiv_pos_site_id
 _symmetry_equiv_pos_as_xyz
  1  'x, y, z'
loop_
 _atom_site_type_symbol
 _atom_site_label
 _atom_site_symmetry_multiplicity
 _atom_site_fract_x
 _atom_site_fract_y
 _atom_site_fract_z
 _atom_site_occupancy
  Tb  Tb0  1  0.000000  0.116917  0.413155  1
  Tb  Tb1  1  0.000000  0.883083  0.586845  1
  Tb  Tb2  1  0.000000  0.383083  0.913155  1
  Tb  Tb3  1  0.000000  0.616917  0.086845  1
  Tb  Tb4  1  0.000000  0.241722  0.219332  1
  Tb  Tb5  1  0.000000  0.758278  0.780668  1
  Tb  Tb6  1  0.000000  0.258278  0.719332  1
  Tb  Tb7  1  0.000000  0.741722  0.280668  1
  Yb  Yb8  1  0.000000  0.000000  0.000000  1
  Yb  Yb9  1  0.000000  0.500000  0.500000  1
  Pt  Pt10  1  0.500000  0.029634  0.303277  1
  Pt  Pt11  1  0.500000  0.970366  0.696723  1
  Pt  Pt12  1  0.500000  0.470366  0.803277  1
  Pt  Pt13  1  0.500000  0.529634  0.196723  1
  Pb  Pb14  1  0.500000  0.420762  0.351454  1
  Pb  Pb15  1  0.500000  0.579238  0.648546  1
  Pb  Pb16  1  0.500000  0.079238  0.851454  1
  Pb  Pb17  1  0.500000  0.920762  0.148546  1
  Pb  Pb18  1  0.500000  0.291892  0.064478  1
  Pb  Pb19  1  0.500000  0.708108  0.935522  1
  Pb  Pb20  1  0.500000  0.208108  0.564478  1
  Pb  Pb21  1  0.500000  0.791892  0.435522  1
