# generated using pymatgen
data_Si2SnPt2
_symmetry_space_group_name_H-M   'P 1'
_cell_length_a   4.08655200
_cell_length_b   4.08655213
_cell_length_c   12.48751700
_cell_angle_alpha   90.00000000
_cell_angle_beta   90.00000000
_cell_angle_gamma   119.99999892
_symmetry_Int_Tables_number   1
_chemical_formula_structural   Si2SnPt2
_chemical_formula_sum   'Si4 Sn2 Pt4'
_cell_volume   180.60127091
_cell_formula_units_Z   2
loop_
 _symmetry_equiv_pos_site_id
 _symmetry_equiv_pos_as_xyz
  1  'x, y, z'
loop_
 _atom_site_type_symbol
 _atom_site_label
 _atom_site_symmetry_multiplicity
 _atom_site_fract_x
 _atom_site_fract_y
 _atom_site_fract_z
 _atom_site_occupancy
  Si  Si0  1  0.333333  0.666667  0.564920  1
  Si  Si1  1  0.666667  0.333333  0.064920  1
  Si  Si2  1  0.666667  0.333333  0.435080  1
  Si  Si3  1  0.333333  0.666667  0.935080  1
  Sn  Sn4  1  0.000000  0.000000  0.250000  1
  Sn  Sn5  1  0.000000  0.000000  0.750000  1
  Pt  Pt6  1  0.333333  0.666667  0.371208  1
  Pt  Pt7  1  0.666667  0.333333  0.871208  1
  Pt  Pt8  1  0.666667  0.333333  0.628792  1
  Pt  Pt9  1  0.333333  0.666667  0.128792  1
