# generated using pymatgen
data_TbYb2ErNi14
_symmetry_space_group_name_H-M   'P 1'
_cell_length_a   4.89313072
_cell_length_b   4.89313008
_cell_length_c   12.33442383
_cell_angle_alpha   78.55936688
_cell_angle_beta   78.55936772
_cell_angle_gamma   59.99999770
_symmetry_Int_Tables_number   1
_chemical_formula_structural   TbYb2ErNi14
_chemical_formula_sum   'Tb1 Yb2 Er1 Ni14'
_cell_volume   248.95579566
_cell_formula_units_Z   1
loop_
 _symmetry_equiv_pos_site_id
 _symmetry_equiv_pos_as_xyz
  1  'x, y, z'
loop_
 _atom_site_type_symbol
 _atom_site_label
 _atom_site_symmetry_multiplicity
 _atom_site_fract_x
 _atom_site_fract_y
 _atom_site_fract_z
 _atom_site_occupancy
  Tb  Tb0  1  0.052397  0.052397  0.842807  1
  Yb  Yb1  1  0.850902  0.850902  0.447294  1
  Yb  Yb2  1  0.149036  0.149036  0.552893  1
  Er  Er3  1  0.947653  0.947653  0.157043  1
  Ni  Ni4  1  0.499943  0.499943  0.500170  1
  Ni  Ni5  1  0.722244  0.722244  0.833266  1
  Ni  Ni6  1  0.277842  0.277842  0.166474  1
  Ni  Ni7  1  0.611537  0.611537  0.165390  1
  Ni  Ni8  1  0.388547  0.388547  0.834358  1
  Ni  Ni9  1  0.999823  0.499876  0.000424  1
  Ni  Ni10  1  0.499876  0.999823  0.000424  1
  Ni  Ni11  1  0.499876  0.499876  0.000424  1
  Ni  Ni12  1  0.389210  0.389210  0.331189  1
  Ni  Ni13  1  0.890391  0.389210  0.331189  1
  Ni  Ni14  1  0.389210  0.890391  0.331189  1
  Ni  Ni15  1  0.610947  0.610947  0.668487  1
  Ni  Ni16  1  0.109618  0.610947  0.668487  1
  Ni  Ni17  1  0.610947  0.109618  0.668487  1
