# generated using pymatgen
data_Tb3Dy13Cd2(Ni2Ag)2
_symmetry_space_group_name_H-M   'P 1'
_cell_length_a   9.49795629
_cell_length_b   9.49886314
_cell_length_c   9.48305000
_cell_angle_alpha   60.05505389
_cell_angle_beta   60.05190247
_cell_angle_gamma   60.06219527
_symmetry_Int_Tables_number   1
_chemical_formula_structural   Tb3Dy13Cd2(Ni2Ag)2
_chemical_formula_sum   'Tb3 Dy13 Cd2 Ni4 Ag2'
_cell_volume   605.74448148
_cell_formula_units_Z   1
loop_
 _symmetry_equiv_pos_site_id
 _symmetry_equiv_pos_as_xyz
  1  'x, y, z'
loop_
 _atom_site_type_symbol
 _atom_site_label
 _atom_site_symmetry_multiplicity
 _atom_site_fract_x
 _atom_site_fract_y
 _atom_site_fract_z
 _atom_site_occupancy
  Tb  Tb0  1  0.598966  0.599115  0.598310  1
  Tb  Tb1  1  0.598966  0.599115  0.203611  1
  Tb  Tb2  1  0.601168  0.198953  0.599940  1
  Dy  Dy3  1  0.199089  0.601205  0.599853  1
  Dy  Dy4  1  0.061646  0.438750  0.439603  1
  Dy  Dy5  1  0.438734  0.061672  0.060113  1
  Dy  Dy6  1  0.438734  0.061672  0.439480  1
  Dy  Dy7  1  0.061646  0.438750  0.060002  1
  Dy  Dy8  1  0.439574  0.439478  0.060474  1
  Dy  Dy9  1  0.061510  0.061397  0.438546  1
  Dy  Dy10  1  0.183034  0.813746  0.814844  1
  Dy  Dy11  1  0.813795  0.182997  0.188326  1
  Dy  Dy12  1  0.813795  0.182997  0.814882  1
  Dy  Dy13  1  0.183034  0.813746  0.188374  1
  Dy  Dy14  1  0.813570  0.813542  0.186444  1
  Dy  Dy15  1  0.185702  0.185736  0.814281  1
  Cd  Cd16  1  0.831785  0.508934  0.829640  1
  Cd  Cd17  1  0.508869  0.831621  0.829755  1
  Ni  Ni18  1  0.392643  0.392977  0.393349  1
  Ni  Ni19  1  0.392643  0.392977  0.821031  1
  Ni  Ni20  1  0.391503  0.822557  0.392970  1
  Ni  Ni21  1  0.822740  0.391685  0.392787  1
  Ag  Ag22  1  0.833427  0.833189  0.831779  1
  Ag  Ag23  1  0.833427  0.833189  0.501605  1
