# generated using pymatgen
data_DyHf2F11
_symmetry_space_group_name_H-M   'P 1'
_cell_length_a   8.25885739
_cell_length_b   8.25885816
_cell_length_c   8.25885758
_cell_angle_alpha   124.09900354
_cell_angle_beta   106.35413634
_cell_angle_gamma   99.07933629
_symmetry_Int_Tables_number   1
_chemical_formula_structural   DyHf2F11
_chemical_formula_sum   'Dy2 Hf4 F22'
_cell_volume   410.76281456
_cell_formula_units_Z   2
loop_
 _symmetry_equiv_pos_site_id
 _symmetry_equiv_pos_as_xyz
  1  'x, y, z'
loop_
 _atom_site_type_symbol
 _atom_site_label
 _atom_site_symmetry_multiplicity
 _atom_site_fract_x
 _atom_site_fract_y
 _atom_site_fract_z
 _atom_site_occupancy
  Dy  Dy0  1  0.750000  0.250000  0.500000  1
  Dy  Dy1  1  0.250000  0.750000  0.500000  1
  Hf  Hf2  1  0.681410  0.636859  0.318270  1
  Hf  Hf3  1  0.318590  0.363141  0.681730  1
  Hf  Hf4  1  0.181410  0.863141  0.044551  1
  Hf  Hf5  1  0.818590  0.136859  0.955449  1
  F  F6  1  0.707540  0.901148  0.343877  1
  F  F7  1  0.292460  0.098852  0.656123  1
  F  F8  1  0.557271  0.363663  0.656123  1
  F  F9  1  0.942729  0.598852  0.806391  1
  F  F10  1  0.442729  0.636337  0.343877  1
  F  F11  1  0.057271  0.401148  0.193609  1
  F  F12  1  0.792460  0.136337  0.193609  1
  F  F13  1  0.207540  0.863663  0.806391  1
  F  F14  1  0.500000  0.500000  0.000000  1
  F  F15  1  0.000000  0.000000  0.000000  1
  F  F16  1  0.782123  0.871060  0.653183  1
  F  F17  1  0.217877  0.128940  0.346817  1
  F  F18  1  0.282123  0.628940  0.911063  1
  F  F19  1  0.717877  0.371060  0.088937  1
  F  F20  1  0.957761  0.738662  0.418950  1
  F  F21  1  0.042239  0.261338  0.581050  1
  F  F22  1  0.319712  0.538811  0.581050  1
  F  F23  1  0.180288  0.761338  0.219099  1
  F  F24  1  0.680288  0.461189  0.418950  1
  F  F25  1  0.819712  0.238662  0.780901  1
  F  F26  1  0.542239  0.961189  0.780901  1
  F  F27  1  0.457761  0.038811  0.219099  1
