# generated using pymatgen
data_Y3NiRh8
_symmetry_space_group_name_H-M   'P 1'
_cell_length_a   5.26347300
_cell_length_b   5.26347420
_cell_length_c   17.31877200
_cell_angle_alpha   90.00000000
_cell_angle_beta   90.00000000
_cell_angle_gamma   119.99998620
_symmetry_Int_Tables_number   1
_chemical_formula_structural   Y3NiRh8
_chemical_formula_sum   'Y6 Ni2 Rh16'
_cell_volume   415.52071976
_cell_formula_units_Z   2
loop_
 _symmetry_equiv_pos_site_id
 _symmetry_equiv_pos_as_xyz
  1  'x, y, z'
loop_
 _atom_site_type_symbol
 _atom_site_label
 _atom_site_symmetry_multiplicity
 _atom_site_fract_x
 _atom_site_fract_y
 _atom_site_fract_z
 _atom_site_occupancy
  Y  Y0  1  0.333333  0.666667  0.957939  1
  Y  Y1  1  0.666667  0.333333  0.042061  1
  Y  Y2  1  0.666667  0.333333  0.457939  1
  Y  Y3  1  0.333333  0.666667  0.542061  1
  Y  Y4  1  0.333333  0.666667  0.750000  1
  Y  Y5  1  0.666667  0.333333  0.250000  1
  Ni  Ni6  1  0.333333  0.666667  0.250000  1
  Ni  Ni7  1  0.666667  0.333333  0.750000  1
  Rh  Rh8  1  0.168670  0.831330  0.372710  1
  Rh  Rh9  1  0.168670  0.337341  0.372710  1
  Rh  Rh10  1  0.662659  0.831330  0.372710  1
  Rh  Rh11  1  0.831330  0.168670  0.627290  1
  Rh  Rh12  1  0.831330  0.662659  0.627290  1
  Rh  Rh13  1  0.337341  0.168670  0.627290  1
  Rh  Rh14  1  0.831330  0.168670  0.872710  1
  Rh  Rh15  1  0.831330  0.662659  0.872710  1
  Rh  Rh16  1  0.337341  0.168670  0.872710  1
  Rh  Rh17  1  0.168670  0.831330  0.127290  1
  Rh  Rh18  1  0.168670  0.337341  0.127290  1
  Rh  Rh19  1  0.662659  0.831330  0.127290  1
  Rh  Rh20  1  0.000000  0.000000  0.250000  1
  Rh  Rh21  1  0.000000  0.000000  0.750000  1
  Rh  Rh22  1  0.000000  0.000000  0.500000  1
  Rh  Rh23  1  0.000000  0.000000  0.000000  1
