# generated using pymatgen
data_Ba6Sn8BiAu
_symmetry_space_group_name_H-M   'P 1'
_cell_length_a   9.26738703
_cell_length_b   9.26738714
_cell_length_c   9.36043552
_cell_angle_alpha   119.67171792
_cell_angle_beta   119.67171877
_cell_angle_gamma   89.99999756
_symmetry_Int_Tables_number   1
_chemical_formula_structural   Ba6Sn8BiAu
_chemical_formula_sum   'Ba6 Sn8 Bi1 Au1'
_cell_volume   574.04944881
_cell_formula_units_Z   1
loop_
 _symmetry_equiv_pos_site_id
 _symmetry_equiv_pos_as_xyz
  1  'x, y, z'
loop_
 _atom_site_type_symbol
 _atom_site_label
 _atom_site_symmetry_multiplicity
 _atom_site_fract_x
 _atom_site_fract_y
 _atom_site_fract_z
 _atom_site_occupancy
  Ba  Ba0  1  0.253239  0.253239  0.506477  1
  Ba  Ba1  1  0.746761  0.746761  0.493523  1
  Ba  Ba2  1  0.663460  0.165041  0.000000  1
  Ba  Ba3  1  0.336540  0.834959  0.000000  1
  Ba  Ba4  1  0.834959  0.663460  0.000000  1
  Ba  Ba5  1  0.165041  0.336540  0.000000  1
  Sn  Sn6  1  0.334749  0.833059  0.387005  1
  Sn  Sn7  1  0.665251  0.166941  0.612995  1
  Sn  Sn8  1  0.052257  0.553947  0.387005  1
  Sn  Sn9  1  0.553947  0.334749  0.387005  1
  Sn  Sn10  1  0.166941  0.947743  0.612995  1
  Sn  Sn11  1  0.947743  0.446053  0.612995  1
  Sn  Sn12  1  0.446053  0.665251  0.612995  1
  Sn  Sn13  1  0.833059  0.052257  0.387005  1
  Bi  Bi14  1  0.000000  0.000000  0.000000  1
  Au  Au15  1  0.500000  0.500000  0.000000  1
