# generated using pymatgen
data_Er2BeSi2Ge
_symmetry_space_group_name_H-M   'P 1'
_cell_length_a   3.93743240
_cell_length_b   4.04071179
_cell_length_c   7.33573872
_cell_angle_alpha   74.01340028
_cell_angle_beta   74.43252868
_cell_angle_gamma   90.00000829
_symmetry_Int_Tables_number   1
_chemical_formula_structural   Er2BeSi2Ge
_chemical_formula_sum   'Er2 Be1 Si2 Ge1'
_cell_volume   107.73732942
_cell_formula_units_Z   1
loop_
 _symmetry_equiv_pos_site_id
 _symmetry_equiv_pos_as_xyz
  1  'x, y, z'
loop_
 _atom_site_type_symbol
 _atom_site_label
 _atom_site_symmetry_multiplicity
 _atom_site_fract_x
 _atom_site_fract_y
 _atom_site_fract_z
 _atom_site_occupancy
  Er  Er0  1  0.753104  0.253104  0.493791  1
  Er  Er1  1  0.997774  0.997774  0.004453  1
  Be  Be2  1  0.166779  0.666779  0.666444  1
  Si  Si3  1  0.326704  0.826704  0.346590  1
  Si  Si4  1  0.415000  0.415000  0.170001  1
  Ge  Ge5  1  0.590639  0.590639  0.818721  1
