# generated using pymatgen
data_Sc3TaH8
_symmetry_space_group_name_H-M   'P 1'
_cell_length_a   4.69396600
_cell_length_b   4.69396600
_cell_length_c   4.69396600
_cell_angle_alpha   90.00000000
_cell_angle_beta   90.00000000
_cell_angle_gamma   90.00000000
_symmetry_Int_Tables_number   1
_chemical_formula_structural   Sc3TaH8
_chemical_formula_sum   'Sc3 Ta1 H8'
_cell_volume   103.42363997
_cell_formula_units_Z   1
loop_
 _symmetry_equiv_pos_site_id
 _symmetry_equiv_pos_as_xyz
  1  'x, y, z'
loop_
 _atom_site_type_symbol
 _atom_site_label
 _atom_site_symmetry_multiplicity
 _atom_site_fract_x
 _atom_site_fract_y
 _atom_site_fract_z
 _atom_site_occupancy
  Sc  Sc0  1  0.500000  0.500000  0.000000  1
  Sc  Sc1  1  0.500000  0.000000  0.500000  1
  Sc  Sc2  1  0.000000  0.500000  0.500000  1
  Ta  Ta3  1  0.000000  0.000000  0.000000  1
  H  H4  1  0.239722  0.239722  0.760278  1
  H  H5  1  0.239722  0.760278  0.239722  1
  H  H6  1  0.760278  0.239722  0.239722  1
  H  H7  1  0.760278  0.760278  0.760278  1
  H  H8  1  0.760278  0.760278  0.239722  1
  H  H9  1  0.760278  0.239722  0.760278  1
  H  H10  1  0.239722  0.760278  0.760278  1
  H  H11  1  0.239722  0.239722  0.239722  1
