# generated using pymatgen
data_La3Dy(B2Ir5)2
_symmetry_space_group_name_H-M   'P 1'
_cell_length_a   11.15464330
_cell_length_b   11.15464322
_cell_length_c   11.15464412
_cell_angle_alpha   28.76093285
_cell_angle_beta   28.76093386
_cell_angle_gamma   28.76094046
_symmetry_Int_Tables_number   1
_chemical_formula_structural   La3Dy(B2Ir5)2
_chemical_formula_sum   'La3 Dy1 B4 Ir10'
_cell_volume   284.10813489
_cell_formula_units_Z   1
loop_
 _symmetry_equiv_pos_site_id
 _symmetry_equiv_pos_as_xyz
  1  'x, y, z'
loop_
 _atom_site_type_symbol
 _atom_site_label
 _atom_site_symmetry_multiplicity
 _atom_site_fract_x
 _atom_site_fract_y
 _atom_site_fract_z
 _atom_site_occupancy
  La  La0  1  0.151244  0.151244  0.151244  1
  La  La1  1  0.950096  0.950096  0.950096  1
  La  La2  1  0.848422  0.848422  0.848422  1
  Dy  Dy3  1  0.049553  0.049553  0.049553  1
  B  B4  1  0.618463  0.618463  0.618463  1
  B  B5  1  0.716401  0.716401  0.716401  1
  B  B6  1  0.381776  0.381776  0.381776  1
  B  B7  1  0.284027  0.284027  0.284027  1
  Ir  Ir8  1  0.408352  0.898812  0.408352  1
  Ir  Ir9  1  0.898812  0.408352  0.408352  1
  Ir  Ir10  1  0.500821  0.500821  0.000422  1
  Ir  Ir11  1  0.500821  0.000422  0.500821  1
  Ir  Ir12  1  0.000422  0.500821  0.500821  1
  Ir  Ir13  1  0.499761  0.499761  0.499761  1
  Ir  Ir14  1  0.590966  0.100744  0.590966  1
  Ir  Ir15  1  0.590966  0.590966  0.100744  1
  Ir  Ir16  1  0.100744  0.590966  0.590966  1
  Ir  Ir17  1  0.408352  0.408352  0.898812  1
