# generated using pymatgen
data_Lu2Ga9PdRh2
_symmetry_space_group_name_H-M   'P 1'
_cell_length_a   7.57330600
_cell_length_b   7.57330658
_cell_length_c   9.41982100
_cell_angle_alpha   90.00000000
_cell_angle_beta   90.00000000
_cell_angle_gamma   119.88035305
_symmetry_Int_Tables_number   1
_chemical_formula_structural   Lu2Ga9PdRh2
_chemical_formula_sum   'Lu4 Ga18 Pd2 Rh4'
_cell_volume   468.45369317
_cell_formula_units_Z   2
loop_
 _symmetry_equiv_pos_site_id
 _symmetry_equiv_pos_as_xyz
  1  'x, y, z'
loop_
 _atom_site_type_symbol
 _atom_site_label
 _atom_site_symmetry_multiplicity
 _atom_site_fract_x
 _atom_site_fract_y
 _atom_site_fract_z
 _atom_site_occupancy
  Lu  Lu0  1  0.996484  0.673257  0.250000  1
  Lu  Lu1  1  0.003516  0.326743  0.750000  1
  Lu  Lu2  1  0.673257  0.996484  0.250000  1
  Lu  Lu3  1  0.326743  0.003516  0.750000  1
  Ga  Ga4  1  0.336446  0.550109  0.250000  1
  Ga  Ga5  1  0.663554  0.449891  0.750000  1
  Ga  Ga6  1  0.550109  0.336446  0.250000  1
  Ga  Ga7  1  0.449891  0.663554  0.750000  1
  Ga  Ga8  1  0.998137  0.338682  0.082294  1
  Ga  Ga9  1  0.001863  0.661318  0.917706  1
  Ga  Ga10  1  0.001863  0.661318  0.582294  1
  Ga  Ga11  1  0.338682  0.998137  0.417706  1
  Ga  Ga12  1  0.998137  0.338682  0.417706  1
  Ga  Ga13  1  0.661318  0.001863  0.582294  1
  Ga  Ga14  1  0.661318  0.001863  0.917706  1
  Ga  Ga15  1  0.338682  0.998137  0.082294  1
  Ga  Ga16  1  0.335046  0.335046  0.570090  1
  Ga  Ga17  1  0.664954  0.664954  0.429910  1
  Ga  Ga18  1  0.664954  0.664954  0.070090  1
  Ga  Ga19  1  0.335046  0.335046  0.929910  1
  Ga  Ga20  1  0.133469  0.133469  0.250000  1
  Ga  Ga21  1  0.866531  0.866531  0.750000  1
  Pd  Pd22  1  0.000000  0.000000  0.000000  1
  Pd  Pd23  1  0.000000  0.000000  0.500000  1
  Rh  Rh24  1  0.671218  0.328782  0.000000  1
  Rh  Rh25  1  0.328782  0.671218  0.000000  1
  Rh  Rh26  1  0.328782  0.671218  0.500000  1
  Rh  Rh27  1  0.671218  0.328782  0.500000  1
