# generated using pymatgen
data_Tm3Al12Ir3Ru
_symmetry_space_group_name_H-M   'P 1'
_cell_length_a   8.81142700
_cell_length_b   8.81142584
_cell_length_c   9.45313900
_cell_angle_alpha   90.00000000
_cell_angle_beta   90.00000000
_cell_angle_gamma   120.00000810
_symmetry_Int_Tables_number   1
_chemical_formula_structural   Tm3Al12Ir3Ru
_chemical_formula_sum   'Tm6 Al24 Ir6 Ru2'
_cell_volume   635.62223080
_cell_formula_units_Z   2
loop_
 _symmetry_equiv_pos_site_id
 _symmetry_equiv_pos_as_xyz
  1  'x, y, z'
loop_
 _atom_site_type_symbol
 _atom_site_label
 _atom_site_symmetry_multiplicity
 _atom_site_fract_x
 _atom_site_fract_y
 _atom_site_fract_z
 _atom_site_occupancy
  Tm  Tm0  1  0.804867  0.195133  0.750000  1
  Tm  Tm1  1  0.195133  0.804867  0.250000  1
  Tm  Tm2  1  0.390265  0.195133  0.750000  1
  Tm  Tm3  1  0.609735  0.804867  0.250000  1
  Tm  Tm4  1  0.804867  0.609735  0.750000  1
  Tm  Tm5  1  0.195133  0.390265  0.250000  1
  Al  Al6  1  0.666667  0.333333  0.972223  1
  Al  Al7  1  0.333333  0.666667  0.027777  1
  Al  Al8  1  0.333333  0.666667  0.472223  1
  Al  Al9  1  0.666667  0.333333  0.527777  1
  Al  Al10  1  0.837427  0.162573  0.422521  1
  Al  Al11  1  0.162573  0.837427  0.577479  1
  Al  Al12  1  0.325146  0.162573  0.422521  1
  Al  Al13  1  0.162573  0.837427  0.922521  1
  Al  Al14  1  0.674854  0.837427  0.577479  1
  Al  Al15  1  0.837427  0.162573  0.077479  1
  Al  Al16  1  0.837427  0.674854  0.422521  1
  Al  Al17  1  0.674854  0.837427  0.922521  1
  Al  Al18  1  0.162573  0.325146  0.577479  1
  Al  Al19  1  0.325146  0.162573  0.077479  1
  Al  Al20  1  0.162573  0.325146  0.922521  1
  Al  Al21  1  0.837427  0.674854  0.077479  1
  Al  Al22  1  0.437864  0.562136  0.750000  1
  Al  Al23  1  0.562136  0.437864  0.250000  1
  Al  Al24  1  0.124271  0.562136  0.750000  1
  Al  Al25  1  0.875729  0.437864  0.250000  1
  Al  Al26  1  0.437864  0.875729  0.750000  1
  Al  Al27  1  0.562136  0.124271  0.250000  1
  Al  Al28  1  0.000000  0.000000  0.750000  1
  Al  Al29  1  0.000000  0.000000  0.250000  1
  Ir  Ir30  1  0.500000  0.500000  0.000000  1
  Ir  Ir31  1  0.000000  0.500000  0.000000  1
  Ir  Ir32  1  0.500000  0.500000  0.500000  1
  Ir  Ir33  1  0.500000  0.000000  0.000000  1
  Ir  Ir34  1  0.000000  0.500000  0.500000  1
  Ir  Ir35  1  0.500000  0.000000  0.500000  1
  Ru  Ru36  1  0.000000  0.000000  0.000000  1
  Ru  Ru37  1  0.000000  0.000000  0.500000  1
