# generated using pymatgen
data_BaLi4Tb3Si8
_symmetry_space_group_name_H-M   'P 1'
_cell_length_a   3.83725100
_cell_length_b   7.86676941
_cell_length_c   10.55630724
_cell_angle_alpha   89.32973006
_cell_angle_beta   90.00000000
_cell_angle_gamma   90.00000000
_symmetry_Int_Tables_number   1
_chemical_formula_structural   BaLi4Tb3Si8
_chemical_formula_sum   'Ba1 Li4 Tb3 Si8'
_cell_volume   318.63900138
_cell_formula_units_Z   1
loop_
 _symmetry_equiv_pos_site_id
 _symmetry_equiv_pos_as_xyz
  1  'x, y, z'
loop_
 _atom_site_type_symbol
 _atom_site_label
 _atom_site_symmetry_multiplicity
 _atom_site_fract_x
 _atom_site_fract_y
 _atom_site_fract_z
 _atom_site_occupancy
  Ba  Ba0  1  0.750000  0.359082  0.364564  1
  Li  Li1  1  0.250000  0.003295  0.392769  1
  Li  Li2  1  0.750000  0.008092  0.614234  1
  Li  Li3  1  0.250000  0.488924  0.103877  1
  Li  Li4  1  0.750000  0.509998  0.894643  1
  Tb  Tb5  1  0.250000  0.123425  0.863693  1
  Tb  Tb6  1  0.750000  0.863796  0.129017  1
  Tb  Tb7  1  0.250000  0.635662  0.638839  1
  Si  Si8  1  0.750000  0.254530  0.054231  1
  Si  Si9  1  0.250000  0.732222  0.930776  1
  Si  Si10  1  0.750000  0.781209  0.433562  1
  Si  Si11  1  0.250000  0.232380  0.589042  1
  Si  Si12  1  0.750000  0.835139  0.818054  1
  Si  Si13  1  0.250000  0.144615  0.160142  1
  Si  Si14  1  0.750000  0.340943  0.693656  1
  Si  Si15  1  0.250000  0.686688  0.318900  1
