# generated using pymatgen
data_Rb2AgH6Au
_symmetry_space_group_name_H-M   'P 1'
_cell_length_a   6.25883687
_cell_length_b   6.25883696
_cell_length_c   6.12690397
_cell_angle_alpha   119.33230522
_cell_angle_beta   119.33230816
_cell_angle_gamma   58.60195944
_symmetry_Int_Tables_number   1
_chemical_formula_structural   Rb2AgH6Au
_chemical_formula_sum   'Rb2 Ag1 H6 Au1'
_cell_volume   169.48684737
_cell_formula_units_Z   1
loop_
 _symmetry_equiv_pos_site_id
 _symmetry_equiv_pos_as_xyz
  1  'x, y, z'
loop_
 _atom_site_type_symbol
 _atom_site_label
 _atom_site_symmetry_multiplicity
 _atom_site_fract_x
 _atom_site_fract_y
 _atom_site_fract_z
 _atom_site_occupancy
  Rb  Rb0  1  0.249999  0.249999  0.250132  1
  Rb  Rb1  1  0.750000  0.750000  0.749867  1
  Ag  Ag2  1  0.500000  0.500000  0.000000  1
  H  H3  1  0.689635  0.689635  0.192415  1
  H  H4  1  0.806713  0.191425  0.306720  1
  H  H5  1  0.191425  0.806713  0.306720  1
  H  H6  1  0.808575  0.193287  0.693280  1
  H  H7  1  0.193287  0.808575  0.693280  1
  H  H8  1  0.310366  0.310366  0.807585  1
  Au  Au9  1  0.000000  0.000000  0.500001  1
