# generated using pymatgen
data_UVNi2AsO10
_symmetry_space_group_name_H-M   'P 1'
_cell_length_a   5.44217901
_cell_length_b   5.79151163
_cell_length_c   7.97599446
_cell_angle_alpha   111.28815999
_cell_angle_beta   113.56346263
_cell_angle_gamma   90.00000485
_symmetry_Int_Tables_number   1
_chemical_formula_structural   UVNi2AsO10
_chemical_formula_sum   'U1 V1 Ni2 As1 O10'
_cell_volume   211.58345923
_cell_formula_units_Z   1
loop_
 _symmetry_equiv_pos_site_id
 _symmetry_equiv_pos_as_xyz
  1  'x, y, z'
loop_
 _atom_site_type_symbol
 _atom_site_label
 _atom_site_symmetry_multiplicity
 _atom_site_fract_x
 _atom_site_fract_y
 _atom_site_fract_z
 _atom_site_occupancy
  U  U0  1  0.003312  0.999491  0.998982  1
  V  V1  1  0.861186  0.628848  0.257698  1
  Ni  Ni2  1  0.499354  0.999280  0.502230  1
  Ni  Ni3  1  0.499354  0.502950  0.502230  1
  As  As4  1  0.131317  0.368578  0.737154  1
  O  O5  1  0.813216  0.311566  0.108913  1
  O  O6  1  0.813216  0.797346  0.108913  1
  O  O7  1  0.306674  0.129633  0.259267  1
  O  O8  1  0.639557  0.684978  0.369957  1
  O  O9  1  0.198835  0.717268  0.434536  1
  O  O10  1  0.797626  0.280700  0.561401  1
  O  O11  1  0.360057  0.317751  0.635502  1
  O  O12  1  0.694058  0.871365  0.742731  1
  O  O13  1  0.191117  0.209438  0.890243  1
  O  O14  1  0.191117  0.680806  0.890243  1
