# generated using pymatgen
data_Ti2Zn2Ga3Au
_symmetry_space_group_name_H-M   'P 1'
_cell_length_a   3.89922300
_cell_length_b   3.97813500
_cell_length_c   8.15431600
_cell_angle_alpha   90.00000000
_cell_angle_beta   90.00000000
_cell_angle_gamma   90.00000000
_symmetry_Int_Tables_number   1
_chemical_formula_structural   Ti2Zn2Ga3Au
_chemical_formula_sum   'Ti2 Zn2 Ga3 Au1'
_cell_volume   126.48677745
_cell_formula_units_Z   1
loop_
 _symmetry_equiv_pos_site_id
 _symmetry_equiv_pos_as_xyz
  1  'x, y, z'
loop_
 _atom_site_type_symbol
 _atom_site_label
 _atom_site_symmetry_multiplicity
 _atom_site_fract_x
 _atom_site_fract_y
 _atom_site_fract_z
 _atom_site_occupancy
  Ti  Ti0  1  0.000000  0.000000  0.766344  1
  Ti  Ti1  1  0.000000  0.000000  0.233656  1
  Zn  Zn2  1  0.500000  0.000000  0.500000  1
  Zn  Zn3  1  0.000000  0.500000  0.000000  1
  Ga  Ga4  1  0.500000  0.500000  0.744331  1
  Ga  Ga5  1  0.500000  0.500000  0.255669  1
  Ga  Ga6  1  0.500000  0.000000  0.000000  1
  Au  Au7  1  0.000000  0.500000  0.500000  1
