# generated using pymatgen
data_YHoNb3Co9As7
_symmetry_space_group_name_H-M   'P 1'
_cell_length_a   3.82573300
_cell_length_b   9.55932723
_cell_length_c   9.55932700
_cell_angle_alpha   120.00000267
_cell_angle_beta   90.00000000
_cell_angle_gamma   90.00000000
_symmetry_Int_Tables_number   1
_chemical_formula_structural   YHoNb3Co9As7
_chemical_formula_sum   'Y1 Ho1 Nb3 Co9 As7'
_cell_volume   302.76099469
_cell_formula_units_Z   1
loop_
 _symmetry_equiv_pos_site_id
 _symmetry_equiv_pos_as_xyz
  1  'x, y, z'
loop_
 _atom_site_type_symbol
 _atom_site_label
 _atom_site_symmetry_multiplicity
 _atom_site_fract_x
 _atom_site_fract_y
 _atom_site_fract_z
 _atom_site_occupancy
  Y  Y0  1  0.500000  0.333333  0.666667  1
  Ho  Ho1  1  0.000000  0.666667  0.333333  1
  Nb  Nb2  1  0.500000  0.776247  0.897183  1
  Nb  Nb3  1  0.500000  0.120935  0.223753  1
  Nb  Nb4  1  0.500000  0.102817  0.879065  1
  Co  Co5  1  0.000000  0.570570  0.938294  1
  Co  Co6  1  0.000000  0.367724  0.429430  1
  Co  Co7  1  0.000000  0.061706  0.632276  1
  Co  Co8  1  0.000000  0.876773  0.160793  1
  Co  Co9  1  0.000000  0.284020  0.123227  1
  Co  Co10  1  0.000000  0.839207  0.715980  1
  Co  Co11  1  0.500000  0.948016  0.384825  1
  Co  Co12  1  0.500000  0.436809  0.051984  1
  Co  Co13  1  0.500000  0.615175  0.563191  1
  As  As14  1  0.000000  0.000000  0.000000  1
  As  As15  1  0.500000  0.708287  0.124908  1
  As  As16  1  0.500000  0.416623  0.291713  1
  As  As17  1  0.500000  0.875092  0.583377  1
  As  As18  1  0.000000  0.580794  0.692563  1
  As  As19  1  0.000000  0.111770  0.419206  1
  As  As20  1  0.000000  0.307437  0.888230  1
