# generated using pymatgen
data_La4LuSn2Hg
_symmetry_space_group_name_H-M   'P 1'
_cell_length_a   9.45622937
_cell_length_b   9.45622795
_cell_length_c   9.45622790
_cell_angle_alpha   96.11029548
_cell_angle_beta   96.11029613
_cell_angle_gamma   141.91665632
_symmetry_Int_Tables_number   1
_chemical_formula_structural   La4LuSn2Hg
_chemical_formula_sum   'La8 Lu2 Sn4 Hg2'
_cell_volume   493.01986734
_cell_formula_units_Z   2
loop_
 _symmetry_equiv_pos_site_id
 _symmetry_equiv_pos_as_xyz
  1  'x, y, z'
loop_
 _atom_site_type_symbol
 _atom_site_label
 _atom_site_symmetry_multiplicity
 _atom_site_fract_x
 _atom_site_fract_y
 _atom_site_fract_z
 _atom_site_occupancy
  La  La0  1  0.910379  0.225961  0.136340  1
  La  La1  1  0.225961  0.089621  0.315582  1
  La  La2  1  0.774039  0.910379  0.684418  1
  La  La3  1  0.089621  0.774039  0.863660  1
  La  La4  1  0.725961  0.410379  0.136340  1
  La  La5  1  0.274039  0.589621  0.863660  1
  La  La6  1  0.589621  0.725961  0.315582  1
  La  La7  1  0.410379  0.274039  0.684418  1
  Lu  Lu8  1  0.750000  0.250000  0.500000  1
  Lu  Lu9  1  0.250000  0.750000  0.500000  1
  Sn  Sn10  1  0.847072  0.652928  0.500000  1
  Sn  Sn11  1  0.652928  0.152928  0.805857  1
  Sn  Sn12  1  0.347072  0.847072  0.194143  1
  Sn  Sn13  1  0.152928  0.347072  0.500000  1
  Hg  Hg14  1  0.750000  0.750000  0.000000  1
  Hg  Hg15  1  0.250000  0.250000  0.000000  1
