# generated using pymatgen
data_Tb2Ho14Cd4TcPd3
_symmetry_space_group_name_H-M   'P 1'
_cell_length_a   9.70108880
_cell_length_b   9.70108845
_cell_length_c   9.69861112
_cell_angle_alpha   59.35732907
_cell_angle_beta   59.35733286
_cell_angle_gamma   59.33069255
_symmetry_Int_Tables_number   1
_chemical_formula_structural   Tb2Ho14Cd4TcPd3
_chemical_formula_sum   'Tb2 Ho14 Cd4 Tc1 Pd3'
_cell_volume   635.83721045
_cell_formula_units_Z   1
loop_
 _symmetry_equiv_pos_site_id
 _symmetry_equiv_pos_as_xyz
  1  'x, y, z'
loop_
 _atom_site_type_symbol
 _atom_site_label
 _atom_site_symmetry_multiplicity
 _atom_site_fract_x
 _atom_site_fract_y
 _atom_site_fract_z
 _atom_site_occupancy
  Tb  Tb0  1  0.566024  0.566024  0.934250  1
  Tb  Tb1  1  0.937046  0.937046  0.557102  1
  Ho  Ho2  1  0.352883  0.352883  0.353089  1
  Ho  Ho3  1  0.350565  0.350565  0.946324  1
  Ho  Ho4  1  0.350961  0.946078  0.350639  1
  Ho  Ho5  1  0.946078  0.350961  0.350639  1
  Ho  Ho6  1  0.817037  0.187830  0.187758  1
  Ho  Ho7  1  0.188429  0.810093  0.810062  1
  Ho  Ho8  1  0.187830  0.817037  0.187758  1
  Ho  Ho9  1  0.810093  0.188429  0.810062  1
  Ho  Ho10  1  0.187836  0.187836  0.816982  1
  Ho  Ho11  1  0.810021  0.810021  0.188427  1
  Ho  Ho12  1  0.934611  0.565580  0.565716  1
  Ho  Ho13  1  0.556761  0.937418  0.937378  1
  Ho  Ho14  1  0.565580  0.934611  0.565716  1
  Ho  Ho15  1  0.937418  0.556761  0.937378  1
  Cd  Cd16  1  0.580056  0.580056  0.579782  1
  Cd  Cd17  1  0.581083  0.581083  0.254082  1
  Cd  Cd18  1  0.580854  0.254090  0.581098  1
  Cd  Cd19  1  0.254090  0.580854  0.581098  1
  Tc  Tc20  1  0.144633  0.144633  0.144421  1
  Pd  Pd21  1  0.145175  0.145175  0.569958  1
  Pd  Pd22  1  0.144980  0.569958  0.145143  1
  Pd  Pd23  1  0.569958  0.144980  0.145143  1
