# generated using pymatgen
data_GdPuNiO6
_symmetry_space_group_name_H-M   'P 1'
_cell_length_a   5.19263366
_cell_length_b   5.18989168
_cell_length_c   5.00624800
_cell_angle_alpha   90.03979877
_cell_angle_beta   89.95421972
_cell_angle_gamma   120.06702755
_symmetry_Int_Tables_number   1
_chemical_formula_structural   GdPuNiO6
_chemical_formula_sum   'Gd1 Pu1 Ni1 O6'
_cell_volume   116.76026724
_cell_formula_units_Z   1
loop_
 _symmetry_equiv_pos_site_id
 _symmetry_equiv_pos_as_xyz
  1  'x, y, z'
loop_
 _atom_site_type_symbol
 _atom_site_label
 _atom_site_symmetry_multiplicity
 _atom_site_fract_x
 _atom_site_fract_y
 _atom_site_fract_z
 _atom_site_occupancy
  Gd  Gd0  1  0.999909  0.000328  0.000017  1
  Pu  Pu1  1  0.666762  0.333375  0.499999  1
  Ni  Ni2  1  0.333349  0.666545  0.499996  1
  O  O3  1  0.356977  0.007402  0.726419  1
  O  O4  1  0.992304  0.349538  0.726271  1
  O  O5  1  0.650365  0.643104  0.726319  1
  O  O6  1  0.992709  0.642907  0.273602  1
  O  O7  1  0.650440  0.007332  0.273671  1
  O  O8  1  0.357184  0.349469  0.273705  1
