# generated using pymatgen
data_CsRb2CuSn4
_symmetry_space_group_name_H-M   'P 1'
_cell_length_a   6.56217200
_cell_length_b   7.47900100
_cell_length_c   13.14187800
_cell_angle_alpha   90.00000000
_cell_angle_beta   90.00000000
_cell_angle_gamma   90.00000000
_symmetry_Int_Tables_number   1
_chemical_formula_structural   CsRb2CuSn4
_chemical_formula_sum   'Cs2 Rb4 Cu2 Sn8'
_cell_volume   644.98354049
_cell_formula_units_Z   2
loop_
 _symmetry_equiv_pos_site_id
 _symmetry_equiv_pos_as_xyz
  1  'x, y, z'
loop_
 _atom_site_type_symbol
 _atom_site_label
 _atom_site_symmetry_multiplicity
 _atom_site_fract_x
 _atom_site_fract_y
 _atom_site_fract_z
 _atom_site_occupancy
  Cs  Cs0  1  0.558267  0.000000  0.000000  1
  Cs  Cs1  1  0.441733  0.500000  0.500000  1
  Rb  Rb2  1  0.836325  0.500000  0.740779  1
  Rb  Rb3  1  0.836325  0.500000  0.259221  1
  Rb  Rb4  1  0.163675  0.000000  0.759221  1
  Rb  Rb5  1  0.163675  0.000000  0.240779  1
  Cu  Cu6  1  0.687711  0.500000  0.000000  1
  Cu  Cu7  1  0.312289  0.000000  0.500000  1
  Sn  Sn8  1  0.343463  0.500000  0.883623  1
  Sn  Sn9  1  0.343463  0.500000  0.116377  1
  Sn  Sn10  1  0.033921  0.293962  0.000000  1
  Sn  Sn11  1  0.033921  0.706038  0.000000  1
  Sn  Sn12  1  0.966079  0.793962  0.500000  1
  Sn  Sn13  1  0.966079  0.206038  0.500000  1
  Sn  Sn14  1  0.656537  0.000000  0.383623  1
  Sn  Sn15  1  0.656537  0.000000  0.616377  1
