# generated using pymatgen
data_Lu4Th6TcIr5
_symmetry_space_group_name_H-M   'P 1'
_cell_length_a   6.36280900
_cell_length_b   8.35823263
_cell_length_c   8.37191550
_cell_angle_alpha   119.95381086
_cell_angle_beta   90.00148339
_cell_angle_gamma   90.00217082
_symmetry_Int_Tables_number   1
_chemical_formula_structural   Lu4Th6TcIr5
_chemical_formula_sum   'Lu4 Th6 Tc1 Ir5'
_cell_volume   385.76316378
_cell_formula_units_Z   1
loop_
 _symmetry_equiv_pos_site_id
 _symmetry_equiv_pos_as_xyz
  1  'x, y, z'
loop_
 _atom_site_type_symbol
 _atom_site_label
 _atom_site_symmetry_multiplicity
 _atom_site_fract_x
 _atom_site_fract_y
 _atom_site_fract_z
 _atom_site_occupancy
  Lu  Lu0  1  0.501020  0.332991  0.666732  1
  Lu  Lu1  1  0.500972  0.666226  0.333288  1
  Lu  Lu2  1  0.999097  0.666281  0.333257  1
  Lu  Lu3  1  0.998975  0.332986  0.666707  1
  Th  Th4  1  0.750021  0.258133  0.000040  1
  Th  Th5  1  0.750002  0.741457  0.748529  1
  Th  Th6  1  0.750029  0.992938  0.251412  1
  Th  Th7  1  0.250015  0.745556  0.000056  1
  Th  Th8  1  0.249978  0.257117  0.257524  1
  Th  Th9  1  0.250013  0.999527  0.742378  1
  Tc  Tc10  1  0.749993  0.618452  0.000022  1
  Ir  Ir11  1  0.749998  0.384977  0.386242  1
  Ir  Ir12  1  0.749990  0.998739  0.613780  1
  Ir  Ir13  1  0.249963  0.389453  0.999955  1
  Ir  Ir14  1  0.249947  0.613223  0.611238  1
  Ir  Ir15  1  0.249987  0.001945  0.388842  1
