# generated using pymatgen
data_PrY3Mo3WN12
_symmetry_space_group_name_H-M   'P 1'
_cell_length_a   7.32178415
_cell_length_b   7.32567631
_cell_length_c   6.27368292
_cell_angle_alpha   74.82024148
_cell_angle_beta   74.70339207
_cell_angle_gamma   82.59091107
_symmetry_Int_Tables_number   1
_chemical_formula_structural   PrY3Mo3WN12
_chemical_formula_sum   'Pr1 Y3 Mo3 W1 N12'
_cell_volume   312.60693914
_cell_formula_units_Z   1
loop_
 _symmetry_equiv_pos_site_id
 _symmetry_equiv_pos_as_xyz
  1  'x, y, z'
loop_
 _atom_site_type_symbol
 _atom_site_label
 _atom_site_symmetry_multiplicity
 _atom_site_fract_x
 _atom_site_fract_y
 _atom_site_fract_z
 _atom_site_occupancy
  Pr  Pr0  1  0.698159  0.304407  0.749476  1
  Y  Y1  1  0.089312  0.908408  0.750310  1
  Y  Y2  1  0.298880  0.701175  0.250960  1
  Y  Y3  1  0.915703  0.083109  0.250330  1
  Mo  Mo4  1  0.379639  0.199200  0.243022  1
  Mo  Mo5  1  0.618052  0.801506  0.761412  1
  Mo  Mo6  1  0.800462  0.620569  0.256670  1
  W  W7  1  0.199602  0.381336  0.739862  1
  N  N8  1  0.619896  0.111917  0.166632  1
  N  N9  1  0.360788  0.356582  0.456474  1
  N  N10  1  0.005495  0.213842  0.851774  1
  N  N11  1  0.378485  0.892585  0.842937  1
  N  N12  1  0.785140  0.994533  0.649432  1
  N  N13  1  0.107868  0.623219  0.654349  1
  N  N14  1  0.887459  0.379794  0.332551  1
  N  N15  1  0.640796  0.651110  0.539056  1
  N  N16  1  0.640905  0.640198  0.045437  1
  N  N17  1  0.349259  0.359740  0.960137  1
  N  N18  1  0.002610  0.778694  0.149860  1
  N  N19  1  0.221491  0.998075  0.349320  1
