# generated using pymatgen
data_Ac2InCuS5
_symmetry_space_group_name_H-M   'P 1'
_cell_length_a   11.82014700
_cell_length_b   4.07317900
_cell_length_c   17.28265100
_cell_angle_alpha   90.00000000
_cell_angle_beta   90.00000000
_cell_angle_gamma   90.00000000
_symmetry_Int_Tables_number   1
_chemical_formula_structural   Ac2InCuS5
_chemical_formula_sum   'Ac8 In4 Cu4 S20'
_cell_volume   832.08316192
_cell_formula_units_Z   4
loop_
 _symmetry_equiv_pos_site_id
 _symmetry_equiv_pos_as_xyz
  1  'x, y, z'
loop_
 _atom_site_type_symbol
 _atom_site_label
 _atom_site_symmetry_multiplicity
 _atom_site_fract_x
 _atom_site_fract_y
 _atom_site_fract_z
 _atom_site_occupancy
  Ac  Ac0  1  0.363109  0.750000  0.089374  1
  Ac  Ac1  1  0.015506  0.750000  0.177755  1
  Ac  Ac2  1  0.515505  0.750000  0.322245  1
  Ac  Ac3  1  0.863109  0.750000  0.410627  1
  Ac  Ac4  1  0.136891  0.250001  0.589373  1
  Ac  Ac5  1  0.484494  0.250001  0.677755  1
  Ac  Ac6  1  0.984494  0.250001  0.822245  1
  Ac  Ac7  1  0.636891  0.250001  0.910627  1
  In  In8  1  0.695045  0.250001  0.140326  1
  In  In9  1  0.195045  0.250001  0.359674  1
  In  In10  1  0.804955  0.750000  0.640326  1
  In  In11  1  0.304955  0.750000  0.859674  1
  Cu  Cu12  1  0.910619  0.750000  0.000110  1
  Cu  Cu13  1  0.410618  0.750000  0.499890  1
  Cu  Cu14  1  0.589382  0.250001  0.500110  1
  Cu  Cu15  1  0.089382  0.250001  0.999890  1
  S  S16  1  0.614697  0.750000  0.040562  1
  S  S17  1  0.895035  0.250001  0.068340  1
  S  S18  1  0.180116  0.250001  0.117022  1
  S  S19  1  0.488073  0.250001  0.192788  1
  S  S20  1  0.757546  0.750000  0.226151  1
  S  S21  1  0.257546  0.750000  0.273849  1
  S  S22  1  0.988073  0.250001  0.307212  1
  S  S23  1  0.680116  0.250001  0.382978  1
  S  S24  1  0.395035  0.250001  0.431660  1
  S  S25  1  0.114697  0.750000  0.459438  1
  S  S26  1  0.885303  0.250001  0.540562  1
  S  S27  1  0.604966  0.750000  0.568341  1
  S  S28  1  0.319884  0.750000  0.617022  1
  S  S29  1  0.011927  0.750000  0.692788  1
  S  S30  1  0.742454  0.250001  0.726151  1
  S  S31  1  0.242454  0.250001  0.773849  1
  S  S32  1  0.511927  0.750000  0.807212  1
  S  S33  1  0.819884  0.750000  0.882978  1
  S  S34  1  0.104966  0.750000  0.931659  1
  S  S35  1  0.385303  0.250001  0.959438  1
