# generated using pymatgen
data_LiCa2YbCd2Pb3
_symmetry_space_group_name_H-M   'P 1'
_cell_length_a   7.71699734
_cell_length_b   7.71012693
_cell_length_c   4.79712600
_cell_angle_alpha   90.00000000
_cell_angle_beta   90.00000000
_cell_angle_gamma   120.23374777
_symmetry_Int_Tables_number   1
_chemical_formula_structural   LiCa2YbCd2Pb3
_chemical_formula_sum   'Li1 Ca2 Yb1 Cd2 Pb3'
_cell_volume   246.60045482
_cell_formula_units_Z   1
loop_
 _symmetry_equiv_pos_site_id
 _symmetry_equiv_pos_as_xyz
  1  'x, y, z'
loop_
 _atom_site_type_symbol
 _atom_site_label
 _atom_site_symmetry_multiplicity
 _atom_site_fract_x
 _atom_site_fract_y
 _atom_site_fract_z
 _atom_site_occupancy
  Li  Li0  1  0.766869  0.766829  0.000000  1
  Ca  Ca1  1  0.424336  0.424347  0.500000  1
  Ca  Ca2  1  0.565462  0.005343  0.500000  1
  Yb  Yb3  1  0.005534  0.565359  0.500000  1
  Cd  Cd4  1  0.241449  0.999680  0.000000  1
  Cd  Cd5  1  0.000082  0.242289  0.000000  1
  Pb  Pb6  1  0.671859  0.350218  0.000000  1
  Pb  Pb7  1  0.347796  0.670224  0.000000  1
  Pb  Pb8  1  0.976612  0.975712  0.500000  1
