# generated using pymatgen
data_YHo2In3IrPd2
_symmetry_space_group_name_H-M   'P 1'
_cell_length_a   7.75083018
_cell_length_b   7.74652905
_cell_length_c   3.79376600
_cell_angle_alpha   90.00000000
_cell_angle_beta   90.00000000
_cell_angle_gamma   120.15087229
_symmetry_Int_Tables_number   1
_chemical_formula_structural   YHo2In3IrPd2
_chemical_formula_sum   'Y1 Ho2 In3 Ir1 Pd2'
_cell_volume   196.96736937
_cell_formula_units_Z   1
loop_
 _symmetry_equiv_pos_site_id
 _symmetry_equiv_pos_as_xyz
  1  'x, y, z'
loop_
 _atom_site_type_symbol
 _atom_site_label
 _atom_site_symmetry_multiplicity
 _atom_site_fract_x
 _atom_site_fract_y
 _atom_site_fract_z
 _atom_site_occupancy
  Y  Y0  1  0.584554  0.601312  0.000000  1
  Ho  Ho1  1  0.398343  0.981937  0.000000  1
  Ho  Ho2  1  0.017959  0.416356  0.000000  1
  In  In3  1  0.995611  0.734997  0.500000  1
  In  In4  1  0.265171  0.260748  0.500000  1
  In  In5  1  0.739393  0.004702  0.500000  1
  Ir  Ir6  1  0.330930  0.667228  0.500000  1
  Pd  Pd7  1  0.001047  0.001083  0.000000  1
  Pd  Pd8  1  0.666993  0.331637  0.500000  1
