# generated using pymatgen
data_Ce7Sm(Ta3Si4)4
_symmetry_space_group_name_H-M   'P 1'
_cell_length_a   6.95544523
_cell_length_b   7.13326955
_cell_length_c   13.44149915
_cell_angle_alpha   89.90300760
_cell_angle_beta   90.11069835
_cell_angle_gamma   90.00415378
_symmetry_Int_Tables_number   1
_chemical_formula_structural   Ce7Sm(Ta3Si4)4
_chemical_formula_sum   'Ce7 Sm1 Ta12 Si16'
_cell_volume   666.89866076
_cell_formula_units_Z   1
loop_
 _symmetry_equiv_pos_site_id
 _symmetry_equiv_pos_as_xyz
  1  'x, y, z'
loop_
 _atom_site_type_symbol
 _atom_site_label
 _atom_site_symmetry_multiplicity
 _atom_site_fract_x
 _atom_site_fract_y
 _atom_site_fract_z
 _atom_site_occupancy
  Ce  Ce0  1  0.003957  0.168486  0.094410  1
  Ce  Ce1  1  0.994920  0.831507  0.905273  1
  Ce  Ce2  1  0.495344  0.668178  0.905614  1
  Ce  Ce3  1  0.994711  0.832254  0.594010  1
  Ce  Ce4  1  0.503433  0.331626  0.094500  1
  Ce  Ce5  1  0.003765  0.168292  0.405956  1
  Ce  Ce6  1  0.504385  0.329424  0.404330  1
  Sm  Sm7  1  0.496308  0.668932  0.594824  1
  Ta  Ta8  1  0.161128  0.492642  0.750155  1
  Ta  Ta9  1  0.838784  0.506196  0.250204  1
  Ta  Ta10  1  0.338833  0.993239  0.249765  1
  Ta  Ta11  1  0.662663  0.007894  0.750863  1
  Ta  Ta12  1  0.335038  0.173363  0.624981  1
  Ta  Ta13  1  0.665672  0.827882  0.374275  1
  Ta  Ta14  1  0.163784  0.673209  0.374544  1
  Ta  Ta15  1  0.664501  0.827016  0.125252  1
  Ta  Ta16  1  0.837683  0.325995  0.625572  1
  Ta  Ta17  1  0.335769  0.173483  0.875152  1
  Ta  Ta18  1  0.834855  0.327822  0.875231  1
  Ta  Ta19  1  0.163955  0.672706  0.125296  1
  Si  Si20  1  0.039298  0.125883  0.750396  1
  Si  Si21  1  0.961218  0.873990  0.249833  1
  Si  Si22  1  0.461168  0.625739  0.250140  1
  Si  Si23  1  0.539197  0.372906  0.749974  1
  Si  Si24  1  0.296049  0.878701  0.749999  1
  Si  Si25  1  0.703811  0.122310  0.249558  1
  Si  Si26  1  0.203897  0.377928  0.249956  1
  Si  Si27  1  0.796529  0.621988  0.749836  1
  Si  Si28  1  0.160384  0.460241  0.543089  1
  Si  Si29  1  0.840081  0.539768  0.456294  1
  Si  Si30  1  0.340419  0.959693  0.456345  1
  Si  Si31  1  0.840018  0.540179  0.043683  1
  Si  Si32  1  0.658612  0.040586  0.543334  1
  Si  Si33  1  0.159653  0.459617  0.956809  1
  Si  Si34  1  0.659783  0.040614  0.956955  1
  Si  Si35  1  0.340393  0.959710  0.043590  1
