# generated using pymatgen
data_Er12AlCo3SiBi
_symmetry_space_group_name_H-M   'P 1'
_cell_length_a   8.32741308
_cell_length_b   8.32741236
_cell_length_c   8.32741391
_cell_angle_alpha   110.71513462
_cell_angle_beta   112.66656814
_cell_angle_gamma   105.12408981
_symmetry_Int_Tables_number   1
_chemical_formula_structural   Er12AlCo3SiBi
_chemical_formula_sum   'Er12 Al1 Co3 Si1 Bi1'
_cell_volume   442.49796414
_cell_formula_units_Z   1
loop_
 _symmetry_equiv_pos_site_id
 _symmetry_equiv_pos_as_xyz
  1  'x, y, z'
loop_
 _atom_site_type_symbol
 _atom_site_label
 _atom_site_symmetry_multiplicity
 _atom_site_fract_x
 _atom_site_fract_y
 _atom_site_fract_z
 _atom_site_occupancy
  Er  Er0  1  0.283041  0.180988  0.464029  1
  Er  Er1  1  0.718789  0.814116  0.532905  1
  Er  Er2  1  0.281211  0.814116  0.095328  1
  Er  Er3  1  0.716959  0.180988  0.897946  1
  Er  Er4  1  0.617608  0.308149  0.312160  1
  Er  Er5  1  0.382392  0.694554  0.690543  1
  Er  Er6  1  0.995990  0.308149  0.690543  1
  Er  Er7  1  0.004010  0.694554  0.312160  1
  Er  Er8  1  0.230599  0.430963  0.200364  1
  Er  Er9  1  0.770742  0.563370  0.792628  1
  Er  Er10  1  0.229258  0.021886  0.792628  1
  Er  Er11  1  0.769401  0.969765  0.200364  1
  Al  Al12  1  0.000000  0.993270  0.993270  1
  Co  Co13  1  0.000000  0.650976  0.650976  1
  Co  Co14  1  0.390069  0.891483  0.501414  1
  Co  Co15  1  0.609931  0.111345  0.501414  1
  Si  Si16  1  0.000000  0.375624  0.375624  1
  Bi  Bi17  1  0.500000  0.495704  0.995704  1
