# generated using pymatgen
data_Ce6Al24Tc7Au
_symmetry_space_group_name_H-M   'P 1'
_cell_length_a   8.94849105
_cell_length_b   8.94849050
_cell_length_c   9.65118452
_cell_angle_alpha   89.62900125
_cell_angle_beta   90.37099709
_cell_angle_gamma   119.68393356
_symmetry_Int_Tables_number   1
_chemical_formula_structural   Ce6Al24Tc7Au
_chemical_formula_sum   'Ce6 Al24 Tc7 Au1'
_cell_volume   671.38719202
_cell_formula_units_Z   1
loop_
 _symmetry_equiv_pos_site_id
 _symmetry_equiv_pos_as_xyz
  1  'x, y, z'
loop_
 _atom_site_type_symbol
 _atom_site_label
 _atom_site_symmetry_multiplicity
 _atom_site_fract_x
 _atom_site_fract_y
 _atom_site_fract_z
 _atom_site_occupancy
  Ce  Ce0  1  0.811357  0.612554  0.746283  1
  Ce  Ce1  1  0.196419  0.803581  0.253253  1
  Ce  Ce2  1  0.612554  0.811357  0.253717  1
  Ce  Ce3  1  0.387446  0.188643  0.746283  1
  Ce  Ce4  1  0.803581  0.196419  0.746747  1
  Ce  Ce5  1  0.188643  0.387446  0.253717  1
  Al  Al6  1  0.333326  0.666674  0.495914  1
  Al  Al7  1  0.670683  0.329317  0.992062  1
  Al  Al8  1  0.666674  0.333326  0.504086  1
  Al  Al9  1  0.329317  0.670683  0.007938  1
  Al  Al10  1  0.161682  0.322307  0.579730  1
  Al  Al11  1  0.677693  0.838318  0.579730  1
  Al  Al12  1  0.162557  0.837443  0.578602  1
  Al  Al13  1  0.838570  0.161430  0.078927  1
  Al  Al14  1  0.837443  0.162557  0.421398  1
  Al  Al15  1  0.848388  0.681105  0.079503  1
  Al  Al16  1  0.318895  0.151612  0.079503  1
  Al  Al17  1  0.681105  0.848388  0.920497  1
  Al  Al18  1  0.151612  0.318895  0.920497  1
  Al  Al19  1  0.838318  0.677693  0.420270  1
  Al  Al20  1  0.000334  0.999666  0.250142  1
  Al  Al21  1  0.999666  0.000334  0.749858  1
  Al  Al22  1  0.560871  0.125800  0.248703  1
  Al  Al23  1  0.437318  0.562682  0.745021  1
  Al  Al24  1  0.125800  0.560871  0.751297  1
  Al  Al25  1  0.874200  0.439129  0.248703  1
  Al  Al26  1  0.562682  0.437318  0.254979  1
  Al  Al27  1  0.439129  0.874200  0.751297  1
  Al  Al28  1  0.161430  0.838570  0.921073  1
  Al  Al29  1  0.322307  0.161682  0.420270  1
  Tc  Tc30  1  0.000000  0.000000  0.500000  1
  Tc  Tc31  1  0.000000  0.000000  0.000000  1
  Tc  Tc32  1  0.500000  0.000000  0.500000  1
  Tc  Tc33  1  0.000000  0.500000  0.000000  1
  Tc  Tc34  1  0.000000  0.500000  0.500000  1
  Tc  Tc35  1  0.500000  0.500000  0.500000  1
  Tc  Tc36  1  0.500000  0.000000  0.000000  1
  Au  Au37  1  0.500000  0.500000  0.000000  1
