# generated using pymatgen
data_SrCaVO4
_symmetry_space_group_name_H-M   'P 1'
_cell_length_a   5.44174500
_cell_length_b   7.00387700
_cell_length_c   12.05349600
_cell_angle_alpha   90.00000000
_cell_angle_beta   90.00000000
_cell_angle_gamma   90.00000000
_symmetry_Int_Tables_number   1
_chemical_formula_structural   SrCaVO4
_chemical_formula_sum   'Sr4 Ca4 V4 O16'
_cell_volume   459.39866152
_cell_formula_units_Z   4
loop_
 _symmetry_equiv_pos_site_id
 _symmetry_equiv_pos_as_xyz
  1  'x, y, z'
loop_
 _atom_site_type_symbol
 _atom_site_label
 _atom_site_symmetry_multiplicity
 _atom_site_fract_x
 _atom_site_fract_y
 _atom_site_fract_z
 _atom_site_occupancy
  Sr  Sr0  1  0.012707  0.750000  0.719885  1
  Sr  Sr1  1  0.987293  0.250000  0.280115  1
  Sr  Sr2  1  0.512707  0.250000  0.780115  1
  Sr  Sr3  1  0.487293  0.750000  0.219885  1
  Ca  Ca4  1  0.500000  0.500000  0.500000  1
  Ca  Ca5  1  0.000000  0.000000  0.000000  1
  Ca  Ca6  1  0.000000  0.500000  0.000000  1
  Ca  Ca7  1  0.500000  0.000000  0.500000  1
  V  V8  1  0.427973  0.250000  0.090090  1
  V  V9  1  0.927973  0.750000  0.409910  1
  V  V10  1  0.572027  0.750000  0.909910  1
  V  V11  1  0.072027  0.250000  0.590090  1
  O  O12  1  0.771639  0.750000  0.547247  1
  O  O13  1  0.771415  0.548613  0.344010  1
  O  O14  1  0.728585  0.548613  0.844010  1
  O  O15  1  0.740071  0.250000  0.579653  1
  O  O16  1  0.728361  0.750000  0.047247  1
  O  O17  1  0.271415  0.451387  0.155990  1
  O  O18  1  0.228585  0.451387  0.655990  1
  O  O19  1  0.259929  0.750000  0.420347  1
  O  O20  1  0.771415  0.951387  0.344010  1
  O  O21  1  0.240071  0.750000  0.920347  1
  O  O22  1  0.228361  0.250000  0.452753  1
  O  O23  1  0.728585  0.951387  0.844010  1
  O  O24  1  0.228585  0.048613  0.655990  1
  O  O25  1  0.271639  0.250000  0.952753  1
  O  O26  1  0.271415  0.048613  0.155990  1
  O  O27  1  0.759929  0.250000  0.079653  1
