# generated using pymatgen
data_Dy11Ho8TmSn16
_symmetry_space_group_name_H-M   'P 1'
_cell_length_a   8.01888732
_cell_length_b   8.15678910
_cell_length_c   15.43649494
_cell_angle_alpha   89.90009184
_cell_angle_beta   89.95551705
_cell_angle_gamma   90.20522119
_symmetry_Int_Tables_number   1
_chemical_formula_structural   Dy11Ho8TmSn16
_chemical_formula_sum   'Dy11 Ho8 Tm1 Sn16'
_cell_volume   1009.66769355
_cell_formula_units_Z   1
loop_
 _symmetry_equiv_pos_site_id
 _symmetry_equiv_pos_as_xyz
  1  'x, y, z'
loop_
 _atom_site_type_symbol
 _atom_site_label
 _atom_site_symmetry_multiplicity
 _atom_site_fract_x
 _atom_site_fract_y
 _atom_site_fract_z
 _atom_site_occupancy
  Dy  Dy0  1  0.133105  0.337147  0.377198  1
  Dy  Dy1  1  0.367338  0.837302  0.622161  1
  Dy  Dy2  1  0.866926  0.662725  0.877936  1
  Dy  Dy3  1  0.519685  0.320247  0.903444  1
  Dy  Dy4  1  0.020007  0.179374  0.596836  1
  Dy  Dy5  1  0.479692  0.679302  0.402673  1
  Dy  Dy6  1  0.980264  0.821061  0.097222  1
  Dy  Dy7  1  0.480654  0.679226  0.096989  1
  Dy  Dy8  1  0.980365  0.821241  0.402758  1
  Dy  Dy9  1  0.519444  0.320880  0.596790  1
  Dy  Dy10  1  0.019426  0.179177  0.903399  1
  Ho  Ho11  1  0.366185  0.837506  0.877623  1
  Ho  Ho12  1  0.866292  0.662456  0.622489  1
  Ho  Ho13  1  0.633389  0.162274  0.377130  1
  Ho  Ho14  1  0.133900  0.337606  0.122751  1
  Ho  Ho15  1  0.633042  0.162266  0.123013  1
  Ho  Ho16  1  0.197838  0.503291  0.750164  1
  Ho  Ho17  1  0.697961  0.996556  0.749962  1
  Ho  Ho18  1  0.802277  0.496903  0.250049  1
  Tm  Tm19  1  0.302031  0.003551  0.249708  1
  Sn  Sn20  1  0.294027  0.037643  0.041730  1
  Sn  Sn21  1  0.793183  0.462915  0.458259  1
  Sn  Sn22  1  0.707134  0.962555  0.541187  1
  Sn  Sn23  1  0.206891  0.537346  0.958953  1
  Sn  Sn24  1  0.705415  0.962669  0.958887  1
  Sn  Sn25  1  0.205425  0.537561  0.541504  1
  Sn  Sn26  1  0.294268  0.037495  0.457425  1
  Sn  Sn27  1  0.794297  0.461756  0.042197  1
  Sn  Sn28  1  0.564201  0.617928  0.750180  1
  Sn  Sn29  1  0.064080  0.881772  0.749825  1
  Sn  Sn30  1  0.435919  0.381431  0.249908  1
  Sn  Sn31  1  0.936380  0.118175  0.249676  1
  Sn  Sn32  1  0.329475  0.148311  0.750129  1
  Sn  Sn33  1  0.829180  0.351040  0.749925  1
  Sn  Sn34  1  0.669677  0.851661  0.250130  1
  Sn  Sn35  1  0.170627  0.649651  0.249793  1
