# generated using pymatgen
data_Cs4TbSbCl12
_symmetry_space_group_name_H-M   'P 1'
_cell_length_a   13.25864673
_cell_length_b   13.25864754
_cell_length_c   13.25864624
_cell_angle_alpha   131.85111873
_cell_angle_beta   131.85112090
_cell_angle_gamma   70.46427204
_symmetry_Int_Tables_number   1
_chemical_formula_structural   Cs4TbSbCl12
_chemical_formula_sum   'Cs8 Tb2 Sb2 Cl24'
_cell_volume   1267.18945853
_cell_formula_units_Z   2
loop_
 _symmetry_equiv_pos_site_id
 _symmetry_equiv_pos_as_xyz
  1  'x, y, z'
loop_
 _atom_site_type_symbol
 _atom_site_label
 _atom_site_symmetry_multiplicity
 _atom_site_fract_x
 _atom_site_fract_y
 _atom_site_fract_z
 _atom_site_occupancy
  Cs  Cs0  1  0.375000  0.845140  0.970140  1
  Cs  Cs1  1  0.595140  0.625000  0.470140  1
  Cs  Cs2  1  0.875000  0.845140  0.470140  1
  Cs  Cs3  1  0.595140  0.125000  0.970140  1
  Cs  Cs4  1  0.875000  0.404860  0.029860  1
  Cs  Cs5  1  0.154860  0.125000  0.529860  1
  Cs  Cs6  1  0.375000  0.404860  0.529860  1
  Cs  Cs7  1  0.154860  0.625000  0.029860  1
  Tb  Tb8  1  0.500000  0.500000  0.000000  1
  Tb  Tb9  1  0.250000  0.750000  0.500000  1
  Sb  Sb10  1  0.000000  0.000000  0.000000  1
  Sb  Sb11  1  0.750000  0.250000  0.500000  1
  Cl  Cl12  1  0.741358  0.495623  0.245735  1
  Cl  Cl13  1  0.504377  0.258642  0.754265  1
  Cl  Cl14  1  0.377238  0.377238  0.000000  1
  Cl  Cl15  1  0.127238  0.627238  0.500000  1
  Cl  Cl16  1  0.372762  0.872762  0.500000  1
  Cl  Cl17  1  0.622762  0.622762  0.000000  1
  Cl  Cl18  1  0.111650  0.111650  0.000000  1
  Cl  Cl19  1  0.861650  0.361650  0.500000  1
  Cl  Cl20  1  0.638350  0.138350  0.500000  1
  Cl  Cl21  1  0.888350  0.888350  0.000000  1
  Cl  Cl22  1  0.224506  0.000586  0.223920  1
  Cl  Cl23  1  0.750586  0.026666  0.276080  1
  Cl  Cl24  1  0.504377  0.750111  0.245735  1
  Cl  Cl25  1  0.525494  0.249414  0.276080  1
  Cl  Cl26  1  0.973334  0.249414  0.723920  1
  Cl  Cl27  1  0.999414  0.223334  0.223920  1
  Cl  Cl28  1  0.999414  0.775494  0.776080  1
  Cl  Cl29  1  0.776666  0.000586  0.776080  1
  Cl  Cl30  1  0.750586  0.474506  0.723920  1
  Cl  Cl31  1  0.245623  0.499889  0.254265  1
  Cl  Cl32  1  0.245623  0.991358  0.745735  1
  Cl  Cl33  1  0.008642  0.754377  0.254265  1
  Cl  Cl34  1  0.500111  0.754377  0.745735  1
  Cl  Cl35  1  0.249889  0.495623  0.754265  1
