# generated using pymatgen
data_EuP12PdRu3
_symmetry_space_group_name_H-M   'P 1'
_cell_length_a   7.04997993
_cell_length_b   7.04997940
_cell_length_c   7.04998005
_cell_angle_alpha   109.46457897
_cell_angle_beta   109.46457457
_cell_angle_gamma   109.46457355
_symmetry_Int_Tables_number   1
_chemical_formula_structural   EuP12PdRu3
_chemical_formula_sum   'Eu1 P12 Pd1 Ru3'
_cell_volume   269.80408831
_cell_formula_units_Z   1
loop_
 _symmetry_equiv_pos_site_id
 _symmetry_equiv_pos_as_xyz
  1  'x, y, z'
loop_
 _atom_site_type_symbol
 _atom_site_label
 _atom_site_symmetry_multiplicity
 _atom_site_fract_x
 _atom_site_fract_y
 _atom_site_fract_z
 _atom_site_occupancy
  Eu  Eu0  1  0.000000  0.000000  0.000000  1
  P  P1  1  0.355432  0.212254  0.856246  1
  P  P2  1  0.644568  0.787746  0.143754  1
  P  P3  1  0.647797  0.500876  0.866182  1
  P  P4  1  0.352203  0.499124  0.133818  1
  P  P5  1  0.212254  0.856246  0.355432  1
  P  P6  1  0.787746  0.143754  0.644568  1
  P  P7  1  0.500876  0.866182  0.647797  1
  P  P8  1  0.499124  0.133818  0.352203  1
  P  P9  1  0.856246  0.355432  0.212254  1
  P  P10  1  0.143754  0.644568  0.787746  1
  P  P11  1  0.866182  0.647797  0.500876  1
  P  P12  1  0.133818  0.352203  0.499124  1
  Pd  Pd13  1  0.500000  0.500000  0.500000  1
  Ru  Ru14  1  0.000000  0.000000  0.500000  1
  Ru  Ru15  1  0.500000  0.000000  0.000000  1
  Ru  Ru16  1  0.000000  0.500000  0.000000  1
