# generated using pymatgen
data_La5Eu(Sn5Au6)2
_symmetry_space_group_name_H-M   'P 1'
_cell_length_a   4.68883800
_cell_length_b   10.29386705
_cell_length_c   14.00798800
_cell_angle_alpha   89.99414456
_cell_angle_beta   90.00000000
_cell_angle_gamma   90.00000000
_symmetry_Int_Tables_number   1
_chemical_formula_structural   La5Eu(Sn5Au6)2
_chemical_formula_sum   'La5 Eu1 Sn10 Au12'
_cell_volume   676.11339759
_cell_formula_units_Z   1
loop_
 _symmetry_equiv_pos_site_id
 _symmetry_equiv_pos_as_xyz
  1  'x, y, z'
loop_
 _atom_site_type_symbol
 _atom_site_label
 _atom_site_symmetry_multiplicity
 _atom_site_fract_x
 _atom_site_fract_y
 _atom_site_fract_z
 _atom_site_occupancy
  La  La0  1  0.500000  0.757060  0.499938  1
  La  La1  1  0.000000  0.243143  0.000542  1
  La  La2  1  0.500000  0.754248  0.810587  1
  La  La3  1  0.500000  0.754333  0.189337  1
  La  La4  1  0.000000  0.245877  0.689719  1
  Eu  Eu5  1  0.000000  0.244111  0.310892  1
  Sn  Sn6  1  0.500000  0.476244  0.641397  1
  Sn  Sn7  1  0.500000  0.476588  0.357939  1
  Sn  Sn8  1  0.000000  0.523516  0.858076  1
  Sn  Sn9  1  0.000000  0.522375  0.142355  1
  Sn  Sn10  1  0.500000  0.118465  0.838479  1
  Sn  Sn11  1  0.500000  0.119136  0.162311  1
  Sn  Sn12  1  0.000000  0.881296  0.661228  1
  Sn  Sn13  1  0.000000  0.881875  0.338204  1
  Sn  Sn14  1  0.500000  0.225030  0.499113  1
  Sn  Sn15  1  0.000000  0.775886  0.000506  1
  Au  Au16  1  0.500000  0.025425  0.646196  1
  Au  Au17  1  0.500000  0.026440  0.353189  1
  Au  Au18  1  0.000000  0.974746  0.853291  1
  Au  Au19  1  0.000000  0.975655  0.147221  1
  Au  Au20  1  0.000000  0.042288  0.499544  1
  Au  Au21  1  0.500000  0.959115  0.000707  1
  Au  Au22  1  0.500000  0.381942  0.839985  1
  Au  Au23  1  0.500000  0.382191  0.161414  1
  Au  Au24  1  0.000000  0.617859  0.658515  1
  Au  Au25  1  0.000000  0.618625  0.340256  1
  Au  Au26  1  0.000000  0.428273  0.498821  1
  Au  Au27  1  0.500000  0.568257  0.000242  1
