# generated using pymatgen
data_Cs4Al3GaI16
_symmetry_space_group_name_H-M   'P 1'
_cell_length_a   19.15544462
_cell_length_b   7.60787085
_cell_length_c   8.74252103
_cell_angle_alpha   71.73495578
_cell_angle_beta   90.09761739
_cell_angle_gamma   90.18638464
_symmetry_Int_Tables_number   1
_chemical_formula_structural   Cs4Al3GaI16
_chemical_formula_sum   'Cs4 Al3 Ga1 I16'
_cell_volume   1209.86820280
_cell_formula_units_Z   1
loop_
 _symmetry_equiv_pos_site_id
 _symmetry_equiv_pos_as_xyz
  1  'x, y, z'
loop_
 _atom_site_type_symbol
 _atom_site_label
 _atom_site_symmetry_multiplicity
 _atom_site_fract_x
 _atom_site_fract_y
 _atom_site_fract_z
 _atom_site_occupancy
  Cs  Cs0  1  0.869621  0.182285  0.704060  1
  Cs  Cs1  1  0.629369  0.181938  0.204919  1
  Cs  Cs2  1  0.371573  0.816916  0.794173  1
  Cs  Cs3  1  0.129144  0.819220  0.293253  1
  Al  Al4  1  0.870537  0.809650  0.298956  1
  Al  Al5  1  0.371639  0.188540  0.201017  1
  Al  Al6  1  0.629001  0.810300  0.798630  1
  Ga  Ga7  1  0.128956  0.191604  0.702838  1
  I  I8  1  0.244986  0.372426  0.640530  1
  I  I9  1  0.055097  0.272262  0.439207  1
  I  I10  1  0.756046  0.629068  0.359510  1
  I  I11  1  0.556292  0.730044  0.059611  1
  I  I12  1  0.655194  0.160717  0.705346  1
  I  I13  1  0.844185  0.159652  0.206014  1
  I  I14  1  0.444430  0.269955  0.940024  1
  I  I15  1  0.256547  0.364351  0.142336  1
  I  I16  1  0.743693  0.632859  0.858250  1
  I  I17  1  0.943967  0.730863  0.558985  1
  I  I18  1  0.444065  0.269357  0.416939  1
  I  I19  1  0.941911  0.731220  0.081374  1
  I  I20  1  0.345248  0.838190  0.294015  1
  I  I21  1  0.155930  0.838126  0.797135  1
  I  I22  1  0.557022  0.729794  0.582061  1
  I  I23  1  0.055545  0.270663  0.920812  1
