# generated using pymatgen
data_Ac8Ni6Ag
_symmetry_space_group_name_H-M   'P 1'
_cell_length_a   7.75498720
_cell_length_b   7.75498722
_cell_length_c   7.75498678
_cell_angle_alpha   74.07498324
_cell_angle_beta   74.07498608
_cell_angle_gamma   74.07497705
_symmetry_Int_Tables_number   1
_chemical_formula_structural   Ac8Ni6Ag
_chemical_formula_sum   'Ac8 Ni6 Ag1'
_cell_volume   421.15776850
_cell_formula_units_Z   1
loop_
 _symmetry_equiv_pos_site_id
 _symmetry_equiv_pos_as_xyz
  1  'x, y, z'
loop_
 _atom_site_type_symbol
 _atom_site_label
 _atom_site_symmetry_multiplicity
 _atom_site_fract_x
 _atom_site_fract_y
 _atom_site_fract_z
 _atom_site_occupancy
  Ac  Ac0  1  0.800464  0.800464  0.800464  1
  Ac  Ac1  1  0.199536  0.199536  0.199536  1
  Ac  Ac2  1  0.314372  0.638231  0.834225  1
  Ac  Ac3  1  0.834225  0.314372  0.638231  1
  Ac  Ac4  1  0.638231  0.834225  0.314372  1
  Ac  Ac5  1  0.685628  0.361769  0.165775  1
  Ac  Ac6  1  0.165775  0.685628  0.361769  1
  Ac  Ac7  1  0.361769  0.165775  0.685628  1
  Ni  Ni8  1  0.134748  0.966364  0.580290  1
  Ni  Ni9  1  0.580290  0.134748  0.966364  1
  Ni  Ni10  1  0.966364  0.580290  0.134748  1
  Ni  Ni11  1  0.865252  0.033636  0.419710  1
  Ni  Ni12  1  0.419710  0.865252  0.033636  1
  Ni  Ni13  1  0.033636  0.419710  0.865252  1
  Ag  Ag14  1  0.000000  0.000000  0.000000  1
