# generated using pymatgen
data_SrPrY(Si3Pd10)2
_symmetry_space_group_name_H-M   'P 1'
_cell_length_a   8.78107386
_cell_length_b   8.78107748
_cell_length_c   8.78107300
_cell_angle_alpha   59.99993777
_cell_angle_beta   59.99999949
_cell_angle_gamma   59.99999302
_symmetry_Int_Tables_number   1
_chemical_formula_structural   SrPrY(Si3Pd10)2
_chemical_formula_sum   'Sr1 Pr1 Y1 Si6 Pd20'
_cell_volume   478.77096033
_cell_formula_units_Z   1
loop_
 _symmetry_equiv_pos_site_id
 _symmetry_equiv_pos_as_xyz
  1  'x, y, z'
loop_
 _atom_site_type_symbol
 _atom_site_label
 _atom_site_symmetry_multiplicity
 _atom_site_fract_x
 _atom_site_fract_y
 _atom_site_fract_z
 _atom_site_occupancy
  Sr  Sr0  1  0.250000  0.250000  0.250000  1
  Pr  Pr1  1  0.750000  0.750000  0.750000  1
  Y  Y2  1  0.000000  0.000000  0.000000  1
  Si  Si3  1  0.732755  0.267245  0.267245  1
  Si  Si4  1  0.267245  0.732755  0.732755  1
  Si  Si5  1  0.267245  0.732755  0.267245  1
  Si  Si6  1  0.732755  0.267245  0.732755  1
  Si  Si7  1  0.267245  0.267245  0.732755  1
  Si  Si8  1  0.732755  0.732755  0.267245  1
  Pd  Pd9  1  0.386921  0.386921  0.386921  1
  Pd  Pd10  1  0.614924  0.614924  0.614924  1
  Pd  Pd11  1  0.386921  0.386921  0.839239  1
  Pd  Pd12  1  0.386921  0.839239  0.386921  1
  Pd  Pd13  1  0.614924  0.614924  0.155226  1
  Pd  Pd14  1  0.614924  0.155226  0.614924  1
  Pd  Pd15  1  0.839239  0.386921  0.386921  1
  Pd  Pd16  1  0.155226  0.614924  0.614924  1
  Pd  Pd17  1  0.346013  0.998096  0.998096  1
  Pd  Pd18  1  0.657796  0.998096  0.998096  1
  Pd  Pd19  1  0.998096  0.346013  0.657796  1
  Pd  Pd20  1  0.998096  0.657796  0.346013  1
  Pd  Pd21  1  0.998096  0.346013  0.998096  1
  Pd  Pd22  1  0.657796  0.998096  0.346013  1
  Pd  Pd23  1  0.998096  0.657796  0.998096  1
  Pd  Pd24  1  0.346013  0.998096  0.657796  1
  Pd  Pd25  1  0.998096  0.998096  0.346012  1
  Pd  Pd26  1  0.998096  0.998096  0.657797  1
  Pd  Pd27  1  0.657796  0.346013  0.998096  1
  Pd  Pd28  1  0.346013  0.657796  0.998096  1
