# generated using pymatgen
data_Ho4TaMoRu6
_symmetry_space_group_name_H-M   'P 1'
_cell_length_a   5.60751642
_cell_length_b   5.18988572
_cell_length_c   9.12646200
_cell_angle_alpha   90.00000000
_cell_angle_beta   90.00000000
_cell_angle_gamma   122.96534101
_symmetry_Int_Tables_number   1
_chemical_formula_structural   Ho4TaMoRu6
_chemical_formula_sum   'Ho4 Ta1 Mo1 Ru6'
_cell_volume   222.83976655
_cell_formula_units_Z   1
loop_
 _symmetry_equiv_pos_site_id
 _symmetry_equiv_pos_as_xyz
  1  'x, y, z'
loop_
 _atom_site_type_symbol
 _atom_site_label
 _atom_site_symmetry_multiplicity
 _atom_site_fract_x
 _atom_site_fract_y
 _atom_site_fract_z
 _atom_site_occupancy
  Ho  Ho0  1  0.671867  0.343677  0.564422  1
  Ho  Ho1  1  0.331310  0.662107  0.431404  1
  Ho  Ho2  1  0.331310  0.662107  0.068596  1
  Ho  Ho3  1  0.671867  0.343677  0.935578  1
  Ta  Ta4  1  0.153277  0.306864  0.750000  1
  Mo  Mo5  1  0.840687  0.681235  0.250000  1
  Ru  Ru6  1  0.998822  0.997861  0.496440  1
  Ru  Ru7  1  0.998822  0.997861  0.003560  1
  Ru  Ru8  1  0.172168  0.817186  0.750000  1
  Ru  Ru9  1  0.645472  0.816603  0.750000  1
  Ru  Ru10  1  0.832111  0.185690  0.250000  1
  Ru  Ru11  1  0.352285  0.185132  0.250000  1
