# generated using pymatgen
data_Tb3Er(ZrGa5)2
_symmetry_space_group_name_H-M   'P 1'
_cell_length_a   5.98623334
_cell_length_b   9.46379354
_cell_length_c   11.37663800
_cell_angle_alpha   90.00000000
_cell_angle_beta   90.00000000
_cell_angle_gamma   89.96140001
_symmetry_Int_Tables_number   1
_chemical_formula_structural   Tb3Er(ZrGa5)2
_chemical_formula_sum   'Tb6 Er2 Zr4 Ga20'
_cell_volume   644.51456943
_cell_formula_units_Z   2
loop_
 _symmetry_equiv_pos_site_id
 _symmetry_equiv_pos_as_xyz
  1  'x, y, z'
loop_
 _atom_site_type_symbol
 _atom_site_label
 _atom_site_symmetry_multiplicity
 _atom_site_fract_x
 _atom_site_fract_y
 _atom_site_fract_z
 _atom_site_occupancy
  Tb  Tb0  1  0.886430  0.507519  0.352566  1
  Tb  Tb1  1  0.613570  0.992481  0.852566  1
  Tb  Tb2  1  0.113425  0.007486  0.646987  1
  Tb  Tb3  1  0.386575  0.492514  0.146987  1
  Tb  Tb4  1  0.113081  0.492486  0.647634  1
  Tb  Tb5  1  0.386919  0.007514  0.147634  1
  Er  Er6  1  0.886713  0.992491  0.352731  1
  Er  Er7  1  0.613287  0.507509  0.852731  1
  Zr  Zr8  1  0.857763  0.749885  0.075157  1
  Zr  Zr9  1  0.642237  0.750115  0.575157  1
  Zr  Zr10  1  0.142809  0.249962  0.924656  1
  Zr  Zr11  1  0.357191  0.250038  0.424656  1
  Ga  Ga12  1  0.875612  0.052729  0.089274  1
  Ga  Ga13  1  0.624388  0.447271  0.589274  1
  Ga  Ga14  1  0.124911  0.552539  0.911187  1
  Ga  Ga15  1  0.375089  0.947461  0.411187  1
  Ga  Ga16  1  0.124387  0.946944  0.911373  1
  Ga  Ga17  1  0.375613  0.553056  0.411373  1
  Ga  Ga18  1  0.875596  0.447195  0.088159  1
  Ga  Ga19  1  0.624404  0.052805  0.588159  1
  Ga  Ga20  1  0.162258  0.750655  0.253908  1
  Ga  Ga21  1  0.337742  0.749345  0.753908  1
  Ga  Ga22  1  0.836726  0.250714  0.746731  1
  Ga  Ga23  1  0.663274  0.249286  0.246731  1
  Ga  Ga24  1  0.387590  0.749740  0.002167  1
  Ga  Ga25  1  0.112410  0.750260  0.502167  1
  Ga  Ga26  1  0.612995  0.250720  0.996956  1
  Ga  Ga27  1  0.887005  0.249280  0.496956  1
  Ga  Ga28  1  0.605161  0.750966  0.294476  1
  Ga  Ga29  1  0.894839  0.749034  0.794476  1
  Ga  Ga30  1  0.395955  0.250093  0.706039  1
  Ga  Ga31  1  0.104045  0.249907  0.206039  1
