# generated using pymatgen
data_Dy6CrB14Mo
_symmetry_space_group_name_H-M   'P 1'
_cell_length_a   8.15110156
_cell_length_b   8.15110114
_cell_length_c   9.42867100
_cell_angle_alpha   90.00000000
_cell_angle_beta   90.00000000
_cell_angle_gamma   155.51807973
_symmetry_Int_Tables_number   1
_chemical_formula_structural   Dy6CrB14Mo
_chemical_formula_sum   'Dy6 Cr1 B14 Mo1'
_cell_volume   259.60269118
_cell_formula_units_Z   1
loop_
 _symmetry_equiv_pos_site_id
 _symmetry_equiv_pos_as_xyz
  1  'x, y, z'
loop_
 _atom_site_type_symbol
 _atom_site_label
 _atom_site_symmetry_multiplicity
 _atom_site_fract_x
 _atom_site_fract_y
 _atom_site_fract_z
 _atom_site_occupancy
  Dy  Dy0  1  0.894604  0.105396  0.435989  1
  Dy  Dy1  1  0.106529  0.893471  0.557002  1
  Dy  Dy2  1  0.894604  0.105396  0.064011  1
  Dy  Dy3  1  0.106529  0.893471  0.942998  1
  Dy  Dy4  1  0.240791  0.759209  0.250000  1
  Dy  Dy5  1  0.755273  0.244727  0.750000  1
  Cr  Cr6  1  0.053427  0.946573  0.250000  1
  B  B7  1  0.727176  0.272824  0.466159  1
  B  B8  1  0.272328  0.727672  0.531019  1
  B  B9  1  0.727176  0.272824  0.033841  1
  B  B10  1  0.272328  0.727672  0.968981  1
  B  B11  1  0.631009  0.368991  0.152102  1
  B  B12  1  0.364981  0.635019  0.853932  1
  B  B13  1  0.631009  0.368991  0.347898  1
  B  B14  1  0.364981  0.635019  0.646068  1
  B  B15  1  0.522081  0.477919  0.097094  1
  B  B16  1  0.480422  0.519578  0.909304  1
  B  B17  1  0.522081  0.477919  0.402906  1
  B  B18  1  0.480422  0.519578  0.590696  1
  B  B19  1  0.461160  0.538840  0.250000  1
  B  B20  1  0.544220  0.455780  0.750000  1
  Mo  Mo21  1  0.946868  0.053132  0.750000  1
