# generated using pymatgen
data_Tb8Ho9Sc3Pb16
_symmetry_space_group_name_H-M   'P 1'
_cell_length_a   8.12303810
_cell_length_b   8.21255310
_cell_length_c   15.55733500
_cell_angle_alpha   90.00000000
_cell_angle_beta   90.00000000
_cell_angle_gamma   89.98185954
_symmetry_Int_Tables_number   1
_chemical_formula_structural   Tb8Ho9Sc3Pb16
_chemical_formula_sum   'Tb8 Ho9 Sc3 Pb16'
_cell_volume   1037.84348379
_cell_formula_units_Z   1
loop_
 _symmetry_equiv_pos_site_id
 _symmetry_equiv_pos_as_xyz
  1  'x, y, z'
loop_
 _atom_site_type_symbol
 _atom_site_label
 _atom_site_symmetry_multiplicity
 _atom_site_fract_x
 _atom_site_fract_y
 _atom_site_fract_z
 _atom_site_occupancy
  Tb  Tb0  1  0.534535  0.322927  0.900487  1
  Tb  Tb1  1  0.034668  0.176936  0.599932  1
  Tb  Tb2  1  0.466045  0.676057  0.400832  1
  Tb  Tb3  1  0.964875  0.822375  0.099236  1
  Tb  Tb4  1  0.466045  0.676057  0.099168  1
  Tb  Tb5  1  0.964875  0.822375  0.400764  1
  Tb  Tb6  1  0.534535  0.322927  0.599513  1
  Tb  Tb7  1  0.034668  0.176936  0.900068  1
  Ho  Ho8  1  0.376382  0.842149  0.878013  1
  Ho  Ho9  1  0.876409  0.658023  0.621610  1
  Ho  Ho10  1  0.624697  0.158793  0.379060  1
  Ho  Ho11  1  0.123013  0.342325  0.121145  1
  Ho  Ho12  1  0.624697  0.158793  0.120940  1
  Ho  Ho13  1  0.123013  0.342325  0.378855  1
  Ho  Ho14  1  0.376382  0.842149  0.621987  1
  Ho  Ho15  1  0.876409  0.658023  0.878390  1
  Ho  Ho16  1  0.292643  0.004463  0.250000  1
  Sc  Sc17  1  0.207954  0.504829  0.750000  1
  Sc  Sc18  1  0.707947  0.994907  0.750000  1
  Sc  Sc19  1  0.791918  0.495007  0.250000  1
  Pb  Pb20  1  0.282962  0.034165  0.042682  1
  Pb  Pb21  1  0.782947  0.466743  0.455390  1
  Pb  Pb22  1  0.717324  0.966681  0.545005  1
  Pb  Pb23  1  0.217240  0.533465  0.955010  1
  Pb  Pb24  1  0.717324  0.966681  0.954995  1
  Pb  Pb25  1  0.217240  0.533465  0.544990  1
  Pb  Pb26  1  0.282962  0.034165  0.457318  1
  Pb  Pb27  1  0.782947  0.466743  0.044610  1
  Pb  Pb28  1  0.568242  0.626697  0.750000  1
  Pb  Pb29  1  0.068113  0.873062  0.750000  1
  Pb  Pb30  1  0.433442  0.376001  0.250000  1
  Pb  Pb31  1  0.927254  0.129830  0.250000  1
  Pb  Pb32  1  0.346539  0.156202  0.750000  1
  Pb  Pb33  1  0.846123  0.344478  0.750000  1
  Pb  Pb34  1  0.656647  0.842270  0.250000  1
  Pb  Pb35  1  0.150985  0.650974  0.250000  1
