# generated using pymatgen
data_Ho17Lu3(InGa2)4
_symmetry_space_group_name_H-M   'P 1'
_cell_length_a   7.67918400
_cell_length_b   7.67918400
_cell_length_c   14.27757600
_cell_angle_alpha   90.00000000
_cell_angle_beta   90.00000000
_cell_angle_gamma   90.00000000
_symmetry_Int_Tables_number   1
_chemical_formula_structural   Ho17Lu3(InGa2)4
_chemical_formula_sum   'Ho17 Lu3 In4 Ga8'
_cell_volume   841.94675646
_cell_formula_units_Z   1
loop_
 _symmetry_equiv_pos_site_id
 _symmetry_equiv_pos_as_xyz
  1  'x, y, z'
loop_
 _atom_site_type_symbol
 _atom_site_label
 _atom_site_symmetry_multiplicity
 _atom_site_fract_x
 _atom_site_fract_y
 _atom_site_fract_z
 _atom_site_occupancy
  Ho  Ho0  1  0.500000  0.000000  0.740308  1
  Ho  Ho1  1  0.673699  0.660751  0.606455  1
  Ho  Ho2  1  0.673162  0.338579  0.106634  1
  Ho  Ho3  1  0.826750  0.838681  0.393372  1
  Ho  Ho4  1  0.173030  0.838366  0.893666  1
  Ho  Ho5  1  0.326301  0.339249  0.606455  1
  Ho  Ho6  1  0.326838  0.661421  0.106634  1
  Ho  Ho7  1  0.173250  0.161319  0.393372  1
  Ho  Ho8  1  0.826970  0.161634  0.893666  1
  Ho  Ho9  1  0.661319  0.326750  0.393372  1
  Ho  Ho10  1  0.338366  0.326970  0.893666  1
  Ho  Ho11  1  0.160751  0.826301  0.606455  1
  Ho  Ho12  1  0.838579  0.826838  0.106634  1
  Ho  Ho13  1  0.338681  0.673250  0.393372  1
  Ho  Ho14  1  0.661634  0.673030  0.893666  1
  Ho  Ho15  1  0.839249  0.173699  0.606455  1
  Ho  Ho16  1  0.161421  0.173162  0.106634  1
  Lu  Lu17  1  0.000000  0.500000  0.759046  1
  Lu  Lu18  1  0.000000  0.500000  0.258921  1
  Lu  Lu19  1  0.500000  0.000000  0.241046  1
  In  In20  1  0.000000  0.500000  0.495684  1
  In  In21  1  0.000000  0.500000  0.995771  1
  In  In22  1  0.500000  0.000000  0.503357  1
  In  In23  1  0.500000  0.000000  0.004634  1
  Ga  Ga24  1  0.875772  0.874363  0.750195  1
  Ga  Ga25  1  0.874689  0.125377  0.249985  1
  Ga  Ga26  1  0.625377  0.625311  0.249985  1
  Ga  Ga27  1  0.374363  0.624228  0.750195  1
  Ga  Ga28  1  0.124228  0.125637  0.750195  1
  Ga  Ga29  1  0.125311  0.874623  0.249985  1
  Ga  Ga30  1  0.374623  0.374689  0.249985  1
  Ga  Ga31  1  0.625637  0.375772  0.750195  1
