# generated using pymatgen
data_NaPaSi2O7
_symmetry_space_group_name_H-M   'P 1'
_cell_length_a   5.57092635
_cell_length_b   7.31104798
_cell_length_c   8.79042283
_cell_angle_alpha   69.04271739
_cell_angle_beta   87.94414782
_cell_angle_gamma   88.33036097
_symmetry_Int_Tables_number   1
_chemical_formula_structural   NaPaSi2O7
_chemical_formula_sum   'Na2 Pa2 Si4 O14'
_cell_volume   334.07715486
_cell_formula_units_Z   2
loop_
 _symmetry_equiv_pos_site_id
 _symmetry_equiv_pos_as_xyz
  1  'x, y, z'
loop_
 _atom_site_type_symbol
 _atom_site_label
 _atom_site_symmetry_multiplicity
 _atom_site_fract_x
 _atom_site_fract_y
 _atom_site_fract_z
 _atom_site_occupancy
  Na  Na0  1  0.769245  0.192009  0.429197  1
  Na  Na1  1  0.230755  0.807991  0.570803  1
  Pa  Pa2  1  0.232718  0.208668  0.737102  1
  Pa  Pa3  1  0.767282  0.791332  0.262898  1
  Si  Si4  1  0.284026  0.456543  0.297659  1
  Si  Si5  1  0.715974  0.543457  0.702341  1
  Si  Si6  1  0.251221  0.117746  0.177524  1
  Si  Si7  1  0.748779  0.882254  0.822476  1
  O  O8  1  0.986508  0.041078  0.261154  1
  O  O9  1  0.013492  0.958922  0.738846  1
  O  O10  1  0.184680  0.298349  0.473185  1
  O  O11  1  0.815320  0.701651  0.526815  1
  O  O12  1  0.441455  0.478610  0.684858  1
  O  O13  1  0.558545  0.521390  0.315142  1
  O  O14  1  0.272205  0.116091  0.992445  1
  O  O15  1  0.727795  0.883909  0.007555  1
  O  O16  1  0.901709  0.356212  0.758279  1
  O  O17  1  0.098291  0.643788  0.241721  1
  O  O18  1  0.543980  0.027908  0.704010  1
  O  O19  1  0.456020  0.972092  0.295990  1
  O  O20  1  0.290302  0.343991  0.166115  1
  O  O21  1  0.709698  0.656009  0.833885  1
