# generated using pymatgen
data_Cs2La9NdOs2Br17
_symmetry_space_group_name_H-M   'P 1'
_cell_length_a   9.63237547
_cell_length_b   11.35637158
_cell_length_c   11.35649352
_cell_angle_alpha   107.29825899
_cell_angle_beta   93.43060545
_cell_angle_gamma   93.42753528
_symmetry_Int_Tables_number   1
_chemical_formula_structural   Cs2La9NdOs2Br17
_chemical_formula_sum   'Cs2 La9 Nd1 Os2 Br17'
_cell_volume   1180.03092798
_cell_formula_units_Z   1
loop_
 _symmetry_equiv_pos_site_id
 _symmetry_equiv_pos_as_xyz
  1  'x, y, z'
loop_
 _atom_site_type_symbol
 _atom_site_label
 _atom_site_symmetry_multiplicity
 _atom_site_fract_x
 _atom_site_fract_y
 _atom_site_fract_z
 _atom_site_occupancy
  Cs  Cs0  1  0.999904  0.822465  0.177328  1
  Cs  Cs1  1  0.999901  0.177321  0.822458  1
  La  La2  1  0.574405  0.508259  0.203801  1
  La  La3  1  0.832344  0.289219  0.289210  1
  La  La4  1  0.309841  0.434322  0.434315  1
  La  La5  1  0.425036  0.804786  0.484084  1
  La  La6  1  0.574442  0.203794  0.508240  1
  La  La7  1  0.689946  0.572302  0.572306  1
  La  La8  1  0.174056  0.708721  0.708717  1
  La  La9  1  0.425038  0.484078  0.804796  1
  La  La10  1  0.560817  0.837783  0.837790  1
  Nd  Nd11  1  0.436908  0.160229  0.160218  1
  Os  Os12  1  0.573220  0.356281  0.356269  1
  Os  Os13  1  0.428126  0.645275  0.645282  1
  Br  Br14  1  0.579288  0.684634  0.022302  1
  Br  Br15  1  0.712231  0.066281  0.066285  1
  Br  Br16  1  0.858496  0.449116  0.118173  1
  Br  Br17  1  0.135163  0.204701  0.204710  1
  Br  Br18  1  0.281903  0.605220  0.255750  1
  Br  Br19  1  0.419955  0.980686  0.308301  1
  Br  Br20  1  0.716734  0.744423  0.395714  1
  Br  Br21  1  0.858530  0.118176  0.449110  1
  Br  Br22  1  0.999906  0.500174  0.500186  1
  Br  Br23  1  0.141768  0.882072  0.548862  1
  Br  Br24  1  0.281929  0.255745  0.605218  1
  Br  Br25  1  0.579273  0.022311  0.684651  1
  Br  Br26  1  0.716752  0.395701  0.744418  1
  Br  Br27  1  0.868453  0.794595  0.794596  1
  Br  Br28  1  0.141790  0.548876  0.882077  1
  Br  Br29  1  0.283890  0.934156  0.934149  1
  Br  Br30  1  0.419958  0.308299  0.980685  1
