# generated using pymatgen
data_NbNi6IO12
_symmetry_space_group_name_H-M   'P 1'
_cell_length_a   5.17472795
_cell_length_b   5.55421299
_cell_length_c   8.96038800
_cell_angle_alpha   105.52262257
_cell_angle_beta   90.03477788
_cell_angle_gamma   117.79134215
_symmetry_Int_Tables_number   1
_chemical_formula_structural   NbNi6IO12
_chemical_formula_sum   'Nb1 Ni6 I1 O12'
_cell_volume   217.13094535
_cell_formula_units_Z   1
loop_
 _symmetry_equiv_pos_site_id
 _symmetry_equiv_pos_as_xyz
  1  'x, y, z'
loop_
 _atom_site_type_symbol
 _atom_site_label
 _atom_site_symmetry_multiplicity
 _atom_site_fract_x
 _atom_site_fract_y
 _atom_site_fract_z
 _atom_site_occupancy
  Nb  Nb0  1  0.571535  0.146788  0.857145  1
  Ni  Ni1  1  0.269652  0.546843  0.758212  1
  Ni  Ni2  1  0.758855  0.508741  0.252065  1
  Ni  Ni3  1  0.840040  0.658976  0.617774  1
  Ni  Ni4  1  0.307319  0.642463  0.099816  1
  Ni  Ni5  1  0.016417  0.033297  0.997639  1
  Ni  Ni6  1  0.521715  0.041554  0.513680  1
  I  I7  1  0.057061  0.111578  0.351826  1
  O  O8  1  0.721267  0.848116  0.801569  1
  O  O9  1  0.218109  0.849757  0.309368  1
  O  O10  1  0.272182  0.851673  0.659421  1
  O  O11  1  0.776868  0.846239  0.163945  1
  O  O12  1  0.279747  0.853236  0.960007  1
  O  O13  1  0.781004  0.847001  0.454398  1
  O  O14  1  0.344443  0.351769  0.909439  1
  O  O15  1  0.842073  0.317357  0.398524  1
  O  O16  1  0.339831  0.325187  0.536544  1
  O  O17  1  0.860945  0.339263  0.051354  1
  O  O18  1  0.813643  0.346467  0.714953  1
  O  O19  1  0.301975  0.323059  0.223882  1
