# generated using pymatgen
data_Ba2Sr2Nd3(USe4)5
_symmetry_space_group_name_H-M   'P 1'
_cell_length_a   7.96742264
_cell_length_b   8.68877683
_cell_length_c   12.47440330
_cell_angle_alpha   89.71260393
_cell_angle_beta   89.95612413
_cell_angle_gamma   90.25134155
_symmetry_Int_Tables_number   1
_chemical_formula_structural   Ba2Sr2Nd3(USe4)5
_chemical_formula_sum   'Ba2 Sr2 Nd3 U5 Se20'
_cell_volume   863.54803794
_cell_formula_units_Z   1
loop_
 _symmetry_equiv_pos_site_id
 _symmetry_equiv_pos_as_xyz
  1  'x, y, z'
loop_
 _atom_site_type_symbol
 _atom_site_label
 _atom_site_symmetry_multiplicity
 _atom_site_fract_x
 _atom_site_fract_y
 _atom_site_fract_z
 _atom_site_occupancy
  Ba  Ba0  1  0.945723  0.507980  0.669503  1
  Ba  Ba1  1  0.443728  0.494317  0.831658  1
  Sr  Sr2  1  0.050449  0.494988  0.327245  1
  Sr  Sr3  1  0.551786  0.505926  0.171178  1
  Nd  Nd4  1  0.036821  0.000183  0.320124  1
  Nd  Nd5  1  0.538271  0.000798  0.180642  1
  Nd  Nd6  1  0.961207  0.001683  0.674811  1
  U  U7  1  0.465397  0.999417  0.824280  1
  U  U8  1  0.061274  0.753714  0.007422  1
  U  U9  1  0.562940  0.246852  0.492680  1
  U  U10  1  0.938684  0.244091  0.994269  1
  U  U11  1  0.434156  0.752541  0.504993  1
  Se  Se12  1  0.667340  0.958566  0.412649  1
  Se  Se13  1  0.167185  0.041845  0.089349  1
  Se  Se14  1  0.337042  0.040543  0.595488  1
  Se  Se15  1  0.828858  0.955742  0.909959  1
  Se  Se16  1  0.446491  0.783297  0.999960  1
  Se  Se17  1  0.944778  0.228097  0.494187  1
  Se  Se18  1  0.553076  0.217321  0.993684  1
  Se  Se19  1  0.059169  0.775981  0.500323  1
  Se  Se20  1  0.845434  0.763768  0.188292  1
  Se  Se21  1  0.347752  0.235747  0.311581  1
  Se  Se22  1  0.157070  0.221037  0.813954  1
  Se  Se23  1  0.643804  0.775530  0.692157  1
  Se  Se24  1  0.324853  0.757931  0.286755  1
  Se  Se25  1  0.822382  0.242228  0.209155  1
  Se  Se26  1  0.673993  0.226383  0.712066  1
  Se  Se27  1  0.179576  0.775462  0.791349  1
  Se  Se28  1  0.180081  0.462142  0.073535  1
  Se  Se29  1  0.676150  0.539525  0.424661  1
  Se  Se30  1  0.826305  0.536716  0.927508  1
  Se  Se31  1  0.328223  0.459650  0.574586  1
