# generated using pymatgen
data_Ac4Ge4Pd3Au
_symmetry_space_group_name_H-M   'P 1'
_cell_length_a   7.70268900
_cell_length_b   6.15429111
_cell_length_c   6.14897000
_cell_angle_alpha   86.66356311
_cell_angle_beta   89.99979916
_cell_angle_gamma   89.89872457
_symmetry_Int_Tables_number   1
_chemical_formula_structural   Ac4Ge4Pd3Au
_chemical_formula_sum   'Ac4 Ge4 Pd3 Au1'
_cell_volume   290.99487586
_cell_formula_units_Z   1
loop_
 _symmetry_equiv_pos_site_id
 _symmetry_equiv_pos_as_xyz
  1  'x, y, z'
loop_
 _atom_site_type_symbol
 _atom_site_label
 _atom_site_symmetry_multiplicity
 _atom_site_fract_x
 _atom_site_fract_y
 _atom_site_fract_z
 _atom_site_occupancy
  Ac  Ac0  1  0.670690  0.708120  0.873342  1
  Ac  Ac1  1  0.164260  0.457178  0.626687  1
  Ac  Ac2  1  0.670626  0.209711  0.375277  1
  Ac  Ac3  1  0.162487  0.960487  0.123245  1
  Ge  Ge4  1  0.331664  0.452607  0.122154  1
  Ge  Ge5  1  0.837862  0.707764  0.375498  1
  Ge  Ge6  1  0.331658  0.961514  0.630892  1
  Ge  Ge7  1  0.832368  0.207902  0.875200  1
  Pd  Pd8  1  0.500880  0.207530  0.875408  1
  Pd  Pd9  1  0.999654  0.457816  0.123569  1
  Pd  Pd10  1  0.999939  0.959456  0.625141  1
  Au  Au11  1  0.497913  0.709914  0.373587  1
