# generated using pymatgen
data_PrNd2Dy3Ta2O14
_symmetry_space_group_name_H-M   'P 1'
_cell_length_a   6.56519108
_cell_length_b   6.55695695
_cell_length_c   7.65005107
_cell_angle_alpha   89.98587445
_cell_angle_beta   90.00941693
_cell_angle_gamma   109.23860755
_symmetry_Int_Tables_number   1
_chemical_formula_structural   PrNd2Dy3Ta2O14
_chemical_formula_sum   'Pr1 Nd2 Dy3 Ta2 O14'
_cell_volume   310.92605423
_cell_formula_units_Z   1
loop_
 _symmetry_equiv_pos_site_id
 _symmetry_equiv_pos_as_xyz
  1  'x, y, z'
loop_
 _atom_site_type_symbol
 _atom_site_label
 _atom_site_symmetry_multiplicity
 _atom_site_fract_x
 _atom_site_fract_y
 _atom_site_fract_z
 _atom_site_occupancy
  Pr  Pr0  1  0.509775  0.509669  0.501843  1
  Nd  Nd1  1  0.511545  0.511530  0.998222  1
  Nd  Nd2  1  0.465547  0.002262  0.249452  1
  Dy  Dy3  1  0.002339  0.532570  0.249494  1
  Dy  Dy4  1  0.000129  0.465824  0.750605  1
  Dy  Dy5  1  0.533808  0.000956  0.750473  1
  Ta  Ta6  1  0.001124  0.000836  0.502090  1
  Ta  Ta7  1  0.001323  0.001011  0.997906  1
  O  O8  1  0.938706  0.067758  0.749989  1
  O  O9  1  0.057295  0.937630  0.250024  1
  O  O10  1  0.356709  0.633533  0.248397  1
  O  O11  1  0.645346  0.357192  0.751537  1
  O  O12  1  0.362363  0.635457  0.751691  1
  O  O13  1  0.642910  0.376210  0.248226  1
  O  O14  1  0.314654  0.068392  0.962136  1
  O  O15  1  0.677380  0.921529  0.478047  1
  O  O16  1  0.314899  0.068328  0.537889  1
  O  O17  1  0.677118  0.920240  0.021802  1
  O  O18  1  0.058466  0.313750  0.465147  1
  O  O19  1  0.934956  0.680939  0.967482  1
  O  O20  1  0.935633  0.681063  0.532690  1
  O  O21  1  0.057973  0.313322  0.034859  1
