# generated using pymatgen
data_Tb11Ho(ErRh3)2
_symmetry_space_group_name_H-M   'P 1'
_cell_length_a   9.81894652
_cell_length_b   9.81894729
_cell_length_c   6.20692872
_cell_angle_alpha   89.95204756
_cell_angle_beta   90.04795143
_cell_angle_gamma   120.04189078
_symmetry_Int_Tables_number   1
_chemical_formula_structural   Tb11Ho(ErRh3)2
_chemical_formula_sum   'Tb11 Ho1 Er2 Rh6'
_cell_volume   518.02835412
_cell_formula_units_Z   1
loop_
 _symmetry_equiv_pos_site_id
 _symmetry_equiv_pos_as_xyz
  1  'x, y, z'
loop_
 _atom_site_type_symbol
 _atom_site_label
 _atom_site_symmetry_multiplicity
 _atom_site_fract_x
 _atom_site_fract_y
 _atom_site_fract_z
 _atom_site_occupancy
  Tb  Tb0  1  0.752787  0.876074  0.990044  1
  Tb  Tb1  1  0.875964  0.124036  0.490055  1
  Tb  Tb2  1  0.540932  0.459068  0.798888  1
  Tb  Tb3  1  0.081876  0.541464  0.297967  1
  Tb  Tb4  1  0.458536  0.918124  0.297967  1
  Tb  Tb5  1  0.540422  0.081442  0.797862  1
  Tb  Tb6  1  0.918558  0.459578  0.797862  1
  Tb  Tb7  1  0.458966  0.541034  0.298616  1
  Tb  Tb8  1  0.123926  0.247213  0.990044  1
  Tb  Tb9  1  0.876389  0.752452  0.490092  1
  Tb  Tb10  1  0.247548  0.123611  0.490092  1
  Ho  Ho11  1  0.124017  0.875983  0.988529  1
  Er  Er12  1  0.666580  0.333420  0.283421  1
  Er  Er13  1  0.333334  0.666666  0.784537  1
  Rh  Rh14  1  0.190193  0.809807  0.566776  1
  Rh  Rh15  1  0.379945  0.188798  0.064064  1
  Rh  Rh16  1  0.811202  0.620055  0.064064  1
  Rh  Rh17  1  0.190244  0.380953  0.564293  1
  Rh  Rh18  1  0.619047  0.809756  0.564293  1
  Rh  Rh19  1  0.809533  0.190467  0.064541  1
