# generated using pymatgen
data_BaPd2F7
_symmetry_space_group_name_H-M   'P 1'
_cell_length_a   6.84579006
_cell_length_b   6.84578998
_cell_length_c   8.18474651
_cell_angle_alpha   66.27827804
_cell_angle_beta   66.27828232
_cell_angle_gamma   90.36933976
_symmetry_Int_Tables_number   1
_chemical_formula_structural   BaPd2F7
_chemical_formula_sum   'Ba2 Pd4 F14'
_cell_volume   314.95130832
_cell_formula_units_Z   2
loop_
 _symmetry_equiv_pos_site_id
 _symmetry_equiv_pos_as_xyz
  1  'x, y, z'
loop_
 _atom_site_type_symbol
 _atom_site_label
 _atom_site_symmetry_multiplicity
 _atom_site_fract_x
 _atom_site_fract_y
 _atom_site_fract_z
 _atom_site_occupancy
  Ba  Ba0  1  0.376608  0.623392  0.250000  1
  Ba  Ba1  1  0.623392  0.376608  0.750000  1
  Pd  Pd2  1  0.000000  0.500000  0.000000  1
  Pd  Pd3  1  0.500000  0.000000  0.500000  1
  Pd  Pd4  1  0.000000  0.000000  0.500000  1
  Pd  Pd5  1  0.000000  0.000000  0.000000  1
  F  F6  1  0.078208  0.329225  0.837271  1
  F  F7  1  0.329225  0.078208  0.337271  1
  F  F8  1  0.921792  0.670775  0.162729  1
  F  F9  1  0.670775  0.921792  0.662729  1
  F  F10  1  0.060450  0.939550  0.750000  1
  F  F11  1  0.939550  0.060450  0.250000  1
  F  F12  1  0.706019  0.495070  0.005568  1
  F  F13  1  0.293981  0.504930  0.994432  1
  F  F14  1  0.495070  0.706019  0.505568  1
  F  F15  1  0.004348  0.699194  0.520698  1
  F  F16  1  0.699194  0.004348  0.020698  1
  F  F17  1  0.300806  0.995652  0.979302  1
  F  F18  1  0.504930  0.293981  0.494432  1
  F  F19  1  0.995652  0.300806  0.479302  1
