# generated using pymatgen
data_Lu2Al16TcPt8
_symmetry_space_group_name_H-M   'P 1'
_cell_length_a   11.13726314
_cell_length_b   11.13726319
_cell_length_c   11.13726400
_cell_angle_alpha   158.64139618
_cell_angle_beta   115.86319035
_cell_angle_gamma   68.43583711
_symmetry_Int_Tables_number   1
_chemical_formula_structural   Lu2Al16TcPt8
_chemical_formula_sum   'Lu2 Al16 Tc1 Pt8'
_cell_volume   449.56451299
_cell_formula_units_Z   1
loop_
 _symmetry_equiv_pos_site_id
 _symmetry_equiv_pos_as_xyz
  1  'x, y, z'
loop_
 _atom_site_type_symbol
 _atom_site_label
 _atom_site_symmetry_multiplicity
 _atom_site_fract_x
 _atom_site_fract_y
 _atom_site_fract_z
 _atom_site_occupancy
  Lu  Lu0  1  0.229532  0.229584  0.999948  1
  Lu  Lu1  1  0.770363  0.770416  0.999948  1
  Al  Al2  1  0.272731  0.390222  0.882508  1
  Al  Al3  1  0.088204  0.924576  0.163628  1
  Al  Al4  1  0.505148  0.200362  0.304787  1
  Al  Al5  1  0.239053  0.075424  0.163628  1
  Al  Al6  1  0.906340  0.415013  0.491327  1
  Al  Al7  1  0.728271  0.601304  0.126966  1
  Al  Al8  1  0.900624  0.209698  0.690927  1
  Al  Al9  1  0.481231  0.790302  0.690927  1
  Al  Al10  1  0.390196  0.000000  0.390196  1
  Al  Al11  1  0.627908  0.000000  0.627908  1
  Al  Al12  1  0.492287  0.609778  0.882508  1
  Al  Al13  1  0.104426  0.799638  0.304787  1
  Al  Al14  1  0.909614  0.087466  0.822148  1
  Al  Al15  1  0.734683  0.912534  0.822148  1
  Al  Al16  1  0.525662  0.398696  0.126966  1
  Al  Al17  1  0.076314  0.584987  0.491327  1
  Tc  Tc18  1  0.783451  0.500000  0.283451  1
  Pt  Pt19  1  0.022494  0.343962  0.678533  1
  Pt  Pt20  1  0.631858  0.128743  0.503115  1
  Pt  Pt21  1  0.256326  0.500000  0.756326  1
  Pt  Pt22  1  0.374371  0.871257  0.503115  1
  Pt  Pt23  1  0.983046  0.000000  0.983046  1
  Pt  Pt24  1  0.649559  0.333911  0.315648  1
  Pt  Pt25  1  0.334571  0.656038  0.678533  1
  Pt  Pt26  1  0.981737  0.666089  0.315648  1
