# generated using pymatgen
data_Zr4Al2Fe5Os
_symmetry_space_group_name_H-M   'P 1'
_cell_length_a   5.10363660
_cell_length_b   5.10363516
_cell_length_c   8.20537200
_cell_angle_alpha   90.00000000
_cell_angle_beta   90.00000000
_cell_angle_gamma   120.67827949
_symmetry_Int_Tables_number   1
_chemical_formula_structural   Zr4Al2Fe5Os
_chemical_formula_sum   'Zr4 Al2 Fe5 Os1'
_cell_volume   183.81425779
_cell_formula_units_Z   1
loop_
 _symmetry_equiv_pos_site_id
 _symmetry_equiv_pos_as_xyz
  1  'x, y, z'
loop_
 _atom_site_type_symbol
 _atom_site_label
 _atom_site_symmetry_multiplicity
 _atom_site_fract_x
 _atom_site_fract_y
 _atom_site_fract_z
 _atom_site_occupancy
  Zr  Zr0  1  0.334502  0.665498  0.436640  1
  Zr  Zr1  1  0.667918  0.332082  0.565761  1
  Zr  Zr2  1  0.667918  0.332082  0.934239  1
  Zr  Zr3  1  0.334502  0.665498  0.063360  1
  Al  Al4  1  0.002639  0.997361  0.505297  1
  Al  Al5  1  0.002639  0.997361  0.994703  1
  Fe  Fe6  1  0.825647  0.662234  0.250000  1
  Fe  Fe7  1  0.337766  0.174353  0.250000  1
  Fe  Fe8  1  0.173104  0.826896  0.750000  1
  Fe  Fe9  1  0.173016  0.346562  0.750000  1
  Fe  Fe10  1  0.653438  0.826984  0.750000  1
  Os  Os11  1  0.826911  0.173089  0.250000  1
