# generated using pymatgen
data_Hf2TaNbGeP
_symmetry_space_group_name_H-M   'P 1'
_cell_length_a   3.57844100
_cell_length_b   6.97425400
_cell_length_c   8.45969000
_cell_angle_alpha   90.00000000
_cell_angle_beta   90.00000000
_cell_angle_gamma   90.00000000
_symmetry_Int_Tables_number   1
_chemical_formula_structural   Hf2TaNbGeP
_chemical_formula_sum   'Hf4 Ta2 Nb2 Ge2 P2'
_cell_volume   211.12811498
_cell_formula_units_Z   2
loop_
 _symmetry_equiv_pos_site_id
 _symmetry_equiv_pos_as_xyz
  1  'x, y, z'
loop_
 _atom_site_type_symbol
 _atom_site_label
 _atom_site_symmetry_multiplicity
 _atom_site_fract_x
 _atom_site_fract_y
 _atom_site_fract_z
 _atom_site_occupancy
  Hf  Hf0  1  0.250000  0.036544  0.669814  1
  Hf  Hf1  1  0.250000  0.536544  0.830186  1
  Hf  Hf2  1  0.750000  0.458798  0.160760  1
  Hf  Hf3  1  0.750000  0.958798  0.339240  1
  Ta  Ta4  1  0.250000  0.638431  0.446908  1
  Ta  Ta5  1  0.250000  0.138431  0.053092  1
  Nb  Nb6  1  0.750000  0.865496  0.933278  1
  Nb  Nb7  1  0.750000  0.365496  0.566722  1
  Ge  Ge8  1  0.250000  0.258435  0.356658  1
  Ge  Ge9  1  0.250000  0.758435  0.143342  1
  P  P10  1  0.750000  0.742297  0.642365  1
  P  P11  1  0.750000  0.242297  0.857635  1
