# generated using pymatgen
data_Er12CdInFe4
_symmetry_space_group_name_H-M   'P 1'
_cell_length_a   8.34859097
_cell_length_b   8.34859021
_cell_length_c   8.34859200
_cell_angle_alpha   109.96672188
_cell_angle_beta   111.43841579
_cell_angle_gamma   107.03913449
_symmetry_Int_Tables_number   1
_chemical_formula_structural   Er12CdInFe4
_chemical_formula_sum   'Er12 Cd1 In1 Fe4'
_cell_volume   447.25839088
_cell_formula_units_Z   1
loop_
 _symmetry_equiv_pos_site_id
 _symmetry_equiv_pos_as_xyz
  1  'x, y, z'
loop_
 _atom_site_type_symbol
 _atom_site_label
 _atom_site_symmetry_multiplicity
 _atom_site_fract_x
 _atom_site_fract_y
 _atom_site_fract_z
 _atom_site_occupancy
  Er  Er0  1  0.292235  0.189435  0.481671  1
  Er  Er1  1  0.707765  0.810565  0.518329  1
  Er  Er2  1  0.292235  0.810565  0.102801  1
  Er  Er3  1  0.707765  0.189435  0.897199  1
  Er  Er4  1  0.609794  0.311822  0.297971  1
  Er  Er5  1  0.390206  0.688178  0.702029  1
  Er  Er6  1  0.013853  0.311822  0.702029  1
  Er  Er7  1  0.986147  0.688178  0.297971  1
  Er  Er8  1  0.225790  0.439480  0.213691  1
  Er  Er9  1  0.774210  0.560520  0.786309  1
  Er  Er10  1  0.225790  0.012099  0.786309  1
  Er  Er11  1  0.774210  0.987901  0.213691  1
  Cd  Cd12  1  0.000000  0.000000  0.000000  1
  In  In13  1  0.500000  0.500000  0.000000  1
  Fe  Fe14  1  0.000000  0.386167  0.386167  1
  Fe  Fe15  1  0.000000  0.613833  0.613833  1
  Fe  Fe16  1  0.391236  0.891236  0.500000  1
  Fe  Fe17  1  0.608764  0.108764  0.500000  1
