# generated using pymatgen
data_Ca3CdRu3RhO14
_symmetry_space_group_name_H-M   'P 1'
_cell_length_a   7.32800792
_cell_length_b   7.19947936
_cell_length_c   7.32800800
_cell_angle_alpha   59.40766605
_cell_angle_beta   59.99999966
_cell_angle_gamma   59.40767151
_symmetry_Int_Tables_number   1
_chemical_formula_structural   Ca3CdRu3RhO14
_chemical_formula_sum   'Ca3 Cd1 Ru3 Rh1 O14'
_cell_volume   270.90130647
_cell_formula_units_Z   1
loop_
 _symmetry_equiv_pos_site_id
 _symmetry_equiv_pos_as_xyz
  1  'x, y, z'
loop_
 _atom_site_type_symbol
 _atom_site_label
 _atom_site_symmetry_multiplicity
 _atom_site_fract_x
 _atom_site_fract_y
 _atom_site_fract_z
 _atom_site_occupancy
  Ca  Ca0  1  0.125000  0.125000  0.625000  1
  Ca  Ca1  1  0.625000  0.125000  0.125000  1
  Ca  Ca2  1  0.125000  0.125000  0.125000  1
  Cd  Cd3  1  0.125000  0.625000  0.125000  1
  Ru  Ru4  1  0.625000  0.625000  0.125000  1
  Ru  Ru5  1  0.125000  0.625000  0.625000  1
  Ru  Ru6  1  0.625000  0.625000  0.625000  1
  Rh  Rh7  1  0.625000  0.125000  0.625000  1
  O  O8  1  0.693710  0.683833  0.311229  1
  O  O9  1  0.938771  0.566167  0.556290  1
  O  O10  1  0.548595  0.948426  0.954385  1
  O  O11  1  0.954385  0.948426  0.548595  1
  O  O12  1  0.938771  0.566167  0.938771  1
  O  O13  1  0.548595  0.948426  0.548595  1
  O  O14  1  0.311229  0.683833  0.311229  1
  O  O15  1  0.311229  0.683833  0.693710  1
  O  O16  1  0.701405  0.301574  0.295615  1
  O  O17  1  0.701405  0.301574  0.701405  1
  O  O18  1  0.556290  0.566167  0.938771  1
  O  O19  1  0.295615  0.301574  0.701405  1
  O  O20  1  0.244853  0.265442  0.244853  1
  O  O21  1  0.005147  0.984558  0.005147  1
