# generated using pymatgen
data_Y3Ho5(AlRh)2
_symmetry_space_group_name_H-M   'P 1'
_cell_length_a   9.50911503
_cell_length_b   9.50911294
_cell_length_c   9.50901203
_cell_angle_alpha   60.08050732
_cell_angle_beta   60.08083391
_cell_angle_gamma   60.08057602
_symmetry_Int_Tables_number   1
_chemical_formula_structural   Y3Ho5(AlRh)2
_chemical_formula_sum   'Y6 Ho10 Al4 Rh4'
_cell_volume   609.10672246
_cell_formula_units_Z   2
loop_
 _symmetry_equiv_pos_site_id
 _symmetry_equiv_pos_as_xyz
  1  'x, y, z'
loop_
 _atom_site_type_symbol
 _atom_site_label
 _atom_site_symmetry_multiplicity
 _atom_site_fract_x
 _atom_site_fract_y
 _atom_site_fract_z
 _atom_site_occupancy
  Y  Y0  1  0.187202  0.813547  0.813542  1
  Y  Y1  1  0.812972  0.188289  0.188285  1
  Y  Y2  1  0.813550  0.187202  0.813539  1
  Y  Y3  1  0.188291  0.812963  0.188292  1
  Y  Y4  1  0.813544  0.813534  0.187211  1
  Y  Y5  1  0.188301  0.188286  0.812966  1
  Ho  Ho6  1  0.599991  0.599999  0.600008  1
  Ho  Ho7  1  0.604937  0.604935  0.189574  1
  Ho  Ho8  1  0.604936  0.189576  0.604939  1
  Ho  Ho9  1  0.189577  0.604936  0.604941  1
  Ho  Ho10  1  0.055978  0.443550  0.443548  1
  Ho  Ho11  1  0.442506  0.057250  0.057250  1
  Ho  Ho12  1  0.443543  0.055984  0.443548  1
  Ho  Ho13  1  0.057254  0.442506  0.057252  1
  Ho  Ho14  1  0.443543  0.443550  0.055974  1
  Ho  Ho15  1  0.057243  0.057259  0.442507  1
  Al  Al16  1  0.828333  0.828331  0.828329  1
  Al  Al17  1  0.826407  0.826407  0.517566  1
  Al  Al18  1  0.826406  0.517567  0.826406  1
  Al  Al19  1  0.517566  0.826407  0.826405  1
  Rh  Rh20  1  0.393404  0.393399  0.393397  1
  Rh  Rh21  1  0.390841  0.390838  0.822842  1
  Rh  Rh22  1  0.390835  0.822848  0.390838  1
  Rh  Rh23  1  0.822840  0.390839  0.390843  1
