# generated using pymatgen
data_TbPrCd(Si3Pd10)2
_symmetry_space_group_name_H-M   'P 1'
_cell_length_a   8.72806757
_cell_length_b   8.72806976
_cell_length_c   8.72806700
_cell_angle_alpha   60.00006030
_cell_angle_beta   60.00006908
_cell_angle_gamma   60.00002249
_symmetry_Int_Tables_number   1
_chemical_formula_structural   TbPrCd(Si3Pd10)2
_chemical_formula_sum   'Tb1 Pr1 Cd1 Si6 Pd20'
_cell_volume   470.15372376
_cell_formula_units_Z   1
loop_
 _symmetry_equiv_pos_site_id
 _symmetry_equiv_pos_as_xyz
  1  'x, y, z'
loop_
 _atom_site_type_symbol
 _atom_site_label
 _atom_site_symmetry_multiplicity
 _atom_site_fract_x
 _atom_site_fract_y
 _atom_site_fract_z
 _atom_site_occupancy
  Tb  Tb0  1  0.250000  0.250000  0.250000  1
  Pr  Pr1  1  0.750000  0.750000  0.750000  1
  Cd  Cd2  1  0.000000  0.000000  0.000000  1
  Si  Si3  1  0.732902  0.267099  0.267098  1
  Si  Si4  1  0.267098  0.732900  0.732902  1
  Si  Si5  1  0.267099  0.732901  0.267099  1
  Si  Si6  1  0.732901  0.267099  0.732901  1
  Si  Si7  1  0.267099  0.267099  0.732901  1
  Si  Si8  1  0.732901  0.732901  0.267099  1
  Pd  Pd9  1  0.382914  0.382915  0.382915  1
  Pd  Pd10  1  0.614011  0.614011  0.614011  1
  Pd  Pd11  1  0.382914  0.382914  0.851258  1
  Pd  Pd12  1  0.382914  0.851258  0.382914  1
  Pd  Pd13  1  0.614011  0.614011  0.157967  1
  Pd  Pd14  1  0.614011  0.157967  0.614011  1
  Pd  Pd15  1  0.851257  0.382914  0.382915  1
  Pd  Pd16  1  0.157967  0.614011  0.614011  1
  Pd  Pd17  1  0.343419  0.001072  0.001072  1
  Pd  Pd18  1  0.654437  0.001072  0.001072  1
  Pd  Pd19  1  0.001073  0.343418  0.654436  1
  Pd  Pd20  1  0.001073  0.654436  0.343418  1
  Pd  Pd21  1  0.001072  0.343419  0.001072  1
  Pd  Pd22  1  0.654437  0.001072  0.343419  1
  Pd  Pd23  1  0.001072  0.654437  0.001072  1
  Pd  Pd24  1  0.343419  0.001072  0.654437  1
  Pd  Pd25  1  0.001072  0.001072  0.343419  1
  Pd  Pd26  1  0.001072  0.001072  0.654437  1
  Pd  Pd27  1  0.654437  0.343419  0.001072  1
  Pd  Pd28  1  0.343418  0.654437  0.001073  1
