# generated using pymatgen
data_VFe4SbO8
_symmetry_space_group_name_H-M   'P 1'
_cell_length_a   6.20212587
_cell_length_b   6.20221829
_cell_length_c   6.19472008
_cell_angle_alpha   61.46372026
_cell_angle_beta   61.46389609
_cell_angle_gamma   58.54921635
_symmetry_Int_Tables_number   1
_chemical_formula_structural   VFe4SbO8
_chemical_formula_sum   'V1 Fe4 Sb1 O8'
_cell_volume   170.08839961
_cell_formula_units_Z   1
loop_
 _symmetry_equiv_pos_site_id
 _symmetry_equiv_pos_as_xyz
  1  'x, y, z'
loop_
 _atom_site_type_symbol
 _atom_site_label
 _atom_site_symmetry_multiplicity
 _atom_site_fract_x
 _atom_site_fract_y
 _atom_site_fract_z
 _atom_site_occupancy
  V  V0  1  0.000000  0.000000  0.500000  1
  Fe  Fe1  1  0.361880  0.361876  0.906010  1
  Fe  Fe2  1  0.638120  0.638124  0.093990  1
  Fe  Fe3  1  0.000000  0.500000  0.500000  1
  Fe  Fe4  1  0.500000  0.000000  0.500000  1
  Sb  Sb5  1  0.000000  0.000000  0.000000  1
  O  O6  1  0.222543  0.222542  0.299481  1
  O  O7  1  0.221697  0.221674  0.775963  1
  O  O8  1  0.231112  0.775174  0.754387  1
  O  O9  1  0.775184  0.231105  0.754383  1
  O  O10  1  0.777457  0.777458  0.700519  1
  O  O11  1  0.778303  0.778326  0.224037  1
  O  O12  1  0.768888  0.224826  0.245613  1
  O  O13  1  0.224816  0.768895  0.245617  1
