# generated using pymatgen
data_V9Re(Si3H)2
_symmetry_space_group_name_H-M   'P 1'
_cell_length_a   4.82819200
_cell_length_b   7.12687367
_cell_length_c   7.11696020
_cell_angle_alpha   120.01679857
_cell_angle_beta   90.00180440
_cell_angle_gamma   89.99655652
_symmetry_Int_Tables_number   1
_chemical_formula_structural   V9Re(Si3H)2
_chemical_formula_sum   'V9 Re1 Si6 H2'
_cell_volume   212.04850813
_cell_formula_units_Z   1
loop_
 _symmetry_equiv_pos_site_id
 _symmetry_equiv_pos_as_xyz
  1  'x, y, z'
loop_
 _atom_site_type_symbol
 _atom_site_label
 _atom_site_symmetry_multiplicity
 _atom_site_fract_x
 _atom_site_fract_y
 _atom_site_fract_z
 _atom_site_occupancy
  V  V0  1  0.498729  0.334427  0.665798  1
  V  V1  1  0.498906  0.668514  0.334137  1
  V  V2  1  0.001165  0.668561  0.334143  1
  V  V3  1  0.001214  0.334375  0.665858  1
  V  V4  1  0.749976  0.759311  0.758696  1
  V  V5  1  0.749942  0.000663  0.241315  1
  V  V6  1  0.250023  0.760933  0.999898  1
  V  V7  1  0.249945  0.238411  0.240346  1
  V  V8  1  0.249961  0.998244  0.759825  1
  Re  Re9  1  0.750071  0.243471  0.999994  1
  Si  Si10  1  0.749964  0.603334  0.999955  1
  Si  Si11  1  0.749999  0.400306  0.400148  1
  Si  Si12  1  0.749931  0.000173  0.599919  1
  Si  Si13  1  0.250084  0.400634  0.000095  1
  Si  Si14  1  0.250008  0.600725  0.600050  1
  Si  Si15  1  0.250061  0.000669  0.399780  1
  H  H16  1  0.494647  0.993623  0.000026  1
  H  H17  1  0.005379  0.993627  0.000019  1
