# generated using pymatgen
data_Hf6V7FeRe4
_symmetry_space_group_name_H-M   'P 1'
_cell_length_a   5.21785627
_cell_length_b   5.22341204
_cell_length_c   12.79535100
_cell_angle_alpha   90.04762755
_cell_angle_beta   89.54534981
_cell_angle_gamma   119.94234046
_symmetry_Int_Tables_number   1
_chemical_formula_structural   Hf6V7FeRe4
_chemical_formula_sum   'Hf6 V7 Fe1 Re4'
_cell_volume   302.17933918
_cell_formula_units_Z   1
loop_
 _symmetry_equiv_pos_site_id
 _symmetry_equiv_pos_as_xyz
  1  'x, y, z'
loop_
 _atom_site_type_symbol
 _atom_site_label
 _atom_site_symmetry_multiplicity
 _atom_site_fract_x
 _atom_site_fract_y
 _atom_site_fract_z
 _atom_site_occupancy
  Hf  Hf0  1  0.334780  0.665564  0.916736  1
  Hf  Hf1  1  0.001009  0.001790  0.252521  1
  Hf  Hf2  1  0.668319  0.335898  0.580135  1
  Hf  Hf3  1  0.331754  0.665557  0.662993  1
  Hf  Hf4  1  0.000491  0.999442  0.001179  1
  Hf  Hf5  1  0.664010  0.331809  0.336256  1
  V  V6  1  0.833552  0.665922  0.789681  1
  V  V7  1  0.329544  0.662243  0.296998  1
  V  V8  1  0.001619  0.005479  0.621590  1
  V  V9  1  0.668169  0.331421  0.956650  1
  V  V10  1  0.001265  0.500792  0.126251  1
  V  V11  1  0.665785  0.834136  0.458905  1
  V  V12  1  0.332920  0.164891  0.790057  1
  Fe  Fe13  1  0.166903  0.334352  0.457905  1
  Re  Re14  1  0.500257  0.499773  0.126977  1
  Re  Re15  1  0.166198  0.835776  0.458624  1
  Re  Re16  1  0.833326  0.165389  0.789641  1
  Re  Re17  1  0.500097  0.999765  0.126899  1
