# generated using pymatgen
data_NdCd4Ag
_symmetry_space_group_name_H-M   'P 1'
_cell_length_a   10.45931100
_cell_length_b   10.45930972
_cell_length_c   4.47964900
_cell_angle_alpha   90.00000000
_cell_angle_beta   90.00000000
_cell_angle_gamma   119.99998823
_symmetry_Int_Tables_number   1
_chemical_formula_structural   NdCd4Ag
_chemical_formula_sum   'Nd3 Cd12 Ag3'
_cell_volume   424.40527176
_cell_formula_units_Z   3
loop_
 _symmetry_equiv_pos_site_id
 _symmetry_equiv_pos_as_xyz
  1  'x, y, z'
loop_
 _atom_site_type_symbol
 _atom_site_label
 _atom_site_symmetry_multiplicity
 _atom_site_fract_x
 _atom_site_fract_y
 _atom_site_fract_z
 _atom_site_occupancy
  Nd  Nd0  1  0.000000  0.403262  0.000000  1
  Nd  Nd1  1  0.403262  0.000000  0.000000  1
  Nd  Nd2  1  0.596738  0.596738  0.000000  1
  Cd  Cd3  1  0.526579  0.822519  0.500000  1
  Cd  Cd4  1  0.295940  0.473421  0.500000  1
  Cd  Cd5  1  0.473421  0.295940  0.500000  1
  Cd  Cd6  1  0.704060  0.177481  0.500000  1
  Cd  Cd7  1  0.821958  0.821958  0.500000  1
  Cd  Cd8  1  0.000000  0.178042  0.500000  1
  Cd  Cd9  1  0.178042  0.000000  0.500000  1
  Cd  Cd10  1  0.177481  0.704060  0.500000  1
  Cd  Cd11  1  0.000000  0.731033  0.000000  1
  Cd  Cd12  1  0.822519  0.526579  0.500000  1
  Cd  Cd13  1  0.268967  0.268967  0.000000  1
  Cd  Cd14  1  0.731033  0.000000  0.000000  1
  Ag  Ag15  1  0.000000  0.000000  0.000000  1
  Ag  Ag16  1  0.666667  0.333333  0.000000  1
  Ag  Ag17  1  0.333333  0.666667  0.000000  1
