# generated using pymatgen
data_Zr7Ta3Si4(GeN)2
_symmetry_space_group_name_H-M   'P 1'
_cell_length_a   7.88435305
_cell_length_b   7.87019404
_cell_length_c   5.49841904
_cell_angle_alpha   90.00650916
_cell_angle_beta   89.98700506
_cell_angle_gamma   120.05952634
_symmetry_Int_Tables_number   1
_chemical_formula_structural   Zr7Ta3Si4(GeN)2
_chemical_formula_sum   'Zr7 Ta3 Si4 Ge2 N2'
_cell_volume   295.29707417
_cell_formula_units_Z   1
loop_
 _symmetry_equiv_pos_site_id
 _symmetry_equiv_pos_as_xyz
  1  'x, y, z'
loop_
 _atom_site_type_symbol
 _atom_site_label
 _atom_site_symmetry_multiplicity
 _atom_site_fract_x
 _atom_site_fract_y
 _atom_site_fract_z
 _atom_site_occupancy
  Zr  Zr0  1  0.234145  0.000886  0.749396  1
  Zr  Zr1  1  0.766741  0.000886  0.250604  1
  Zr  Zr2  1  0.001718  0.237567  0.749210  1
  Zr  Zr3  1  0.996883  0.761530  0.250464  1
  Zr  Zr4  1  0.764647  0.761530  0.749536  1
  Zr  Zr5  1  0.235849  0.237567  0.250790  1
  Zr  Zr6  1  0.331497  0.662995  0.000000  1
  Ta  Ta7  1  0.330833  0.661667  0.500000  1
  Ta  Ta8  1  0.668836  0.337671  0.500000  1
  Ta  Ta9  1  0.669358  0.338715  0.000000  1
  Si  Si10  1  0.997626  0.589502  0.741111  1
  Si  Si11  1  0.995861  0.407122  0.258878  1
  Si  Si12  1  0.411259  0.407122  0.741122  1
  Si  Si13  1  0.591875  0.589502  0.258889  1
  Ge  Ge14  1  0.594060  0.002964  0.743861  1
  Ge  Ge15  1  0.408903  0.002964  0.256139  1
  N  N16  1  0.999950  0.999901  0.500000  1
  N  N17  1  0.999955  0.999911  0.000000  1
