# generated using pymatgen
data_Zr6Al6GaPt4Rh
_symmetry_space_group_name_H-M   'P 1'
_cell_length_a   6.79716400
_cell_length_b   6.79716549
_cell_length_c   8.07673600
_cell_angle_alpha   89.99996471
_cell_angle_beta   90.00000000
_cell_angle_gamma   119.99996614
_symmetry_Int_Tables_number   1
_chemical_formula_structural   Zr6Al6GaPt4Rh
_chemical_formula_sum   'Zr6 Al6 Ga1 Pt4 Rh1'
_cell_volume   323.16346798
_cell_formula_units_Z   1
loop_
 _symmetry_equiv_pos_site_id
 _symmetry_equiv_pos_as_xyz
  1  'x, y, z'
loop_
 _atom_site_type_symbol
 _atom_site_label
 _atom_site_symmetry_multiplicity
 _atom_site_fract_x
 _atom_site_fract_y
 _atom_site_fract_z
 _atom_site_occupancy
  Zr  Zr0  1  0.999749  0.581684  0.755396  1
  Zr  Zr1  1  0.999010  0.586209  0.244346  1
  Zr  Zr2  1  0.587198  0.000990  0.244346  1
  Zr  Zr3  1  0.581934  0.000251  0.755396  1
  Zr  Zr4  1  0.413792  0.412800  0.244346  1
  Zr  Zr5  1  0.418316  0.418066  0.755397  1
  Al  Al6  1  0.990558  0.239470  0.497277  1
  Al  Al7  1  0.755757  0.755459  0.002879  1
  Al  Al8  1  0.999702  0.244243  0.002879  1
  Al  Al9  1  0.248912  0.009442  0.497277  1
  Al  Al10  1  0.244541  0.000298  0.002879  1
  Al  Al11  1  0.760530  0.751088  0.497277  1
  Ga  Ga12  1  0.333333  0.666667  0.500508  1
  Pt  Pt13  1  0.666667  0.333333  0.501367  1
  Pt  Pt14  1  0.666667  0.333333  0.998710  1
  Pt  Pt15  1  0.000000  0.000000  0.748600  1
  Pt  Pt16  1  0.333333  0.666667  0.999202  1
  Rh  Rh17  1  0.000000  0.999999  0.251915  1
