# generated using pymatgen
data_Nb12Zn3Ga5N4
_symmetry_space_group_name_H-M   'P 1'
_cell_length_a   7.05004318
_cell_length_b   7.05004318
_cell_length_c   7.05004318
_cell_angle_alpha   90.09819718
_cell_angle_beta   89.90180282
_cell_angle_gamma   89.90180282
_symmetry_Int_Tables_number   1
_chemical_formula_structural   Nb12Zn3Ga5N4
_chemical_formula_sum   'Nb12 Zn3 Ga5 N4'
_cell_volume   350.40751806
_cell_formula_units_Z   1
loop_
 _symmetry_equiv_pos_site_id
 _symmetry_equiv_pos_as_xyz
  1  'x, y, z'
loop_
 _atom_site_type_symbol
 _atom_site_label
 _atom_site_symmetry_multiplicity
 _atom_site_fract_x
 _atom_site_fract_y
 _atom_site_fract_z
 _atom_site_occupancy
  Nb  Nb0  1  0.793478  0.956633  0.375225  1
  Nb  Nb1  1  0.706337  0.044348  0.875732  1
  Nb  Nb2  1  0.207499  0.456590  0.123989  1
  Nb  Nb3  1  0.293849  0.542464  0.626030  1
  Nb  Nb4  1  0.955652  0.375732  0.793663  1
  Nb  Nb5  1  0.043367  0.875225  0.706522  1
  Nb  Nb6  1  0.457536  0.126030  0.206151  1
  Nb  Nb7  1  0.543410  0.623989  0.292501  1
  Nb  Nb8  1  0.376011  0.792501  0.956590  1
  Nb  Nb9  1  0.873970  0.706151  0.042464  1
  Nb  Nb10  1  0.124775  0.206522  0.456633  1
  Nb  Nb11  1  0.624268  0.293663  0.544348  1
  Zn  Zn12  1  0.429771  0.930186  0.568986  1
  Zn  Zn13  1  0.931014  0.570229  0.430186  1
  Zn  Zn14  1  0.069814  0.068986  0.070229  1
  Ga  Ga15  1  0.178071  0.821929  0.321929  1
  Ga  Ga16  1  0.317427  0.174247  0.820472  1
  Ga  Ga17  1  0.825753  0.320472  0.182573  1
  Ga  Ga18  1  0.679528  0.682573  0.674247  1
  Ga  Ga19  1  0.570675  0.429325  0.929325  1
  N  N20  1  0.874279  0.125721  0.625721  1
  N  N21  1  0.625104  0.875356  0.126233  1
  N  N22  1  0.124644  0.626233  0.874896  1
  N  N23  1  0.373767  0.374896  0.375356  1
