# generated using pymatgen
data_HoLu3ZrIr3
_symmetry_space_group_name_H-M   'P 1'
_cell_length_a   10.68731800
_cell_length_b   10.70630700
_cell_length_c   6.19595700
_cell_angle_alpha   90.00000000
_cell_angle_beta   90.00000000
_cell_angle_gamma   90.00000000
_symmetry_Int_Tables_number   1
_chemical_formula_structural   HoLu3ZrIr3
_chemical_formula_sum   'Ho4 Lu12 Zr4 Ir12'
_cell_volume   708.95197963
_cell_formula_units_Z   4
loop_
 _symmetry_equiv_pos_site_id
 _symmetry_equiv_pos_as_xyz
  1  'x, y, z'
loop_
 _atom_site_type_symbol
 _atom_site_label
 _atom_site_symmetry_multiplicity
 _atom_site_fract_x
 _atom_site_fract_y
 _atom_site_fract_z
 _atom_site_occupancy
  Ho  Ho0  1  0.912151  0.709994  0.127338  1
  Ho  Ho1  1  0.912151  0.290006  0.627338  1
  Ho  Ho2  1  0.087849  0.709994  0.627338  1
  Ho  Ho3  1  0.087849  0.290006  0.127338  1
  Lu  Lu4  1  0.291309  0.086413  0.373947  1
  Lu  Lu5  1  0.291309  0.913587  0.873947  1
  Lu  Lu6  1  0.708691  0.086413  0.873947  1
  Lu  Lu7  1  0.708691  0.913587  0.373947  1
  Lu  Lu8  1  0.586714  0.790811  0.873670  1
  Lu  Lu9  1  0.586714  0.209189  0.373670  1
  Lu  Lu10  1  0.413286  0.790811  0.373670  1
  Lu  Lu11  1  0.413286  0.209189  0.873670  1
  Lu  Lu12  1  0.210058  0.413073  0.626408  1
  Lu  Lu13  1  0.210058  0.586927  0.126408  1
  Lu  Lu14  1  0.789942  0.413073  0.126408  1
  Lu  Lu15  1  0.789942  0.586927  0.626408  1
  Zr  Zr16  1  0.000000  0.000000  0.498940  1
  Zr  Zr17  1  0.000000  0.000000  0.998940  1
  Zr  Zr18  1  0.500000  0.500000  0.999831  1
  Zr  Zr19  1  0.500000  0.500000  0.499831  1
  Ir  Ir20  1  0.850820  0.146942  0.248774  1
  Ir  Ir21  1  0.850820  0.853058  0.748774  1
  Ir  Ir22  1  0.149180  0.146942  0.748774  1
  Ir  Ir23  1  0.149180  0.853058  0.248774  1
  Ir  Ir24  1  0.647164  0.352092  0.750566  1
  Ir  Ir25  1  0.647164  0.647908  0.250566  1
  Ir  Ir26  1  0.352836  0.352092  0.250566  1
  Ir  Ir27  1  0.352836  0.647908  0.750566  1
  Ir  Ir28  1  0.500000  0.000000  0.121146  1
  Ir  Ir29  1  0.500000  0.000000  0.621146  1
  Ir  Ir30  1  0.000000  0.500000  0.878675  1
  Ir  Ir31  1  0.000000  0.500000  0.378675  1
