# generated using pymatgen
data_HoErNi3Ir
_symmetry_space_group_name_H-M   'P 1'
_cell_length_a   5.19266364
_cell_length_b   5.19266271
_cell_length_c   5.19266397
_cell_angle_alpha   58.00036189
_cell_angle_beta   58.00037214
_cell_angle_gamma   58.00036501
_symmetry_Int_Tables_number   1
_chemical_formula_structural   HoErNi3Ir
_chemical_formula_sum   'Ho1 Er1 Ni3 Ir1'
_cell_volume   94.46336960
_cell_formula_units_Z   1
loop_
 _symmetry_equiv_pos_site_id
 _symmetry_equiv_pos_as_xyz
  1  'x, y, z'
loop_
 _atom_site_type_symbol
 _atom_site_label
 _atom_site_symmetry_multiplicity
 _atom_site_fract_x
 _atom_site_fract_y
 _atom_site_fract_z
 _atom_site_occupancy
  Ho  Ho0  1  0.001826  0.001826  0.001826  1
  Er  Er1  1  0.248726  0.248726  0.248726  1
  Ni  Ni2  1  0.625106  0.625106  0.124370  1
  Ni  Ni3  1  0.625106  0.124370  0.625106  1
  Ni  Ni4  1  0.124370  0.625106  0.625106  1
  Ir  Ir5  1  0.624866  0.624866  0.624866  1
