# generated using pymatgen
data_Yb3ErAs3
_symmetry_space_group_name_H-M   'P 1'
_cell_length_a   7.62072616
_cell_length_b   7.68588647
_cell_length_c   7.62072616
_cell_angle_alpha   109.56593915
_cell_angle_beta   109.12539465
_cell_angle_gamma   109.56593751
_symmetry_Int_Tables_number   1
_chemical_formula_structural   Yb3ErAs3
_chemical_formula_sum   'Yb6 Er2 As6'
_cell_volume   344.26570996
_cell_formula_units_Z   2
loop_
 _symmetry_equiv_pos_site_id
 _symmetry_equiv_pos_as_xyz
  1  'x, y, z'
loop_
 _atom_site_type_symbol
 _atom_site_label
 _atom_site_symmetry_multiplicity
 _atom_site_fract_x
 _atom_site_fract_y
 _atom_site_fract_z
 _atom_site_occupancy
  Yb  Yb0  1  0.363681  0.359101  0.364836  1
  Yb  Yb1  1  0.998667  0.134766  0.494181  1
  Yb  Yb2  1  0.864836  0.859101  0.863681  1
  Yb  Yb3  1  0.994181  0.634766  0.498667  1
  Yb  Yb4  1  0.637323  0.506288  0.004506  1
  Yb  Yb5  1  0.504506  0.006288  0.137323  1
  Er  Er6  1  0.136762  0.500249  0.000603  1
  Er  Er7  1  0.500603  0.000249  0.636762  1
  As  As8  1  0.876188  0.249946  0.113883  1
  As  As9  1  0.132978  0.869735  0.252889  1
  As  As10  1  0.371660  0.629915  0.751843  1
  As  As11  1  0.251843  0.129915  0.871660  1
  As  As12  1  0.752889  0.369735  0.632978  1
  As  As13  1  0.613883  0.749946  0.376188  1
