# generated using pymatgen
data_Dy4Pa2Co17P12W
_symmetry_space_group_name_H-M   'P 1'
_cell_length_a   3.72376600
_cell_length_b   10.55433700
_cell_length_c   12.18707800
_cell_angle_alpha   90.00000000
_cell_angle_beta   90.00000000
_cell_angle_gamma   90.00000000
_symmetry_Int_Tables_number   1
_chemical_formula_structural   Dy4Pa2Co17P12W
_chemical_formula_sum   'Dy4 Pa2 Co17 P12 W1'
_cell_volume   478.97509262
_cell_formula_units_Z   1
loop_
 _symmetry_equiv_pos_site_id
 _symmetry_equiv_pos_as_xyz
  1  'x, y, z'
loop_
 _atom_site_type_symbol
 _atom_site_label
 _atom_site_symmetry_multiplicity
 _atom_site_fract_x
 _atom_site_fract_y
 _atom_site_fract_z
 _atom_site_occupancy
  Dy  Dy0  1  0.500000  0.816967  0.205785  1
  Dy  Dy1  1  0.500000  0.183033  0.205785  1
  Dy  Dy2  1  0.000000  0.684654  0.796387  1
  Dy  Dy3  1  0.000000  0.315346  0.796387  1
  Pa  Pa4  1  0.000000  0.500000  0.531306  1
  Pa  Pa5  1  0.500000  0.000000  0.471290  1
  Co  Co6  1  0.000000  0.000000  0.840788  1
  Co  Co7  1  0.500000  0.500000  0.695616  1
  Co  Co8  1  0.000000  0.000000  0.303483  1
  Co  Co9  1  0.000000  0.500000  0.985922  1
  Co  Co10  1  0.500000  0.000000  0.014886  1
  Co  Co11  1  0.500000  0.332016  0.989991  1
  Co  Co12  1  0.500000  0.667984  0.989991  1
  Co  Co13  1  0.000000  0.165025  0.006569  1
  Co  Co14  1  0.000000  0.834975  0.006569  1
  Co  Co15  1  0.500000  0.299516  0.433092  1
  Co  Co16  1  0.500000  0.700484  0.433092  1
  Co  Co17  1  0.000000  0.199244  0.567554  1
  Co  Co18  1  0.000000  0.800756  0.567554  1
  Co  Co19  1  0.500000  0.880495  0.709510  1
  Co  Co20  1  0.500000  0.119505  0.709510  1
  Co  Co21  1  0.000000  0.620470  0.291480  1
  Co  Co22  1  0.000000  0.379530  0.291480  1
  P  P23  1  0.500000  0.500000  0.877562  1
  P  P24  1  0.000000  0.000000  0.120716  1
  P  P25  1  0.500000  0.500000  0.349626  1
  P  P26  1  0.000000  0.000000  0.656248  1
  P  P27  1  0.500000  0.306656  0.617997  1
  P  P28  1  0.500000  0.693344  0.617997  1
  P  P29  1  0.000000  0.192163  0.383320  1
  P  P30  1  0.000000  0.807837  0.383320  1
  P  P31  1  0.500000  0.849710  0.892537  1
  P  P32  1  0.500000  0.150290  0.892537  1
  P  P33  1  0.000000  0.657266  0.104430  1
  P  P34  1  0.000000  0.342734  0.104430  1
  W  W35  1  0.500000  0.500000  0.155251  1
