# generated using pymatgen
data_LiTm6Co17P12
_symmetry_space_group_name_H-M   'P 1'
_cell_length_a   3.69053800
_cell_length_b   10.52331900
_cell_length_c   12.13999300
_cell_angle_alpha   90.00000000
_cell_angle_beta   90.00000000
_cell_angle_gamma   90.00000000
_symmetry_Int_Tables_number   1
_chemical_formula_structural   LiTm6Co17P12
_chemical_formula_sum   'Li1 Tm6 Co17 P12'
_cell_volume   471.47737122
_cell_formula_units_Z   1
loop_
 _symmetry_equiv_pos_site_id
 _symmetry_equiv_pos_as_xyz
  1  'x, y, z'
loop_
 _atom_site_type_symbol
 _atom_site_label
 _atom_site_symmetry_multiplicity
 _atom_site_fract_x
 _atom_site_fract_y
 _atom_site_fract_z
 _atom_site_occupancy
  Li  Li0  1  0.500000  0.500000  0.151673  1
  Tm  Tm1  1  0.000000  0.500000  0.523274  1
  Tm  Tm2  1  0.500000  0.000000  0.477653  1
  Tm  Tm3  1  0.500000  0.820114  0.206565  1
  Tm  Tm4  1  0.500000  0.179886  0.206565  1
  Tm  Tm5  1  0.000000  0.681592  0.794522  1
  Tm  Tm6  1  0.000000  0.318408  0.794522  1
  Co  Co7  1  0.000000  0.000000  0.839546  1
  Co  Co8  1  0.500000  0.500000  0.704269  1
  Co  Co9  1  0.000000  0.000000  0.296909  1
  Co  Co10  1  0.000000  0.500000  0.986421  1
  Co  Co11  1  0.500000  0.000000  0.011942  1
  Co  Co12  1  0.500000  0.330707  0.994918  1
  Co  Co13  1  0.500000  0.669293  0.994918  1
  Co  Co14  1  0.000000  0.164947  0.003337  1
  Co  Co15  1  0.000000  0.835053  0.003337  1
  Co  Co16  1  0.500000  0.296560  0.432306  1
  Co  Co17  1  0.500000  0.703440  0.432306  1
  Co  Co18  1  0.000000  0.202268  0.570217  1
  Co  Co19  1  0.000000  0.797732  0.570217  1
  Co  Co20  1  0.500000  0.879045  0.708657  1
  Co  Co21  1  0.500000  0.120955  0.708657  1
  Co  Co22  1  0.000000  0.622881  0.293185  1
  Co  Co23  1  0.000000  0.377119  0.293185  1
  P  P24  1  0.500000  0.500000  0.884098  1
  P  P25  1  0.000000  0.000000  0.117138  1
  P  P26  1  0.500000  0.500000  0.346521  1
  P  P27  1  0.000000  0.000000  0.654322  1
  P  P28  1  0.500000  0.311390  0.617469  1
  P  P29  1  0.500000  0.688610  0.617469  1
  P  P30  1  0.000000  0.188487  0.384687  1
  P  P31  1  0.000000  0.811513  0.384687  1
  P  P32  1  0.500000  0.847152  0.890749  1
  P  P33  1  0.500000  0.152848  0.890749  1
  P  P34  1  0.000000  0.658088  0.106504  1
  P  P35  1  0.000000  0.341912  0.106504  1
