# generated using pymatgen
data_Tb16In3IrRh3Au
_symmetry_space_group_name_H-M   'P 1'
_cell_length_a   9.65364841
_cell_length_b   9.67048340
_cell_length_c   9.65364760
_cell_angle_alpha   60.07013994
_cell_angle_beta   59.98317427
_cell_angle_gamma   60.07013427
_symmetry_Int_Tables_number   1
_chemical_formula_structural   Tb16In3IrRh3Au
_chemical_formula_sum   'Tb16 In3 Ir1 Rh3 Au1'
_cell_volume   637.85259266
_cell_formula_units_Z   1
loop_
 _symmetry_equiv_pos_site_id
 _symmetry_equiv_pos_as_xyz
  1  'x, y, z'
loop_
 _atom_site_type_symbol
 _atom_site_label
 _atom_site_symmetry_multiplicity
 _atom_site_fract_x
 _atom_site_fract_y
 _atom_site_fract_z
 _atom_site_occupancy
  Tb  Tb0  1  0.101185  0.698659  0.101185  1
  Tb  Tb1  1  0.940770  0.941232  0.558401  1
  Tb  Tb2  1  0.941008  0.558202  0.941008  1
  Tb  Tb3  1  0.312877  0.680387  0.312877  1
  Tb  Tb4  1  0.939112  0.558581  0.559193  1
  Tb  Tb5  1  0.311334  0.312879  0.681225  1
  Tb  Tb6  1  0.099201  0.099851  0.099201  1
  Tb  Tb7  1  0.559193  0.558581  0.939112  1
  Tb  Tb8  1  0.100809  0.101424  0.699167  1
  Tb  Tb9  1  0.687931  0.311458  0.687931  1
  Tb  Tb10  1  0.687287  0.687335  0.311461  1
  Tb  Tb11  1  0.681225  0.312879  0.311334  1
  Tb  Tb12  1  0.311461  0.687335  0.687287  1
  Tb  Tb13  1  0.559045  0.939134  0.559045  1
  Tb  Tb14  1  0.699167  0.101424  0.100809  1
  Tb  Tb15  1  0.558401  0.941232  0.940770  1
  In  In16  1  0.005652  0.332236  0.332126  1
  In  In17  1  0.332232  0.005561  0.332232  1
  In  In18  1  0.332126  0.332236  0.005652  1
  Ir  Ir19  1  0.891814  0.324416  0.891814  1
  Rh  Rh20  1  0.892581  0.892499  0.892581  1
  Rh  Rh21  1  0.891849  0.891652  0.324825  1
  Rh  Rh22  1  0.324825  0.891652  0.891849  1
  Au  Au23  1  0.338912  0.339153  0.338912  1
