# generated using pymatgen
data_LiNd4Al3Pt4
_symmetry_space_group_name_H-M   'P 1'
_cell_length_a   4.49681100
_cell_length_b   7.07040700
_cell_length_c   7.99483806
_cell_angle_alpha   90.00714636
_cell_angle_beta   90.00000000
_cell_angle_gamma   90.00000000
_symmetry_Int_Tables_number   1
_chemical_formula_structural   LiNd4Al3Pt4
_chemical_formula_sum   'Li1 Nd4 Al3 Pt4'
_cell_volume   254.19014964
_cell_formula_units_Z   1
loop_
 _symmetry_equiv_pos_site_id
 _symmetry_equiv_pos_as_xyz
  1  'x, y, z'
loop_
 _atom_site_type_symbol
 _atom_site_label
 _atom_site_symmetry_multiplicity
 _atom_site_fract_x
 _atom_site_fract_y
 _atom_site_fract_z
 _atom_site_occupancy
  Li  Li0  1  0.750000  0.863614  0.931969  1
  Nd  Nd1  1  0.750000  0.468390  0.184892  1
  Nd  Nd2  1  0.250000  0.028028  0.685302  1
  Nd  Nd3  1  0.750000  0.975381  0.313934  1
  Nd  Nd4  1  0.250000  0.530502  0.816365  1
  Al  Al5  1  0.250000  0.642393  0.436148  1
  Al  Al6  1  0.750000  0.347618  0.566774  1
  Al  Al7  1  0.250000  0.143231  0.063685  1
  Pt  Pt8  1  0.750000  0.712669  0.598881  1
  Pt  Pt9  1  0.750000  0.234636  0.888547  1
  Pt  Pt10  1  0.250000  0.277610  0.388966  1
  Pt  Pt11  1  0.250000  0.775927  0.124538  1
