# generated using pymatgen
data_LiPr8AgIr2
_symmetry_space_group_name_H-M   'P 1'
_cell_length_a   10.01794773
_cell_length_b   10.01794723
_cell_length_c   10.04142700
_cell_angle_alpha   59.92243507
_cell_angle_beta   59.92243670
_cell_angle_gamma   59.92687847
_symmetry_Int_Tables_number   1
_chemical_formula_structural   LiPr8AgIr2
_chemical_formula_sum   'Li2 Pr16 Ag2 Ir4'
_cell_volume   711.35727067
_cell_formula_units_Z   2
loop_
 _symmetry_equiv_pos_site_id
 _symmetry_equiv_pos_as_xyz
  1  'x, y, z'
loop_
 _atom_site_type_symbol
 _atom_site_label
 _atom_site_symmetry_multiplicity
 _atom_site_fract_x
 _atom_site_fract_y
 _atom_site_fract_z
 _atom_site_occupancy
  Li  Li0  1  0.577568  0.285797  0.568317  1
  Li  Li1  1  0.285797  0.577568  0.568317  1
  Pr  Pr2  1  0.346995  0.346995  0.347206  1
  Pr  Pr3  1  0.346995  0.346995  0.958807  1
  Pr  Pr4  1  0.348858  0.951912  0.349615  1
  Pr  Pr5  1  0.951912  0.348858  0.349615  1
  Pr  Pr6  1  0.809951  0.187265  0.189155  1
  Pr  Pr7  1  0.187265  0.809951  0.813630  1
  Pr  Pr8  1  0.187265  0.809951  0.189155  1
  Pr  Pr9  1  0.809951  0.187265  0.813630  1
  Pr  Pr10  1  0.184896  0.184896  0.815104  1
  Pr  Pr11  1  0.805966  0.805966  0.194034  1
  Pr  Pr12  1  0.936922  0.560673  0.562303  1
  Pr  Pr13  1  0.560673  0.936922  0.940101  1
  Pr  Pr14  1  0.560673  0.936922  0.562303  1
  Pr  Pr15  1  0.936922  0.560673  0.940101  1
  Pr  Pr16  1  0.561352  0.561352  0.938648  1
  Pr  Pr17  1  0.938294  0.938294  0.561706  1
  Ag  Ag18  1  0.583123  0.583123  0.584902  1
  Ag  Ag19  1  0.583123  0.583123  0.248851  1
  Ir  Ir20  1  0.140968  0.140968  0.142258  1
  Ir  Ir21  1  0.140968  0.140968  0.575805  1
  Ir  Ir22  1  0.140825  0.572739  0.143218  1
  Ir  Ir23  1  0.572739  0.140825  0.143218  1
