# generated using pymatgen
data_DyTm6Sn23Ru6
_symmetry_space_group_name_H-M   'P 1'
_cell_length_a   9.82305100
_cell_length_b   9.82305100
_cell_length_c   10.04869500
_cell_angle_alpha   90.00000000
_cell_angle_beta   90.00000000
_cell_angle_gamma   119.99999662
_symmetry_Int_Tables_number   1
_chemical_formula_structural   DyTm6Sn23Ru6
_chemical_formula_sum   'Dy1 Tm6 Sn23 Ru6'
_cell_volume   839.71731589
_cell_formula_units_Z   1
loop_
 _symmetry_equiv_pos_site_id
 _symmetry_equiv_pos_as_xyz
  1  'x, y, z'
loop_
 _atom_site_type_symbol
 _atom_site_label
 _atom_site_symmetry_multiplicity
 _atom_site_fract_x
 _atom_site_fract_y
 _atom_site_fract_z
 _atom_site_occupancy
  Dy  Dy0  1  0.000000  0.000000  0.000000  1
  Tm  Tm1  1  0.486181  0.513819  0.302162  1
  Tm  Tm2  1  0.513819  0.486181  0.697838  1
  Tm  Tm3  1  0.486181  0.972361  0.302162  1
  Tm  Tm4  1  0.513819  0.027639  0.697838  1
  Tm  Tm5  1  0.027639  0.513819  0.302162  1
  Tm  Tm6  1  0.972361  0.486181  0.697838  1
  Sn  Sn7  1  0.349151  0.000000  0.000000  1
  Sn  Sn8  1  0.650849  0.000000  0.000000  1
  Sn  Sn9  1  0.000000  0.349151  0.000000  1
  Sn  Sn10  1  0.000000  0.650849  0.000000  1
  Sn  Sn11  1  0.650849  0.650849  0.000000  1
  Sn  Sn12  1  0.349151  0.349151  0.000000  1
  Sn  Sn13  1  0.333333  0.666667  0.822832  1
  Sn  Sn14  1  0.666667  0.333333  0.177168  1
  Sn  Sn15  1  0.000000  0.000000  0.500000  1
  Sn  Sn16  1  0.779284  0.220716  0.464061  1
  Sn  Sn17  1  0.220716  0.779284  0.535939  1
  Sn  Sn18  1  0.779284  0.558569  0.464061  1
  Sn  Sn19  1  0.220716  0.441431  0.535939  1
  Sn  Sn20  1  0.441431  0.220716  0.464061  1
  Sn  Sn21  1  0.558569  0.779284  0.535939  1
  Sn  Sn22  1  0.333333  0.666667  0.131496  1
  Sn  Sn23  1  0.666667  0.333333  0.868504  1
  Sn  Sn24  1  0.119121  0.880879  0.274768  1
  Sn  Sn25  1  0.880879  0.119121  0.725232  1
  Sn  Sn26  1  0.119121  0.238241  0.274768  1
  Sn  Sn27  1  0.880879  0.761759  0.725232  1
  Sn  Sn28  1  0.761759  0.880879  0.274768  1
  Sn  Sn29  1  0.238241  0.119121  0.725232  1
  Ru  Ru30  1  0.829460  0.170540  0.203078  1
  Ru  Ru31  1  0.170540  0.829460  0.796922  1
  Ru  Ru32  1  0.829460  0.658918  0.203078  1
  Ru  Ru33  1  0.170540  0.341082  0.796922  1
  Ru  Ru34  1  0.341082  0.170540  0.203078  1
  Ru  Ru35  1  0.658918  0.829460  0.796922  1
