# generated using pymatgen
data_Rb5As2Au
_symmetry_space_group_name_H-M   'P 1'
_cell_length_a   6.08353000
_cell_length_b   6.08352955
_cell_length_c   20.06947600
_cell_angle_alpha   90.00000000
_cell_angle_beta   90.00000000
_cell_angle_gamma   120.00000247
_symmetry_Int_Tables_number   1
_chemical_formula_structural   Rb5As2Au
_chemical_formula_sum   'Rb10 As4 Au2'
_cell_volume   643.24723794
_cell_formula_units_Z   2
loop_
 _symmetry_equiv_pos_site_id
 _symmetry_equiv_pos_as_xyz
  1  'x, y, z'
loop_
 _atom_site_type_symbol
 _atom_site_label
 _atom_site_symmetry_multiplicity
 _atom_site_fract_x
 _atom_site_fract_y
 _atom_site_fract_z
 _atom_site_occupancy
  Rb  Rb0  1  0.333333  0.666667  0.548835  1
  Rb  Rb1  1  0.666667  0.333333  0.048835  1
  Rb  Rb2  1  0.666667  0.333333  0.451165  1
  Rb  Rb3  1  0.333333  0.666667  0.951165  1
  Rb  Rb4  1  0.000000  0.000000  0.146184  1
  Rb  Rb5  1  0.000000  0.000000  0.646184  1
  Rb  Rb6  1  0.000000  0.000000  0.853816  1
  Rb  Rb7  1  0.000000  0.000000  0.353816  1
  Rb  Rb8  1  0.333333  0.666667  0.750000  1
  Rb  Rb9  1  0.666667  0.333333  0.250000  1
  As  As10  1  0.333333  0.666667  0.376372  1
  As  As11  1  0.666667  0.333333  0.876372  1
  As  As12  1  0.666667  0.333333  0.623628  1
  As  As13  1  0.333333  0.666667  0.123628  1
  Au  Au14  1  0.333333  0.666667  0.250000  1
  Au  Au15  1  0.666667  0.333333  0.750000  1
