# generated using pymatgen
data_Li4PrPt2
_symmetry_space_group_name_H-M   'P 1'
_cell_length_a   8.11157296
_cell_length_b   8.11157361
_cell_length_c   8.11157341
_cell_angle_alpha   30.93599248
_cell_angle_beta   30.93598766
_cell_angle_gamma   30.93599665
_symmetry_Int_Tables_number   1
_chemical_formula_structural   Li4PrPt2
_chemical_formula_sum   'Li4 Pr1 Pt2'
_cell_volume   125.11668174
_cell_formula_units_Z   1
loop_
 _symmetry_equiv_pos_site_id
 _symmetry_equiv_pos_as_xyz
  1  'x, y, z'
loop_
 _atom_site_type_symbol
 _atom_site_label
 _atom_site_symmetry_multiplicity
 _atom_site_fract_x
 _atom_site_fract_y
 _atom_site_fract_z
 _atom_site_occupancy
  Li  Li0  1  0.140565  0.140565  0.140565  1
  Li  Li1  1  0.432115  0.432115  0.432115  1
  Li  Li2  1  0.567885  0.567885  0.567885  1
  Li  Li3  1  0.859435  0.859435  0.859435  1
  Pr  Pr4  1  0.000000  0.000000  0.000000  1
  Pt  Pt5  1  0.255028  0.255028  0.255028  1
  Pt  Pt6  1  0.744972  0.744972  0.744972  1
