# generated using pymatgen
data_La2Nd2Ho2CoBr10
_symmetry_space_group_name_H-M   'P 1'
_cell_length_a   7.51633970
_cell_length_b   9.44355817
_cell_length_c   9.55156900
_cell_angle_alpha   108.72866349
_cell_angle_beta   95.47656492
_cell_angle_gamma   104.84038268
_symmetry_Int_Tables_number   1
_chemical_formula_structural   La2Nd2Ho2CoBr10
_chemical_formula_sum   'La2 Nd2 Ho2 Co1 Br10'
_cell_volume   608.86064621
_cell_formula_units_Z   1
loop_
 _symmetry_equiv_pos_site_id
 _symmetry_equiv_pos_as_xyz
  1  'x, y, z'
loop_
 _atom_site_type_symbol
 _atom_site_label
 _atom_site_symmetry_multiplicity
 _atom_site_fract_x
 _atom_site_fract_y
 _atom_site_fract_z
 _atom_site_occupancy
  La  La0  1  0.468266  0.786087  0.592278  1
  La  La1  1  0.531734  0.213913  0.407722  1
  Nd  Nd2  1  0.370265  0.453276  0.747792  1
  Nd  Nd3  1  0.629735  0.546724  0.252208  1
  Ho  Ho4  1  0.850398  0.626299  0.671249  1
  Ho  Ho5  1  0.149602  0.373701  0.328751  1
  Co  Co6  1  0.500000  0.500000  0.500000  1
  Br  Br7  1  0.412817  0.133416  0.674460  1
  Br  Br8  1  0.587183  0.866584  0.325540  1
  Br  Br9  1  0.047312  0.672610  0.419620  1
  Br  Br10  1  0.952688  0.327390  0.580380  1
  Br  Br11  1  0.258069  0.747061  0.842969  1
  Br  Br12  1  0.741931  0.252939  0.157031  1
  Br  Br13  1  0.249213  0.416799  0.055838  1
  Br  Br14  1  0.750787  0.583201  0.944162  1
  Br  Br15  1  0.857357  0.938924  0.767727  1
  Br  Br16  1  0.142643  0.061076  0.232273  1
