# generated using pymatgen
data_Er17Tm3(Rh5Au)2
_symmetry_space_group_name_H-M   'P 1'
_cell_length_a   10.93831204
_cell_length_b   10.88980602
_cell_length_c   6.29739200
_cell_angle_alpha   90.00348832
_cell_angle_beta   89.83926923
_cell_angle_gamma   89.99865235
_symmetry_Int_Tables_number   1
_chemical_formula_structural   Er17Tm3(Rh5Au)2
_chemical_formula_sum   'Er17 Tm3 Rh10 Au2'
_cell_volume   750.11779897
_cell_formula_units_Z   1
loop_
 _symmetry_equiv_pos_site_id
 _symmetry_equiv_pos_as_xyz
  1  'x, y, z'
loop_
 _atom_site_type_symbol
 _atom_site_label
 _atom_site_symmetry_multiplicity
 _atom_site_fract_x
 _atom_site_fract_y
 _atom_site_fract_z
 _atom_site_occupancy
  Er  Er0  1  0.291552  0.088501  0.371332  1
  Er  Er1  1  0.291455  0.911557  0.871387  1
  Er  Er2  1  0.699144  0.091589  0.866462  1
  Er  Er3  1  0.699069  0.908339  0.366318  1
  Er  Er4  1  0.578799  0.788915  0.876365  1
  Er  Er5  1  0.578915  0.211056  0.376432  1
  Er  Er6  1  0.408354  0.789888  0.376415  1
  Er  Er7  1  0.408397  0.210117  0.876356  1
  Er  Er8  1  0.210498  0.411228  0.621617  1
  Er  Er9  1  0.210443  0.588806  0.121658  1
  Er  Er10  1  0.789473  0.418424  0.123938  1
  Er  Er11  1  0.789556  0.581555  0.623919  1
  Er  Er12  1  0.917240  0.706325  0.138125  1
  Er  Er13  1  0.917232  0.293668  0.638189  1
  Er  Er14  1  0.095457  0.703905  0.624441  1
  Er  Er15  1  0.095341  0.296012  0.124430  1
  Er  Er16  1  0.008529  0.997917  0.500223  1
  Tm  Tm17  1  0.008569  0.002130  0.000204  1
  Tm  Tm18  1  0.499913  0.498460  0.000802  1
  Tm  Tm19  1  0.499946  0.501516  0.500746  1
  Rh  Rh20  1  0.154021  0.154384  0.750406  1
  Rh  Rh21  1  0.154090  0.845724  0.249706  1
  Rh  Rh22  1  0.655592  0.346445  0.748017  1
  Rh  Rh23  1  0.655553  0.653534  0.248025  1
  Rh  Rh24  1  0.347622  0.346315  0.251785  1
  Rh  Rh25  1  0.347625  0.653691  0.751876  1
  Rh  Rh26  1  0.498902  0.999698  0.121287  1
  Rh  Rh27  1  0.498880  0.000359  0.621304  1
  Rh  Rh28  1  0.000359  0.500742  0.878584  1
  Rh  Rh29  1  0.000352  0.499218  0.378587  1
  Au  Au30  1  0.844555  0.154968  0.250063  1
  Au  Au31  1  0.844568  0.845014  0.751001  1
