# generated using pymatgen
data_PaZn6In5Rh12
_symmetry_space_group_name_H-M   'P 1'
_cell_length_a   4.47680217
_cell_length_b   6.34341024
_cell_length_c   13.40518700
_cell_angle_alpha   90.00007466
_cell_angle_beta   89.99956871
_cell_angle_gamma   90.03139276
_symmetry_Int_Tables_number   1
_chemical_formula_structural   PaZn6In5Rh12
_chemical_formula_sum   'Pa1 Zn6 In5 Rh12'
_cell_volume   380.68302654
_cell_formula_units_Z   1
loop_
 _symmetry_equiv_pos_site_id
 _symmetry_equiv_pos_as_xyz
  1  'x, y, z'
loop_
 _atom_site_type_symbol
 _atom_site_label
 _atom_site_symmetry_multiplicity
 _atom_site_fract_x
 _atom_site_fract_y
 _atom_site_fract_z
 _atom_site_occupancy
  Pa  Pa0  1  0.000000  0.000000  0.000000  1
  Zn  Zn1  1  0.000000  0.500000  0.000000  1
  Zn  Zn2  1  0.499885  0.000000  0.171121  1
  Zn  Zn3  1  0.999876  0.500000  0.336731  1
  Zn  Zn4  1  0.500001  0.000000  0.500000  1
  Zn  Zn5  1  0.000124  0.500000  0.663269  1
  Zn  Zn6  1  0.500115  0.000000  0.828879  1
  In  In7  1  0.499902  0.500000  0.170829  1
  In  In8  1  0.999889  0.000000  0.335113  1
  In  In9  1  0.500001  0.500000  0.500000  1
  In  In10  1  0.000111  0.000000  0.664886  1
  In  In11  1  0.500098  0.500000  0.829171  1
  Rh  Rh12  1  0.499938  0.257137  0.000002  1
  Rh  Rh13  1  0.500064  0.742864  0.999998  1
  Rh  Rh14  1  0.999871  0.247979  0.163623  1
  Rh  Rh15  1  0.999896  0.752019  0.163625  1
  Rh  Rh16  1  0.499895  0.248944  0.333034  1
  Rh  Rh17  1  0.499835  0.751052  0.333033  1
  Rh  Rh18  1  0.000024  0.250501  0.500000  1
  Rh  Rh19  1  0.999976  0.749499  0.500000  1
  Rh  Rh20  1  0.500165  0.248947  0.666967  1
  Rh  Rh21  1  0.500105  0.751055  0.666966  1
  Rh  Rh22  1  0.000104  0.247980  0.836375  1
  Rh  Rh23  1  0.000129  0.752020  0.836377  1
