# generated using pymatgen
data_K3DyGe2O7
_symmetry_space_group_name_H-M   'P 1'
_cell_length_a   10.37321200
_cell_length_b   10.37321190
_cell_length_c   15.11991300
_cell_angle_alpha   90.00000000
_cell_angle_beta   90.00000000
_cell_angle_gamma   120.00000031
_symmetry_Int_Tables_number   1
_chemical_formula_structural   K3DyGe2O7
_chemical_formula_sum   'K18 Dy6 Ge12 O42'
_cell_volume   1408.98518322
_cell_formula_units_Z   6
loop_
 _symmetry_equiv_pos_site_id
 _symmetry_equiv_pos_as_xyz
  1  'x, y, z'
loop_
 _atom_site_type_symbol
 _atom_site_label
 _atom_site_symmetry_multiplicity
 _atom_site_fract_x
 _atom_site_fract_y
 _atom_site_fract_z
 _atom_site_occupancy
  K  K0  1  0.000000  0.000000  0.500000  1
  K  K1  1  0.334997  0.000000  0.091248  1
  K  K2  1  0.334997  0.334997  0.591248  1
  K  K3  1  0.000000  0.665003  0.591248  1
  K  K4  1  0.000000  0.334997  0.091248  1
  K  K5  1  0.665003  0.665003  0.091248  1
  K  K6  1  0.334997  0.000000  0.408752  1
  K  K7  1  0.000000  0.000000  0.000000  1
  K  K8  1  0.333333  0.666667  0.750000  1
  K  K9  1  0.666667  0.333333  0.250000  1
  K  K10  1  0.666667  0.333333  0.750000  1
  K  K11  1  0.333333  0.666667  0.250000  1
  K  K12  1  0.665003  0.665003  0.408752  1
  K  K13  1  0.665003  0.000000  0.908752  1
  K  K14  1  0.000000  0.665003  0.908752  1
  K  K15  1  0.000000  0.334997  0.408752  1
  K  K16  1  0.665003  0.000000  0.591248  1
  K  K17  1  0.334997  0.334997  0.908752  1
  Dy  Dy18  1  0.000000  0.000000  0.750000  1
  Dy  Dy19  1  0.333333  0.666667  0.000000  1
  Dy  Dy20  1  0.666667  0.333333  0.500000  1
  Dy  Dy21  1  0.666667  0.333333  0.000000  1
  Dy  Dy22  1  0.333333  0.666667  0.500000  1
  Dy  Dy23  1  0.000000  0.000000  0.250000  1
  Ge  Ge24  1  0.659140  0.659140  0.858707  1
  Ge  Ge25  1  0.340860  0.000000  0.858707  1
  Ge  Ge26  1  0.000000  0.340860  0.858707  1
  Ge  Ge27  1  0.000000  0.659140  0.358707  1
  Ge  Ge28  1  0.340860  0.000000  0.641293  1
  Ge  Ge29  1  0.340860  0.340860  0.358707  1
  Ge  Ge30  1  0.659140  0.000000  0.358707  1
  Ge  Ge31  1  0.340860  0.340860  0.141293  1
  Ge  Ge32  1  0.000000  0.659140  0.141293  1
  Ge  Ge33  1  0.000000  0.340860  0.641293  1
  Ge  Ge34  1  0.659140  0.659140  0.641293  1
  Ge  Ge35  1  0.659140  0.000000  0.141293  1
  O  O36  1  0.419733  0.000000  0.750000  1
  O  O37  1  0.419733  0.419733  0.250000  1
  O  O38  1  0.000000  0.580267  0.250000  1
  O  O39  1  0.000000  0.419733  0.750000  1
  O  O40  1  0.580267  0.580267  0.750000  1
  O  O41  1  0.580267  0.000000  0.250000  1
  O  O42  1  0.829618  0.829618  0.850730  1
  O  O43  1  0.170382  0.000000  0.850730  1
  O  O44  1  0.000000  0.170382  0.850730  1
  O  O45  1  0.000000  0.829618  0.350730  1
  O  O46  1  0.170382  0.000000  0.649270  1
  O  O47  1  0.170382  0.170382  0.350730  1
  O  O48  1  0.829618  0.000000  0.350730  1
  O  O49  1  0.170382  0.170382  0.149270  1
  O  O50  1  0.000000  0.829618  0.149270  1
  O  O51  1  0.000000  0.170382  0.649270  1
  O  O52  1  0.829618  0.829618  0.649270  1
  O  O53  1  0.829618  0.000000  0.149270  1
  O  O54  1  0.319632  0.838176  0.911825  1
  O  O55  1  0.161824  0.481456  0.911825  1
  O  O56  1  0.518544  0.680368  0.911825  1
  O  O57  1  0.481456  0.319632  0.411825  1
  O  O58  1  0.680368  0.518544  0.588175  1
  O  O59  1  0.680368  0.161824  0.411825  1
  O  O60  1  0.838176  0.518544  0.411825  1
  O  O61  1  0.161824  0.680368  0.088175  1
  O  O62  1  0.518544  0.838176  0.088175  1
  O  O63  1  0.481456  0.161824  0.588175  1
  O  O64  1  0.838176  0.319632  0.588175  1
  O  O65  1  0.319632  0.481456  0.088175  1
  O  O66  1  0.680368  0.161824  0.088175  1
  O  O67  1  0.838176  0.518544  0.088175  1
  O  O68  1  0.481456  0.319632  0.088175  1
  O  O69  1  0.518544  0.680368  0.588175  1
  O  O70  1  0.319632  0.481456  0.411825  1
  O  O71  1  0.319632  0.838176  0.588175  1
  O  O72  1  0.680368  0.518544  0.911825  1
  O  O73  1  0.161824  0.680368  0.411825  1
  O  O74  1  0.518544  0.838176  0.411825  1
  O  O75  1  0.481456  0.161824  0.911825  1
  O  O76  1  0.838176  0.319632  0.911825  1
  O  O77  1  0.161824  0.481456  0.588175  1
