# generated using pymatgen
data_La7Sm(Ho3Sn4)4
_symmetry_space_group_name_H-M   'P 1'
_cell_length_a   8.14504778
_cell_length_b   8.34789880
_cell_length_c   15.70119943
_cell_angle_alpha   89.97191301
_cell_angle_beta   90.12942996
_cell_angle_gamma   90.27967016
_symmetry_Int_Tables_number   1
_chemical_formula_structural   La7Sm(Ho3Sn4)4
_chemical_formula_sum   'La7 Sm1 Ho12 Sn16'
_cell_volume   1067.57233177
_cell_formula_units_Z   1
loop_
 _symmetry_equiv_pos_site_id
 _symmetry_equiv_pos_as_xyz
  1  'x, y, z'
loop_
 _atom_site_type_symbol
 _atom_site_label
 _atom_site_symmetry_multiplicity
 _atom_site_fract_x
 _atom_site_fract_y
 _atom_site_fract_z
 _atom_site_occupancy
  La  La0  1  0.507466  0.321742  0.903996  1
  La  La1  1  0.007182  0.175875  0.595924  1
  La  La2  1  0.492290  0.676560  0.404011  1
  La  La3  1  0.990977  0.824152  0.095221  1
  La  La4  1  0.493109  0.677979  0.095007  1
  La  La5  1  0.992786  0.823734  0.404160  1
  La  La6  1  0.508174  0.322820  0.597686  1
  Sm  Sm7  1  0.010633  0.177148  0.902341  1
  Ho  Ho8  1  0.349340  0.836652  0.876738  1
  Ho  Ho9  1  0.848376  0.664185  0.626077  1
  Ho  Ho10  1  0.651067  0.165305  0.375735  1
  Ho  Ho11  1  0.149805  0.334915  0.124474  1
  Ho  Ho12  1  0.650246  0.163574  0.122945  1
  Ho  Ho13  1  0.152216  0.335547  0.375234  1
  Ho  Ho14  1  0.348286  0.834957  0.624969  1
  Ho  Ho15  1  0.849454  0.665190  0.874870  1
  Ho  Ho16  1  0.181659  0.501902  0.750755  1
  Ho  Ho17  1  0.682610  0.998655  0.751139  1
  Ho  Ho18  1  0.818001  0.497511  0.249708  1
  Ho  Ho19  1  0.316977  0.001787  0.249266  1
  Sn  Sn20  1  0.308593  0.044019  0.041032  1
  Sn  Sn21  1  0.815633  0.459174  0.458149  1
  Sn  Sn22  1  0.684528  0.957053  0.542797  1
  Sn  Sn23  1  0.182936  0.538964  0.957223  1
  Sn  Sn24  1  0.691899  0.961772  0.956139  1
  Sn  Sn25  1  0.184295  0.540695  0.542750  1
  Sn  Sn26  1  0.315439  0.042021  0.457911  1
  Sn  Sn27  1  0.816520  0.457106  0.040798  1
  Sn  Sn28  1  0.545975  0.626088  0.750910  1
  Sn  Sn29  1  0.047492  0.876136  0.750518  1
  Sn  Sn30  1  0.453566  0.373677  0.248867  1
  Sn  Sn31  1  0.952385  0.125730  0.250195  1
  Sn  Sn32  1  0.312789  0.141917  0.751209  1
  Sn  Sn33  1  0.817838  0.354893  0.751629  1
  Sn  Sn34  1  0.684681  0.857989  0.249704  1
  Sn  Sn35  1  0.184777  0.642578  0.249913  1
