# generated using pymatgen
data_SmDy(TcB4)2
_symmetry_space_group_name_H-M   'P 1'
_cell_length_a   3.62476300
_cell_length_b   5.99948353
_cell_length_c   11.61769428
_cell_angle_alpha   90.14697213
_cell_angle_beta   90.00000000
_cell_angle_gamma   90.00000000
_symmetry_Int_Tables_number   1
_chemical_formula_structural   SmDy(TcB4)2
_chemical_formula_sum   'Sm2 Dy2 Tc4 B16'
_cell_volume   252.64574953
_cell_formula_units_Z   2
loop_
 _symmetry_equiv_pos_site_id
 _symmetry_equiv_pos_as_xyz
  1  'x, y, z'
loop_
 _atom_site_type_symbol
 _atom_site_label
 _atom_site_symmetry_multiplicity
 _atom_site_fract_x
 _atom_site_fract_y
 _atom_site_fract_z
 _atom_site_occupancy
  Sm  Sm0  1  0.000000  0.127606  0.650563  1
  Sm  Sm1  1  0.000000  0.872394  0.349437  1
  Dy  Dy2  1  0.000000  0.627780  0.850526  1
  Dy  Dy3  1  0.000000  0.372220  0.149474  1
  Tc  Tc4  1  0.000000  0.133731  0.913498  1
  Tc  Tc5  1  0.000000  0.866269  0.086502  1
  Tc  Tc6  1  0.000000  0.632345  0.587838  1
  Tc  Tc7  1  0.000000  0.367655  0.412162  1
  B  B8  1  0.500000  0.478495  0.692603  1
  B  B9  1  0.500000  0.521505  0.307397  1
  B  B10  1  0.500000  0.976285  0.809313  1
  B  B11  1  0.500000  0.023715  0.190687  1
  B  B12  1  0.500000  0.287863  0.816486  1
  B  B13  1  0.500000  0.712137  0.183514  1
  B  B14  1  0.500000  0.785443  0.685618  1
  B  B15  1  0.500000  0.214557  0.314382  1
  B  B16  1  0.500000  0.363901  0.968737  1
  B  B17  1  0.500000  0.636099  0.031263  1
  B  B18  1  0.500000  0.862133  0.531986  1
  B  B19  1  0.500000  0.137867  0.468014  1
  B  B20  1  0.500000  0.388203  0.546751  1
  B  B21  1  0.500000  0.611797  0.453249  1
  B  B22  1  0.500000  0.886422  0.953188  1
  B  B23  1  0.500000  0.113578  0.046812  1
