# generated using pymatgen
data_Dy3Y13Cd4(OsPd)2
_symmetry_space_group_name_H-M   'P 1'
_cell_length_a   9.69812243
_cell_length_b   9.70282122
_cell_length_c   9.81881203
_cell_angle_alpha   59.60926516
_cell_angle_beta   59.59280037
_cell_angle_gamma   59.18859346
_symmetry_Int_Tables_number   1
_chemical_formula_structural   Dy3Y13Cd4(OsPd)2
_chemical_formula_sum   'Dy3 Y13 Cd4 Os2 Pd2'
_cell_volume   645.33043052
_cell_formula_units_Z   1
loop_
 _symmetry_equiv_pos_site_id
 _symmetry_equiv_pos_as_xyz
  1  'x, y, z'
loop_
 _atom_site_type_symbol
 _atom_site_label
 _atom_site_symmetry_multiplicity
 _atom_site_fract_x
 _atom_site_fract_y
 _atom_site_fract_z
 _atom_site_occupancy
  Dy  Dy0  1  0.350058  0.350183  0.354077  1
  Dy  Dy1  1  0.350037  0.350136  0.945718  1
  Dy  Dy2  1  0.344700  0.955489  0.349881  1
  Y  Y3  1  0.953739  0.345303  0.350489  1
  Y  Y4  1  0.816242  0.186631  0.190812  1
  Y  Y5  1  0.186664  0.815783  0.806277  1
  Y  Y6  1  0.186663  0.815786  0.191271  1
  Y  Y7  1  0.816248  0.186609  0.806325  1
  Y  Y8  1  0.188251  0.188090  0.811825  1
  Y  Y9  1  0.808419  0.808791  0.191384  1
  Y  Y10  1  0.937657  0.557004  0.567537  1
  Y  Y11  1  0.556222  0.937970  0.938434  1
  Y  Y12  1  0.556206  0.937989  0.567335  1
  Y  Y13  1  0.937651  0.557007  0.937793  1
  Y  Y14  1  0.563224  0.563279  0.936735  1
  Y  Y15  1  0.938405  0.938090  0.561748  1
  Cd  Cd16  1  0.579968  0.579987  0.580714  1
  Cd  Cd17  1  0.579946  0.579978  0.259366  1
  Cd  Cd18  1  0.580925  0.255539  0.581784  1
  Cd  Cd19  1  0.255780  0.580927  0.581666  1
  Os  Os20  1  0.147326  0.145553  0.136502  1
  Os  Os21  1  0.147384  0.145539  0.570604  1
  Pd  Pd22  1  0.147833  0.571009  0.140598  1
  Pd  Pd23  1  0.570454  0.147327  0.141127  1
