# generated using pymatgen
data_Ho2PaGa6(Co2Cu)3
_symmetry_space_group_name_H-M   'P 1'
_cell_length_a   8.85319100
_cell_length_b   8.85318962
_cell_length_c   4.01178700
_cell_angle_alpha   90.00000000
_cell_angle_beta   90.00000000
_cell_angle_gamma   120.00000144
_symmetry_Int_Tables_number   1
_chemical_formula_structural   Ho2PaGa6(Co2Cu)3
_chemical_formula_sum   'Ho2 Pa1 Ga6 Co6 Cu3'
_cell_volume   272.31282267
_cell_formula_units_Z   1
loop_
 _symmetry_equiv_pos_site_id
 _symmetry_equiv_pos_as_xyz
  1  'x, y, z'
loop_
 _atom_site_type_symbol
 _atom_site_label
 _atom_site_symmetry_multiplicity
 _atom_site_fract_x
 _atom_site_fract_y
 _atom_site_fract_z
 _atom_site_occupancy
  Ho  Ho0  1  0.666667  0.333333  0.500000  1
  Ho  Ho1  1  0.333333  0.666667  0.500000  1
  Pa  Pa2  1  0.000000  0.000000  0.000000  1
  Ga  Ga3  1  0.685909  0.685909  0.500000  1
  Ga  Ga4  1  0.314091  0.000000  0.500000  1
  Ga  Ga5  1  0.000000  0.314091  0.500000  1
  Ga  Ga6  1  0.314091  0.314091  0.500000  1
  Ga  Ga7  1  0.685909  0.000000  0.500000  1
  Ga  Ga8  1  0.000000  0.685909  0.500000  1
  Co  Co9  1  0.830394  0.169606  0.000000  1
  Co  Co10  1  0.830394  0.660787  0.000000  1
  Co  Co11  1  0.339213  0.169606  0.000000  1
  Co  Co12  1  0.169606  0.830394  0.000000  1
  Co  Co13  1  0.660787  0.830394  0.000000  1
  Co  Co14  1  0.169606  0.339213  0.000000  1
  Cu  Cu15  1  0.500000  0.500000  0.000000  1
  Cu  Cu16  1  0.500000  0.000000  0.000000  1
  Cu  Cu17  1  0.000000  0.500000  0.000000  1
