# generated using pymatgen
data_La4Pr5Sm(Al2Ru3)2
_symmetry_space_group_name_H-M   'P 1'
_cell_length_a   8.54481087
_cell_length_b   8.62019144
_cell_length_c   8.61667583
_cell_angle_alpha   109.30900403
_cell_angle_beta   109.10339402
_cell_angle_gamma   109.41161762
_symmetry_Int_Tables_number   1
_chemical_formula_structural   La4Pr5Sm(Al2Ru3)2
_chemical_formula_sum   'La4 Pr5 Sm1 Al4 Ru6'
_cell_volume   492.10227018
_cell_formula_units_Z   1
loop_
 _symmetry_equiv_pos_site_id
 _symmetry_equiv_pos_as_xyz
  1  'x, y, z'
loop_
 _atom_site_type_symbol
 _atom_site_label
 _atom_site_symmetry_multiplicity
 _atom_site_fract_x
 _atom_site_fract_y
 _atom_site_fract_z
 _atom_site_occupancy
  La  La0  1  0.252309  0.689975  0.441488  1
  La  La1  1  0.752398  0.812831  0.060257  1
  La  La2  1  0.440727  0.249437  0.689214  1
  La  La3  1  0.692233  0.441112  0.252645  1
  Pr  Pr4  1  0.816388  0.063069  0.750490  1
  Pr  Pr5  1  0.216170  0.217064  0.214148  1
  Pr  Pr6  1  0.499121  0.996423  0.282509  1
  Pr  Pr7  1  0.285287  0.501374  0.998888  1
  Pr  Pr8  1  0.999730  0.286099  0.503935  1
  Sm  Sm9  1  0.066010  0.750949  0.816304  1
  Al  Al10  1  0.592694  0.590045  0.590974  1
  Al  Al11  1  0.498335  0.001613  0.913125  1
  Al  Al12  1  0.914521  0.499161  0.998486  1
  Al  Al13  1  0.999649  0.911120  0.500478  1
  Ru  Ru14  1  0.247811  0.118653  0.858380  1
  Ru  Ru15  1  0.741009  0.377487  0.635213  1
  Ru  Ru16  1  0.861219  0.254539  0.122898  1
  Ru  Ru17  1  0.111270  0.861522  0.243938  1
  Ru  Ru18  1  0.630386  0.738168  0.376320  1
  Ru  Ru19  1  0.382731  0.639363  0.750309  1
