# generated using pymatgen
data_Tb3TlBi2(SbO7)2
_symmetry_space_group_name_H-M   'P 1'
_cell_length_a   6.69524075
_cell_length_b   6.49967112
_cell_length_c   7.69082000
_cell_angle_alpha   90.00000000
_cell_angle_beta   90.00000000
_cell_angle_gamma   109.11453270
_symmetry_Int_Tables_number   1
_chemical_formula_structural   Tb3TlBi2(SbO7)2
_chemical_formula_sum   'Tb3 Tl1 Bi2 Sb2 O14'
_cell_volume   316.22805432
_cell_formula_units_Z   1
loop_
 _symmetry_equiv_pos_site_id
 _symmetry_equiv_pos_as_xyz
  1  'x, y, z'
loop_
 _atom_site_type_symbol
 _atom_site_label
 _atom_site_symmetry_multiplicity
 _atom_site_fract_x
 _atom_site_fract_y
 _atom_site_fract_z
 _atom_site_occupancy
  Tb  Tb0  1  0.006716  0.526166  0.250000  1
  Tb  Tb1  1  0.463486  0.010976  0.250000  1
  Tb  Tb2  1  0.002483  0.448232  0.750000  1
  Tl  Tl3  1  0.490237  0.005139  0.750000  1
  Bi  Bi4  1  0.537857  0.541794  0.493156  1
  Bi  Bi5  1  0.537857  0.541794  0.006844  1
  Sb  Sb6  1  0.998274  0.995539  0.498795  1
  Sb  Sb7  1  0.998274  0.995539  0.001205  1
  O  O8  1  0.683723  0.919699  0.462757  1
  O  O9  1  0.925383  0.672403  0.533829  1
  O  O10  1  0.683723  0.919699  0.037243  1
  O  O11  1  0.925383  0.672403  0.966171  1
  O  O12  1  0.310948  0.061356  0.510891  1
  O  O13  1  0.038324  0.307708  0.468516  1
  O  O14  1  0.310948  0.061356  0.989109  1
  O  O15  1  0.038324  0.307708  0.031484  1
  O  O16  1  0.969809  0.069230  0.750000  1
  O  O17  1  0.057500  0.918077  0.250000  1
  O  O18  1  0.366305  0.654978  0.750000  1
  O  O19  1  0.644578  0.381455  0.250000  1
  O  O20  1  0.647820  0.345162  0.750000  1
  O  O21  1  0.362050  0.643588  0.250000  1
