# generated using pymatgen
data_YbDyTiSbO7
_symmetry_space_group_name_H-M   'P 1'
_cell_length_a   7.28137900
_cell_length_b   7.28137900
_cell_length_c   10.27395200
_cell_angle_alpha   90.00000000
_cell_angle_beta   90.00000000
_cell_angle_gamma   90.00000000
_symmetry_Int_Tables_number   1
_chemical_formula_structural   YbDyTiSbO7
_chemical_formula_sum   'Yb4 Dy4 Ti4 Sb4 O28'
_cell_volume   544.70932009
_cell_formula_units_Z   4
loop_
 _symmetry_equiv_pos_site_id
 _symmetry_equiv_pos_as_xyz
  1  'x, y, z'
loop_
 _atom_site_type_symbol
 _atom_site_label
 _atom_site_symmetry_multiplicity
 _atom_site_fract_x
 _atom_site_fract_y
 _atom_site_fract_z
 _atom_site_occupancy
  Yb  Yb0  1  0.000000  0.752757  0.000000  1
  Yb  Yb1  1  0.752757  0.000000  0.750000  1
  Yb  Yb2  1  0.000000  0.247243  0.500000  1
  Yb  Yb3  1  0.247243  0.000000  0.250000  1
  Dy  Dy4  1  0.500000  0.236143  0.500000  1
  Dy  Dy5  1  0.500000  0.763857  0.000000  1
  Dy  Dy6  1  0.763857  0.500000  0.750000  1
  Dy  Dy7  1  0.236143  0.500000  0.250000  1
  Ti  Ti8  1  0.761039  0.000000  0.250000  1
  Ti  Ti9  1  0.000000  0.761039  0.500000  1
  Ti  Ti10  1  0.000000  0.238961  0.000000  1
  Ti  Ti11  1  0.238961  0.000000  0.750000  1
  Sb  Sb12  1  0.244785  0.500000  0.750000  1
  Sb  Sb13  1  0.500000  0.755215  0.500000  1
  Sb  Sb14  1  0.500000  0.244785  0.000000  1
  Sb  Sb15  1  0.755215  0.500000  0.250000  1
  O  O16  1  0.255027  0.744973  0.125000  1
  O  O17  1  0.549531  0.957289  0.375994  1
  O  O18  1  0.750889  0.744006  0.576994  1
  O  O19  1  0.744973  0.255027  0.625000  1
  O  O20  1  0.744006  0.750889  0.173006  1
  O  O21  1  0.944763  0.944763  0.375000  1
  O  O22  1  0.055237  0.055237  0.875000  1
  O  O23  1  0.055237  0.944763  0.625000  1
  O  O24  1  0.042711  0.450469  0.874006  1
  O  O25  1  0.249111  0.255994  0.076994  1
  O  O26  1  0.249111  0.744006  0.423006  1
  O  O27  1  0.255994  0.750889  0.826994  1
  O  O28  1  0.255994  0.249111  0.673006  1
  O  O29  1  0.450469  0.042711  0.875994  1
  O  O30  1  0.450469  0.957289  0.624006  1
  O  O31  1  0.455060  0.455060  0.875000  1
  O  O32  1  0.544940  0.544940  0.375000  1
  O  O33  1  0.549531  0.042711  0.124006  1
  O  O34  1  0.544940  0.455060  0.125000  1
  O  O35  1  0.744006  0.249111  0.326994  1
  O  O36  1  0.750889  0.255994  0.923006  1
  O  O37  1  0.944763  0.055237  0.125000  1
  O  O38  1  0.957289  0.549531  0.374006  1
  O  O39  1  0.957289  0.450469  0.125994  1
  O  O40  1  0.042711  0.549531  0.625994  1
  O  O41  1  0.255027  0.255027  0.375000  1
  O  O42  1  0.455060  0.544940  0.625000  1
  O  O43  1  0.744973  0.744973  0.875000  1
