# generated using pymatgen
data_Dy2Ho3OsRu
_symmetry_space_group_name_H-M   'P 1'
_cell_length_a   6.34501005
_cell_length_b   7.28736207
_cell_length_c   8.43704109
_cell_angle_alpha   96.83130351
_cell_angle_beta   112.08744505
_cell_angle_gamma   90.00000043
_symmetry_Int_Tables_number   1
_chemical_formula_structural   Dy2Ho3OsRu
_chemical_formula_sum   'Dy4 Ho6 Os2 Ru2'
_cell_volume   358.49434575
_cell_formula_units_Z   2
loop_
 _symmetry_equiv_pos_site_id
 _symmetry_equiv_pos_as_xyz
  1  'x, y, z'
loop_
 _atom_site_type_symbol
 _atom_site_label
 _atom_site_symmetry_multiplicity
 _atom_site_fract_x
 _atom_site_fract_y
 _atom_site_fract_z
 _atom_site_occupancy
  Dy  Dy0  1  0.977930  0.916438  0.185611  1
  Dy  Dy1  1  0.792318  0.583562  0.814389  1
  Dy  Dy2  1  0.021852  0.084334  0.813114  1
  Dy  Dy3  1  0.208739  0.415666  0.186886  1
  Ho  Ho4  1  0.639890  0.815145  0.434767  1
  Ho  Ho5  1  0.205123  0.684855  0.565233  1
  Ho  Ho6  1  0.360255  0.184993  0.565644  1
  Ho  Ho7  1  0.794611  0.315007  0.434356  1
  Ho  Ho8  1  0.422547  0.750000  0.000000  1
  Ho  Ho9  1  0.578948  0.250000  0.000000  1
  Os  Os10  1  0.822367  0.575748  0.220450  1
  Os  Os11  1  0.601916  0.924252  0.779550  1
  Ru  Ru12  1  0.176314  0.423945  0.779126  1
  Ru  Ru13  1  0.397189  0.076055  0.220874  1
