# generated using pymatgen
data_Dy6Er10Cd4Ni3Ru
_symmetry_space_group_name_H-M   'P 1'
_cell_length_a   9.52799394
_cell_length_b   9.52799486
_cell_length_c   9.52799280
_cell_angle_alpha   59.70861170
_cell_angle_beta   59.70860874
_cell_angle_gamma   59.70860673
_symmetry_Int_Tables_number   1
_chemical_formula_structural   Dy6Er10Cd4Ni3Ru
_chemical_formula_sum   'Dy6 Er10 Cd4 Ni3 Ru1'
_cell_volume   607.58276918
_cell_formula_units_Z   1
loop_
 _symmetry_equiv_pos_site_id
 _symmetry_equiv_pos_as_xyz
  1  'x, y, z'
loop_
 _atom_site_type_symbol
 _atom_site_label
 _atom_site_symmetry_multiplicity
 _atom_site_fract_x
 _atom_site_fract_y
 _atom_site_fract_z
 _atom_site_occupancy
  Dy  Dy0  1  0.185955  0.815649  0.815649  1
  Dy  Dy1  1  0.808605  0.188909  0.188909  1
  Dy  Dy2  1  0.815649  0.185955  0.815649  1
  Dy  Dy3  1  0.188909  0.808605  0.188909  1
  Dy  Dy4  1  0.815649  0.815649  0.185955  1
  Dy  Dy5  1  0.188909  0.188909  0.808605  1
  Er  Er6  1  0.596938  0.596938  0.596938  1
  Er  Er7  1  0.600946  0.600946  0.204933  1
  Er  Er8  1  0.600946  0.204933  0.600946  1
  Er  Er9  1  0.204933  0.600946  0.600946  1
  Er  Er10  1  0.061107  0.437439  0.437439  1
  Er  Er11  1  0.435927  0.061907  0.061907  1
  Er  Er12  1  0.437439  0.061107  0.437439  1
  Er  Er13  1  0.061907  0.435927  0.061907  1
  Er  Er14  1  0.437439  0.437439  0.061107  1
  Er  Er15  1  0.061907  0.061907  0.435927  1
  Cd  Cd16  1  0.829634  0.829634  0.829634  1
  Cd  Cd17  1  0.829504  0.829504  0.506276  1
  Cd  Cd18  1  0.829504  0.506276  0.829504  1
  Cd  Cd19  1  0.506276  0.829504  0.829504  1
  Ni  Ni20  1  0.391583  0.391583  0.825171  1
  Ni  Ni21  1  0.391583  0.825171  0.391583  1
  Ni  Ni22  1  0.825171  0.391583  0.391583  1
  Ru  Ru23  1  0.393582  0.393582  0.393582  1
