# generated using pymatgen
data_NaSb12Ru3Au
_symmetry_space_group_name_H-M   'P 1'
_cell_length_a   8.20668479
_cell_length_b   8.20971895
_cell_length_c   8.20668452
_cell_angle_alpha   109.47870610
_cell_angle_beta   109.46373203
_cell_angle_gamma   109.47870709
_symmetry_Int_Tables_number   1
_chemical_formula_structural   NaSb12Ru3Au
_chemical_formula_sum   'Na1 Sb12 Ru3 Au1'
_cell_volume   425.60014552
_cell_formula_units_Z   1
loop_
 _symmetry_equiv_pos_site_id
 _symmetry_equiv_pos_as_xyz
  1  'x, y, z'
loop_
 _atom_site_type_symbol
 _atom_site_label
 _atom_site_symmetry_multiplicity
 _atom_site_fract_x
 _atom_site_fract_y
 _atom_site_fract_z
 _atom_site_occupancy
  Na  Na0  1  0.000000  0.000000  0.000000  1
  Sb  Sb1  1  0.161180  0.498791  0.356985  1
  Sb  Sb2  1  0.506268  0.665133  0.842445  1
  Sb  Sb3  1  0.356985  0.858194  0.195806  1
  Sb  Sb4  1  0.804194  0.662389  0.161180  1
  Sb  Sb5  1  0.663823  0.841135  0.506268  1
  Sb  Sb6  1  0.195806  0.337611  0.838820  1
  Sb  Sb7  1  0.643015  0.141806  0.804194  1
  Sb  Sb8  1  0.336177  0.158865  0.493732  1
  Sb  Sb9  1  0.493732  0.334867  0.157555  1
  Sb  Sb10  1  0.838820  0.501209  0.643015  1
  Sb  Sb11  1  0.842445  0.177313  0.336177  1
  Sb  Sb12  1  0.157555  0.822687  0.663823  1
  Ru  Ru13  1  0.500000  0.500000  0.500000  1
  Ru  Ru14  1  0.500000  0.000000  0.000000  1
  Ru  Ru15  1  0.000000  0.000000  0.500000  1
  Au  Au16  1  0.000000  0.500000  0.000000  1
