# generated using pymatgen
data_LiPr2(DySi2)2
_symmetry_space_group_name_H-M   'P 1'
_cell_length_a   7.26307900
_cell_length_b   7.78770400
_cell_length_c   14.89546800
_cell_angle_alpha   90.00000000
_cell_angle_beta   90.00000000
_cell_angle_gamma   90.00000000
_symmetry_Int_Tables_number   1
_chemical_formula_structural   LiPr2(DySi2)2
_chemical_formula_sum   'Li4 Pr8 Dy8 Si16'
_cell_volume   842.52802757
_cell_formula_units_Z   4
loop_
 _symmetry_equiv_pos_site_id
 _symmetry_equiv_pos_as_xyz
  1  'x, y, z'
loop_
 _atom_site_type_symbol
 _atom_site_label
 _atom_site_symmetry_multiplicity
 _atom_site_fract_x
 _atom_site_fract_y
 _atom_site_fract_z
 _atom_site_occupancy
  Li  Li0  1  0.654802  0.985814  0.750000  1
  Li  Li1  1  0.845198  0.485814  0.250000  1
  Li  Li2  1  0.345198  0.014186  0.250000  1
  Li  Li3  1  0.154802  0.514186  0.750000  1
  Pr  Pr4  1  0.023932  0.185852  0.397336  1
  Pr  Pr5  1  0.523932  0.314148  0.397336  1
  Pr  Pr6  1  0.476068  0.685852  0.897336  1
  Pr  Pr7  1  0.476068  0.685852  0.602664  1
  Pr  Pr8  1  0.976068  0.814148  0.602664  1
  Pr  Pr9  1  0.976068  0.814148  0.897336  1
  Pr  Pr10  1  0.523932  0.314148  0.102664  1
  Pr  Pr11  1  0.023932  0.185852  0.102664  1
  Dy  Dy12  1  0.326023  0.181209  0.626732  1
  Dy  Dy13  1  0.673977  0.818791  0.373268  1
  Dy  Dy14  1  0.173977  0.681209  0.373268  1
  Dy  Dy15  1  0.826023  0.318791  0.873268  1
  Dy  Dy16  1  0.826023  0.318791  0.626732  1
  Dy  Dy17  1  0.326023  0.181209  0.873268  1
  Dy  Dy18  1  0.173977  0.681209  0.126732  1
  Dy  Dy19  1  0.673977  0.818791  0.126732  1
  Si  Si20  1  0.271003  0.884123  0.750000  1
  Si  Si21  1  0.473861  0.594345  0.250000  1
  Si  Si22  1  0.026139  0.094345  0.750000  1
  Si  Si23  1  0.526139  0.405655  0.750000  1
  Si  Si24  1  0.149284  0.465571  0.534711  1
  Si  Si25  1  0.973861  0.905655  0.250000  1
  Si  Si26  1  0.728997  0.115877  0.250000  1
  Si  Si27  1  0.850716  0.534429  0.034711  1
  Si  Si28  1  0.350716  0.965571  0.034711  1
  Si  Si29  1  0.149284  0.465571  0.965289  1
  Si  Si30  1  0.649284  0.034429  0.534711  1
  Si  Si31  1  0.350716  0.965571  0.465289  1
  Si  Si32  1  0.850716  0.534429  0.465289  1
  Si  Si33  1  0.771003  0.615877  0.750000  1
  Si  Si34  1  0.228997  0.384123  0.250000  1
  Si  Si35  1  0.649284  0.034429  0.965289  1
