# generated using pymatgen
data_Ti15P12W
_symmetry_space_group_name_H-M   'P 1'
_cell_length_a   7.11168702
_cell_length_b   7.11168692
_cell_length_c   18.26851754
_cell_angle_alpha   90.09489120
_cell_angle_beta   89.90510945
_cell_angle_gamma   152.43926675
_symmetry_Int_Tables_number   1
_chemical_formula_structural   Ti15P12W
_chemical_formula_sum   'Ti15 P12 W1'
_cell_volume   427.50059269
_cell_formula_units_Z   1
loop_
 _symmetry_equiv_pos_site_id
 _symmetry_equiv_pos_as_xyz
  1  'x, y, z'
loop_
 _atom_site_type_symbol
 _atom_site_label
 _atom_site_symmetry_multiplicity
 _atom_site_fract_x
 _atom_site_fract_y
 _atom_site_fract_z
 _atom_site_occupancy
  Ti  Ti0  1  0.734697  0.265303  0.162194  1
  Ti  Ti1  1  0.265303  0.734697  0.837806  1
  Ti  Ti2  1  0.266388  0.733612  0.660838  1
  Ti  Ti3  1  0.733612  0.266388  0.339162  1
  Ti  Ti4  1  0.535807  0.464193  0.121249  1
  Ti  Ti5  1  0.464193  0.535807  0.878751  1
  Ti  Ti6  1  0.465217  0.534783  0.618995  1
  Ti  Ti7  1  0.534783  0.465217  0.381005  1
  Ti  Ti8  1  0.665987  0.334013  0.972339  1
  Ti  Ti9  1  0.334013  0.665987  0.027661  1
  Ti  Ti10  1  0.335824  0.664176  0.472180  1
  Ti  Ti11  1  0.664176  0.335824  0.527820  1
  Ti  Ti12  1  0.000000  0.000000  0.000000  1
  Ti  Ti13  1  0.061575  0.938425  0.750269  1
  Ti  Ti14  1  0.938425  0.061575  0.249731  1
  P  P15  1  0.903151  0.096849  0.116303  1
  P  P16  1  0.096849  0.903151  0.883697  1
  P  P17  1  0.097791  0.902209  0.617835  1
  P  P18  1  0.902209  0.097791  0.382165  1
  P  P19  1  0.841224  0.158776  0.925202  1
  P  P20  1  0.158776  0.841224  0.074798  1
  P  P21  1  0.160019  0.839981  0.425301  1
  P  P22  1  0.839981  0.160019  0.574699  1
  P  P23  1  0.699667  0.300333  0.749709  1
  P  P24  1  0.300333  0.699667  0.250291  1
  P  P25  1  0.419692  0.580308  0.749727  1
  P  P26  1  0.580308  0.419692  0.250273  1
  W  W27  1  0.000000  0.000000  0.500000  1
