# generated using pymatgen
data_Ho3Er2Tm3(ReB6)4
_symmetry_space_group_name_H-M   'P 1'
_cell_length_a   3.65578000
_cell_length_b   9.12665900
_cell_length_c   11.50225100
_cell_angle_alpha   90.00040193
_cell_angle_beta   90.00000000
_cell_angle_gamma   90.00000000
_symmetry_Int_Tables_number   1
_chemical_formula_structural   Ho3Er2Tm3(ReB6)4
_chemical_formula_sum   'Ho3 Er2 Tm3 Re4 B24'
_cell_volume   383.77326548
_cell_formula_units_Z   1
loop_
 _symmetry_equiv_pos_site_id
 _symmetry_equiv_pos_as_xyz
  1  'x, y, z'
loop_
 _atom_site_type_symbol
 _atom_site_label
 _atom_site_symmetry_multiplicity
 _atom_site_fract_x
 _atom_site_fract_y
 _atom_site_fract_z
 _atom_site_occupancy
  Ho  Ho0  1  0.000000  0.323181  0.413893  1
  Ho  Ho1  1  0.000000  0.676734  0.586253  1
  Ho  Ho2  1  0.000000  0.823171  0.086011  1
  Er  Er3  1  0.000000  0.176749  0.913828  1
  Er  Er4  1  0.000000  0.943394  0.370349  1
  Tm  Tm5  1  0.000000  0.056797  0.630053  1
  Tm  Tm6  1  0.000000  0.443264  0.129550  1
  Tm  Tm7  1  0.000000  0.556673  0.870263  1
  Re  Re8  1  0.000000  0.638709  0.320301  1
  Re  Re9  1  0.000000  0.360828  0.679858  1
  Re  Re10  1  0.000000  0.139296  0.179143  1
  Re  Re11  1  0.000000  0.861091  0.820589  1
  B  B12  1  0.500000  0.553090  0.432933  1
  B  B13  1  0.500000  0.446574  0.567188  1
  B  B14  1  0.500000  0.053511  0.066736  1
  B  B15  1  0.500000  0.946865  0.932932  1
  B  B16  1  0.500000  0.749583  0.418703  1
  B  B17  1  0.500000  0.250015  0.581494  1
  B  B18  1  0.500000  0.250122  0.080932  1
  B  B19  1  0.500000  0.750008  0.918677  1
  B  B20  1  0.500000  0.792424  0.265208  1
  B  B21  1  0.500000  0.207216  0.734922  1
  B  B22  1  0.500000  0.292869  0.234429  1
  B  B23  1  0.500000  0.707295  0.765415  1
  B  B24  1  0.500000  0.630292  0.184900  1
  B  B25  1  0.500000  0.369422  0.815173  1
  B  B26  1  0.500000  0.130828  0.314731  1
  B  B27  1  0.500000  0.869598  0.685184  1
  B  B28  1  0.500000  0.982033  0.211960  1
  B  B29  1  0.500000  0.018428  0.787892  1
  B  B30  1  0.500000  0.481638  0.287595  1
  B  B31  1  0.500000  0.518169  0.712371  1
  B  B32  1  0.500000  0.598980  0.027561  1
  B  B33  1  0.500000  0.400779  0.972249  1
  B  B34  1  0.500000  0.099536  0.472649  1
  B  B35  1  0.500000  0.900838  0.528075  1
