# generated using pymatgen
data_LiNd(BIr)4
_symmetry_space_group_name_H-M   'P 1'
_cell_length_a   7.07598842
_cell_length_b   6.13615755
_cell_length_c   5.48369042
_cell_angle_alpha   74.79209273
_cell_angle_beta   56.80496903
_cell_angle_gamma   48.40295251
_symmetry_Int_Tables_number   1
_chemical_formula_structural   LiNd(BIr)4
_chemical_formula_sum   'Li1 Nd1 B4 Ir4'
_cell_volume   147.04153276
_cell_formula_units_Z   1
loop_
 _symmetry_equiv_pos_site_id
 _symmetry_equiv_pos_as_xyz
  1  'x, y, z'
loop_
 _atom_site_type_symbol
 _atom_site_label
 _atom_site_symmetry_multiplicity
 _atom_site_fract_x
 _atom_site_fract_y
 _atom_site_fract_z
 _atom_site_occupancy
  Li  Li0  1  0.500000  0.500000  0.500000  1
  Nd  Nd1  1  0.750000  0.750000  0.750000  1
  B  B2  1  0.181365  0.818635  0.181365  1
  B  B3  1  0.073495  0.426505  0.073495  1
  B  B4  1  0.818635  0.181365  0.818635  1
  B  B5  1  0.426505  0.073495  0.426505  1
  Ir  Ir6  1  0.872013  0.872013  0.127987  1
  Ir  Ir7  1  0.127987  0.127987  0.872013  1
  Ir  Ir8  1  0.382292  0.382292  0.117708  1
  Ir  Ir9  1  0.117708  0.117708  0.382292  1
