# generated using pymatgen
data_Ho3In3GePtRh
_symmetry_space_group_name_H-M   'P 1'
_cell_length_a   7.48367900
_cell_length_b   7.48367951
_cell_length_c   4.07994100
_cell_angle_alpha   90.00000000
_cell_angle_beta   90.00000000
_cell_angle_gamma   119.99999335
_symmetry_Int_Tables_number   1
_chemical_formula_structural   Ho3In3GePtRh
_chemical_formula_sum   'Ho3 In3 Ge1 Pt1 Rh1'
_cell_volume   197.88591106
_cell_formula_units_Z   1
loop_
 _symmetry_equiv_pos_site_id
 _symmetry_equiv_pos_as_xyz
  1  'x, y, z'
loop_
 _atom_site_type_symbol
 _atom_site_label
 _atom_site_symmetry_multiplicity
 _atom_site_fract_x
 _atom_site_fract_y
 _atom_site_fract_z
 _atom_site_occupancy
  Ho  Ho0  1  0.597417  0.007984  0.500000  1
  Ho  Ho1  1  0.410567  0.402583  0.500000  1
  Ho  Ho2  1  0.992016  0.589433  0.500000  1
  In  In3  1  0.751379  0.745290  0.000000  1
  In  In4  1  0.993911  0.248621  0.000000  1
  In  In5  1  0.254710  0.006089  0.000000  1
  Ge  Ge6  1  0.333333  0.666667  0.000000  1
  Pt  Pt7  1  0.666667  0.333333  0.000000  1
  Rh  Rh8  1  0.000000  0.000000  0.500000  1
