# generated using pymatgen
data_AcTm(AlZn)2
_symmetry_space_group_name_H-M   'P 1'
_cell_length_a   4.54362100
_cell_length_b   4.54362057
_cell_length_c   7.78853400
_cell_angle_alpha   90.00000000
_cell_angle_beta   90.00000000
_cell_angle_gamma   119.99999587
_symmetry_Int_Tables_number   1
_chemical_formula_structural   AcTm(AlZn)2
_chemical_formula_sum   'Ac1 Tm1 Al2 Zn2'
_cell_volume   139.24849973
_cell_formula_units_Z   1
loop_
 _symmetry_equiv_pos_site_id
 _symmetry_equiv_pos_as_xyz
  1  'x, y, z'
loop_
 _atom_site_type_symbol
 _atom_site_label
 _atom_site_symmetry_multiplicity
 _atom_site_fract_x
 _atom_site_fract_y
 _atom_site_fract_z
 _atom_site_occupancy
  Ac  Ac0  1  0.000000  0.000000  0.500000  1
  Tm  Tm1  1  0.000000  0.000000  0.000000  1
  Al  Al2  1  0.333333  0.666667  0.207151  1
  Al  Al3  1  0.666667  0.333333  0.792849  1
  Zn  Zn4  1  0.333333  0.666667  0.805867  1
  Zn  Zn5  1  0.666667  0.333333  0.194133  1
