# generated using pymatgen
data_SrLa2Pr4RhBr12
_symmetry_space_group_name_H-M   'P 1'
_cell_length_a   9.59211465
_cell_length_b   9.74028382
_cell_length_c   9.74581415
_cell_angle_alpha   106.42762787
_cell_angle_beta   106.52670502
_cell_angle_gamma   106.42153896
_symmetry_Int_Tables_number   1
_chemical_formula_structural   SrLa2Pr4RhBr12
_chemical_formula_sum   'Sr1 La2 Pr4 Rh1 Br12'
_cell_volume   769.23885704
_cell_formula_units_Z   1
loop_
 _symmetry_equiv_pos_site_id
 _symmetry_equiv_pos_as_xyz
  1  'x, y, z'
loop_
 _atom_site_type_symbol
 _atom_site_label
 _atom_site_symmetry_multiplicity
 _atom_site_fract_x
 _atom_site_fract_y
 _atom_site_fract_z
 _atom_site_occupancy
  Sr  Sr0  1  0.499821  0.500611  0.501911  1
  La  La1  1  0.108039  0.318815  0.020259  1
  La  La2  1  0.305992  0.020975  0.102852  1
  Pr  Pr3  1  0.020480  0.106023  0.316628  1
  Pr  Pr4  1  0.979413  0.891363  0.682149  1
  Pr  Pr5  1  0.697104  0.980316  0.896753  1
  Pr  Pr6  1  0.891202  0.684663  0.978746  1
  Rh  Rh7  1  0.004419  0.000931  0.000734  1
  Br  Br8  1  0.214680  0.680096  0.071880  1
  Br  Br9  1  0.455811  0.371968  0.159357  1
  Br  Br10  1  0.680247  0.070122  0.213385  1
  Br  Br11  1  0.927030  0.783012  0.316628  1
  Br  Br12  1  0.151719  0.449595  0.368641  1
  Br  Br13  1  0.367936  0.155318  0.452524  1
  Br  Br14  1  0.631965  0.845475  0.549872  1
  Br  Br15  1  0.847336  0.549016  0.634296  1
  Br  Br16  1  0.070358  0.213120  0.679528  1
  Br  Br17  1  0.319708  0.927618  0.782499  1
  Br  Br18  1  0.547177  0.633259  0.844727  1
  Br  Br19  1  0.779567  0.317705  0.926635  1
