# generated using pymatgen
data_Lu16Ga6FePt
_symmetry_space_group_name_H-M   'P 1'
_cell_length_a   9.88239100
_cell_length_b   9.88217028
_cell_length_c   6.78917100
_cell_angle_alpha   89.99860271
_cell_angle_beta   90.00025510
_cell_angle_gamma   119.99953043
_symmetry_Int_Tables_number   1
_chemical_formula_structural   Lu16Ga6FePt
_chemical_formula_sum   'Lu16 Ga6 Fe1 Pt1'
_cell_volume   574.20080876
_cell_formula_units_Z   1
loop_
 _symmetry_equiv_pos_site_id
 _symmetry_equiv_pos_as_xyz
  1  'x, y, z'
loop_
 _atom_site_type_symbol
 _atom_site_label
 _atom_site_symmetry_multiplicity
 _atom_site_fract_x
 _atom_site_fract_y
 _atom_site_fract_z
 _atom_site_occupancy
  Lu  Lu0  1  0.170623  0.829370  0.510277  1
  Lu  Lu1  1  0.658936  0.829461  0.510275  1
  Lu  Lu2  1  0.170575  0.341203  0.510256  1
  Lu  Lu3  1  0.826746  0.173369  0.006659  1
  Lu  Lu4  1  0.346369  0.173223  0.006557  1
  Lu  Lu5  1  0.826819  0.653692  0.006629  1
  Lu  Lu6  1  0.333404  0.666718  0.841646  1
  Lu  Lu7  1  0.666679  0.333462  0.329267  1
  Lu  Lu8  1  0.470033  0.530065  0.204405  1
  Lu  Lu9  1  0.060251  0.530133  0.204437  1
  Lu  Lu10  1  0.469948  0.939784  0.204474  1
  Lu  Lu11  1  0.537521  0.462636  0.707554  1
  Lu  Lu12  1  0.924853  0.462514  0.707582  1
  Lu  Lu13  1  0.537520  0.075130  0.707490  1
  Lu  Lu14  1  0.000073  0.000034  0.232657  1
  Lu  Lu15  1  0.000087  0.000028  0.734642  1
  Ga  Ga16  1  0.163292  0.836512  0.961905  1
  Ga  Ga17  1  0.673288  0.836504  0.961926  1
  Ga  Ga18  1  0.163122  0.326335  0.961814  1
  Ga  Ga19  1  0.836459  0.163173  0.458948  1
  Ga  Ga20  1  0.326808  0.163305  0.458834  1
  Ga  Ga21  1  0.836403  0.672831  0.458959  1
  Fe  Fe22  1  0.666613  0.333835  0.945644  1
  Pt  Pt23  1  0.333578  0.666684  0.441997  1
