# generated using pymatgen
data_TmTh(FeBr)2
_symmetry_space_group_name_H-M   'P 1'
_cell_length_a   3.96361000
_cell_length_b   3.96361004
_cell_length_c   11.53414700
_cell_angle_alpha   90.00000000
_cell_angle_beta   90.00000000
_cell_angle_gamma   119.99999964
_symmetry_Int_Tables_number   1
_chemical_formula_structural   TmTh(FeBr)2
_chemical_formula_sum   'Tm1 Th1 Fe2 Br2'
_cell_volume   156.92710066
_cell_formula_units_Z   1
loop_
 _symmetry_equiv_pos_site_id
 _symmetry_equiv_pos_as_xyz
  1  'x, y, z'
loop_
 _atom_site_type_symbol
 _atom_site_label
 _atom_site_symmetry_multiplicity
 _atom_site_fract_x
 _atom_site_fract_y
 _atom_site_fract_z
 _atom_site_occupancy
  Tm  Tm0  1  0.000000  0.000000  0.833834  1
  Th  Th1  1  0.000000  0.000000  0.156387  1
  Fe  Fe2  1  0.666668  0.333334  0.004033  1
  Fe  Fe3  1  0.333334  0.666668  0.991150  1
  Br  Br4  1  0.333334  0.666668  0.342435  1
  Br  Br5  1  0.666668  0.333334  0.672161  1
