# generated using pymatgen
data_Tm3Pa(Ni2Ag)2
_symmetry_space_group_name_H-M   'P 1'
_cell_length_a   7.30633686
_cell_length_b   7.30633720
_cell_length_c   3.48970800
_cell_angle_alpha   90.00000000
_cell_angle_beta   90.00000000
_cell_angle_gamma   92.12075366
_symmetry_Int_Tables_number   1
_chemical_formula_structural   Tm3Pa(Ni2Ag)2
_chemical_formula_sum   'Tm3 Pa1 Ni4 Ag2'
_cell_volume   186.16195159
_cell_formula_units_Z   1
loop_
 _symmetry_equiv_pos_site_id
 _symmetry_equiv_pos_as_xyz
  1  'x, y, z'
loop_
 _atom_site_type_symbol
 _atom_site_label
 _atom_site_symmetry_multiplicity
 _atom_site_fract_x
 _atom_site_fract_y
 _atom_site_fract_z
 _atom_site_occupancy
  Tm  Tm0  1  0.324173  0.824173  0.500000  1
  Tm  Tm1  1  0.173390  0.327059  0.500000  1
  Tm  Tm2  1  0.827059  0.673390  0.500000  1
  Pa  Pa3  1  0.671407  0.171407  0.500000  1
  Ni  Ni4  1  0.863151  0.363151  0.000000  1
  Ni  Ni5  1  0.115552  0.615552  0.000000  1
  Ni  Ni6  1  0.391153  0.130380  0.000000  1
  Ni  Ni7  1  0.630380  0.891153  0.000000  1
  Ag  Ag8  1  0.494470  0.509264  0.000000  1
  Ag  Ag9  1  0.009264  0.994470  0.000000  1
