# generated using pymatgen
data_Hg6Bi2(PCl3)3
_symmetry_space_group_name_H-M   'P 1'
_cell_length_a   10.79214774
_cell_length_b   11.13397300
_cell_length_c   11.28764700
_cell_angle_alpha   90.00000000
_cell_angle_beta   116.42906722
_cell_angle_gamma   90.00000000
_symmetry_Int_Tables_number   1
_chemical_formula_structural   Hg6Bi2(PCl3)3
_chemical_formula_sum   'Hg12 Bi4 P6 Cl18'
_cell_volume   1214.56371083
_cell_formula_units_Z   2
loop_
 _symmetry_equiv_pos_site_id
 _symmetry_equiv_pos_as_xyz
  1  'x, y, z'
loop_
 _atom_site_type_symbol
 _atom_site_label
 _atom_site_symmetry_multiplicity
 _atom_site_fract_x
 _atom_site_fract_y
 _atom_site_fract_z
 _atom_site_occupancy
  Hg  Hg0  1  0.828431  0.518400  0.005307  1
  Hg  Hg1  1  0.132983  0.278313  0.223619  1
  Hg  Hg2  1  0.513235  0.188879  0.330575  1
  Hg  Hg3  1  0.854007  0.358632  0.348632  1
  Hg  Hg4  1  0.118610  0.615666  0.370096  1
  Hg  Hg5  1  0.275630  0.943748  0.378222  1
  Hg  Hg6  1  0.724368  0.443749  0.621778  1
  Hg  Hg7  1  0.881392  0.115667  0.629905  1
  Hg  Hg8  1  0.145993  0.858633  0.651369  1
  Hg  Hg9  1  0.486765  0.688879  0.669425  1
  Hg  Hg10  1  0.867018  0.778314  0.776380  1
  Hg  Hg11  1  0.171570  0.018400  0.994694  1
  Bi  Bi12  1  0.356626  0.620960  0.085396  1
  Bi  Bi13  1  0.697935  0.757529  0.333373  1
  Bi  Bi14  1  0.302065  0.257528  0.666626  1
  Bi  Bi15  1  0.643374  0.120960  0.914604  1
  P  P16  1  0.276035  0.102299  0.223600  1
  P  P17  1  0.981674  0.444071  0.231755  1
  P  P18  1  0.739747  0.279071  0.480341  1
  P  P19  1  0.260254  0.779072  0.519659  1
  P  P20  1  0.018326  0.944070  0.768245  1
  P  P21  1  0.723965  0.602299  0.776401  1
  Cl  Cl22  1  0.125868  0.714372  0.082832  1
  Cl  Cl23  1  0.302761  0.390872  0.096974  1
  Cl  Cl24  1  0.465048  0.857419  0.123578  1
  Cl  Cl25  1  0.638816  0.569534  0.147145  1
  Cl  Cl26  1  0.705684  0.145431  0.167895  1
  Cl  Cl27  1  0.895220  0.849715  0.290329  1
  Cl  Cl28  1  0.487801  0.623286  0.368857  1
  Cl  Cl29  1  0.110007  0.124016  0.473036  1
  Cl  Cl30  1  0.659150  0.916613  0.491246  1
  Cl  Cl31  1  0.340852  0.416613  0.508755  1
  Cl  Cl32  1  0.889993  0.624017  0.526963  1
  Cl  Cl33  1  0.512198  0.123286  0.631143  1
  Cl  Cl34  1  0.104780  0.349715  0.709671  1
  Cl  Cl35  1  0.294316  0.645432  0.832104  1
  Cl  Cl36  1  0.361184  0.069534  0.852856  1
  Cl  Cl37  1  0.534953  0.357420  0.876423  1
  Cl  Cl38  1  0.697238  0.890872  0.903025  1
  Cl  Cl39  1  0.874131  0.214372  0.917167  1
