# generated using pymatgen
data_Tb5Dy4Lu11Pt16
_symmetry_space_group_name_H-M   'P 1'
_cell_length_a   7.40171425
_cell_length_b   7.48934823
_cell_length_c   14.61143769
_cell_angle_alpha   90.01752044
_cell_angle_beta   90.12536891
_cell_angle_gamma   90.01547257
_symmetry_Int_Tables_number   1
_chemical_formula_structural   Tb5Dy4Lu11Pt16
_chemical_formula_sum   'Tb5 Dy4 Lu11 Pt16'
_cell_volume   809.96865735
_cell_formula_units_Z   1
loop_
 _symmetry_equiv_pos_site_id
 _symmetry_equiv_pos_as_xyz
  1  'x, y, z'
loop_
 _atom_site_type_symbol
 _atom_site_label
 _atom_site_symmetry_multiplicity
 _atom_site_fract_x
 _atom_site_fract_y
 _atom_site_fract_z
 _atom_site_occupancy
  Tb  Tb0  1  0.013338  0.172764  0.402873  1
  Tb  Tb1  1  0.511897  0.325117  0.405720  1
  Tb  Tb2  1  0.011307  0.175077  0.094274  1
  Tb  Tb3  1  0.488172  0.674009  0.906412  1
  Tb  Tb4  1  0.987100  0.825615  0.594745  1
  Dy  Dy5  1  0.144129  0.331224  0.620769  1
  Dy  Dy6  1  0.488656  0.677386  0.594703  1
  Dy  Dy7  1  0.988765  0.824644  0.906310  1
  Dy  Dy8  1  0.511733  0.324811  0.094574  1
  Lu  Lu9  1  0.644443  0.168040  0.622908  1
  Lu  Lu10  1  0.144924  0.331862  0.878029  1
  Lu  Lu11  1  0.355202  0.832179  0.122137  1
  Lu  Lu12  1  0.855037  0.668668  0.377179  1
  Lu  Lu13  1  0.357584  0.831785  0.376930  1
  Lu  Lu14  1  0.854774  0.668107  0.121941  1
  Lu  Lu15  1  0.645017  0.168161  0.878589  1
  Lu  Lu16  1  0.805795  0.509531  0.750893  1
  Lu  Lu17  1  0.307165  0.990419  0.751289  1
  Lu  Lu18  1  0.193073  0.491336  0.249584  1
  Lu  Lu19  1  0.693403  0.008821  0.249200  1
  Pt  Pt20  1  0.691317  0.968558  0.457789  1
  Pt  Pt21  1  0.189914  0.532593  0.042253  1
  Pt  Pt22  1  0.310519  0.032419  0.958199  1
  Pt  Pt23  1  0.805654  0.470818  0.541945  1
  Pt  Pt24  1  0.313570  0.027391  0.541885  1
  Pt  Pt25  1  0.811535  0.467570  0.958298  1
  Pt  Pt26  1  0.689018  0.967904  0.042396  1
  Pt  Pt27  1  0.189050  0.534541  0.455430  1
  Pt  Pt28  1  0.440578  0.380767  0.751101  1
  Pt  Pt29  1  0.938735  0.117693  0.751714  1
  Pt  Pt30  1  0.559781  0.619799  0.249380  1
  Pt  Pt31  1  0.060769  0.880031  0.249227  1
  Pt  Pt32  1  0.667388  0.858488  0.751128  1
  Pt  Pt33  1  0.167659  0.641665  0.751588  1
  Pt  Pt34  1  0.332485  0.140912  0.249396  1
  Pt  Pt35  1  0.830516  0.359301  0.249212  1
