# generated using pymatgen
data_Er4Al18Co4CuPd
_symmetry_space_group_name_H-M   'P 1'
_cell_length_a   7.43112643
_cell_length_b   7.43117301
_cell_length_c   9.23804684
_cell_angle_alpha   90.12572115
_cell_angle_beta   90.12578062
_cell_angle_gamma   119.21014960
_symmetry_Int_Tables_number   1
_chemical_formula_structural   Er4Al18Co4CuPd
_chemical_formula_sum   'Er4 Al18 Co4 Cu1 Pd1'
_cell_volume   445.26706130
_cell_formula_units_Z   1
loop_
 _symmetry_equiv_pos_site_id
 _symmetry_equiv_pos_as_xyz
  1  'x, y, z'
loop_
 _atom_site_type_symbol
 _atom_site_label
 _atom_site_symmetry_multiplicity
 _atom_site_fract_x
 _atom_site_fract_y
 _atom_site_fract_z
 _atom_site_occupancy
  Er  Er0  1  0.996067  0.679620  0.249080  1
  Er  Er1  1  0.003933  0.320380  0.750920  1
  Er  Er2  1  0.679612  0.996057  0.249060  1
  Er  Er3  1  0.320388  0.003943  0.750940  1
  Al  Al4  1  0.139957  0.139957  0.248472  1
  Al  Al5  1  0.860043  0.860043  0.751528  1
  Al  Al6  1  0.998718  0.344332  0.074546  1
  Al  Al7  1  0.001282  0.655668  0.925454  1
  Al  Al8  1  0.001522  0.655310  0.574124  1
  Al  Al9  1  0.344691  0.998477  0.425875  1
  Al  Al10  1  0.998478  0.344690  0.425876  1
  Al  Al11  1  0.655309  0.001523  0.574125  1
  Al  Al12  1  0.655670  0.001283  0.925452  1
  Al  Al13  1  0.344330  0.998717  0.074548  1
  Al  Al14  1  0.339546  0.339545  0.548275  1
  Al  Al15  1  0.660454  0.660455  0.451725  1
  Al  Al16  1  0.661755  0.661755  0.048151  1
  Al  Al17  1  0.338245  0.338245  0.951849  1
  Al  Al18  1  0.340597  0.561425  0.250002  1
  Al  Al19  1  0.659403  0.438575  0.749998  1
  Al  Al20  1  0.561425  0.340599  0.250003  1
  Al  Al21  1  0.438575  0.659401  0.749997  1
  Co  Co22  1  0.671514  0.328489  0.999999  1
  Co  Co23  1  0.328486  0.671511  0.000001  1
  Co  Co24  1  0.328562  0.671426  0.500002  1
  Co  Co25  1  0.671438  0.328574  0.499998  1
  Cu  Cu26  1  0.000000  0.000000  0.000000  1
  Pd  Pd27  1  0.000000  0.000000  0.500000  1
