# generated using pymatgen
data_ErScB6W
_symmetry_space_group_name_H-M   'P 1'
_cell_length_a   3.49069000
_cell_length_b   9.15561300
_cell_length_c   11.53319600
_cell_angle_alpha   90.00000000
_cell_angle_beta   90.00000000
_cell_angle_gamma   90.00000000
_symmetry_Int_Tables_number   1
_chemical_formula_structural   ErScB6W
_chemical_formula_sum   'Er4 Sc4 B24 W4'
_cell_volume   368.59410201
_cell_formula_units_Z   4
loop_
 _symmetry_equiv_pos_site_id
 _symmetry_equiv_pos_as_xyz
  1  'x, y, z'
loop_
 _atom_site_type_symbol
 _atom_site_label
 _atom_site_symmetry_multiplicity
 _atom_site_fract_x
 _atom_site_fract_y
 _atom_site_fract_z
 _atom_site_occupancy
  Er  Er0  1  0.500000  0.320188  0.414157  1
  Er  Er1  1  0.500000  0.679812  0.585843  1
  Er  Er2  1  0.500000  0.179812  0.914157  1
  Er  Er3  1  0.500000  0.820188  0.085843  1
  Sc  Sc4  1  0.500000  0.445481  0.127125  1
  Sc  Sc5  1  0.500000  0.554519  0.872875  1
  Sc  Sc6  1  0.500000  0.054519  0.627125  1
  Sc  Sc7  1  0.500000  0.945481  0.372875  1
  B  B8  1  0.000000  0.095915  0.473634  1
  B  B9  1  0.000000  0.904085  0.526366  1
  B  B10  1  0.000000  0.404085  0.973634  1
  B  B11  1  0.000000  0.595915  0.026366  1
  B  B12  1  0.000000  0.129595  0.319757  1
  B  B13  1  0.000000  0.870405  0.680243  1
  B  B14  1  0.000000  0.370405  0.819757  1
  B  B15  1  0.000000  0.629595  0.180243  1
  B  B16  1  0.000000  0.052265  0.065203  1
  B  B17  1  0.000000  0.947735  0.934797  1
  B  B18  1  0.000000  0.447735  0.565203  1
  B  B19  1  0.000000  0.552265  0.434797  1
  B  B20  1  0.000000  0.478539  0.285347  1
  B  B21  1  0.000000  0.521461  0.714653  1
  B  B22  1  0.000000  0.021461  0.785347  1
  B  B23  1  0.000000  0.978539  0.214653  1
  B  B24  1  0.000000  0.256779  0.078703  1
  B  B25  1  0.000000  0.743221  0.921297  1
  B  B26  1  0.000000  0.243221  0.578703  1
  B  B27  1  0.000000  0.756779  0.421297  1
  B  B28  1  0.000000  0.297948  0.236123  1
  B  B29  1  0.000000  0.702052  0.763877  1
  B  B30  1  0.000000  0.202052  0.736123  1
  B  B31  1  0.000000  0.797948  0.263877  1
  W  W32  1  0.500000  0.141500  0.181262  1
  W  W33  1  0.500000  0.858500  0.818738  1
  W  W34  1  0.500000  0.358500  0.681262  1
  W  W35  1  0.500000  0.641500  0.318738  1
