# generated using pymatgen
data_TaNb5(AlRu2)6
_symmetry_space_group_name_H-M   'P 1'
_cell_length_a   4.39001801
_cell_length_b   6.20394200
_cell_length_c   13.15783503
_cell_angle_alpha   90.00268026
_cell_angle_beta   89.99297077
_cell_angle_gamma   89.99808685
_symmetry_Int_Tables_number   1
_chemical_formula_structural   TaNb5(AlRu2)6
_chemical_formula_sum   'Ta1 Nb5 Al6 Ru12'
_cell_volume   358.35912207
_cell_formula_units_Z   1
loop_
 _symmetry_equiv_pos_site_id
 _symmetry_equiv_pos_as_xyz
  1  'x, y, z'
loop_
 _atom_site_type_symbol
 _atom_site_label
 _atom_site_symmetry_multiplicity
 _atom_site_fract_x
 _atom_site_fract_y
 _atom_site_fract_z
 _atom_site_occupancy
  Ta  Ta0  1  0.500195  0.000000  0.833337  1
  Nb  Nb1  1  0.999999  0.500001  0.000069  1
  Nb  Nb2  1  0.499802  0.999999  0.166726  1
  Nb  Nb3  1  0.999800  0.500000  0.333339  1
  Nb  Nb4  1  0.500000  0.000001  0.499939  1
  Nb  Nb5  1  0.000196  0.500000  0.666600  1
  Al  Al6  1  0.999998  0.999999  0.999993  1
  Al  Al7  1  0.499780  0.499996  0.166705  1
  Al  Al8  1  0.999779  0.000008  0.333339  1
  Al  Al9  1  0.499999  0.499992  0.499960  1
  Al  Al10  1  0.000220  0.000003  0.666674  1
  Al  Al11  1  0.500219  0.500001  0.833339  1
  Ru  Ru12  1  0.499998  0.249678  0.999645  1
  Ru  Ru13  1  0.500003  0.750320  0.999640  1
  Ru  Ru14  1  0.999807  0.249894  0.166617  1
  Ru  Ru15  1  0.999802  0.750104  0.166621  1
  Ru  Ru16  1  0.499806  0.250075  0.333345  1
  Ru  Ru17  1  0.499814  0.749925  0.333340  1
  Ru  Ru18  1  0.000003  0.249899  0.500039  1
  Ru  Ru19  1  0.999994  0.750099  0.500043  1
  Ru  Ru20  1  0.500195  0.249670  0.667004  1
  Ru  Ru21  1  0.500205  0.750326  0.666999  1
  Ru  Ru22  1  0.000195  0.249067  0.833341  1
  Ru  Ru23  1  0.000189  0.750938  0.833344  1
