# generated using pymatgen
data_PrDy2Rh9
_symmetry_space_group_name_H-M   'P 1'
_cell_length_a   9.27959455
_cell_length_b   9.27959478
_cell_length_c   9.27959501
_cell_angle_alpha   33.22132339
_cell_angle_beta   33.22132352
_cell_angle_gamma   33.22132021
_symmetry_Int_Tables_number   1
_chemical_formula_structural   PrDy2Rh9
_chemical_formula_sum   'Pr1 Dy2 Rh9'
_cell_volume   213.52730265
_cell_formula_units_Z   1
loop_
 _symmetry_equiv_pos_site_id
 _symmetry_equiv_pos_as_xyz
  1  'x, y, z'
loop_
 _atom_site_type_symbol
 _atom_site_label
 _atom_site_symmetry_multiplicity
 _atom_site_fract_x
 _atom_site_fract_y
 _atom_site_fract_z
 _atom_site_occupancy
  Pr  Pr0  1  0.000000  0.000000  0.000000  1
  Dy  Dy1  1  0.139095  0.139095  0.139095  1
  Dy  Dy2  1  0.860905  0.860905  0.860905  1
  Rh  Rh3  1  0.583708  0.583708  0.082155  1
  Rh  Rh4  1  0.332891  0.332891  0.332891  1
  Rh  Rh5  1  0.917845  0.416293  0.416291  1
  Rh  Rh6  1  0.416293  0.917845  0.416291  1
  Rh  Rh7  1  0.500000  0.500000  0.500000  1
  Rh  Rh8  1  0.583707  0.082155  0.583709  1
  Rh  Rh9  1  0.082155  0.583707  0.583709  1
  Rh  Rh10  1  0.667109  0.667109  0.667109  1
  Rh  Rh11  1  0.416292  0.416292  0.917845  1
