# generated using pymatgen
data_Hf7MgMn2(Si8Ru5)2
_symmetry_space_group_name_H-M   'P 1'
_cell_length_a   9.88030595
_cell_length_b   9.86458658
_cell_length_c   13.29252571
_cell_angle_alpha   53.85047907
_cell_angle_beta   53.77143948
_cell_angle_gamma   30.98440488
_symmetry_Int_Tables_number   1
_chemical_formula_structural   Hf7MgMn2(Si8Ru5)2
_chemical_formula_sum   'Hf7 Mg1 Mn2 Si16 Ru10'
_cell_volume   527.09978064
_cell_formula_units_Z   1
loop_
 _symmetry_equiv_pos_site_id
 _symmetry_equiv_pos_as_xyz
  1  'x, y, z'
loop_
 _atom_site_type_symbol
 _atom_site_label
 _atom_site_symmetry_multiplicity
 _atom_site_fract_x
 _atom_site_fract_y
 _atom_site_fract_z
 _atom_site_occupancy
  Hf  Hf0  1  0.437881  0.708329  0.853759  1
  Hf  Hf1  1  0.702988  0.450014  0.351585  1
  Hf  Hf2  1  0.553476  0.290104  0.151196  1
  Hf  Hf3  1  0.037854  0.296939  0.633816  1
  Hf  Hf4  1  0.704927  0.961485  0.864880  1
  Hf  Hf5  1  0.957333  0.703593  0.363964  1
  Hf  Hf6  1  0.293426  0.045752  0.136601  1
  Mg  Mg7  1  0.307180  0.559306  0.637892  1
  Mn  Mn8  1  0.654170  0.823254  0.280604  1
  Mn  Mn9  1  0.175724  0.344125  0.221293  1
  Si  Si10  1  0.875568  0.123882  0.250331  1
  Si  Si11  1  0.125600  0.872349  0.749717  1
  Si  Si12  1  0.384137  0.615808  0.249663  1
  Si  Si13  1  0.619796  0.378712  0.749602  1
  Si  Si14  1  0.970421  0.255861  0.894019  1
  Si  Si15  1  0.745208  0.027823  0.606802  1
  Si  Si16  1  0.021626  0.736107  0.114834  1
  Si  Si17  1  0.256737  0.984436  0.384659  1
  Si  Si18  1  0.568352  0.082614  0.073586  1
  Si  Si19  1  0.914449  0.431871  0.428426  1
  Si  Si20  1  0.421476  0.922064  0.936453  1
  Si  Si21  1  0.086152  0.574414  0.566213  1
  Si  Si22  1  0.385753  0.141135  0.392120  1
  Si  Si23  1  0.858338  0.611579  0.109904  1
  Si  Si24  1  0.614551  0.855311  0.602727  1
  Si  Si25  1  0.144441  0.393151  0.891972  1
  Ru  Ru26  1  0.760704  0.481804  0.070132  1
  Ru  Ru27  1  0.823604  0.650540  0.783770  1
  Ru  Ru28  1  0.900776  0.140684  0.583955  1
  Ru  Ru29  1  0.852876  0.104869  0.917198  1
  Ru  Ru30  1  0.107450  0.856643  0.411690  1
  Ru  Ru31  1  0.146841  0.888392  0.085235  1
  Ru  Ru32  1  0.239767  0.515581  0.934960  1
  Ru  Ru33  1  0.487727  0.757945  0.568560  1
  Ru  Ru34  1  0.514630  0.240811  0.429790  1
  Ru  Ru35  1  0.348060  0.172715  0.718098  1
