# generated using pymatgen
data_Tb7Dy5Fe2I17
_symmetry_space_group_name_H-M   'P 1'
_cell_length_a   9.73195329
_cell_length_b   11.68013674
_cell_length_c   11.71064939
_cell_angle_alpha   93.53919850
_cell_angle_beta   104.74000905
_cell_angle_gamma   114.09194414
_symmetry_Int_Tables_number   1
_chemical_formula_structural   Tb7Dy5Fe2I17
_chemical_formula_sum   'Tb7 Dy5 Fe2 I17'
_cell_volume   1154.35172493
_cell_formula_units_Z   1
loop_
 _symmetry_equiv_pos_site_id
 _symmetry_equiv_pos_as_xyz
  1  'x, y, z'
loop_
 _atom_site_type_symbol
 _atom_site_label
 _atom_site_symmetry_multiplicity
 _atom_site_fract_x
 _atom_site_fract_y
 _atom_site_fract_z
 _atom_site_occupancy
  Tb  Tb0  1  0.052798  0.503599  0.319883  1
  Tb  Tb1  1  0.991887  0.808915  0.588011  1
  Tb  Tb2  1  0.654687  0.241430  0.280463  1
  Tb  Tb3  1  0.007990  0.190526  0.412046  1
  Tb  Tb4  1  0.218991  0.671078  0.983067  1
  Tb  Tb5  1  0.255190  0.979127  0.889424  1
  Tb  Tb6  1  0.345519  0.758271  0.718991  1
  Dy  Dy7  1  0.947560  0.497381  0.680343  1
  Dy  Dy8  1  0.745390  0.022069  0.111001  1
  Dy  Dy9  1  0.140359  0.286414  0.153869  1
  Dy  Dy10  1  0.781112  0.328315  0.017320  1
  Dy  Dy11  1  0.858786  0.713196  0.845894  1
  Fe  Fe12  1  0.103972  0.737983  0.785659  1
  Fe  Fe13  1  0.895722  0.261755  0.213992  1
  I  I14  1  0.783554  0.528520  0.417522  1
  I  I15  1  0.644007  0.419226  0.761824  1
  I  I16  1  0.843402  0.895049  0.326305  1
  I  I17  1  0.327540  0.213482  0.368550  1
  I  I18  1  0.156297  0.104954  0.673283  1
  I  I19  1  0.586675  0.053207  0.842678  1
  I  I20  1  0.757570  0.187672  0.538963  1
  I  I21  1  0.552065  0.710510  0.954235  1
  I  I22  1  0.356489  0.580465  0.238351  1
  I  I23  1  0.216110  0.471102  0.582710  1
  I  I24  1  0.056013  0.367023  0.896740  1
  I  I25  1  0.448528  0.289935  0.045838  1
  I  I26  1  0.999639  0.999935  0.000104  1
  I  I27  1  0.242688  0.812800  0.461168  1
  I  I28  1  0.413902  0.946852  0.157479  1
  I  I29  1  0.672379  0.786524  0.631405  1
  I  I30  1  0.943177  0.632684  0.102885  1
