# generated using pymatgen
data_TmHf(Mn2P)4
_symmetry_space_group_name_H-M   'P 1'
_cell_length_a   6.89428560
_cell_length_b   6.89428515
_cell_length_c   3.67139200
_cell_angle_alpha   90.00000000
_cell_angle_beta   90.00000000
_cell_angle_gamma   90.56333968
_symmetry_Int_Tables_number   1
_chemical_formula_structural   TmHf(Mn2P)4
_chemical_formula_sum   'Tm1 Hf1 Mn8 P4'
_cell_volume   174.49712558
_cell_formula_units_Z   1
loop_
 _symmetry_equiv_pos_site_id
 _symmetry_equiv_pos_as_xyz
  1  'x, y, z'
loop_
 _atom_site_type_symbol
 _atom_site_label
 _atom_site_symmetry_multiplicity
 _atom_site_fract_x
 _atom_site_fract_y
 _atom_site_fract_z
 _atom_site_occupancy
  Tm  Tm0  1  0.000000  0.000000  0.500000  1
  Hf  Hf1  1  0.500000  0.500000  0.000000  1
  Mn  Mn2  1  0.581877  0.156828  0.500000  1
  Mn  Mn3  1  0.418123  0.843172  0.500000  1
  Mn  Mn4  1  0.087627  0.347921  0.000000  1
  Mn  Mn5  1  0.912373  0.652079  0.000000  1
  Mn  Mn6  1  0.156828  0.581877  0.500000  1
  Mn  Mn7  1  0.843172  0.418123  0.500000  1
  Mn  Mn8  1  0.347921  0.087627  0.000000  1
  Mn  Mn9  1  0.652079  0.912373  0.000000  1
  P  P10  1  0.711889  0.711889  0.500000  1
  P  P11  1  0.288111  0.288111  0.500000  1
  P  P12  1  0.217857  0.782143  0.000000  1
  P  P13  1  0.782143  0.217857  0.000000  1
