# generated using pymatgen
data_Sr3La(WO4)4
_symmetry_space_group_name_H-M   'P 1'
_cell_length_a   5.16420490
_cell_length_b   5.56506341
_cell_length_c   13.97186253
_cell_angle_alpha   68.84933040
_cell_angle_beta   90.72586698
_cell_angle_gamma   90.97322834
_symmetry_Int_Tables_number   1
_chemical_formula_structural   Sr3La(WO4)4
_chemical_formula_sum   'Sr3 La1 W4 O16'
_cell_volume   374.42614777
_cell_formula_units_Z   1
loop_
 _symmetry_equiv_pos_site_id
 _symmetry_equiv_pos_as_xyz
  1  'x, y, z'
loop_
 _atom_site_type_symbol
 _atom_site_label
 _atom_site_symmetry_multiplicity
 _atom_site_fract_x
 _atom_site_fract_y
 _atom_site_fract_z
 _atom_site_occupancy
  Sr  Sr0  1  0.722233  0.155350  0.340302  1
  Sr  Sr1  1  0.225320  0.845157  0.154506  1
  Sr  Sr2  1  0.281770  0.845164  0.660741  1
  La  La3  1  0.756967  0.143895  0.845508  1
  W  W4  1  0.247837  0.584207  0.424279  1
  W  W5  1  0.747179  0.416858  0.073900  1
  W  W6  1  0.751881  0.415410  0.576286  1
  W  W7  1  0.243454  0.579170  0.925020  1
  O  O8  1  0.554174  0.733866  0.466681  1
  O  O9  1  0.052969  0.266887  0.037630  1
  O  O10  1  0.446173  0.265047  0.535634  1
  O  O11  1  0.944945  0.751642  0.964538  1
  O  O12  1  0.939550  0.361985  0.451253  1
  O  O13  1  0.443190  0.634952  0.047908  1
  O  O14  1  0.058521  0.635191  0.550964  1
  O  O15  1  0.577355  0.363154  0.946489  1
  O  O16  1  0.123880  0.891485  0.334812  1
  O  O17  1  0.619152  0.109613  0.165193  1
  O  O18  1  0.873937  0.107653  0.668992  1
  O  O19  1  0.395997  0.904652  0.828257  1
  O  O20  1  0.377234  0.484345  0.323316  1
  O  O21  1  0.877840  0.518402  0.176854  1
  O  O22  1  0.623464  0.508117  0.680634  1
  O  O23  1  0.114980  0.477795  0.820300  1
