# generated using pymatgen
data_Tm6InCoRu
_symmetry_space_group_name_H-M   'P 1'
_cell_length_a   8.29057994
_cell_length_b   8.29058081
_cell_length_c   8.29057980
_cell_angle_alpha   112.59194046
_cell_angle_beta   110.79358823
_cell_angle_gamma   105.11944653
_symmetry_Int_Tables_number   1
_chemical_formula_structural   Tm6InCoRu
_chemical_formula_sum   'Tm12 In2 Co2 Ru2'
_cell_volume   436.66902445
_cell_formula_units_Z   2
loop_
 _symmetry_equiv_pos_site_id
 _symmetry_equiv_pos_as_xyz
  1  'x, y, z'
loop_
 _atom_site_type_symbol
 _atom_site_label
 _atom_site_symmetry_multiplicity
 _atom_site_fract_x
 _atom_site_fract_y
 _atom_site_fract_z
 _atom_site_occupancy
  Tm  Tm0  1  0.445259  0.242484  0.202776  1
  Tm  Tm1  1  0.554741  0.757516  0.797224  1
  Tm  Tm2  1  0.039708  0.242484  0.797224  1
  Tm  Tm3  1  0.960292  0.757516  0.202776  1
  Tm  Tm4  1  0.184999  0.286500  0.471499  1
  Tm  Tm5  1  0.815001  0.713500  0.528501  1
  Tm  Tm6  1  0.184999  0.713500  0.898499  1
  Tm  Tm7  1  0.815001  0.286500  0.101501  1
  Tm  Tm8  1  0.322472  0.636989  0.314517  1
  Tm  Tm9  1  0.677528  0.363011  0.685483  1
  Tm  Tm10  1  0.322472  0.007954  0.685483  1
  Tm  Tm11  1  0.677528  0.992046  0.314517  1
  In  In12  1  0.500000  0.500000  0.000000  1
  In  In13  1  0.000000  0.000000  0.000000  1
  Co  Co14  1  0.112923  0.612923  0.500000  1
  Co  Co15  1  0.887077  0.387077  0.500000  1
  Ru  Ru16  1  0.330743  0.000000  0.330743  1
  Ru  Ru17  1  0.669257  0.000000  0.669257  1
