# generated using pymatgen
data_Gd3HoSiSe3
_symmetry_space_group_name_H-M   'P 1'
_cell_length_a   7.21074603
_cell_length_b   7.21074545
_cell_length_c   7.21074600
_cell_angle_alpha   131.99052232
_cell_angle_beta   131.99051816
_cell_angle_gamma   70.24400212
_symmetry_Int_Tables_number   1
_chemical_formula_structural   Gd3HoSiSe3
_chemical_formula_sum   'Gd3 Ho1 Si1 Se3'
_cell_volume   203.00374827
_cell_formula_units_Z   1
loop_
 _symmetry_equiv_pos_site_id
 _symmetry_equiv_pos_as_xyz
  1  'x, y, z'
loop_
 _atom_site_type_symbol
 _atom_site_label
 _atom_site_symmetry_multiplicity
 _atom_site_fract_x
 _atom_site_fract_y
 _atom_site_fract_z
 _atom_site_occupancy
  Gd  Gd0  1  0.757957  0.757957  0.000000  1
  Gd  Gd1  1  0.500504  0.000504  0.500000  1
  Gd  Gd2  1  0.000504  0.500504  0.500000  1
  Ho  Ho3  1  0.241015  0.241015  0.000000  1
  Si  Si4  1  0.001223  0.001223  0.000000  1
  Se  Se5  1  0.497920  0.497920  0.000000  1
  Se  Se6  1  0.750438  0.250438  0.500000  1
  Se  Se7  1  0.250438  0.750438  0.500000  1
