# generated using pymatgen
data_TaTi5Co2(BRu2)4
_symmetry_space_group_name_H-M   'P 1'
_cell_length_a   9.09320471
_cell_length_b   9.09320471
_cell_length_c   3.03601000
_cell_angle_alpha   90.00000000
_cell_angle_beta   90.00000000
_cell_angle_gamma   89.91154733
_symmetry_Int_Tables_number   1
_chemical_formula_structural   TaTi5Co2(BRu2)4
_chemical_formula_sum   'Ta1 Ti5 Co2 B4 Ru8'
_cell_volume   251.03635274
_cell_formula_units_Z   1
loop_
 _symmetry_equiv_pos_site_id
 _symmetry_equiv_pos_as_xyz
  1  'x, y, z'
loop_
 _atom_site_type_symbol
 _atom_site_label
 _atom_site_symmetry_multiplicity
 _atom_site_fract_x
 _atom_site_fract_y
 _atom_site_fract_z
 _atom_site_occupancy
  Ta  Ta0  1  0.675480  0.175480  0.000000  1
  Ti  Ti1  1  0.824948  0.675866  0.000000  1
  Ti  Ti2  1  0.175866  0.324948  0.000000  1
  Ti  Ti3  1  0.322766  0.822766  0.000000  1
  Ti  Ti4  1  0.499091  0.501774  0.000000  1
  Ti  Ti5  1  0.001774  0.999091  0.000000  1
  Co  Co6  1  0.500232  0.000232  0.500000  1
  Co  Co7  1  0.999839  0.499839  0.500000  1
  B  B8  1  0.613500  0.884729  0.000000  1
  B  B9  1  0.384729  0.113500  0.000000  1
  B  B10  1  0.114288  0.614288  0.000000  1
  B  B11  1  0.887347  0.387347  0.000000  1
  Ru  Ru12  1  0.564180  0.722235  0.500000  1
  Ru  Ru13  1  0.436786  0.278020  0.500000  1
  Ru  Ru14  1  0.063323  0.777723  0.500000  1
  Ru  Ru15  1  0.936092  0.221781  0.500000  1
  Ru  Ru16  1  0.277723  0.563323  0.500000  1
  Ru  Ru17  1  0.721781  0.436092  0.500000  1
  Ru  Ru18  1  0.222235  0.064180  0.500000  1
  Ru  Ru19  1  0.778020  0.936786  0.500000  1
