# generated using pymatgen
data_Ce(Y2Os)2
_symmetry_space_group_name_H-M   'P 1'
_cell_length_a   8.51159761
_cell_length_b   8.51159857
_cell_length_c   7.25882024
_cell_angle_alpha   82.00105841
_cell_angle_beta   82.00105635
_cell_angle_gamma   44.52245921
_symmetry_Int_Tables_number   1
_chemical_formula_structural   Ce(Y2Os)2
_chemical_formula_sum   'Ce2 Y8 Os4'
_cell_volume   364.55030287
_cell_formula_units_Z   2
loop_
 _symmetry_equiv_pos_site_id
 _symmetry_equiv_pos_as_xyz
  1  'x, y, z'
loop_
 _atom_site_type_symbol
 _atom_site_label
 _atom_site_symmetry_multiplicity
 _atom_site_fract_x
 _atom_site_fract_y
 _atom_site_fract_z
 _atom_site_occupancy
  Ce  Ce0  1  0.590219  0.409781  0.750000  1
  Ce  Ce1  1  0.409781  0.590219  0.250000  1
  Y  Y2  1  0.221138  0.961793  0.583665  1
  Y  Y3  1  0.038207  0.778862  0.916335  1
  Y  Y4  1  0.207462  0.346965  0.312209  1
  Y  Y5  1  0.653035  0.792538  0.187791  1
  Y  Y6  1  0.792538  0.653035  0.687791  1
  Y  Y7  1  0.346965  0.207462  0.812209  1
  Y  Y8  1  0.961793  0.221138  0.083665  1
  Y  Y9  1  0.778862  0.038207  0.416335  1
  Os  Os10  1  0.190976  0.600270  0.559092  1
  Os  Os11  1  0.399730  0.809024  0.940908  1
  Os  Os12  1  0.809024  0.399730  0.440908  1
  Os  Os13  1  0.600270  0.190976  0.059092  1
