# generated using pymatgen
data_Er2GaPt3Rh2
_symmetry_space_group_name_H-M   'P 1'
_cell_length_a   5.69088190
_cell_length_b   5.69088079
_cell_length_c   4.23025800
_cell_angle_alpha   90.00000000
_cell_angle_beta   90.00000000
_cell_angle_gamma   96.03817101
_symmetry_Int_Tables_number   1
_chemical_formula_structural   Er2GaPt3Rh2
_chemical_formula_sum   'Er2 Ga1 Pt3 Rh2'
_cell_volume   136.24160722
_cell_formula_units_Z   1
loop_
 _symmetry_equiv_pos_site_id
 _symmetry_equiv_pos_as_xyz
  1  'x, y, z'
loop_
 _atom_site_type_symbol
 _atom_site_label
 _atom_site_symmetry_multiplicity
 _atom_site_fract_x
 _atom_site_fract_y
 _atom_site_fract_z
 _atom_site_occupancy
  Er  Er0  1  0.723278  0.276722  0.500000  1
  Er  Er1  1  0.276722  0.723278  0.500000  1
  Ga  Ga2  1  0.000000  0.000000  0.000000  1
  Pt  Pt3  1  0.500000  0.500000  0.000000  1
  Pt  Pt4  1  0.000000  0.500000  0.000000  1
  Pt  Pt5  1  0.500000  0.000000  0.000000  1
  Rh  Rh6  1  0.212982  0.212982  0.500000  1
  Rh  Rh7  1  0.787018  0.787018  0.500000  1
