# generated using pymatgen
data_BaGaHgAu2
_symmetry_space_group_name_H-M   'P 1'
_cell_length_a   4.84952200
_cell_length_b   4.84952200
_cell_length_c   10.97292000
_cell_angle_alpha   90.00000000
_cell_angle_beta   90.00000000
_cell_angle_gamma   90.00000000
_symmetry_Int_Tables_number   1
_chemical_formula_structural   BaGaHgAu2
_chemical_formula_sum   'Ba2 Ga2 Hg2 Au4'
_cell_volume   258.05963617
_cell_formula_units_Z   2
loop_
 _symmetry_equiv_pos_site_id
 _symmetry_equiv_pos_as_xyz
  1  'x, y, z'
loop_
 _atom_site_type_symbol
 _atom_site_label
 _atom_site_symmetry_multiplicity
 _atom_site_fract_x
 _atom_site_fract_y
 _atom_site_fract_z
 _atom_site_occupancy
  Ba  Ba0  1  0.000000  0.500000  0.758190  1
  Ba  Ba1  1  0.500000  0.000000  0.241810  1
  Ga  Ga2  1  0.000000  0.500000  0.102327  1
  Ga  Ga3  1  0.500000  0.000000  0.897673  1
  Hg  Hg4  1  0.000000  0.000000  0.500000  1
  Hg  Hg5  1  0.500000  0.500000  0.500000  1
  Au  Au6  1  0.500000  0.000000  0.661356  1
  Au  Au7  1  0.500000  0.500000  0.000000  1
  Au  Au8  1  0.000000  0.000000  0.000000  1
  Au  Au9  1  0.000000  0.500000  0.338644  1
