# generated using pymatgen
data_Tb2Th2AlRe7
_symmetry_space_group_name_H-M   'P 1'
_cell_length_a   5.45582100
_cell_length_b   5.45582198
_cell_length_c   9.03844400
_cell_angle_alpha   90.00000000
_cell_angle_beta   90.00000000
_cell_angle_gamma   119.99998802
_symmetry_Int_Tables_number   1
_chemical_formula_structural   Tb2Th2AlRe7
_chemical_formula_sum   'Tb2 Th2 Al1 Re7'
_cell_volume   232.99395831
_cell_formula_units_Z   1
loop_
 _symmetry_equiv_pos_site_id
 _symmetry_equiv_pos_as_xyz
  1  'x, y, z'
loop_
 _atom_site_type_symbol
 _atom_site_label
 _atom_site_symmetry_multiplicity
 _atom_site_fract_x
 _atom_site_fract_y
 _atom_site_fract_z
 _atom_site_occupancy
  Tb  Tb0  1  0.666667  0.333333  0.437235  1
  Tb  Tb1  1  0.333333  0.666667  0.562765  1
  Th  Th2  1  0.333333  0.666667  0.932729  1
  Th  Th3  1  0.666667  0.333333  0.067271  1
  Al  Al4  1  0.000000  0.000000  0.000000  1
  Re  Re5  1  0.000000  0.000000  0.500000  1
  Re  Re6  1  0.659526  0.829763  0.255412  1
  Re  Re7  1  0.170237  0.829763  0.255412  1
  Re  Re8  1  0.170237  0.340474  0.255412  1
  Re  Re9  1  0.340474  0.170237  0.744588  1
  Re  Re10  1  0.829763  0.170237  0.744588  1
  Re  Re11  1  0.829763  0.659526  0.744588  1
