# generated using pymatgen
data_La10Ga3Ir2Pb
_symmetry_space_group_name_H-M   'P 1'
_cell_length_a   8.30113483
_cell_length_b   9.09539388
_cell_length_c   12.52598800
_cell_angle_alpha   90.16987063
_cell_angle_beta   90.40543639
_cell_angle_gamma   89.85686896
_symmetry_Int_Tables_number   1
_chemical_formula_structural   La10Ga3Ir2Pb
_chemical_formula_sum   'La20 Ga6 Ir4 Pb2'
_cell_volume   945.70754916
_cell_formula_units_Z   2
loop_
 _symmetry_equiv_pos_site_id
 _symmetry_equiv_pos_as_xyz
  1  'x, y, z'
loop_
 _atom_site_type_symbol
 _atom_site_label
 _atom_site_symmetry_multiplicity
 _atom_site_fract_x
 _atom_site_fract_y
 _atom_site_fract_z
 _atom_site_occupancy
  La  La0  1  0.676951  0.755270  0.709594  1
  La  La1  1  0.323049  0.244730  0.290406  1
  La  La2  1  0.165092  0.244722  0.785950  1
  La  La3  1  0.834908  0.755278  0.214050  1
  La  La4  1  0.134391  0.757232  0.801249  1
  La  La5  1  0.865609  0.242768  0.198751  1
  La  La6  1  0.640731  0.244912  0.696040  1
  La  La7  1  0.359269  0.755088  0.303960  1
  La  La8  1  0.547211  0.764136  0.000755  1
  La  La9  1  0.452789  0.235864  0.999245  1
  La  La10  1  0.044536  0.249640  0.500774  1
  La  La11  1  0.955464  0.750360  0.499226  1
  La  La12  1  0.823338  0.464904  0.924164  1
  La  La13  1  0.176662  0.535096  0.075836  1
  La  La14  1  0.315771  0.537251  0.568133  1
  La  La15  1  0.178505  0.958480  0.076882  1
  La  La16  1  0.684229  0.462749  0.431867  1
  La  La17  1  0.821495  0.041520  0.923118  1
  La  La18  1  0.679985  0.038682  0.424310  1
  La  La19  1  0.320015  0.961318  0.575690  1
  Ga  Ga20  1  0.937596  0.011369  0.666905  1
  Ga  Ga21  1  0.062404  0.988631  0.333095  1
  Ga  Ga22  1  0.437545  0.988909  0.825161  1
  Ga  Ga23  1  0.064894  0.510203  0.331505  1
  Ga  Ga24  1  0.562455  0.011091  0.174839  1
  Ga  Ga25  1  0.935106  0.489797  0.668495  1
  Ir  Ir26  1  0.924963  0.752855  0.986806  1
  Ir  Ir27  1  0.075037  0.247145  0.013194  1
  Ir  Ir28  1  0.426023  0.249062  0.513685  1
  Ir  Ir29  1  0.573977  0.750938  0.486315  1
  Pb  Pb30  1  0.566232  0.489155  0.171636  1
  Pb  Pb31  1  0.433768  0.510845  0.828364  1
