# generated using pymatgen
data_Eu2MnRuO6
_symmetry_space_group_name_H-M   'P 1'
_cell_length_a   5.79519800
_cell_length_b   5.54670762
_cell_length_c   9.54669624
_cell_angle_alpha   54.95846997
_cell_angle_beta   90.00000000
_cell_angle_gamma   90.00000000
_symmetry_Int_Tables_number   1
_chemical_formula_structural   Eu2MnRuO6
_chemical_formula_sum   'Eu4 Mn2 Ru2 O12'
_cell_volume   251.24682741
_cell_formula_units_Z   2
loop_
 _symmetry_equiv_pos_site_id
 _symmetry_equiv_pos_as_xyz
  1  'x, y, z'
loop_
 _atom_site_type_symbol
 _atom_site_label
 _atom_site_symmetry_multiplicity
 _atom_site_fract_x
 _atom_site_fract_y
 _atom_site_fract_z
 _atom_site_occupancy
  Eu  Eu0  1  0.438180  0.264609  0.750211  1
  Eu  Eu1  1  0.938180  0.735391  0.749789  1
  Eu  Eu2  1  0.561820  0.735391  0.249789  1
  Eu  Eu3  1  0.061820  0.264609  0.250211  1
  Mn  Mn4  1  0.000000  0.000000  0.000000  1
  Mn  Mn5  1  0.500000  0.000000  0.500000  1
  Ru  Ru6  1  0.000000  0.500000  0.500000  1
  Ru  Ru7  1  0.500000  0.500000  0.000000  1
  O  O8  1  0.709982  0.632196  0.553455  1
  O  O9  1  0.209982  0.367804  0.946545  1
  O  O10  1  0.308992  0.746157  0.049086  1
  O  O11  1  0.808992  0.253843  0.450914  1
  O  O12  1  0.290018  0.367804  0.446545  1
  O  O13  1  0.790018  0.632196  0.053455  1
  O  O14  1  0.691008  0.253843  0.950914  1
  O  O15  1  0.191008  0.746157  0.549086  1
  O  O16  1  0.033374  0.156201  0.744684  1
  O  O17  1  0.533374  0.843799  0.755316  1
  O  O18  1  0.966626  0.843799  0.255316  1
  O  O19  1  0.466626  0.156201  0.244684  1
