# generated using pymatgen
data_Tb3Th(Si3Ni5)4
_symmetry_space_group_name_H-M   'P 1'
_cell_length_a   3.81517300
_cell_length_b   6.58566603
_cell_length_c   18.79785212
_cell_angle_alpha   89.96480096
_cell_angle_beta   90.00000000
_cell_angle_gamma   90.00000000
_symmetry_Int_Tables_number   1
_chemical_formula_structural   Tb3Th(Si3Ni5)4
_chemical_formula_sum   'Tb3 Th1 Si12 Ni20'
_cell_volume   472.30450302
_cell_formula_units_Z   1
loop_
 _symmetry_equiv_pos_site_id
 _symmetry_equiv_pos_as_xyz
  1  'x, y, z'
loop_
 _atom_site_type_symbol
 _atom_site_label
 _atom_site_symmetry_multiplicity
 _atom_site_fract_x
 _atom_site_fract_y
 _atom_site_fract_z
 _atom_site_occupancy
  Tb  Tb0  1  0.750000  0.122600  0.644420  1
  Tb  Tb1  1  0.750000  0.375571  0.143215  1
  Tb  Tb2  1  0.250000  0.624765  0.856386  1
  Th  Th3  1  0.250000  0.875962  0.356590  1
  Si  Si4  1  0.250000  0.080205  0.085152  1
  Si  Si5  1  0.750000  0.921203  0.913812  1
  Si  Si6  1  0.750000  0.567620  0.415207  1
  Si  Si7  1  0.250000  0.423288  0.589501  1
  Si  Si8  1  0.250000  0.654174  0.072643  1
  Si  Si9  1  0.750000  0.343312  0.925241  1
  Si  Si10  1  0.750000  0.163083  0.429003  1
  Si  Si11  1  0.250000  0.843397  0.573724  1
  Si  Si12  1  0.250000  0.380097  0.261852  1
  Si  Si13  1  0.750000  0.621027  0.737847  1
  Si  Si14  1  0.750000  0.880700  0.232552  1
  Si  Si15  1  0.250000  0.119730  0.763191  1
  Ni  Ni16  1  0.250000  0.072384  0.205416  1
  Ni  Ni17  1  0.750000  0.929744  0.793379  1
  Ni  Ni18  1  0.750000  0.571916  0.292197  1
  Ni  Ni19  1  0.250000  0.430492  0.709073  1
  Ni  Ni20  1  0.250000  0.607546  0.485517  1
  Ni  Ni21  1  0.750000  0.387181  0.520005  1
  Ni  Ni22  1  0.750000  0.115473  0.015117  1
  Ni  Ni23  1  0.250000  0.885966  0.983964  1
  Ni  Ni24  1  0.250000  0.685712  0.197458  1
  Ni  Ni25  1  0.750000  0.313544  0.800789  1
  Ni  Ni26  1  0.750000  0.186730  0.300475  1
  Ni  Ni27  1  0.250000  0.813986  0.699343  1
  Ni  Ni28  1  0.250000  0.354845  0.383669  1
  Ni  Ni29  1  0.750000  0.649819  0.616542  1
  Ni  Ni30  1  0.750000  0.852740  0.112238  1
  Ni  Ni31  1  0.250000  0.145390  0.884439  1
  Ni  Ni32  1  0.250000  0.364567  0.004547  1
  Ni  Ni33  1  0.750000  0.633300  0.993613  1
  Ni  Ni34  1  0.750000  0.863512  0.494942  1
  Ni  Ni35  1  0.250000  0.138418  0.506940  1
