# generated using pymatgen
data_Lu3MnAl12RePt2
_symmetry_space_group_name_H-M   'P 1'
_cell_length_a   8.79026999
_cell_length_b   8.79026969
_cell_length_c   9.44416741
_cell_angle_alpha   90.68053317
_cell_angle_beta   89.31946643
_cell_angle_gamma   119.46318872
_symmetry_Int_Tables_number   1
_chemical_formula_structural   Lu3MnAl12RePt2
_chemical_formula_sum   'Lu6 Mn2 Al24 Re2 Pt4'
_cell_volume   635.30393158
_cell_formula_units_Z   2
loop_
 _symmetry_equiv_pos_site_id
 _symmetry_equiv_pos_as_xyz
  1  'x, y, z'
loop_
 _atom_site_type_symbol
 _atom_site_label
 _atom_site_symmetry_multiplicity
 _atom_site_fract_x
 _atom_site_fract_y
 _atom_site_fract_z
 _atom_site_occupancy
  Lu  Lu0  1  0.187854  0.388784  0.255237  1
  Lu  Lu1  1  0.812146  0.611216  0.744763  1
  Lu  Lu2  1  0.611216  0.812146  0.255237  1
  Lu  Lu3  1  0.388784  0.187854  0.744763  1
  Lu  Lu4  1  0.195731  0.804269  0.257413  1
  Lu  Lu5  1  0.804269  0.195731  0.742587  1
  Mn  Mn6  1  0.000000  0.000000  0.000000  1
  Mn  Mn7  1  0.000000  0.000000  0.500000  1
  Al  Al8  1  0.333557  0.666443  0.028912  1
  Al  Al9  1  0.666443  0.333557  0.971088  1
  Al  Al10  1  0.668524  0.331476  0.520279  1
  Al  Al11  1  0.331476  0.668524  0.479721  1
  Al  Al12  1  0.155383  0.316694  0.578394  1
  Al  Al13  1  0.844617  0.683306  0.421606  1
  Al  Al14  1  0.683306  0.844617  0.578394  1
  Al  Al15  1  0.840869  0.685350  0.079125  1
  Al  Al16  1  0.316694  0.155383  0.421606  1
  Al  Al17  1  0.159131  0.314650  0.920875  1
  Al  Al18  1  0.160309  0.839691  0.577605  1
  Al  Al19  1  0.314650  0.159131  0.079125  1
  Al  Al20  1  0.839691  0.160309  0.422395  1
  Al  Al21  1  0.685350  0.840869  0.920875  1
  Al  Al22  1  0.841625  0.158375  0.077359  1
  Al  Al23  1  0.158375  0.841625  0.922641  1
  Al  Al24  1  0.562728  0.128223  0.250387  1
  Al  Al25  1  0.437272  0.871777  0.749613  1
  Al  Al26  1  0.871777  0.437272  0.250387  1
  Al  Al27  1  0.128223  0.562728  0.749613  1
  Al  Al28  1  0.561911  0.438089  0.247379  1
  Al  Al29  1  0.438089  0.561911  0.752621  1
  Al  Al30  1  0.999182  0.000818  0.251091  1
  Al  Al31  1  0.000818  0.999182  0.748909  1
  Re  Re32  1  0.500000  0.000000  0.500000  1
  Re  Re33  1  0.000000  0.500000  0.500000  1
  Pt  Pt34  1  0.500000  0.000000  0.000000  1
  Pt  Pt35  1  0.000000  0.500000  0.000000  1
  Pt  Pt36  1  0.500000  0.500000  0.000000  1
  Pt  Pt37  1  0.500000  0.500000  0.500000  1
