# generated using pymatgen
data_Dy2Th(ZnPd)3
_symmetry_space_group_name_H-M   'P 1'
_cell_length_a   7.40054052
_cell_length_b   7.40054133
_cell_length_c   3.88166000
_cell_angle_alpha   90.00000000
_cell_angle_beta   90.00000000
_cell_angle_gamma   120.24932121
_symmetry_Int_Tables_number   1
_chemical_formula_structural   Dy2Th(ZnPd)3
_chemical_formula_sum   'Dy2 Th1 Zn3 Pd3'
_cell_volume   183.64473095
_cell_formula_units_Z   1
loop_
 _symmetry_equiv_pos_site_id
 _symmetry_equiv_pos_as_xyz
  1  'x, y, z'
loop_
 _atom_site_type_symbol
 _atom_site_label
 _atom_site_symmetry_multiplicity
 _atom_site_fract_x
 _atom_site_fract_y
 _atom_site_fract_z
 _atom_site_occupancy
  Dy  Dy0  1  0.593871  0.996201  0.500000  1
  Dy  Dy1  1  0.996201  0.593871  0.500000  1
  Th  Th2  1  0.410374  0.410374  0.500000  1
  Zn  Zn3  1  0.760085  0.760085  0.000000  1
  Zn  Zn4  1  0.250604  0.991007  0.000000  1
  Zn  Zn5  1  0.991007  0.250604  0.000000  1
  Pd  Pd6  1  0.660312  0.331087  0.000000  1
  Pd  Pd7  1  0.331087  0.660312  0.000000  1
  Pd  Pd8  1  0.006460  0.006460  0.500000  1
