# generated using pymatgen
data_Ho2Er2B12IrRh
_symmetry_space_group_name_H-M   'P 1'
_cell_length_a   3.63458700
_cell_length_b   9.15528821
_cell_length_c   11.49079402
_cell_angle_alpha   90.09585693
_cell_angle_beta   90.00000000
_cell_angle_gamma   90.00000000
_symmetry_Int_Tables_number   1
_chemical_formula_structural   Ho2Er2B12IrRh
_chemical_formula_sum   'Ho4 Er4 B24 Ir2 Rh2'
_cell_volume   382.36358162
_cell_formula_units_Z   2
loop_
 _symmetry_equiv_pos_site_id
 _symmetry_equiv_pos_as_xyz
  1  'x, y, z'
loop_
 _atom_site_type_symbol
 _atom_site_label
 _atom_site_symmetry_multiplicity
 _atom_site_fract_x
 _atom_site_fract_y
 _atom_site_fract_z
 _atom_site_occupancy
  Ho  Ho0  1  0.500000  0.323033  0.413972  1
  Ho  Ho1  1  0.500000  0.676967  0.586028  1
  Ho  Ho2  1  0.500000  0.178625  0.912878  1
  Ho  Ho3  1  0.500000  0.821375  0.087122  1
  Er  Er4  1  0.500000  0.445439  0.126622  1
  Er  Er5  1  0.500000  0.554561  0.873378  1
  Er  Er6  1  0.500000  0.056435  0.625987  1
  Er  Er7  1  0.500000  0.943565  0.374013  1
  B  B8  1  0.000000  0.109959  0.469998  1
  B  B9  1  0.000000  0.890041  0.530002  1
  B  B10  1  0.000000  0.390119  0.970224  1
  B  B11  1  0.000000  0.609881  0.029776  1
  B  B12  1  0.000000  0.132708  0.316072  1
  B  B13  1  0.000000  0.867292  0.683928  1
  B  B14  1  0.000000  0.366579  0.816089  1
  B  B15  1  0.000000  0.633421  0.183911  1
  B  B16  1  0.000000  0.054031  0.065894  1
  B  B17  1  0.000000  0.945969  0.934106  1
  B  B18  1  0.000000  0.446363  0.565363  1
  B  B19  1  0.000000  0.553637  0.434637  1
  B  B20  1  0.000000  0.482803  0.286833  1
  B  B21  1  0.000000  0.517197  0.713167  1
  B  B22  1  0.000000  0.017414  0.786424  1
  B  B23  1  0.000000  0.982586  0.213576  1
  B  B24  1  0.000000  0.250030  0.079308  1
  B  B25  1  0.000000  0.749970  0.920692  1
  B  B26  1  0.000000  0.250747  0.579366  1
  B  B27  1  0.000000  0.749253  0.420634  1
  B  B28  1  0.000000  0.294335  0.235241  1
  B  B29  1  0.000000  0.705665  0.764759  1
  B  B30  1  0.000000  0.205720  0.735587  1
  B  B31  1  0.000000  0.794280  0.264413  1
  Ir  Ir32  1  0.500000  0.139180  0.178279  1
  Ir  Ir33  1  0.500000  0.860820  0.821721  1
  Rh  Rh34  1  0.500000  0.360404  0.679721  1
  Rh  Rh35  1  0.500000  0.639596  0.320279  1
