# generated using pymatgen
data_GaSi2Mo9
_symmetry_space_group_name_H-M   'P 1'
_cell_length_a   4.94479000
_cell_length_b   4.94075000
_cell_length_c   14.76147900
_cell_angle_alpha   90.00000000
_cell_angle_beta   90.00000000
_cell_angle_gamma   90.00000000
_symmetry_Int_Tables_number   1
_chemical_formula_structural   GaSi2Mo9
_chemical_formula_sum   'Ga2 Si4 Mo18'
_cell_volume   360.63726821
_cell_formula_units_Z   2
loop_
 _symmetry_equiv_pos_site_id
 _symmetry_equiv_pos_as_xyz
  1  'x, y, z'
loop_
 _atom_site_type_symbol
 _atom_site_label
 _atom_site_symmetry_multiplicity
 _atom_site_fract_x
 _atom_site_fract_y
 _atom_site_fract_z
 _atom_site_occupancy
  Ga  Ga0  1  0.500000  0.500000  0.833966  1
  Ga  Ga1  1  0.500000  0.500000  0.499423  1
  Si  Si2  1  0.500000  0.500000  0.166440  1
  Si  Si3  1  0.000000  0.000000  0.999998  1
  Si  Si4  1  0.000000  0.000000  0.667059  1
  Si  Si5  1  0.000000  0.000000  0.333139  1
  Mo  Mo6  1  0.500000  0.000000  0.749511  1
  Mo  Mo7  1  0.500000  0.000000  0.415369  1
  Mo  Mo8  1  0.500000  0.000000  0.083307  1
  Mo  Mo9  1  0.248247  0.500000  0.002052  1
  Mo  Mo10  1  0.247657  0.500000  0.666869  1
  Mo  Mo11  1  0.248659  0.500000  0.330975  1
  Mo  Mo12  1  0.000000  0.751704  0.834221  1
  Mo  Mo13  1  0.000000  0.751724  0.499293  1
  Mo  Mo14  1  0.000000  0.750235  0.166579  1
  Mo  Mo15  1  0.500000  0.000000  0.918068  1
  Mo  Mo16  1  0.500000  0.000000  0.583878  1
  Mo  Mo17  1  0.500000  0.000000  0.249861  1
  Mo  Mo18  1  0.751753  0.500000  0.002052  1
  Mo  Mo19  1  0.752343  0.500000  0.666869  1
  Mo  Mo20  1  0.751341  0.500000  0.330975  1
  Mo  Mo21  1  0.000000  0.248296  0.834221  1
  Mo  Mo22  1  0.000000  0.248276  0.499293  1
  Mo  Mo23  1  0.000000  0.249765  0.166579  1
