# generated using pymatgen
data_BaYZn3FeO7
_symmetry_space_group_name_H-M   'P 1'
_cell_length_a   6.42995900
_cell_length_b   6.42995939
_cell_length_c   10.51158900
_cell_angle_alpha   90.00000000
_cell_angle_beta   90.00000000
_cell_angle_gamma   120.00000314
_symmetry_Int_Tables_number   1
_chemical_formula_structural   BaYZn3FeO7
_chemical_formula_sum   'Ba2 Y2 Zn6 Fe2 O14'
_cell_volume   376.37036775
_cell_formula_units_Z   2
loop_
 _symmetry_equiv_pos_site_id
 _symmetry_equiv_pos_as_xyz
  1  'x, y, z'
loop_
 _atom_site_type_symbol
 _atom_site_label
 _atom_site_symmetry_multiplicity
 _atom_site_fract_x
 _atom_site_fract_y
 _atom_site_fract_z
 _atom_site_occupancy
  Ba  Ba0  1  0.666667  0.333333  0.975588  1
  Ba  Ba1  1  0.333333  0.666667  0.475588  1
  Y  Y2  1  0.666667  0.333333  0.632023  1
  Y  Y3  1  0.333333  0.666667  0.132023  1
  Zn  Zn4  1  0.171620  0.828380  0.817338  1
  Zn  Zn5  1  0.656759  0.828380  0.817338  1
  Zn  Zn6  1  0.171620  0.343241  0.817338  1
  Zn  Zn7  1  0.828380  0.171620  0.317338  1
  Zn  Zn8  1  0.343241  0.171620  0.317338  1
  Zn  Zn9  1  0.828380  0.656759  0.317338  1
  Fe  Fe10  1  0.000000  0.000000  0.068024  1
  Fe  Fe11  1  0.000000  0.000000  0.568024  1
  O  O12  1  0.508068  0.491932  0.767112  1
  O  O13  1  0.983865  0.491932  0.767112  1
  O  O14  1  0.508068  0.016135  0.767112  1
  O  O15  1  0.491932  0.508068  0.267112  1
  O  O16  1  0.016135  0.508068  0.267112  1
  O  O17  1  0.491932  0.983865  0.267112  1
  O  O18  1  0.161071  0.838929  0.009289  1
  O  O19  1  0.677859  0.838929  0.009289  1
  O  O20  1  0.161071  0.322141  0.009289  1
  O  O21  1  0.838929  0.161071  0.509289  1
  O  O22  1  0.322141  0.161071  0.509289  1
  O  O23  1  0.838929  0.677859  0.509289  1
  O  O24  1  0.000000  0.000000  0.252148  1
  O  O25  1  0.000000  0.000000  0.752148  1
