# generated using pymatgen
data_Tm4Ga2B4IrRh9
_symmetry_space_group_name_H-M   'P 1'
_cell_length_a   9.46354331
_cell_length_b   9.46354331
_cell_length_c   3.18138100
_cell_angle_alpha   90.00000000
_cell_angle_beta   90.00000000
_cell_angle_gamma   90.29946152
_symmetry_Int_Tables_number   1
_chemical_formula_structural   Tm4Ga2B4IrRh9
_chemical_formula_sum   'Tm4 Ga2 B4 Ir1 Rh9'
_cell_volume   284.91630247
_cell_formula_units_Z   1
loop_
 _symmetry_equiv_pos_site_id
 _symmetry_equiv_pos_as_xyz
  1  'x, y, z'
loop_
 _atom_site_type_symbol
 _atom_site_label
 _atom_site_symmetry_multiplicity
 _atom_site_fract_x
 _atom_site_fract_y
 _atom_site_fract_z
 _atom_site_occupancy
  Tm  Tm0  1  0.825135  0.325135  0.000000  1
  Tm  Tm1  1  0.322763  0.177237  0.000000  1
  Tm  Tm2  1  0.677237  0.822763  0.000000  1
  Tm  Tm3  1  0.174865  0.674865  0.000000  1
  Ga  Ga4  1  0.000000  0.000000  0.000000  1
  Ga  Ga5  1  0.500000  0.500000  0.000000  1
  B  B6  1  0.622399  0.122399  0.000000  1
  B  B7  1  0.121796  0.378204  0.000000  1
  B  B8  1  0.878204  0.621796  0.000000  1
  B  B9  1  0.377601  0.877601  0.000000  1
  Ir  Ir10  1  0.500000  0.000000  0.500000  1
  Rh  Rh11  1  0.068913  0.218901  0.500000  1
  Rh  Rh12  1  0.218229  0.929515  0.500000  1
  Rh  Rh13  1  0.781771  0.070485  0.500000  1
  Rh  Rh14  1  0.931087  0.781099  0.500000  1
  Rh  Rh15  1  0.429515  0.718229  0.500000  1
  Rh  Rh16  1  0.570485  0.281771  0.500000  1
  Rh  Rh17  1  0.718901  0.568913  0.500000  1
  Rh  Rh18  1  0.281099  0.431087  0.500000  1
  Rh  Rh19  1  0.000000  0.500000  0.500000  1
