# generated using pymatgen
data_Tb7Dy9(ZnRh)4
_symmetry_space_group_name_H-M   'P 1'
_cell_length_a   9.50615639
_cell_length_b   9.51540419
_cell_length_c   9.50884186
_cell_angle_alpha   59.95850178
_cell_angle_beta   59.93937459
_cell_angle_gamma   59.98649517
_symmetry_Int_Tables_number   1
_chemical_formula_structural   Tb7Dy9(ZnRh)4
_chemical_formula_sum   'Tb7 Dy9 Zn4 Rh4'
_cell_volume   607.66595141
_cell_formula_units_Z   1
loop_
 _symmetry_equiv_pos_site_id
 _symmetry_equiv_pos_as_xyz
  1  'x, y, z'
loop_
 _atom_site_type_symbol
 _atom_site_label
 _atom_site_symmetry_multiplicity
 _atom_site_fract_x
 _atom_site_fract_y
 _atom_site_fract_z
 _atom_site_occupancy
  Tb  Tb0  1  0.062340  0.646215  0.645341  1
  Tb  Tb1  1  0.436455  0.064441  0.063523  1
  Tb  Tb2  1  0.435921  0.064079  0.435921  1
  Tb  Tb3  1  0.063957  0.436043  0.063957  1
  Tb  Tb4  1  0.645341  0.646105  0.062340  1
  Tb  Tb5  1  0.190807  0.809193  0.190807  1
  Tb  Tb6  1  0.063523  0.435581  0.436455  1
  Dy  Dy7  1  0.809296  0.808858  0.191304  1
  Dy  Dy8  1  0.808881  0.191119  0.808881  1
  Dy  Dy9  1  0.191304  0.190542  0.809296  1
  Dy  Dy10  1  0.646153  0.060877  0.645964  1
  Dy  Dy11  1  0.063244  0.064035  0.436805  1
  Dy  Dy12  1  0.436805  0.435916  0.063244  1
  Dy  Dy13  1  0.645964  0.647006  0.646153  1
  Dy  Dy14  1  0.809190  0.190649  0.191420  1
  Dy  Dy15  1  0.191420  0.808741  0.809190  1
  Zn  Zn16  1  0.420904  0.420026  0.420682  1
  Zn  Zn17  1  0.420945  0.420227  0.738792  1
  Zn  Zn18  1  0.420682  0.738388  0.420904  1
  Zn  Zn19  1  0.738792  0.420037  0.420945  1
  Rh  Rh20  1  0.856122  0.429218  0.856521  1
  Rh  Rh21  1  0.856521  0.858140  0.856122  1
  Rh  Rh22  1  0.855172  0.857475  0.430263  1
  Rh  Rh23  1  0.430263  0.857091  0.855172  1
