# generated using pymatgen
data_Gd3Y(CrB4)4
_symmetry_space_group_name_H-M   'P 1'
_cell_length_a   5.96065600
_cell_length_b   11.52264501
_cell_length_c   3.46708000
_cell_angle_alpha   90.00000000
_cell_angle_beta   90.00000000
_cell_angle_gamma   90.02235831
_symmetry_Int_Tables_number   1
_chemical_formula_structural   Gd3Y(CrB4)4
_chemical_formula_sum   'Gd3 Y1 Cr4 B16'
_cell_volume   238.12778423
_cell_formula_units_Z   1
loop_
 _symmetry_equiv_pos_site_id
 _symmetry_equiv_pos_as_xyz
  1  'x, y, z'
loop_
 _atom_site_type_symbol
 _atom_site_label
 _atom_site_symmetry_multiplicity
 _atom_site_fract_x
 _atom_site_fract_y
 _atom_site_fract_z
 _atom_site_occupancy
  Gd  Gd0  1  0.375886  0.650770  0.000000  1
  Gd  Gd1  1  0.124295  0.151080  0.000000  1
  Gd  Gd2  1  0.875859  0.849118  0.000000  1
  Y  Y3  1  0.624178  0.349054  0.000000  1
  Cr  Cr4  1  0.623443  0.080801  0.000000  1
  Cr  Cr5  1  0.376878  0.919816  0.000000  1
  Cr  Cr6  1  0.123325  0.419267  0.000000  1
  Cr  Cr7  1  0.876585  0.580099  0.000000  1
  B  B8  1  0.779805  0.184093  0.500000  1
  B  B9  1  0.220328  0.816477  0.500000  1
  B  B10  1  0.280356  0.316238  0.500000  1
  B  B11  1  0.720267  0.683393  0.500000  1
  B  B12  1  0.861686  0.032790  0.500000  1
  B  B13  1  0.138325  0.967523  0.500000  1
  B  B14  1  0.362051  0.467240  0.500000  1
  B  B15  1  0.637896  0.532193  0.500000  1
  B  B16  1  0.886607  0.453148  0.500000  1
  B  B17  1  0.112800  0.546171  0.500000  1
  B  B18  1  0.387236  0.046766  0.500000  1
  B  B19  1  0.612949  0.953699  0.500000  1
  B  B20  1  0.974652  0.309058  0.500000  1
  B  B21  1  0.024721  0.690543  0.500000  1
  B  B22  1  0.475180  0.191303  0.500000  1
  B  B23  1  0.524695  0.809360  0.500000  1
