# generated using pymatgen
data_Dy20IrPt2Rh9
_symmetry_space_group_name_H-M   'P 1'
_cell_length_a   10.95750565
_cell_length_b   10.95672248
_cell_length_c   6.33817324
_cell_angle_alpha   90.02469704
_cell_angle_beta   89.98503221
_cell_angle_gamma   90.12807922
_symmetry_Int_Tables_number   1
_chemical_formula_structural   Dy20IrPt2Rh9
_chemical_formula_sum   'Dy20 Ir1 Pt2 Rh9'
_cell_volume   760.94861340
_cell_formula_units_Z   1
loop_
 _symmetry_equiv_pos_site_id
 _symmetry_equiv_pos_as_xyz
  1  'x, y, z'
loop_
 _atom_site_type_symbol
 _atom_site_label
 _atom_site_symmetry_multiplicity
 _atom_site_fract_x
 _atom_site_fract_y
 _atom_site_fract_z
 _atom_site_occupancy
  Dy  Dy0  1  0.291524  0.089530  0.379032  1
  Dy  Dy1  1  0.291027  0.908714  0.878992  1
  Dy  Dy2  1  0.707819  0.088525  0.880077  1
  Dy  Dy3  1  0.707220  0.911056  0.375763  1
  Dy  Dy4  1  0.585571  0.790156  0.878822  1
  Dy  Dy5  1  0.588261  0.207249  0.376961  1
  Dy  Dy6  1  0.409395  0.790941  0.380058  1
  Dy  Dy7  1  0.408870  0.207754  0.879893  1
  Dy  Dy8  1  0.209900  0.412272  0.621362  1
  Dy  Dy9  1  0.209103  0.590243  0.119920  1
  Dy  Dy10  1  0.792415  0.411129  0.123630  1
  Dy  Dy11  1  0.792241  0.588889  0.620011  1
  Dy  Dy12  1  0.912053  0.707402  0.123689  1
  Dy  Dy13  1  0.912838  0.290896  0.621121  1
  Dy  Dy14  1  0.092382  0.707589  0.619771  1
  Dy  Dy15  1  0.090382  0.291923  0.121384  1
  Dy  Dy16  1  0.001186  0.000437  0.499455  1
  Dy  Dy17  1  0.001370  0.001714  0.000794  1
  Dy  Dy18  1  0.498356  0.500670  0.001022  1
  Dy  Dy19  1  0.498808  0.501747  0.498826  1
  Ir  Ir20  1  0.346045  0.654440  0.750319  1
  Pt  Pt21  1  0.844772  0.845813  0.750702  1
  Pt  Pt22  1  0.654866  0.345618  0.749516  1
  Rh  Rh23  1  0.845334  0.154411  0.249906  1
  Rh  Rh24  1  0.153981  0.154842  0.749271  1
  Rh  Rh25  1  0.153367  0.846585  0.249988  1
  Rh  Rh26  1  0.655659  0.654565  0.250221  1
  Rh  Rh27  1  0.345886  0.344744  0.249689  1
  Rh  Rh28  1  0.500505  0.000231  0.124517  1
  Rh  Rh29  1  0.500047  0.000688  0.625733  1
  Rh  Rh30  1  0.999528  0.499784  0.874161  1
  Rh  Rh31  1  0.999290  0.499441  0.375396  1
