# generated using pymatgen
data_Ho3Zr4Sn23Ru6
_symmetry_space_group_name_H-M   'P 1'
_cell_length_a   9.77054640
_cell_length_b   9.75455971
_cell_length_c   9.90338007
_cell_angle_alpha   89.99999933
_cell_angle_beta   89.98858475
_cell_angle_gamma   119.94589157
_symmetry_Int_Tables_number   1
_chemical_formula_structural   Ho3Zr4Sn23Ru6
_chemical_formula_sum   'Ho3 Zr4 Sn23 Ru6'
_cell_volume   817.85652527
_cell_formula_units_Z   1
loop_
 _symmetry_equiv_pos_site_id
 _symmetry_equiv_pos_as_xyz
  1  'x, y, z'
loop_
 _atom_site_type_symbol
 _atom_site_label
 _atom_site_symmetry_multiplicity
 _atom_site_fract_x
 _atom_site_fract_y
 _atom_site_fract_z
 _atom_site_occupancy
  Ho  Ho0  1  0.001234  0.000617  0.999320  1
  Ho  Ho1  1  0.484261  0.967865  0.306215  1
  Ho  Ho2  1  0.484261  0.516397  0.306215  1
  Zr  Zr3  1  0.514221  0.484462  0.692178  1
  Zr  Zr4  1  0.514221  0.029757  0.692178  1
  Zr  Zr5  1  0.971498  0.485748  0.694317  1
  Zr  Zr6  1  0.028024  0.514013  0.305425  1
  Sn  Sn7  1  0.666830  0.333415  0.173825  1
  Sn  Sn8  1  0.666128  0.333064  0.861091  1
  Sn  Sn9  1  0.324118  0.662059  0.129916  1
  Sn  Sn10  1  0.350145  0.351034  0.999189  1
  Sn  Sn11  1  0.000889  0.649783  0.999959  1
  Sn  Sn12  1  0.649923  0.000014  0.000205  1
  Sn  Sn13  1  0.649923  0.649909  0.000205  1
  Sn  Sn14  1  0.334239  0.667120  0.824819  1
  Sn  Sn15  1  0.442980  0.221491  0.467263  1
  Sn  Sn16  1  0.219402  0.776800  0.537401  1
  Sn  Sn17  1  0.219402  0.442600  0.537401  1
  Sn  Sn18  1  0.559044  0.779521  0.540102  1
  Sn  Sn19  1  0.118750  0.879815  0.278143  1
  Sn  Sn20  1  0.781794  0.556969  0.465904  1
  Sn  Sn21  1  0.781794  0.224827  0.465904  1
  Sn  Sn22  1  0.350145  0.999111  0.999189  1
  Sn  Sn23  1  0.118750  0.238933  0.278143  1
  Sn  Sn24  1  0.765623  0.882811  0.277698  1
  Sn  Sn25  1  0.241737  0.120869  0.722419  1
  Sn  Sn26  1  0.878845  0.758148  0.721752  1
  Sn  Sn27  1  0.878845  0.120697  0.721752  1
  Sn  Sn28  1  0.000852  0.000426  0.502481  1
  Sn  Sn29  1  0.000889  0.351106  0.999959  1
  Ru  Ru30  1  0.170412  0.827991  0.796032  1
  Ru  Ru31  1  0.170412  0.342420  0.796032  1
  Ru  Ru32  1  0.658672  0.829335  0.797828  1
  Ru  Ru33  1  0.340468  0.170234  0.202887  1
  Ru  Ru34  1  0.830634  0.656940  0.203326  1
  Ru  Ru35  1  0.830634  0.173695  0.203326  1
