# generated using pymatgen
data_Na3LiIr2F12
_symmetry_space_group_name_H-M   'P 1'
_cell_length_a   5.25130200
_cell_length_b   5.25130200
_cell_length_c   18.84554300
_cell_angle_alpha   90.00000000
_cell_angle_beta   90.00000000
_cell_angle_gamma   90.00000000
_symmetry_Int_Tables_number   1
_chemical_formula_structural   Na3LiIr2F12
_chemical_formula_sum   'Na6 Li2 Ir4 F24'
_cell_volume   519.68794830
_cell_formula_units_Z   2
loop_
 _symmetry_equiv_pos_site_id
 _symmetry_equiv_pos_as_xyz
  1  'x, y, z'
loop_
 _atom_site_type_symbol
 _atom_site_label
 _atom_site_symmetry_multiplicity
 _atom_site_fract_x
 _atom_site_fract_y
 _atom_site_fract_z
 _atom_site_occupancy
  Na  Na0  1  0.000000  0.500000  0.304073  1
  Na  Na1  1  0.500000  0.000000  0.695927  1
  Na  Na2  1  0.500000  0.000000  0.195927  1
  Na  Na3  1  0.000000  0.500000  0.804073  1
  Na  Na4  1  0.000000  0.000000  0.500000  1
  Na  Na5  1  0.500000  0.500000  0.000000  1
  Li  Li6  1  0.000000  0.000000  0.000000  1
  Li  Li7  1  0.500000  0.500000  0.500000  1
  Ir  Ir8  1  0.000000  0.500000  0.122751  1
  Ir  Ir9  1  0.500000  0.000000  0.877249  1
  Ir  Ir10  1  0.500000  0.000000  0.377249  1
  Ir  Ir11  1  0.000000  0.500000  0.622751  1
  F  F12  1  0.197529  0.214731  0.380541  1
  F  F13  1  0.802471  0.785269  0.380541  1
  F  F14  1  0.214731  0.802471  0.619459  1
  F  F15  1  0.302471  0.714731  0.119459  1
  F  F16  1  0.785269  0.197529  0.619459  1
  F  F17  1  0.697529  0.285269  0.119459  1
  F  F18  1  0.285269  0.302471  0.880541  1
  F  F19  1  0.714731  0.697529  0.880541  1
  F  F20  1  0.150540  0.289438  0.198572  1
  F  F21  1  0.849460  0.710562  0.198572  1
  F  F22  1  0.289438  0.849460  0.801428  1
  F  F23  1  0.349460  0.789438  0.301428  1
  F  F24  1  0.710562  0.150540  0.801428  1
  F  F25  1  0.650540  0.210562  0.301428  1
  F  F26  1  0.210562  0.349460  0.698572  1
  F  F27  1  0.789438  0.650540  0.698572  1
  F  F28  1  0.154193  0.282425  0.046905  1
  F  F29  1  0.845807  0.717575  0.046905  1
  F  F30  1  0.282425  0.845807  0.953095  1
  F  F31  1  0.345807  0.782425  0.453095  1
  F  F32  1  0.717575  0.154193  0.953095  1
  F  F33  1  0.654193  0.217575  0.453095  1
  F  F34  1  0.217575  0.345807  0.546905  1
  F  F35  1  0.782425  0.654193  0.546905  1
