# generated using pymatgen
data_Dy8Ho7Er5Sn16
_symmetry_space_group_name_H-M   'P 1'
_cell_length_a   8.01203002
_cell_length_b   8.15236103
_cell_length_c   15.41794502
_cell_angle_alpha   89.99585693
_cell_angle_beta   90.00367722
_cell_angle_gamma   89.99179084
_symmetry_Int_Tables_number   1
_chemical_formula_structural   Dy8Ho7Er5Sn16
_chemical_formula_sum   'Dy8 Ho7 Er5 Sn16'
_cell_volume   1007.05330324
_cell_formula_units_Z   1
loop_
 _symmetry_equiv_pos_site_id
 _symmetry_equiv_pos_as_xyz
  1  'x, y, z'
loop_
 _atom_site_type_symbol
 _atom_site_label
 _atom_site_symmetry_multiplicity
 _atom_site_fract_x
 _atom_site_fract_y
 _atom_site_fract_z
 _atom_site_occupancy
  Dy  Dy0  1  0.521458  0.320237  0.902444  1
  Dy  Dy1  1  0.021427  0.179776  0.597555  1
  Dy  Dy2  1  0.478582  0.679774  0.402450  1
  Dy  Dy3  1  0.978552  0.820196  0.097501  1
  Dy  Dy4  1  0.478565  0.679798  0.097549  1
  Dy  Dy5  1  0.978578  0.820217  0.402455  1
  Dy  Dy6  1  0.521423  0.320224  0.597552  1
  Dy  Dy7  1  0.021415  0.179808  0.902458  1
  Ho  Ho8  1  0.367727  0.836082  0.877949  1
  Ho  Ho9  1  0.867707  0.663927  0.622081  1
  Ho  Ho10  1  0.632288  0.163927  0.377944  1
  Ho  Ho11  1  0.132298  0.336063  0.122064  1
  Ho  Ho12  1  0.632290  0.163921  0.122033  1
  Ho  Ho13  1  0.132291  0.336081  0.377948  1
  Ho  Ho14  1  0.367688  0.836073  0.622072  1
  Er  Er15  1  0.867700  0.663876  0.877898  1
  Er  Er16  1  0.198126  0.503260  0.750023  1
  Er  Er17  1  0.698207  0.996715  0.750034  1
  Er  Er18  1  0.801840  0.496789  0.250000  1
  Er  Er19  1  0.301835  0.003220  0.250013  1
  Sn  Sn20  1  0.292769  0.035469  0.041873  1
  Sn  Sn21  1  0.792781  0.464530  0.458121  1
  Sn  Sn22  1  0.707220  0.964532  0.541877  1
  Sn  Sn23  1  0.207021  0.535522  0.958092  1
  Sn  Sn24  1  0.707336  0.964340  0.958080  1
  Sn  Sn25  1  0.207229  0.535474  0.541883  1
  Sn  Sn26  1  0.292778  0.035467  0.458123  1
  Sn  Sn27  1  0.792827  0.464656  0.041776  1
  Sn  Sn28  1  0.565009  0.619820  0.750044  1
  Sn  Sn29  1  0.064796  0.880097  0.750047  1
  Sn  Sn30  1  0.435104  0.380198  0.249998  1
  Sn  Sn31  1  0.935102  0.119799  0.250004  1
  Sn  Sn32  1  0.329725  0.147162  0.750002  1
  Sn  Sn33  1  0.829742  0.352959  0.750054  1
  Sn  Sn34  1  0.670275  0.852853  0.250003  1
  Sn  Sn35  1  0.170287  0.647157  0.249998  1
