# generated using pymatgen
data_Tb5Er3Cu3Si12Pd
_symmetry_space_group_name_H-M   'P 1'
_cell_length_a   8.03747885
_cell_length_b   8.03097238
_cell_length_c   8.09522208
_cell_angle_alpha   89.99675306
_cell_angle_beta   90.01484416
_cell_angle_gamma   120.07753284
_symmetry_Int_Tables_number   1
_chemical_formula_structural   Tb5Er3Cu3Si12Pd
_chemical_formula_sum   'Tb5 Er3 Cu3 Si12 Pd1'
_cell_volume   452.17601877
_cell_formula_units_Z   1
loop_
 _symmetry_equiv_pos_site_id
 _symmetry_equiv_pos_as_xyz
  1  'x, y, z'
loop_
 _atom_site_type_symbol
 _atom_site_label
 _atom_site_symmetry_multiplicity
 _atom_site_fract_x
 _atom_site_fract_y
 _atom_site_fract_z
 _atom_site_occupancy
  Tb  Tb0  1  0.998419  0.499163  0.750801  1
  Tb  Tb1  1  0.500665  0.499293  0.249330  1
  Tb  Tb2  1  0.500779  0.499155  0.750822  1
  Tb  Tb3  1  0.999971  0.999964  0.249129  1
  Tb  Tb4  1  0.000017  0.999980  0.750857  1
  Er  Er5  1  0.500574  0.001083  0.249519  1
  Er  Er6  1  0.500674  0.001330  0.750615  1
  Er  Er7  1  0.998880  0.499394  0.249503  1
  Cu  Cu8  1  0.333380  0.667389  0.000895  1
  Cu  Cu9  1  0.666645  0.332613  0.000417  1
  Cu  Cu10  1  0.666668  0.332650  0.498390  1
  Si  Si11  1  0.169305  0.339027  0.000117  1
  Si  Si12  1  0.831216  0.661864  0.001255  1
  Si  Si13  1  0.660645  0.830717  0.999661  1
  Si  Si14  1  0.831238  0.662152  0.499805  1
  Si  Si15  1  0.338342  0.168633  0.000839  1
  Si  Si16  1  0.166015  0.332359  0.498891  1
  Si  Si17  1  0.170014  0.830372  0.000090  1
  Si  Si18  1  0.337970  0.168652  0.500238  1
  Si  Si19  1  0.830491  0.168983  0.001276  1
  Si  Si20  1  0.667790  0.834188  0.499337  1
  Si  Si21  1  0.830802  0.168862  0.499858  1
  Si  Si22  1  0.166148  0.834111  0.498870  1
  Pd  Pd23  1  0.333352  0.668061  0.499482  1
