# generated using pymatgen
data_Lu4SiSn5Ir7
_symmetry_space_group_name_H-M   'P 1'
_cell_length_a   7.46474969
_cell_length_b   7.46474926
_cell_length_c   7.46474943
_cell_angle_alpha   109.40595821
_cell_angle_beta   109.50386661
_cell_angle_gamma   109.50386093
_symmetry_Int_Tables_number   1
_chemical_formula_structural   Lu4SiSn5Ir7
_chemical_formula_sum   'Lu4 Si1 Sn5 Ir7'
_cell_volume   320.20150782
_cell_formula_units_Z   1
loop_
 _symmetry_equiv_pos_site_id
 _symmetry_equiv_pos_as_xyz
  1  'x, y, z'
loop_
 _atom_site_type_symbol
 _atom_site_label
 _atom_site_symmetry_multiplicity
 _atom_site_fract_x
 _atom_site_fract_y
 _atom_site_fract_z
 _atom_site_occupancy
  Lu  Lu0  1  0.000000  0.986173  0.532034  1
  Lu  Lu1  1  0.000000  0.532034  0.986173  1
  Lu  Lu2  1  0.454139  0.986173  0.986173  1
  Lu  Lu3  1  0.545861  0.532034  0.532034  1
  Si  Si4  1  0.000000  0.650702  0.650702  1
  Sn  Sn5  1  0.689236  0.704536  0.015300  1
  Sn  Sn6  1  0.310764  0.015300  0.326064  1
  Sn  Sn7  1  0.000000  0.289135  0.289135  1
  Sn  Sn8  1  0.310764  0.326064  0.015300  1
  Sn  Sn9  1  0.689236  0.015300  0.704536  1
  Ir  Ir10  1  0.755781  0.253460  0.497679  1
  Ir  Ir11  1  0.755781  0.497679  0.253460  1
  Ir  Ir12  1  0.500000  0.260573  0.760573  1
  Ir  Ir13  1  0.244219  0.497679  0.741897  1
  Ir  Ir14  1  0.244219  0.741897  0.497679  1
  Ir  Ir15  1  0.500000  0.760573  0.260573  1
  Ir  Ir16  1  0.000000  0.950690  0.950690  1
