# generated using pymatgen
data_Tb10AlBi5
_symmetry_space_group_name_H-M   'P 1'
_cell_length_a   9.15336557
_cell_length_b   9.15336506
_cell_length_c   6.43682700
_cell_angle_alpha   90.00000000
_cell_angle_beta   90.00000000
_cell_angle_gamma   119.81778682
_symmetry_Int_Tables_number   1
_chemical_formula_structural   Tb10AlBi5
_chemical_formula_sum   'Tb10 Al1 Bi5'
_cell_volume   467.90592392
_cell_formula_units_Z   1
loop_
 _symmetry_equiv_pos_site_id
 _symmetry_equiv_pos_as_xyz
  1  'x, y, z'
loop_
 _atom_site_type_symbol
 _atom_site_label
 _atom_site_symmetry_multiplicity
 _atom_site_fract_x
 _atom_site_fract_y
 _atom_site_fract_z
 _atom_site_occupancy
  Tb  Tb0  1  0.659902  0.335462  0.996932  1
  Tb  Tb1  1  0.335462  0.659902  0.996932  1
  Tb  Tb2  1  0.335462  0.659902  0.503068  1
  Tb  Tb3  1  0.659902  0.335462  0.503068  1
  Tb  Tb4  1  0.750107  0.750107  0.750000  1
  Tb  Tb5  1  0.243723  0.012515  0.750000  1
  Tb  Tb6  1  0.012515  0.243723  0.750000  1
  Tb  Tb7  1  0.240678  0.240678  0.250000  1
  Tb  Tb8  1  0.758262  0.000338  0.250000  1
  Tb  Tb9  1  0.000338  0.758262  0.250000  1
  Al  Al10  1  0.395396  0.395396  0.750000  1
  Bi  Bi11  1  0.611532  0.002578  0.750000  1
  Bi  Bi12  1  0.002578  0.611532  0.750000  1
  Bi  Bi13  1  0.607837  0.607837  0.250000  1
  Bi  Bi14  1  0.390225  0.996082  0.250000  1
  Bi  Bi15  1  0.996082  0.390225  0.250000  1
