# generated using pymatgen
data_Dy8YTm11Bi12
_symmetry_space_group_name_H-M   'P 1'
_cell_length_a   8.20278013
_cell_length_b   9.44694133
_cell_length_c   12.00460875
_cell_angle_alpha   89.98583278
_cell_angle_beta   90.04991307
_cell_angle_gamma   89.99026032
_symmetry_Int_Tables_number   1
_chemical_formula_structural   Dy8YTm11Bi12
_chemical_formula_sum   'Dy8 Y1 Tm11 Bi12'
_cell_volume   930.25093422
_cell_formula_units_Z   1
loop_
 _symmetry_equiv_pos_site_id
 _symmetry_equiv_pos_as_xyz
  1  'x, y, z'
loop_
 _atom_site_type_symbol
 _atom_site_label
 _atom_site_symmetry_multiplicity
 _atom_site_fract_x
 _atom_site_fract_y
 _atom_site_fract_z
 _atom_site_occupancy
  Dy  Dy0  1  0.186148  0.750018  0.718565  1
  Dy  Dy1  1  0.686416  0.750048  0.781615  1
  Dy  Dy2  1  0.813659  0.249406  0.281111  1
  Dy  Dy3  1  0.313603  0.249800  0.218224  1
  Dy  Dy4  1  0.807686  0.437038  0.559288  1
  Dy  Dy5  1  0.353861  0.749841  0.216327  1
  Dy  Dy6  1  0.853363  0.749427  0.283561  1
  Dy  Dy7  1  0.645172  0.248910  0.784083  1
  Y  Y8  1  0.146999  0.249193  0.716483  1
  Tm  Tm9  1  0.024761  0.749799  0.989048  1
  Tm  Tm10  1  0.524491  0.749908  0.511154  1
  Tm  Tm11  1  0.975235  0.249849  0.011145  1
  Tm  Tm12  1  0.474634  0.249555  0.488814  1
  Tm  Tm13  1  0.307500  0.434166  0.940874  1
  Tm  Tm14  1  0.807270  0.066269  0.559513  1
  Tm  Tm15  1  0.692568  0.934136  0.059203  1
  Tm  Tm16  1  0.192324  0.566036  0.440644  1
  Tm  Tm17  1  0.692427  0.565962  0.059256  1
  Tm  Tm18  1  0.193289  0.934408  0.440273  1
  Tm  Tm19  1  0.307500  0.065700  0.941059  1
  Bi  Bi20  1  0.433834  0.003427  0.672399  1
  Bi  Bi21  1  0.933995  0.495756  0.827987  1
  Bi  Bi22  1  0.566188  0.503579  0.327505  1
  Bi  Bi23  1  0.066252  0.995701  0.172198  1
  Bi  Bi24  1  0.566137  0.995816  0.327708  1
  Bi  Bi25  1  0.066490  0.503884  0.172054  1
  Bi  Bi26  1  0.433339  0.495822  0.672454  1
  Bi  Bi27  1  0.933775  0.003761  0.827972  1
  Bi  Bi28  1  0.405585  0.749963  0.957515  1
  Bi  Bi29  1  0.906811  0.753155  0.541865  1
  Bi  Bi30  1  0.594439  0.250131  0.042714  1
  Bi  Bi31  1  0.094249  0.249538  0.457391  1
