# generated using pymatgen
data_Ta3Ga3Ir2Ru
_symmetry_space_group_name_H-M   'P 1'
_cell_length_a   7.46143900
_cell_length_b   7.46143862
_cell_length_c   2.93065000
_cell_angle_alpha   90.00000000
_cell_angle_beta   90.00000000
_cell_angle_gamma   120.00000610
_symmetry_Int_Tables_number   1
_chemical_formula_structural   Ta3Ga3Ir2Ru
_chemical_formula_sum   'Ta3 Ga3 Ir2 Ru1'
_cell_volume   141.29920671
_cell_formula_units_Z   1
loop_
 _symmetry_equiv_pos_site_id
 _symmetry_equiv_pos_as_xyz
  1  'x, y, z'
loop_
 _atom_site_type_symbol
 _atom_site_label
 _atom_site_symmetry_multiplicity
 _atom_site_fract_x
 _atom_site_fract_y
 _atom_site_fract_z
 _atom_site_occupancy
  Ta  Ta0  1  0.363515  0.000000  0.500001  1
  Ta  Ta1  1  0.000000  0.363515  0.500001  1
  Ta  Ta2  1  0.636485  0.636486  0.500001  1
  Ga  Ga3  1  0.706592  0.000000  0.000000  1
  Ga  Ga4  1  0.293408  0.293409  0.000000  1
  Ga  Ga5  1  0.000000  0.706592  0.000000  1
  Ir  Ir6  1  0.666667  0.333334  0.000000  1
  Ir  Ir7  1  0.333334  0.666667  0.000000  1
  Ru  Ru8  1  0.000000  0.000000  0.500001  1
