# generated using pymatgen
data_Dy2MgCo8P6Ru
_symmetry_space_group_name_H-M   'P 1'
_cell_length_a   3.69254900
_cell_length_b   10.38361500
_cell_length_c   11.89300400
_cell_angle_alpha   90.00000000
_cell_angle_beta   90.00000000
_cell_angle_gamma   90.00000000
_symmetry_Int_Tables_number   1
_chemical_formula_structural   Dy2MgCo8P6Ru
_chemical_formula_sum   'Dy4 Mg2 Co16 P12 Ru2'
_cell_volume   456.00164481
_cell_formula_units_Z   2
loop_
 _symmetry_equiv_pos_site_id
 _symmetry_equiv_pos_as_xyz
  1  'x, y, z'
loop_
 _atom_site_type_symbol
 _atom_site_label
 _atom_site_symmetry_multiplicity
 _atom_site_fract_x
 _atom_site_fract_y
 _atom_site_fract_z
 _atom_site_occupancy
  Dy  Dy0  1  0.250000  0.581716  0.703164  1
  Dy  Dy1  1  0.250000  0.918284  0.203164  1
  Dy  Dy2  1  0.750000  0.416848  0.295512  1
  Dy  Dy3  1  0.750000  0.083152  0.795512  1
  Mg  Mg4  1  0.250000  0.704311  0.990031  1
  Mg  Mg5  1  0.250000  0.795689  0.490031  1
  Co  Co6  1  0.250000  0.404094  0.488892  1
  Co  Co7  1  0.250000  0.095906  0.988892  1
  Co  Co8  1  0.750000  0.589626  0.514742  1
  Co  Co9  1  0.750000  0.910374  0.014742  1
  Co  Co10  1  0.250000  0.223300  0.176398  1
  Co  Co11  1  0.250000  0.276700  0.676398  1
  Co  Co12  1  0.750000  0.780739  0.827328  1
  Co  Co13  1  0.750000  0.719261  0.327328  1
  Co  Co14  1  0.250000  0.886126  0.700078  1
  Co  Co15  1  0.250000  0.613874  0.200078  1
  Co  Co16  1  0.750000  0.116167  0.297411  1
  Co  Co17  1  0.750000  0.383833  0.797411  1
  Co  Co18  1  0.250000  0.462580  0.930687  1
  Co  Co19  1  0.250000  0.037420  0.430687  1
  Co  Co20  1  0.750000  0.534014  0.065584  1
  Co  Co21  1  0.750000  0.965986  0.565584  1
  P  P22  1  0.250000  0.420591  0.112127  1
  P  P23  1  0.250000  0.079409  0.612127  1
  P  P24  1  0.750000  0.576294  0.881664  1
  P  P25  1  0.750000  0.923706  0.381664  1
  P  P26  1  0.250000  0.268257  0.865540  1
  P  P27  1  0.250000  0.231743  0.365540  1
  P  P28  1  0.750000  0.726908  0.143238  1
  P  P29  1  0.750000  0.773092  0.643238  1
  P  P30  1  0.250000  0.591529  0.390834  1
  P  P31  1  0.250000  0.908471  0.890834  1
  P  P32  1  0.750000  0.401146  0.608666  1
  P  P33  1  0.750000  0.098854  0.108666  1
  Ru  Ru34  1  0.750000  0.289135  0.008104  1
  Ru  Ru35  1  0.750000  0.210865  0.508104  1
