# generated using pymatgen
data_Nd11(Fe2C3)6
_symmetry_space_group_name_H-M   'P 1'
_cell_length_a   9.00482987
_cell_length_b   9.00482981
_cell_length_c   9.00483000
_cell_angle_alpha   109.47122107
_cell_angle_beta   109.47122094
_cell_angle_gamma   109.47121729
_symmetry_Int_Tables_number   1
_chemical_formula_structural   Nd11(Fe2C3)6
_chemical_formula_sum   'Nd11 Fe12 C18'
_cell_volume   562.08845133
_cell_formula_units_Z   1
loop_
 _symmetry_equiv_pos_site_id
 _symmetry_equiv_pos_as_xyz
  1  'x, y, z'
loop_
 _atom_site_type_symbol
 _atom_site_label
 _atom_site_symmetry_multiplicity
 _atom_site_fract_x
 _atom_site_fract_y
 _atom_site_fract_z
 _atom_site_occupancy
  Nd  Nd0  1  0.250000  0.750000  0.500000  1
  Nd  Nd1  1  0.750000  0.250000  0.500000  1
  Nd  Nd2  1  0.750000  0.500000  0.250000  1
  Nd  Nd3  1  0.250000  0.500000  0.750000  1
  Nd  Nd4  1  0.500000  0.250000  0.750000  1
  Nd  Nd5  1  0.500000  0.750000  0.250000  1
  Nd  Nd6  1  0.405285  0.405285  0.405285  1
  Nd  Nd7  1  0.594715  0.000000  0.000000  1
  Nd  Nd8  1  0.000000  0.594715  0.000000  1
  Nd  Nd9  1  0.000000  0.000000  0.594715  1
  Nd  Nd10  1  0.000000  0.000000  0.000000  1
  Fe  Fe11  1  0.840233  0.640437  0.640437  1
  Fe  Fe12  1  0.159767  0.800206  0.800206  1
  Fe  Fe13  1  0.000000  0.359563  0.199794  1
  Fe  Fe14  1  0.640437  0.640437  0.840233  1
  Fe  Fe15  1  0.000000  0.199794  0.359563  1
  Fe  Fe16  1  0.800206  0.800206  0.159767  1
  Fe  Fe17  1  0.359563  0.199794  0.000000  1
  Fe  Fe18  1  0.199794  0.359563  0.000000  1
  Fe  Fe19  1  0.640437  0.840233  0.640437  1
  Fe  Fe20  1  0.199794  0.000000  0.359563  1
  Fe  Fe21  1  0.359563  0.000000  0.199794  1
  Fe  Fe22  1  0.800206  0.159767  0.800206  1
  C  C23  1  0.568725  0.568725  0.000000  1
  C  C24  1  0.431275  0.431275  0.000000  1
  C  C25  1  0.568725  0.000000  0.568725  1
  C  C26  1  0.431275  0.000000  0.431275  1
  C  C27  1  0.000000  0.568725  0.568725  1
  C  C28  1  0.000000  0.431275  0.431275  1
  C  C29  1  0.504264  0.706458  0.706458  1
  C  C30  1  0.495736  0.202194  0.202194  1
  C  C31  1  0.000000  0.293542  0.797806  1
  C  C32  1  0.706458  0.706458  0.504264  1
  C  C33  1  0.000000  0.797806  0.293542  1
  C  C34  1  0.202194  0.202194  0.495736  1
  C  C35  1  0.293542  0.797806  0.000000  1
  C  C36  1  0.797806  0.293542  0.000000  1
  C  C37  1  0.706458  0.504264  0.706458  1
  C  C38  1  0.797806  0.000000  0.293542  1
  C  C39  1  0.293542  0.000000  0.797806  1
  C  C40  1  0.202194  0.495736  0.202194  1
