# generated using pymatgen
data_Er7(TmIn2)3
_symmetry_space_group_name_H-M   'P 1'
_cell_length_a   9.07598374
_cell_length_b   9.07598295
_cell_length_c   9.07627364
_cell_angle_alpha   96.41428486
_cell_angle_beta   96.38849906
_cell_angle_gamma   140.98734218
_symmetry_Int_Tables_number   1
_chemical_formula_structural   Er7(TmIn2)3
_chemical_formula_sum   'Er7 Tm3 In6'
_cell_volume   443.62546094
_cell_formula_units_Z   1
loop_
 _symmetry_equiv_pos_site_id
 _symmetry_equiv_pos_as_xyz
  1  'x, y, z'
loop_
 _atom_site_type_symbol
 _atom_site_label
 _atom_site_symmetry_multiplicity
 _atom_site_fract_x
 _atom_site_fract_y
 _atom_site_fract_z
 _atom_site_occupancy
  Er  Er0  1  0.717449  0.418255  0.135704  1
  Er  Er1  1  0.282648  0.581677  0.864325  1
  Er  Er2  1  0.581883  0.717585  0.299467  1
  Er  Er3  1  0.217506  0.081772  0.299278  1
  Er  Er4  1  0.918086  0.217568  0.135654  1
  Er  Er5  1  0.749987  0.249949  0.499995  1
  Er  Er6  1  0.250046  0.750007  0.499995  1
  Tm  Tm7  1  0.782583  0.918290  0.700874  1
  Tm  Tm8  1  0.418192  0.282686  0.700879  1
  Tm  Tm9  1  0.081825  0.782682  0.864507  1
  In  In10  1  0.838041  0.662040  0.500081  1
  In  In11  1  0.338021  0.837971  0.175992  1
  In  In12  1  0.750073  0.749922  0.999774  1
  In  In13  1  0.661816  0.161924  0.823740  1
  In  In14  1  0.161994  0.337970  0.499964  1
  In  In15  1  0.249852  0.249700  0.999774  1
