# generated using pymatgen
data_HoEr7(Sc3Pt4)4
_symmetry_space_group_name_H-M   'P 1'
_cell_length_a   7.23086403
_cell_length_b   7.28546801
_cell_length_c   14.14038703
_cell_angle_alpha   89.99869510
_cell_angle_beta   90.00675480
_cell_angle_gamma   89.99291127
_symmetry_Int_Tables_number   1
_chemical_formula_structural   HoEr7(Sc3Pt4)4
_chemical_formula_sum   'Ho1 Er7 Sc12 Pt16'
_cell_volume   744.91880965
_cell_formula_units_Z   1
loop_
 _symmetry_equiv_pos_site_id
 _symmetry_equiv_pos_as_xyz
  1  'x, y, z'
loop_
 _atom_site_type_symbol
 _atom_site_label
 _atom_site_symmetry_multiplicity
 _atom_site_fract_x
 _atom_site_fract_y
 _atom_site_fract_z
 _atom_site_occupancy
  Ho  Ho0  1  0.996991  0.822748  0.592498  1
  Er  Er1  1  0.497051  0.677253  0.592522  1
  Er  Er2  1  0.997139  0.822680  0.907459  1
  Er  Er3  1  0.502919  0.322692  0.092506  1
  Er  Er4  1  0.002856  0.177448  0.407427  1
  Er  Er5  1  0.502899  0.322721  0.407482  1
  Er  Er6  1  0.002984  0.177344  0.092550  1
  Er  Er7  1  0.497125  0.677269  0.907471  1
  Sc  Sc8  1  0.655343  0.168231  0.624378  1
  Sc  Sc9  1  0.155546  0.331905  0.875676  1
  Sc  Sc10  1  0.344472  0.831894  0.124335  1
  Sc  Sc11  1  0.844349  0.668044  0.375578  1
  Sc  Sc12  1  0.344493  0.831822  0.375630  1
  Sc  Sc13  1  0.844465  0.668134  0.124330  1
  Sc  Sc14  1  0.655519  0.168160  0.875684  1
  Sc  Sc15  1  0.155603  0.331897  0.624356  1
  Sc  Sc16  1  0.821410  0.503699  0.750046  1
  Sc  Sc17  1  0.321530  0.996298  0.750060  1
  Sc  Sc18  1  0.178534  0.496268  0.249993  1
  Sc  Sc19  1  0.678541  0.003754  0.249978  1
  Pt  Pt20  1  0.680969  0.959566  0.458816  1
  Pt  Pt21  1  0.181089  0.540528  0.041080  1
  Pt  Pt22  1  0.318868  0.040557  0.958921  1
  Pt  Pt23  1  0.818808  0.459050  0.540998  1
  Pt  Pt24  1  0.319240  0.040860  0.540992  1
  Pt  Pt25  1  0.818876  0.459462  0.958899  1
  Pt  Pt26  1  0.681127  0.959415  0.041070  1
  Pt  Pt27  1  0.181161  0.540335  0.458815  1
  Pt  Pt28  1  0.457408  0.380937  0.750018  1
  Pt  Pt29  1  0.957263  0.119112  0.750114  1
  Pt  Pt30  1  0.542620  0.618967  0.249989  1
  Pt  Pt31  1  0.042670  0.881099  0.249997  1
  Pt  Pt32  1  0.683545  0.855098  0.750123  1
  Pt  Pt33  1  0.183936  0.644660  0.750227  1
  Pt  Pt34  1  0.316332  0.144932  0.249995  1
  Pt  Pt35  1  0.816317  0.355160  0.249989  1
