# generated using pymatgen
data_Tb5Y3Hf11Si16Hg
_symmetry_space_group_name_H-M   'P 1'
_cell_length_a   7.30979663
_cell_length_b   7.31052358
_cell_length_c   13.30917916
_cell_angle_alpha   89.76354455
_cell_angle_beta   90.21994101
_cell_angle_gamma   89.77615838
_symmetry_Int_Tables_number   1
_chemical_formula_structural   Tb5Y3Hf11Si16Hg
_chemical_formula_sum   'Tb5 Y3 Hf11 Si16 Hg1'
_cell_volume   711.20501170
_cell_formula_units_Z   1
loop_
 _symmetry_equiv_pos_site_id
 _symmetry_equiv_pos_as_xyz
  1  'x, y, z'
loop_
 _atom_site_type_symbol
 _atom_site_label
 _atom_site_symmetry_multiplicity
 _atom_site_fract_x
 _atom_site_fract_y
 _atom_site_fract_z
 _atom_site_occupancy
  Tb  Tb0  1  0.498884  0.847222  0.032750  1
  Tb  Tb1  1  0.847331  0.498780  0.966937  1
  Tb  Tb2  1  0.495871  0.154518  0.535006  1
  Tb  Tb3  1  0.346644  0.997180  0.788365  1
  Tb  Tb4  1  0.655852  0.004380  0.284251  1
  Y  Y5  1  0.996894  0.346872  0.211915  1
  Y  Y6  1  0.004247  0.655579  0.715797  1
  Y  Y7  1  0.154427  0.496162  0.465018  1
  Hf  Hf8  1  0.824512  0.824558  0.499989  1
  Hf  Hf9  1  0.323280  0.677074  0.249901  1
  Hf  Hf10  1  0.676989  0.323327  0.749970  1
  Hf  Hf11  1  0.145196  0.997124  0.375386  1
  Hf  Hf12  1  0.856297  0.002624  0.878182  1
  Hf  Hf13  1  0.504932  0.646804  0.626343  1
  Hf  Hf14  1  0.355908  0.491249  0.877322  1
  Hf  Hf15  1  0.491071  0.355925  0.122603  1
  Hf  Hf16  1  0.646712  0.504955  0.373824  1
  Hf  Hf17  1  0.997474  0.144997  0.624893  1
  Hf  Hf18  1  0.002549  0.856276  0.121752  1
  Si  Si19  1  0.359612  0.296383  0.317125  1
  Si  Si20  1  0.640547  0.703494  0.819168  1
  Si  Si21  1  0.207183  0.860669  0.568861  1
  Si  Si22  1  0.131034  0.772191  0.926185  1
  Si  Si23  1  0.772756  0.131225  0.073716  1
  Si  Si24  1  0.860834  0.207222  0.431406  1
  Si  Si25  1  0.296245  0.359794  0.682934  1
  Si  Si26  1  0.703641  0.640288  0.180728  1
  Si  Si27  1  0.297645  0.048869  0.192600  1
  Si  Si28  1  0.705863  0.950390  0.686411  1
  Si  Si29  1  0.449681  0.794769  0.436179  1
  Si  Si30  1  0.210929  0.569807  0.064914  1
  Si  Si31  1  0.570068  0.211118  0.934997  1
  Si  Si32  1  0.795041  0.449830  0.563757  1
  Si  Si33  1  0.048754  0.298086  0.807255  1
  Si  Si34  1  0.950489  0.705713  0.313533  1
  Hg  Hg35  1  0.174607  0.174544  0.000024  1
