# generated using pymatgen
data_Lu6Sc2Ta3Si16Mo9
_symmetry_space_group_name_H-M   'P 1'
_cell_length_a   6.68791607
_cell_length_b   6.90286018
_cell_length_c   12.87590380
_cell_angle_alpha   89.91209804
_cell_angle_beta   89.99906803
_cell_angle_gamma   89.86654343
_symmetry_Int_Tables_number   1
_chemical_formula_structural   Lu6Sc2Ta3Si16Mo9
_chemical_formula_sum   'Lu6 Sc2 Ta3 Si16 Mo9'
_cell_volume   594.42343810
_cell_formula_units_Z   1
loop_
 _symmetry_equiv_pos_site_id
 _symmetry_equiv_pos_as_xyz
  1  'x, y, z'
loop_
 _atom_site_type_symbol
 _atom_site_label
 _atom_site_symmetry_multiplicity
 _atom_site_fract_x
 _atom_site_fract_y
 _atom_site_fract_z
 _atom_site_occupancy
  Lu  Lu0  1  0.495653  0.329252  0.093455  1
  Lu  Lu1  1  0.998399  0.169974  0.406503  1
  Lu  Lu2  1  0.501563  0.670014  0.592522  1
  Lu  Lu3  1  0.001524  0.828949  0.907331  1
  Lu  Lu4  1  0.501243  0.670900  0.907141  1
  Lu  Lu5  1  0.001197  0.828010  0.593073  1
  Sc  Sc6  1  0.494337  0.327075  0.404430  1
  Sc  Sc7  1  0.998661  0.170971  0.095650  1
  Ta  Ta8  1  0.660207  0.006217  0.750090  1
  Ta  Ta9  1  0.160246  0.493422  0.749886  1
  Ta  Ta10  1  0.339846  0.997837  0.249799  1
  Si  Si11  1  0.663589  0.043478  0.541478  1
  Si  Si12  1  0.162736  0.456284  0.959004  1
  Si  Si13  1  0.332448  0.962056  0.044164  1
  Si  Si14  1  0.831855  0.538385  0.452594  1
  Si  Si15  1  0.338163  0.962597  0.455661  1
  Si  Si16  1  0.837747  0.537717  0.047583  1
  Si  Si17  1  0.665473  0.041419  0.958536  1
  Si  Si18  1  0.164997  0.458450  0.541033  1
  Si  Si19  1  0.536112  0.378439  0.750156  1
  Si  Si20  1  0.035232  0.122197  0.749813  1
  Si  Si21  1  0.469477  0.621650  0.251318  1
  Si  Si22  1  0.963770  0.873824  0.248790  1
  Si  Si23  1  0.795576  0.634191  0.750153  1
  Si  Si24  1  0.295616  0.865552  0.749866  1
  Si  Si25  1  0.198783  0.366798  0.249764  1
  Si  Si26  1  0.705419  0.140196  0.250020  1
  Mo  Mo27  1  0.832736  0.334707  0.623664  1
  Mo  Mo28  1  0.333395  0.165816  0.875063  1
  Mo  Mo29  1  0.171031  0.664550  0.125082  1
  Mo  Mo30  1  0.670276  0.837843  0.374487  1
  Mo  Mo31  1  0.170462  0.664813  0.374938  1
  Mo  Mo32  1  0.669136  0.837308  0.125447  1
  Mo  Mo33  1  0.833134  0.334011  0.876885  1
  Mo  Mo34  1  0.333785  0.166483  0.624342  1
  Mo  Mo35  1  0.836174  0.498620  0.250278  1
