# generated using pymatgen
data_Tb3Ni8As6Pd
_symmetry_space_group_name_H-M   'P 1'
_cell_length_a   3.93930200
_cell_length_b   10.94981200
_cell_length_c   12.81072400
_cell_angle_alpha   90.00000000
_cell_angle_beta   90.00000000
_cell_angle_gamma   90.00000000
_symmetry_Int_Tables_number   1
_chemical_formula_structural   Tb3Ni8As6Pd
_chemical_formula_sum   'Tb6 Ni16 As12 Pd2'
_cell_volume   552.58566441
_cell_formula_units_Z   2
loop_
 _symmetry_equiv_pos_site_id
 _symmetry_equiv_pos_as_xyz
  1  'x, y, z'
loop_
 _atom_site_type_symbol
 _atom_site_label
 _atom_site_symmetry_multiplicity
 _atom_site_fract_x
 _atom_site_fract_y
 _atom_site_fract_z
 _atom_site_occupancy
  Tb  Tb0  1  0.000000  0.500000  0.525879  1
  Tb  Tb1  1  0.500000  0.000000  0.474121  1
  Tb  Tb2  1  0.500000  0.816751  0.207355  1
  Tb  Tb3  1  0.500000  0.183249  0.207355  1
  Tb  Tb4  1  0.000000  0.683249  0.792645  1
  Tb  Tb5  1  0.000000  0.316751  0.792645  1
  Ni  Ni6  1  0.500000  0.500000  0.698811  1
  Ni  Ni7  1  0.000000  0.000000  0.301189  1
  Ni  Ni8  1  0.000000  0.500000  0.983449  1
  Ni  Ni9  1  0.500000  0.000000  0.016551  1
  Ni  Ni10  1  0.500000  0.333026  0.995502  1
  Ni  Ni11  1  0.500000  0.666974  0.995502  1
  Ni  Ni12  1  0.000000  0.166974  0.004498  1
  Ni  Ni13  1  0.000000  0.833026  0.004498  1
  Ni  Ni14  1  0.500000  0.301939  0.427066  1
  Ni  Ni15  1  0.500000  0.698061  0.427066  1
  Ni  Ni16  1  0.000000  0.198061  0.572934  1
  Ni  Ni17  1  0.000000  0.801939  0.572934  1
  Ni  Ni18  1  0.500000  0.879314  0.706240  1
  Ni  Ni19  1  0.500000  0.120686  0.706240  1
  Ni  Ni20  1  0.000000  0.620686  0.293760  1
  Ni  Ni21  1  0.000000  0.379314  0.293760  1
  As  As22  1  0.500000  0.500000  0.876172  1
  As  As23  1  0.000000  0.000000  0.123828  1
  As  As24  1  0.500000  0.500000  0.352409  1
  As  As25  1  0.000000  0.000000  0.647591  1
  As  As26  1  0.500000  0.313469  0.613657  1
  As  As27  1  0.500000  0.686531  0.613657  1
  As  As28  1  0.000000  0.186531  0.386343  1
  As  As29  1  0.000000  0.813469  0.386343  1
  As  As30  1  0.500000  0.842839  0.892334  1
  As  As31  1  0.500000  0.157161  0.892334  1
  As  As32  1  0.000000  0.657161  0.107666  1
  As  As33  1  0.000000  0.342839  0.107666  1
  Pd  Pd34  1  0.500000  0.500000  0.157712  1
  Pd  Pd35  1  0.000000  0.000000  0.842288  1
