# generated using pymatgen
data_Tb3Ho3(Er2Sn3)2
_symmetry_space_group_name_H-M   'P 1'
_cell_length_a   8.94882865
_cell_length_b   8.93701964
_cell_length_c   6.50898200
_cell_angle_alpha   90.00000000
_cell_angle_beta   90.00000000
_cell_angle_gamma   120.00000931
_symmetry_Int_Tables_number   1
_chemical_formula_structural   Tb3Ho3(Er2Sn3)2
_chemical_formula_sum   'Tb3 Ho3 Er4 Sn6'
_cell_volume   450.81936817
_cell_formula_units_Z   1
loop_
 _symmetry_equiv_pos_site_id
 _symmetry_equiv_pos_as_xyz
  1  'x, y, z'
loop_
 _atom_site_type_symbol
 _atom_site_label
 _atom_site_symmetry_multiplicity
 _atom_site_fract_x
 _atom_site_fract_y
 _atom_site_fract_z
 _atom_site_occupancy
  Tb  Tb0  1  0.000106  0.761557  0.750000  1
  Tb  Tb1  1  0.000107  0.238587  0.250000  1
  Tb  Tb2  1  0.761253  0.761261  0.250000  1
  Ho  Ho3  1  0.761151  0.000101  0.750000  1
  Ho  Ho4  1  0.238679  0.238687  0.750000  1
  Ho  Ho5  1  0.238966  0.000102  0.250000  1
  Er  Er6  1  0.333370  0.666689  0.500037  1
  Er  Er7  1  0.666560  0.333221  0.999945  1
  Er  Er8  1  0.666560  0.333221  0.500055  1
  Er  Er9  1  0.333370  0.666689  0.999963  1
  Sn  Sn10  1  0.395859  0.000290  0.750000  1
  Sn  Sn11  1  0.395576  0.395307  0.250000  1
  Sn  Sn12  1  0.000291  0.604739  0.250000  1
  Sn  Sn13  1  0.000007  0.395077  0.750000  1
  Sn  Sn14  1  0.604177  0.604459  0.750000  1
  Sn  Sn15  1  0.603970  0.000015  0.250000  1
