# generated using pymatgen
data_Ca5EuPd6
_symmetry_space_group_name_H-M   'P 1'
_cell_length_a   5.76121179
_cell_length_b   4.47748100
_cell_length_c   22.18682200
_cell_angle_alpha   90.00000000
_cell_angle_beta   97.03415769
_cell_angle_gamma   90.00000000
_symmetry_Int_Tables_number   1
_chemical_formula_structural   Ca5EuPd6
_chemical_formula_sum   'Ca10 Eu2 Pd12'
_cell_volume   568.01726037
_cell_formula_units_Z   2
loop_
 _symmetry_equiv_pos_site_id
 _symmetry_equiv_pos_as_xyz
  1  'x, y, z'
loop_
 _atom_site_type_symbol
 _atom_site_label
 _atom_site_symmetry_multiplicity
 _atom_site_fract_x
 _atom_site_fract_y
 _atom_site_fract_z
 _atom_site_occupancy
  Ca  Ca0  1  0.509753  0.250001  0.229805  1
  Ca  Ca1  1  0.027335  0.750000  0.274864  1
  Ca  Ca2  1  0.811269  0.250001  0.394488  1
  Ca  Ca3  1  0.332953  0.750000  0.439677  1
  Ca  Ca4  1  0.666038  0.250001  0.560522  1
  Ca  Ca5  1  0.187913  0.750000  0.605861  1
  Ca  Ca6  1  0.973501  0.250001  0.726364  1
  Ca  Ca7  1  0.494746  0.750000  0.772497  1
  Ca  Ca8  1  0.822334  0.250001  0.892032  1
  Ca  Ca9  1  0.333806  0.750000  0.937650  1
  Eu  Eu10  1  0.661411  0.250001  0.058872  1
  Eu  Eu11  1  0.181263  0.750000  0.107654  1
  Pd  Pd12  1  0.146419  0.250001  0.012769  1
  Pd  Pd13  1  0.696353  0.750000  0.155107  1
  Pd  Pd14  1  0.988429  0.250001  0.181243  1
  Pd  Pd15  1  0.553489  0.750000  0.322322  1
  Pd  Pd16  1  0.282832  0.250001  0.345987  1
  Pd  Pd17  1  0.854349  0.750000  0.487804  1
  Pd  Pd18  1  0.144860  0.250001  0.512096  1
  Pd  Pd19  1  0.714772  0.750000  0.654257  1
  Pd  Pd20  1  0.447607  0.250001  0.678418  1
  Pd  Pd21  1  0.012515  0.750000  0.818889  1
  Pd  Pd22  1  0.302481  0.250001  0.844521  1
  Pd  Pd23  1  0.853573  0.750000  0.986302  1
