# generated using pymatgen
data_Y2Th(MgIr)3
_symmetry_space_group_name_H-M   'P 1'
_cell_length_a   7.31495894
_cell_length_b   7.31495937
_cell_length_c   4.07718500
_cell_angle_alpha   90.00000000
_cell_angle_beta   90.00000000
_cell_angle_gamma   118.54144375
_symmetry_Int_Tables_number   1
_chemical_formula_structural   Y2Th(MgIr)3
_chemical_formula_sum   'Y2 Th1 Mg3 Ir3'
_cell_volume   191.65141211
_cell_formula_units_Z   1
loop_
 _symmetry_equiv_pos_site_id
 _symmetry_equiv_pos_as_xyz
  1  'x, y, z'
loop_
 _atom_site_type_symbol
 _atom_site_label
 _atom_site_symmetry_multiplicity
 _atom_site_fract_x
 _atom_site_fract_y
 _atom_site_fract_z
 _atom_site_occupancy
  Y  Y0  1  0.408527  0.001197  0.500000  1
  Y  Y1  1  0.001197  0.408527  0.500000  1
  Th  Th2  1  0.581322  0.581322  0.500000  1
  Mg  Mg3  1  0.756941  0.006214  0.000000  1
  Mg  Mg4  1  0.006214  0.756941  0.000000  1
  Mg  Mg5  1  0.233039  0.233039  0.000000  1
  Ir  Ir6  1  0.346310  0.669301  0.000000  1
  Ir  Ir7  1  0.669301  0.346310  0.000000  1
  Ir  Ir8  1  0.997149  0.997149  0.500000  1
