# generated using pymatgen
data_Rb3Ga5Cl16
_symmetry_space_group_name_H-M   'P 1'
_cell_length_a   7.53074300
_cell_length_b   10.61437780
_cell_length_c   10.19493765
_cell_angle_alpha   92.84432219
_cell_angle_beta   90.00000000
_cell_angle_gamma   90.00000000
_symmetry_Int_Tables_number   1
_chemical_formula_structural   Rb3Ga5Cl16
_chemical_formula_sum   'Rb3 Ga5 Cl16'
_cell_volume   813.91974274
_cell_formula_units_Z   1
loop_
 _symmetry_equiv_pos_site_id
 _symmetry_equiv_pos_as_xyz
  1  'x, y, z'
loop_
 _atom_site_type_symbol
 _atom_site_label
 _atom_site_symmetry_multiplicity
 _atom_site_fract_x
 _atom_site_fract_y
 _atom_site_fract_z
 _atom_site_occupancy
  Rb  Rb0  1  0.816147  0.750000  0.250000  1
  Rb  Rb1  1  0.186593  0.250000  0.750000  1
  Rb  Rb2  1  0.688050  0.250000  0.250000  1
  Ga  Ga3  1  0.747669  0.988324  0.811471  1
  Ga  Ga4  1  0.250850  0.502503  0.321966  1
  Ga  Ga5  1  0.250850  0.997497  0.178034  1
  Ga  Ga6  1  0.747669  0.511676  0.688529  1
  Ga  Ga7  1  0.362024  0.750000  0.750000  1
  Cl  Cl8  1  0.318348  0.337807  0.435442  1
  Cl  Cl9  1  0.480963  0.536121  0.193514  1
  Cl  Cl10  1  0.665075  0.671039  0.569543  1
  Cl  Cl11  1  0.318348  0.162193  0.064558  1
  Cl  Cl12  1  0.019138  0.037469  0.307663  1
  Cl  Cl13  1  0.665075  0.828961  0.930457  1
  Cl  Cl14  1  0.809540  0.341481  0.564128  1
  Cl  Cl15  1  0.984709  0.553068  0.807717  1
  Cl  Cl16  1  0.182873  0.667219  0.451164  1
  Cl  Cl17  1  0.019138  0.462531  0.192337  1
  Cl  Cl18  1  0.480963  0.963879  0.306486  1
  Cl  Cl19  1  0.809540  0.158519  0.935872  1
  Cl  Cl20  1  0.182873  0.832781  0.048836  1
  Cl  Cl21  1  0.984709  0.946932  0.692283  1
  Cl  Cl22  1  0.514427  0.481424  0.816066  1
  Cl  Cl23  1  0.514427  0.018576  0.683934  1
