# generated using pymatgen
data_Sc2MnCo5B2
_symmetry_space_group_name_H-M   'P 1'
_cell_length_a   8.77070400
_cell_length_b   8.77070400
_cell_length_c   2.96533500
_cell_angle_alpha   90.00000000
_cell_angle_beta   90.00000000
_cell_angle_gamma   90.00000000
_symmetry_Int_Tables_number   1
_chemical_formula_structural   Sc2MnCo5B2
_chemical_formula_sum   'Sc4 Mn2 Co10 B4'
_cell_volume   228.10913222
_cell_formula_units_Z   2
loop_
 _symmetry_equiv_pos_site_id
 _symmetry_equiv_pos_as_xyz
  1  'x, y, z'
loop_
 _atom_site_type_symbol
 _atom_site_label
 _atom_site_symmetry_multiplicity
 _atom_site_fract_x
 _atom_site_fract_y
 _atom_site_fract_z
 _atom_site_occupancy
  Sc  Sc0  1  0.676869  0.176869  0.000000  1
  Sc  Sc1  1  0.323131  0.823131  0.000000  1
  Sc  Sc2  1  0.176869  0.323131  0.000000  1
  Sc  Sc3  1  0.823131  0.676869  0.000000  1
  Mn  Mn4  1  0.000000  0.000000  0.000000  1
  Mn  Mn5  1  0.500000  0.500000  0.000000  1
  Co  Co6  1  0.221541  0.068287  0.500000  1
  Co  Co7  1  0.778459  0.931713  0.500000  1
  Co  Co8  1  0.068287  0.778459  0.500000  1
  Co  Co9  1  0.721541  0.431713  0.500000  1
  Co  Co10  1  0.931713  0.221541  0.500000  1
  Co  Co11  1  0.278459  0.568287  0.500000  1
  Co  Co12  1  0.568287  0.721541  0.500000  1
  Co  Co13  1  0.431713  0.278459  0.500000  1
  Co  Co14  1  0.500000  0.000000  0.500000  1
  Co  Co15  1  0.000000  0.500000  0.500000  1
  B  B16  1  0.120388  0.620388  0.000000  1
  B  B17  1  0.879612  0.379612  0.000000  1
  B  B18  1  0.620388  0.879612  0.000000  1
  B  B19  1  0.379612  0.120388  0.000000  1
