# generated using pymatgen
data_La20AlSi9Ge2
_symmetry_space_group_name_H-M   'P 1'
_cell_length_a   7.91474600
_cell_length_b   7.91474600
_cell_length_c   14.55838100
_cell_angle_alpha   90.00000000
_cell_angle_beta   90.00000000
_cell_angle_gamma   90.00000000
_symmetry_Int_Tables_number   1
_chemical_formula_structural   La20AlSi9Ge2
_chemical_formula_sum   'La20 Al1 Si9 Ge2'
_cell_volume   911.98363445
_cell_formula_units_Z   1
loop_
 _symmetry_equiv_pos_site_id
 _symmetry_equiv_pos_as_xyz
  1  'x, y, z'
loop_
 _atom_site_type_symbol
 _atom_site_label
 _atom_site_symmetry_multiplicity
 _atom_site_fract_x
 _atom_site_fract_y
 _atom_site_fract_z
 _atom_site_occupancy
  La  La0  1  0.500000  0.000000  0.777541  1
  La  La1  1  0.330340  0.313915  0.105262  1
  La  La2  1  0.828562  0.815647  0.894599  1
  La  La3  1  0.000000  0.500000  0.226116  1
  La  La4  1  0.827887  0.182201  0.392622  1
  La  La5  1  0.171438  0.184353  0.894599  1
  La  La6  1  0.669660  0.686085  0.105262  1
  La  La7  1  0.000000  0.500000  0.721767  1
  La  La8  1  0.812774  0.833619  0.607769  1
  La  La9  1  0.317799  0.327887  0.392622  1
  La  La10  1  0.186085  0.830340  0.105262  1
  La  La11  1  0.187226  0.166381  0.607769  1
  La  La12  1  0.813915  0.169660  0.105262  1
  La  La13  1  0.333619  0.687226  0.607769  1
  La  La14  1  0.500000  0.000000  0.275227  1
  La  La15  1  0.684353  0.328562  0.894599  1
  La  La16  1  0.666381  0.312774  0.607769  1
  La  La17  1  0.315647  0.671438  0.894599  1
  La  La18  1  0.172113  0.817799  0.392622  1
  La  La19  1  0.682201  0.672113  0.392622  1
  Al  Al20  1  0.000000  0.500000  0.502345  1
  Si  Si21  1  0.613283  0.387518  0.248962  1
  Si  Si22  1  0.887504  0.113817  0.751393  1
  Si  Si23  1  0.887518  0.886717  0.248962  1
  Si  Si24  1  0.112496  0.886183  0.751393  1
  Si  Si25  1  0.386183  0.387504  0.751393  1
  Si  Si26  1  0.112482  0.113283  0.248962  1
  Si  Si27  1  0.386717  0.612482  0.248962  1
  Si  Si28  1  0.613817  0.612496  0.751393  1
  Si  Si29  1  0.500000  0.000000  0.994678  1
  Ge  Ge30  1  0.500000  0.000000  0.494770  1
  Ge  Ge31  1  0.000000  0.500000  0.005127  1
