# generated using pymatgen
data_YbLuOs4
_symmetry_space_group_name_H-M   'P 1'
_cell_length_a   5.27467300
_cell_length_b   5.27467378
_cell_length_c   8.80745100
_cell_angle_alpha   90.00000000
_cell_angle_beta   90.00000000
_cell_angle_gamma   119.99998886
_symmetry_Int_Tables_number   1
_chemical_formula_structural   YbLuOs4
_chemical_formula_sum   'Yb2 Lu2 Os8'
_cell_volume   212.21303769
_cell_formula_units_Z   2
loop_
 _symmetry_equiv_pos_site_id
 _symmetry_equiv_pos_as_xyz
  1  'x, y, z'
loop_
 _atom_site_type_symbol
 _atom_site_label
 _atom_site_symmetry_multiplicity
 _atom_site_fract_x
 _atom_site_fract_y
 _atom_site_fract_z
 _atom_site_occupancy
  Yb  Yb0  1  0.333333  0.666667  0.440351  1
  Yb  Yb1  1  0.666667  0.333333  0.559649  1
  Lu  Lu2  1  0.666667  0.333333  0.930261  1
  Lu  Lu3  1  0.333333  0.666667  0.069739  1
  Os  Os4  1  0.172596  0.345192  0.752200  1
  Os  Os5  1  0.172596  0.827404  0.752200  1
  Os  Os6  1  0.345192  0.172596  0.247800  1
  Os  Os7  1  0.827404  0.654808  0.247800  1
  Os  Os8  1  0.654808  0.827404  0.752200  1
  Os  Os9  1  0.000000  0.000000  0.000000  1
  Os  Os10  1  0.827404  0.172596  0.247800  1
  Os  Os11  1  0.000000  0.000000  0.500000  1
