# generated using pymatgen
data_AcTh7(AlRu)8
_symmetry_space_group_name_H-M   'P 1'
_cell_length_a   4.16564400
_cell_length_b   7.31757408
_cell_length_c   16.26730860
_cell_angle_alpha   89.82450453
_cell_angle_beta   90.00000000
_cell_angle_gamma   90.00000000
_symmetry_Int_Tables_number   1
_chemical_formula_structural   AcTh7(AlRu)8
_chemical_formula_sum   'Ac1 Th7 Al8 Ru8'
_cell_volume   495.86442072
_cell_formula_units_Z   1
loop_
 _symmetry_equiv_pos_site_id
 _symmetry_equiv_pos_as_xyz
  1  'x, y, z'
loop_
 _atom_site_type_symbol
 _atom_site_label
 _atom_site_symmetry_multiplicity
 _atom_site_fract_x
 _atom_site_fract_y
 _atom_site_fract_z
 _atom_site_occupancy
  Ac  Ac0  1  0.250000  0.538220  0.719538  1
  Th  Th1  1  0.750000  0.957620  0.217651  1
  Th  Th2  1  0.250000  0.163691  0.559687  1
  Th  Th3  1  0.750000  0.834313  0.436340  1
  Th  Th4  1  0.750000  0.458162  0.281392  1
  Th  Th5  1  0.750000  0.333623  0.063582  1
  Th  Th6  1  0.250000  0.668007  0.940536  1
  Th  Th7  1  0.250000  0.040321  0.783329  1
  Al  Al8  1  0.750000  0.501333  0.558315  1
  Al  Al9  1  0.750000  0.359574  0.856758  1
  Al  Al10  1  0.750000  0.004357  0.940849  1
  Al  Al11  1  0.750000  0.868343  0.644904  1
  Al  Al12  1  0.250000  0.497051  0.436586  1
  Al  Al13  1  0.250000  0.997224  0.062783  1
  Al  Al14  1  0.250000  0.635988  0.149391  1
  Al  Al15  1  0.250000  0.136773  0.349187  1
  Ru  Ru16  1  0.750000  0.758753  0.821417  1
  Ru  Ru17  1  0.250000  0.241831  0.938894  1
  Ru  Ru18  1  0.750000  0.261161  0.433288  1
  Ru  Ru19  1  0.250000  0.755016  0.314645  1
  Ru  Ru20  1  0.750000  0.761840  0.066587  1
  Ru  Ru21  1  0.750000  0.227517  0.681980  1
  Ru  Ru22  1  0.250000  0.254711  0.184125  1
  Ru  Ru23  1  0.250000  0.744572  0.558237  1
