# generated using pymatgen
data_Zr12Zn9Pd(PtN2)2
_symmetry_space_group_name_H-M   'P 1'
_cell_length_a   8.60174165
_cell_length_b   8.58173076
_cell_length_c   8.60174362
_cell_angle_alpha   60.08252766
_cell_angle_beta   60.25039428
_cell_angle_gamma   60.08255330
_symmetry_Int_Tables_number   1
_chemical_formula_structural   Zr12Zn9Pd(PtN2)2
_chemical_formula_sum   'Zr12 Zn9 Pd1 Pt2 N4'
_cell_volume   450.39196591
_cell_formula_units_Z   1
loop_
 _symmetry_equiv_pos_site_id
 _symmetry_equiv_pos_as_xyz
  1  'x, y, z'
loop_
 _atom_site_type_symbol
 _atom_site_label
 _atom_site_symmetry_multiplicity
 _atom_site_fract_x
 _atom_site_fract_y
 _atom_site_fract_z
 _atom_site_occupancy
  Zr  Zr0  1  0.811182  0.190870  0.187150  1
  Zr  Zr1  1  0.189742  0.810416  0.189742  1
  Zr  Zr2  1  0.811375  0.811843  0.185170  1
  Zr  Zr3  1  0.185171  0.811843  0.811375  1
  Zr  Zr4  1  0.812623  0.186176  0.812623  1
  Zr  Zr5  1  0.187149  0.190871  0.811182  1
  Zr  Zr6  1  0.438818  0.059130  0.062850  1
  Zr  Zr7  1  0.060258  0.439584  0.060258  1
  Zr  Zr8  1  0.438625  0.438157  0.064830  1
  Zr  Zr9  1  0.064829  0.438157  0.438625  1
  Zr  Zr10  1  0.437377  0.063824  0.437377  1
  Zr  Zr11  1  0.062851  0.059129  0.438818  1
  Zn  Zn12  1  0.419535  0.418505  0.746025  1
  Zn  Zn13  1  0.419137  0.418700  0.419138  1
  Zn  Zn14  1  0.746025  0.418505  0.419535  1
  Zn  Zn15  1  0.419254  0.745411  0.419254  1
  Zn  Zn16  1  0.830465  0.831495  0.503975  1
  Zn  Zn17  1  0.830863  0.831300  0.830862  1
  Zn  Zn18  1  0.503975  0.831495  0.830465  1
  Zn  Zn19  1  0.830746  0.504589  0.830746  1
  Zn  Zn20  1  0.625000  0.625000  0.625000  1
  Pd  Pd21  1  0.625000  0.125000  0.625000  1
  Pt  Pt22  1  0.625000  0.625000  0.125000  1
  Pt  Pt23  1  0.125000  0.625000  0.625000  1
  N  N24  1  0.125000  0.125000  0.625000  1
  N  N25  1  0.125000  0.125000  0.125000  1
  N  N26  1  0.625000  0.125000  0.125000  1
  N  N27  1  0.125000  0.625000  0.125000  1
