# generated using pymatgen
data_Tb4Co9GeB4
_symmetry_space_group_name_H-M   'P 1'
_cell_length_a   5.14346800
_cell_length_b   5.14346718
_cell_length_c   19.65287700
_cell_angle_alpha   90.00000000
_cell_angle_beta   90.00000000
_cell_angle_gamma   120.00000530
_symmetry_Int_Tables_number   1
_chemical_formula_structural   Tb4Co9GeB4
_chemical_formula_sum   'Tb8 Co18 Ge2 B8'
_cell_volume   450.26559070
_cell_formula_units_Z   2
loop_
 _symmetry_equiv_pos_site_id
 _symmetry_equiv_pos_as_xyz
  1  'x, y, z'
loop_
 _atom_site_type_symbol
 _atom_site_label
 _atom_site_symmetry_multiplicity
 _atom_site_fract_x
 _atom_site_fract_y
 _atom_site_fract_z
 _atom_site_occupancy
  Tb  Tb0  1  0.666667  0.333333  0.825052  1
  Tb  Tb1  1  0.666667  0.333333  0.975608  1
  Tb  Tb2  1  0.333333  0.666667  0.475608  1
  Tb  Tb3  1  0.333333  0.666667  0.024392  1
  Tb  Tb4  1  0.333333  0.666667  0.174948  1
  Tb  Tb5  1  0.666667  0.333333  0.524392  1
  Tb  Tb6  1  0.666667  0.333333  0.674948  1
  Tb  Tb7  1  0.333333  0.666667  0.325052  1
  Co  Co8  1  0.165388  0.330774  0.894269  1
  Co  Co9  1  0.165388  0.834612  0.605731  1
  Co  Co10  1  0.834612  0.165388  0.394269  1
  Co  Co11  1  0.334517  0.167259  0.250000  1
  Co  Co12  1  0.330774  0.165388  0.394269  1
  Co  Co13  1  0.834612  0.669226  0.105731  1
  Co  Co14  1  0.834612  0.669226  0.394269  1
  Co  Co15  1  0.832741  0.665483  0.250000  1
  Co  Co16  1  0.669226  0.834612  0.605731  1
  Co  Co17  1  0.665483  0.832741  0.750000  1
  Co  Co18  1  0.834612  0.165388  0.105731  1
  Co  Co19  1  0.669226  0.834612  0.894269  1
  Co  Co20  1  0.167259  0.334517  0.750000  1
  Co  Co21  1  0.167259  0.832741  0.750000  1
  Co  Co22  1  0.832741  0.167259  0.250000  1
  Co  Co23  1  0.330774  0.165388  0.105731  1
  Co  Co24  1  0.165388  0.834612  0.894269  1
  Co  Co25  1  0.165388  0.330774  0.605731  1
  Ge  Ge26  1  0.000000  0.000000  0.000000  1
  Ge  Ge27  1  0.000000  0.000000  0.500000  1
  B  B28  1  0.333333  0.666667  0.825489  1
  B  B29  1  0.333333  0.666667  0.674511  1
  B  B30  1  0.666667  0.333333  0.325489  1
  B  B31  1  0.000000  0.000000  0.823805  1
  B  B32  1  0.666667  0.333333  0.174511  1
  B  B33  1  0.000000  0.000000  0.676195  1
  B  B34  1  0.000000  0.000000  0.323805  1
  B  B35  1  0.000000  0.000000  0.176195  1
