# generated using pymatgen
data_Tm12Tl2Fe2Re
_symmetry_space_group_name_H-M   'P 1'
_cell_length_a   8.26694672
_cell_length_b   8.26694477
_cell_length_c   8.26694500
_cell_angle_alpha   108.95066170
_cell_angle_beta   108.95064974
_cell_angle_gamma   110.51744264
_symmetry_Int_Tables_number   1
_chemical_formula_structural   Tm12Tl2Fe2Re
_chemical_formula_sum   'Tm12 Tl2 Fe2 Re1'
_cell_volume   434.81497356
_cell_formula_units_Z   1
loop_
 _symmetry_equiv_pos_site_id
 _symmetry_equiv_pos_as_xyz
  1  'x, y, z'
loop_
 _atom_site_type_symbol
 _atom_site_label
 _atom_site_symmetry_multiplicity
 _atom_site_fract_x
 _atom_site_fract_y
 _atom_site_fract_z
 _atom_site_occupancy
  Tm  Tm0  1  0.192620  0.430636  0.238016  1
  Tm  Tm1  1  0.807380  0.569364  0.761984  1
  Tm  Tm2  1  0.192620  0.954605  0.761984  1
  Tm  Tm3  1  0.954605  0.192620  0.761984  1
  Tm  Tm4  1  0.807380  0.045395  0.238016  1
  Tm  Tm5  1  0.045395  0.807380  0.238016  1
  Tm  Tm6  1  0.430636  0.192620  0.238016  1
  Tm  Tm7  1  0.569364  0.807380  0.761984  1
  Tm  Tm8  1  0.307788  0.307788  0.615575  1
  Tm  Tm9  1  0.692212  0.692212  0.384425  1
  Tm  Tm10  1  0.692212  0.307788  0.000000  1
  Tm  Tm11  1  0.307788  0.692212  0.000000  1
  Tl  Tl12  1  0.000000  0.500000  0.500000  1
  Tl  Tl13  1  0.500000  0.000000  0.500000  1
  Fe  Fe14  1  0.384475  0.384475  0.000000  1
  Fe  Fe15  1  0.615525  0.615525  0.000000  1
  Re  Re16  1  0.000000  0.000000  0.000000  1
