# generated using pymatgen
data_ErSc6Sn23Rh6
_symmetry_space_group_name_H-M   'P 1'
_cell_length_a   9.71726200
_cell_length_b   9.71726135
_cell_length_c   9.93158800
_cell_angle_alpha   90.00000000
_cell_angle_beta   90.00000000
_cell_angle_gamma   120.00000220
_symmetry_Int_Tables_number   1
_chemical_formula_structural   ErSc6Sn23Rh6
_chemical_formula_sum   'Er1 Sc6 Sn23 Rh6'
_cell_volume   812.15161668
_cell_formula_units_Z   1
loop_
 _symmetry_equiv_pos_site_id
 _symmetry_equiv_pos_as_xyz
  1  'x, y, z'
loop_
 _atom_site_type_symbol
 _atom_site_label
 _atom_site_symmetry_multiplicity
 _atom_site_fract_x
 _atom_site_fract_y
 _atom_site_fract_z
 _atom_site_occupancy
  Er  Er0  1  0.000000  0.000000  0.000000  1
  Sc  Sc1  1  0.483316  0.516684  0.309711  1
  Sc  Sc2  1  0.516684  0.483316  0.690289  1
  Sc  Sc3  1  0.483316  0.966635  0.309711  1
  Sc  Sc4  1  0.516684  0.033365  0.690289  1
  Sc  Sc5  1  0.033365  0.516684  0.309711  1
  Sc  Sc6  1  0.966635  0.483316  0.690289  1
  Sn  Sn7  1  0.123281  0.876719  0.283574  1
  Sn  Sn8  1  0.876719  0.123281  0.716426  1
  Sn  Sn9  1  0.123281  0.246561  0.283574  1
  Sn  Sn10  1  0.876719  0.753439  0.716426  1
  Sn  Sn11  1  0.753439  0.876719  0.283574  1
  Sn  Sn12  1  0.246561  0.123281  0.716426  1
  Sn  Sn13  1  0.775863  0.224137  0.459097  1
  Sn  Sn14  1  0.224137  0.775863  0.540903  1
  Sn  Sn15  1  0.775863  0.551726  0.459097  1
  Sn  Sn16  1  0.224137  0.448274  0.540903  1
  Sn  Sn17  1  0.448274  0.224137  0.459097  1
  Sn  Sn18  1  0.551726  0.775863  0.540903  1
  Sn  Sn19  1  0.352323  0.000000  0.000000  1
  Sn  Sn20  1  0.647677  0.000000  0.000000  1
  Sn  Sn21  1  0.000000  0.352323  0.000000  1
  Sn  Sn22  1  0.000000  0.647677  0.000000  1
  Sn  Sn23  1  0.647677  0.647677  0.000000  1
  Sn  Sn24  1  0.352323  0.352323  0.000000  1
  Sn  Sn25  1  0.333333  0.666667  0.141200  1
  Sn  Sn26  1  0.666667  0.333333  0.858800  1
  Sn  Sn27  1  0.333333  0.666667  0.825748  1
  Sn  Sn28  1  0.666667  0.333333  0.174252  1
  Sn  Sn29  1  0.000000  0.000000  0.500000  1
  Rh  Rh30  1  0.830388  0.169612  0.200646  1
  Rh  Rh31  1  0.169612  0.830388  0.799354  1
  Rh  Rh32  1  0.830388  0.660779  0.200646  1
  Rh  Rh33  1  0.169612  0.339221  0.799354  1
  Rh  Rh34  1  0.339221  0.169612  0.200646  1
  Rh  Rh35  1  0.660779  0.830388  0.799354  1
