# generated using pymatgen
data_Mn3GaSiRu3
_symmetry_space_group_name_H-M   'P 1'
_cell_length_a   4.17089100
_cell_length_b   4.17089008
_cell_length_c   7.21633933
_cell_angle_alpha   73.20252264
_cell_angle_beta   90.00000000
_cell_angle_gamma   119.99999936
_symmetry_Int_Tables_number   1
_chemical_formula_structural   Mn3GaSiRu3
_chemical_formula_sum   'Mn3 Ga1 Si1 Ru3'
_cell_volume   102.48722147
_cell_formula_units_Z   1
loop_
 _symmetry_equiv_pos_site_id
 _symmetry_equiv_pos_as_xyz
  1  'x, y, z'
loop_
 _atom_site_type_symbol
 _atom_site_label
 _atom_site_symmetry_multiplicity
 _atom_site_fract_x
 _atom_site_fract_y
 _atom_site_fract_z
 _atom_site_occupancy
  Mn  Mn0  1  0.253333  0.506664  0.240003  1
  Mn  Mn1  1  0.746496  0.492990  0.760514  1
  Mn  Mn2  1  0.621843  0.243688  0.134470  1
  Ga  Ga3  1  0.998150  0.996298  0.005553  1
  Si  Si4  1  0.502278  0.004555  0.493165  1
  Ru  Ru5  1  0.127683  0.255365  0.616953  1
  Ru  Ru6  1  0.872048  0.744094  0.383858  1
  Ru  Ru7  1  0.378171  0.756344  0.865484  1
