# generated using pymatgen
data_SmDyTcB6
_symmetry_space_group_name_H-M   'P 1'
_cell_length_a   3.72336900
_cell_length_b   9.21572900
_cell_length_c   11.63607700
_cell_angle_alpha   90.00000000
_cell_angle_beta   90.00000000
_cell_angle_gamma   90.00000000
_symmetry_Int_Tables_number   1
_chemical_formula_structural   SmDyTcB6
_chemical_formula_sum   'Sm4 Dy4 Tc4 B24'
_cell_volume   399.27522248
_cell_formula_units_Z   4
loop_
 _symmetry_equiv_pos_site_id
 _symmetry_equiv_pos_as_xyz
  1  'x, y, z'
loop_
 _atom_site_type_symbol
 _atom_site_label
 _atom_site_symmetry_multiplicity
 _atom_site_fract_x
 _atom_site_fract_y
 _atom_site_fract_z
 _atom_site_occupancy
  Sm  Sm0  1  0.000000  0.323939  0.414535  1
  Sm  Sm1  1  0.000000  0.676061  0.585465  1
  Sm  Sm2  1  0.000000  0.823939  0.085465  1
  Sm  Sm3  1  0.000000  0.176061  0.914535  1
  Dy  Dy4  1  0.000000  0.942911  0.369064  1
  Dy  Dy5  1  0.000000  0.057089  0.630936  1
  Dy  Dy6  1  0.000000  0.442911  0.130936  1
  Dy  Dy7  1  0.000000  0.557089  0.869064  1
  Tc  Tc8  1  0.000000  0.639466  0.319798  1
  Tc  Tc9  1  0.000000  0.360534  0.680202  1
  Tc  Tc10  1  0.000000  0.139466  0.180202  1
  Tc  Tc11  1  0.000000  0.860534  0.819798  1
  B  B12  1  0.500000  0.554573  0.431560  1
  B  B13  1  0.500000  0.445427  0.568440  1
  B  B14  1  0.500000  0.054573  0.068440  1
  B  B15  1  0.500000  0.945427  0.931560  1
  B  B16  1  0.500000  0.749280  0.416944  1
  B  B17  1  0.500000  0.250720  0.583056  1
  B  B18  1  0.500000  0.249280  0.083056  1
  B  B19  1  0.500000  0.750720  0.916944  1
  B  B20  1  0.500000  0.791617  0.265726  1
  B  B21  1  0.500000  0.208383  0.734274  1
  B  B22  1  0.500000  0.291617  0.234274  1
  B  B23  1  0.500000  0.708383  0.765726  1
  B  B24  1  0.500000  0.630531  0.186154  1
  B  B25  1  0.500000  0.369469  0.813846  1
  B  B26  1  0.500000  0.130531  0.313846  1
  B  B27  1  0.500000  0.869469  0.686154  1
  B  B28  1  0.500000  0.983744  0.212336  1
  B  B29  1  0.500000  0.016256  0.787664  1
  B  B30  1  0.500000  0.483744  0.287664  1
  B  B31  1  0.500000  0.516256  0.712336  1
  B  B32  1  0.500000  0.597823  0.027187  1
  B  B33  1  0.500000  0.402177  0.972813  1
  B  B34  1  0.500000  0.097822  0.472813  1
  B  B35  1  0.500000  0.902177  0.527187  1
