# generated using pymatgen
data_RbCeSmS6
_symmetry_space_group_name_H-M   'P 1'
_cell_length_a   11.23166206
_cell_length_b   11.23166080
_cell_length_c   11.23166000
_cell_angle_alpha   159.35420069
_cell_angle_beta   152.57619495
_cell_angle_gamma   34.57317618
_symmetry_Int_Tables_number   1
_chemical_formula_structural   RbCeSmS6
_chemical_formula_sum   'Rb1 Ce1 Sm1 S6'
_cell_volume   229.86174475
_cell_formula_units_Z   1
loop_
 _symmetry_equiv_pos_site_id
 _symmetry_equiv_pos_as_xyz
  1  'x, y, z'
loop_
 _atom_site_type_symbol
 _atom_site_label
 _atom_site_symmetry_multiplicity
 _atom_site_fract_x
 _atom_site_fract_y
 _atom_site_fract_z
 _atom_site_occupancy
  Rb  Rb0  1  0.998213  0.998213  0.000000  1
  Ce  Ce1  1  0.687919  0.187919  0.500000  1
  Sm  Sm2  1  0.315687  0.815687  0.500000  1
  S  S3  1  0.198029  0.395535  0.802495  1
  S  S4  1  0.221496  0.221496  0.000000  1
  S  S5  1  0.411697  0.606237  0.805463  1
  S  S6  1  0.593040  0.395535  0.197505  1
  S  S7  1  0.800774  0.606237  0.194537  1
  S  S8  1  0.773144  0.773144  0.000000  1
