# generated using pymatgen
data_Lu2HRh6
_symmetry_space_group_name_H-M   'P 1'
_cell_length_a   5.69998945
_cell_length_b   5.70005809
_cell_length_c   5.70015400
_cell_angle_alpha   59.99863640
_cell_angle_beta   59.99985597
_cell_angle_gamma   60.00152588
_symmetry_Int_Tables_number   1
_chemical_formula_structural   Lu2HRh6
_chemical_formula_sum   'Lu2 H1 Rh6'
_cell_volume   130.95587423
_cell_formula_units_Z   1
loop_
 _symmetry_equiv_pos_site_id
 _symmetry_equiv_pos_as_xyz
  1  'x, y, z'
loop_
 _atom_site_type_symbol
 _atom_site_label
 _atom_site_symmetry_multiplicity
 _atom_site_fract_x
 _atom_site_fract_y
 _atom_site_fract_z
 _atom_site_occupancy
  Lu  Lu0  1  0.250000  0.250000  0.250000  1
  Lu  Lu1  1  0.750000  0.750000  0.750000  1
  H  H2  1  0.000000  0.000000  0.000000  1
  Rh  Rh3  1  0.747310  0.252690  0.252690  1
  Rh  Rh4  1  0.252692  0.747308  0.252692  1
  Rh  Rh5  1  0.747315  0.747315  0.252685  1
  Rh  Rh6  1  0.252685  0.252685  0.747315  1
  Rh  Rh7  1  0.747308  0.252692  0.747308  1
  Rh  Rh8  1  0.252690  0.747310  0.747310  1
