# generated using pymatgen
data_Ce3InRh3Pb2
_symmetry_space_group_name_H-M   'P 1'
_cell_length_a   7.67639608
_cell_length_b   7.67639634
_cell_length_c   4.02528600
_cell_angle_alpha   90.00000000
_cell_angle_beta   90.00000000
_cell_angle_gamma   120.28702995
_symmetry_Int_Tables_number   1
_chemical_formula_structural   Ce3InRh3Pb2
_chemical_formula_sum   'Ce3 In1 Rh3 Pb2'
_cell_volume   204.82301153
_cell_formula_units_Z   1
loop_
 _symmetry_equiv_pos_site_id
 _symmetry_equiv_pos_as_xyz
  1  'x, y, z'
loop_
 _atom_site_type_symbol
 _atom_site_label
 _atom_site_symmetry_multiplicity
 _atom_site_fract_x
 _atom_site_fract_y
 _atom_site_fract_z
 _atom_site_occupancy
  Ce  Ce0  1  0.414114  0.414114  0.500000  1
  Ce  Ce1  1  0.590549  0.996343  0.500000  1
  Ce  Ce2  1  0.996343  0.590549  0.500000  1
  In  In3  1  0.743231  0.743231  0.000000  1
  Rh  Rh4  1  0.994396  0.994396  0.500000  1
  Rh  Rh5  1  0.668485  0.339774  0.000000  1
  Rh  Rh6  1  0.339774  0.668485  0.000000  1
  Pb  Pb7  1  0.255473  0.997635  0.000000  1
  Pb  Pb8  1  0.997635  0.255473  0.000000  1
