# generated using pymatgen
data_La10Al4Ru5Rh
_symmetry_space_group_name_H-M   'P 1'
_cell_length_a   8.63076877
_cell_length_b   8.66023370
_cell_length_c   8.66023290
_cell_angle_alpha   109.58173828
_cell_angle_beta   109.50532957
_cell_angle_gamma   109.46456602
_symmetry_Int_Tables_number   1
_chemical_formula_structural   La10Al4Ru5Rh
_chemical_formula_sum   'La10 Al4 Ru5 Rh1'
_cell_volume   497.44459332
_cell_formula_units_Z   1
loop_
 _symmetry_equiv_pos_site_id
 _symmetry_equiv_pos_as_xyz
  1  'x, y, z'
loop_
 _atom_site_type_symbol
 _atom_site_label
 _atom_site_symmetry_multiplicity
 _atom_site_fract_x
 _atom_site_fract_y
 _atom_site_fract_z
 _atom_site_occupancy
  La  La0  1  0.250000  0.688784  0.438784  1
  La  La1  1  0.750000  0.810429  0.060429  1
  La  La2  1  0.442070  0.251534  0.687826  1
  La  La3  1  0.689941  0.439538  0.250518  1
  La  La4  1  0.057930  0.745756  0.809464  1
  La  La5  1  0.810059  0.060577  0.749598  1
  La  La6  1  0.210228  0.212478  0.214296  1
  La  La7  1  0.500309  0.000539  0.288496  1
  La  La8  1  0.289772  0.504068  0.002248  1
  La  La9  1  0.999691  0.288188  0.500230  1
  Al  Al10  1  0.589002  0.589452  0.588820  1
  Al  Al11  1  0.500636  0.998647  0.910287  1
  Al  Al12  1  0.910998  0.499817  0.000449  1
  Al  Al13  1  0.999364  0.909651  0.498012  1
  Ru  Ru14  1  0.750000  0.382848  0.632848  1
  Ru  Ru15  1  0.866765  0.250524  0.117490  1
  Ru  Ru16  1  0.118605  0.869820  0.250459  1
  Ru  Ru17  1  0.633234  0.750723  0.383758  1
  Ru  Ru18  1  0.381395  0.631853  0.751215  1
  Rh  Rh19  1  0.250000  0.114774  0.864774  1
