# generated using pymatgen
data_Dy6MgSc(Co4P3)4
_symmetry_space_group_name_H-M   'P 1'
_cell_length_a   3.72956600
_cell_length_b   10.65620000
_cell_length_c   12.32687600
_cell_angle_alpha   90.00000000
_cell_angle_beta   90.00000000
_cell_angle_gamma   90.00000000
_symmetry_Int_Tables_number   1
_chemical_formula_structural   Dy6MgSc(Co4P3)4
_chemical_formula_sum   'Dy6 Mg1 Sc1 Co16 P12'
_cell_volume   489.90704777
_cell_formula_units_Z   1
loop_
 _symmetry_equiv_pos_site_id
 _symmetry_equiv_pos_as_xyz
  1  'x, y, z'
loop_
 _atom_site_type_symbol
 _atom_site_label
 _atom_site_symmetry_multiplicity
 _atom_site_fract_x
 _atom_site_fract_y
 _atom_site_fract_z
 _atom_site_occupancy
  Dy  Dy0  1  0.000000  0.500000  0.526425  1
  Dy  Dy1  1  0.500000  0.000000  0.472453  1
  Dy  Dy2  1  0.500000  0.822225  0.205502  1
  Dy  Dy3  1  0.500000  0.177775  0.205502  1
  Dy  Dy4  1  0.000000  0.678108  0.793366  1
  Dy  Dy5  1  0.000000  0.321892  0.793366  1
  Mg  Mg6  1  0.500000  0.500000  0.157738  1
  Sc  Sc7  1  0.000000  0.000000  0.843613  1
  Co  Co8  1  0.500000  0.500000  0.705689  1
  Co  Co9  1  0.000000  0.000000  0.295322  1
  Co  Co10  1  0.000000  0.500000  0.988868  1
  Co  Co11  1  0.500000  0.000000  0.012587  1
  Co  Co12  1  0.500000  0.333201  0.996710  1
  Co  Co13  1  0.500000  0.666799  0.996710  1
  Co  Co14  1  0.000000  0.169326  0.005613  1
  Co  Co15  1  0.000000  0.830674  0.005613  1
  Co  Co16  1  0.500000  0.296175  0.432057  1
  Co  Co17  1  0.500000  0.703825  0.432057  1
  Co  Co18  1  0.000000  0.204462  0.567155  1
  Co  Co19  1  0.000000  0.795538  0.567155  1
  Co  Co20  1  0.500000  0.878058  0.702970  1
  Co  Co21  1  0.500000  0.121942  0.702970  1
  Co  Co22  1  0.000000  0.622018  0.295267  1
  Co  Co23  1  0.000000  0.377982  0.295267  1
  P  P24  1  0.500000  0.500000  0.885658  1
  P  P25  1  0.000000  0.000000  0.114845  1
  P  P26  1  0.500000  0.500000  0.356338  1
  P  P27  1  0.000000  0.000000  0.640002  1
  P  P28  1  0.500000  0.309595  0.615141  1
  P  P29  1  0.500000  0.690405  0.615141  1
  P  P30  1  0.000000  0.190822  0.384366  1
  P  P31  1  0.000000  0.809178  0.384366  1
  P  P32  1  0.500000  0.838658  0.894085  1
  P  P33  1  0.500000  0.161342  0.894085  1
  P  P34  1  0.000000  0.660086  0.108001  1
  P  P35  1  0.000000  0.339914  0.108001  1
