# generated using pymatgen
data_Nb12AlSi3(PtN)4
_symmetry_space_group_name_H-M   'P 1'
_cell_length_a   7.02132561
_cell_length_b   7.02132561
_cell_length_c   7.02132561
_cell_angle_alpha   89.94513367
_cell_angle_beta   89.94513367
_cell_angle_gamma   89.94513367
_symmetry_Int_Tables_number   1
_chemical_formula_structural   Nb12AlSi3(PtN)4
_chemical_formula_sum   'Nb12 Al1 Si3 Pt4 N4'
_cell_volume   346.14394880
_cell_formula_units_Z   1
loop_
 _symmetry_equiv_pos_site_id
 _symmetry_equiv_pos_as_xyz
  1  'x, y, z'
loop_
 _atom_site_type_symbol
 _atom_site_label
 _atom_site_symmetry_multiplicity
 _atom_site_fract_x
 _atom_site_fract_y
 _atom_site_fract_z
 _atom_site_occupancy
  Nb  Nb0  1  0.786445  0.951625  0.380325  1
  Nb  Nb1  1  0.711670  0.047500  0.879743  1
  Nb  Nb2  1  0.214897  0.453367  0.119527  1
  Nb  Nb3  1  0.286564  0.547962  0.620043  1
  Nb  Nb4  1  0.951625  0.380325  0.786445  1
  Nb  Nb5  1  0.047500  0.879743  0.711670  1
  Nb  Nb6  1  0.453367  0.119527  0.214897  1
  Nb  Nb7  1  0.547962  0.620043  0.286564  1
  Nb  Nb8  1  0.380325  0.786445  0.951625  1
  Nb  Nb9  1  0.879743  0.711670  0.047500  1
  Nb  Nb10  1  0.119527  0.214897  0.453367  1
  Nb  Nb11  1  0.620043  0.286564  0.547962  1
  Al  Al12  1  0.072351  0.072351  0.072351  1
  Si  Si13  1  0.571995  0.427589  0.927951  1
  Si  Si14  1  0.427589  0.927951  0.571995  1
  Si  Si15  1  0.927951  0.571995  0.427589  1
  Pt  Pt16  1  0.179246  0.819800  0.323309  1
  Pt  Pt17  1  0.323309  0.179246  0.819800  1
  Pt  Pt18  1  0.819800  0.323309  0.179246  1
  Pt  Pt19  1  0.678085  0.678085  0.678085  1
  N  N20  1  0.874345  0.125048  0.625785  1
  N  N21  1  0.625785  0.874345  0.125048  1
  N  N22  1  0.125048  0.625785  0.874345  1
  N  N23  1  0.374827  0.374827  0.374827  1
