# generated using pymatgen
data_La3PrNd2(RuI3)2
_symmetry_space_group_name_H-M   'P 1'
_cell_length_a   4.38049400
_cell_length_b   9.59543196
_cell_length_c   12.49873268
_cell_angle_alpha   87.78279286
_cell_angle_beta   90.00000000
_cell_angle_gamma   90.00000000
_symmetry_Int_Tables_number   1
_chemical_formula_structural   La3PrNd2(RuI3)2
_chemical_formula_sum   'La3 Pr1 Nd2 Ru2 I6'
_cell_volume   524.96257105
_cell_formula_units_Z   1
loop_
 _symmetry_equiv_pos_site_id
 _symmetry_equiv_pos_as_xyz
  1  'x, y, z'
loop_
 _atom_site_type_symbol
 _atom_site_label
 _atom_site_symmetry_multiplicity
 _atom_site_fract_x
 _atom_site_fract_y
 _atom_site_fract_z
 _atom_site_occupancy
  La  La0  1  0.250000  0.884750  0.328558  1
  La  La1  1  0.750000  0.116136  0.671146  1
  La  La2  1  0.250000  0.901607  0.897764  1
  Pr  Pr3  1  0.750000  0.098349  0.104322  1
  Nd  Nd4  1  0.750000  0.686844  0.118849  1
  Nd  Nd5  1  0.250000  0.313647  0.882246  1
  Ru  Ru6  1  0.250000  0.886107  0.127782  1
  Ru  Ru7  1  0.750000  0.112655  0.869187  1
  I  I8  1  0.250000  0.865986  0.618598  1
  I  I9  1  0.750000  0.135231  0.380162  1
  I  I10  1  0.750000  0.633747  0.376098  1
  I  I11  1  0.250000  0.367194  0.624820  1
  I  I12  1  0.250000  0.394974  0.135327  1
  I  I13  1  0.750000  0.602773  0.865142  1
