# generated using pymatgen
data_Dy3HoFe3Os5
_symmetry_space_group_name_H-M   'P 1'
_cell_length_a   5.27223192
_cell_length_b   5.30745376
_cell_length_c   9.15509520
_cell_angle_alpha   73.15022700
_cell_angle_beta   90.89745114
_cell_angle_gamma   120.22124680
_symmetry_Int_Tables_number   1
_chemical_formula_structural   Dy3HoFe3Os5
_chemical_formula_sum   'Dy3 Ho1 Fe3 Os5'
_cell_volume   209.21418842
_cell_formula_units_Z   1
loop_
 _symmetry_equiv_pos_site_id
 _symmetry_equiv_pos_as_xyz
  1  'x, y, z'
loop_
 _atom_site_type_symbol
 _atom_site_label
 _atom_site_symmetry_multiplicity
 _atom_site_fract_x
 _atom_site_fract_y
 _atom_site_fract_z
 _atom_site_occupancy
  Dy  Dy0  1  0.378836  0.752576  0.873683  1
  Dy  Dy1  1  0.996183  0.997489  0.001206  1
  Dy  Dy2  1  0.499446  0.999907  0.499631  1
  Ho  Ho3  1  0.875514  0.749996  0.375522  1
  Fe  Fe4  1  0.687464  0.375014  0.937437  1
  Fe  Fe5  1  0.939917  0.375871  0.188174  1
  Fe  Fe6  1  0.435079  0.374144  0.686792  1
  Os  Os7  1  0.440268  0.373696  0.184165  1
  Os  Os8  1  0.934717  0.376299  0.690838  1
  Os  Os9  1  0.440268  0.882407  0.184165  1
  Os  Os10  1  0.934717  0.867578  0.690838  1
  Os  Os11  1  0.187591  0.375023  0.437546  1
