# generated using pymatgen
data_PaTa(VBr10)2
_symmetry_space_group_name_H-M   'P 1'
_cell_length_a   7.82974523
_cell_length_b   8.05663820
_cell_length_c   15.27668242
_cell_angle_alpha   90.76051052
_cell_angle_beta   90.96541205
_cell_angle_gamma   106.75201379
_symmetry_Int_Tables_number   1
_chemical_formula_structural   PaTa(VBr10)2
_chemical_formula_sum   'Pa1 Ta1 V2 Br20'
_cell_volume   922.48129936
_cell_formula_units_Z   1
loop_
 _symmetry_equiv_pos_site_id
 _symmetry_equiv_pos_as_xyz
  1  'x, y, z'
loop_
 _atom_site_type_symbol
 _atom_site_label
 _atom_site_symmetry_multiplicity
 _atom_site_fract_x
 _atom_site_fract_y
 _atom_site_fract_z
 _atom_site_occupancy
  Pa  Pa0  1  0.000000  0.000000  0.500000  1
  Ta  Ta1  1  0.000000  0.000000  0.000000  1
  V  V2  1  0.379547  0.591656  0.761220  1
  V  V3  1  0.620453  0.408344  0.238780  1
  Br  Br4  1  0.297217  0.081907  0.923846  1
  Br  Br5  1  0.702783  0.918093  0.076154  1
  Br  Br6  1  0.107082  0.271199  0.096481  1
  Br  Br7  1  0.892918  0.728801  0.903519  1
  Br  Br8  1  0.123365  0.829855  0.110913  1
  Br  Br9  1  0.876635  0.170145  0.889087  1
  Br  Br10  1  0.242640  0.313538  0.476127  1
  Br  Br11  1  0.757360  0.686462  0.523873  1
  Br  Br12  1  0.244274  0.835502  0.450901  1
  Br  Br13  1  0.755726  0.164498  0.549099  1
  Br  Br14  1  0.107672  0.003691  0.670108  1
  Br  Br15  1  0.892328  0.996309  0.329892  1
  Br  Br16  1  0.669078  0.407780  0.094742  1
  Br  Br17  1  0.330922  0.592220  0.905258  1
  Br  Br18  1  0.883978  0.482099  0.310836  1
  Br  Br19  1  0.116022  0.517901  0.689164  1
  Br  Br20  1  0.460651  0.143778  0.278969  1
  Br  Br21  1  0.539349  0.856222  0.721031  1
  Br  Br22  1  0.472721  0.600814  0.273606  1
  Br  Br23  1  0.527279  0.399186  0.726394  1
