# generated using pymatgen
data_Ho2ThAl7Cu2
_symmetry_space_group_name_H-M   'P 1'
_cell_length_a   9.08492145
_cell_length_b   9.08492133
_cell_length_c   9.08492216
_cell_angle_alpha   35.24513210
_cell_angle_beta   35.24513480
_cell_angle_gamma   35.24512931
_symmetry_Int_Tables_number   1
_chemical_formula_structural   Ho2ThAl7Cu2
_chemical_formula_sum   'Ho2 Th1 Al7 Cu2'
_cell_volume   223.05152021
_cell_formula_units_Z   1
loop_
 _symmetry_equiv_pos_site_id
 _symmetry_equiv_pos_as_xyz
  1  'x, y, z'
loop_
 _atom_site_type_symbol
 _atom_site_label
 _atom_site_symmetry_multiplicity
 _atom_site_fract_x
 _atom_site_fract_y
 _atom_site_fract_z
 _atom_site_occupancy
  Ho  Ho0  1  0.858511  0.858511  0.858511  1
  Ho  Ho1  1  0.141489  0.141489  0.141489  1
  Th  Th2  1  0.000000  0.000000  0.000000  1
  Al  Al3  1  0.417851  0.417851  0.926551  1
  Al  Al4  1  0.926551  0.417851  0.417851  1
  Al  Al5  1  0.417851  0.926551  0.417851  1
  Al  Al6  1  0.500000  0.500000  0.500000  1
  Al  Al7  1  0.582149  0.073449  0.582149  1
  Al  Al8  1  0.073449  0.582149  0.582149  1
  Al  Al9  1  0.582149  0.582149  0.073449  1
  Cu  Cu10  1  0.664701  0.664701  0.664701  1
  Cu  Cu11  1  0.335299  0.335299  0.335299  1
