# generated using pymatgen
data_Dy6Ga7(Co3Ru)4
_symmetry_space_group_name_H-M   'P 1'
_cell_length_a   8.63234600
_cell_length_b   8.63363038
_cell_length_c   8.57832674
_cell_angle_alpha   120.22092643
_cell_angle_beta   90.00028738
_cell_angle_gamma   119.99576948
_symmetry_Int_Tables_number   1
_chemical_formula_structural   Dy6Ga7(Co3Ru)4
_chemical_formula_sum   'Dy6 Ga7 Co12 Ru4'
_cell_volume   450.58672051
_cell_formula_units_Z   1
loop_
 _symmetry_equiv_pos_site_id
 _symmetry_equiv_pos_as_xyz
  1  'x, y, z'
loop_
 _atom_site_type_symbol
 _atom_site_label
 _atom_site_symmetry_multiplicity
 _atom_site_fract_x
 _atom_site_fract_y
 _atom_site_fract_z
 _atom_site_occupancy
  Dy  Dy0  1  0.283488  0.002328  0.285732  1
  Dy  Dy1  1  0.283507  0.567002  0.285840  1
  Dy  Dy2  1  0.718831  0.002292  0.285723  1
  Dy  Dy3  1  0.718985  0.997687  0.716769  1
  Dy  Dy4  1  0.278699  0.997682  0.716753  1
  Dy  Dy5  1  0.719026  0.438056  0.716736  1
  Ga  Ga6  1  0.996735  0.993487  0.990303  1
  Ga  Ga7  1  0.494695  0.989367  0.997967  1
  Ga  Ga8  1  0.008618  0.503294  0.998014  1
  Ga  Ga9  1  0.494673  0.503290  0.998007  1
  Ga  Ga10  1  0.001419  0.002853  0.502860  1
  Ga  Ga11  1  0.001448  0.501423  0.502852  1
  Ga  Ga12  1  0.499989  0.501448  0.502866  1
  Co  Co13  1  0.682011  0.364037  0.327439  1
  Co  Co14  1  0.682016  0.645396  0.327439  1
  Co  Co15  1  0.963393  0.645408  0.327459  1
  Co  Co16  1  0.127642  0.255308  0.382970  1
  Co  Co17  1  0.873446  0.746898  0.620386  1
  Co  Co18  1  0.041163  0.359732  0.678249  1
  Co  Co19  1  0.318561  0.359743  0.678250  1
  Co  Co20  1  0.318576  0.637148  0.678240  1
  Co  Co21  1  0.126352  0.252707  0.870432  1
  Co  Co22  1  0.126304  0.744100  0.870428  1
  Co  Co23  1  0.617805  0.744103  0.870445  1
  Co  Co24  1  0.319762  0.639528  0.959232  1
  Ru  Ru25  1  0.677759  0.355518  0.033312  1
  Ru  Ru26  1  0.369698  0.247410  0.125096  1
  Ru  Ru27  1  0.877718  0.247415  0.125112  1
  Ru  Ru28  1  0.877684  0.755335  0.125091  1
