# generated using pymatgen
data_Tm3Ta3FeB4Ru9
_symmetry_space_group_name_H-M   'P 1'
_cell_length_a   9.49622464
_cell_length_b   9.49622412
_cell_length_c   3.11414300
_cell_angle_alpha   90.00000000
_cell_angle_beta   90.00000000
_cell_angle_gamma   89.56925720
_symmetry_Int_Tables_number   1
_chemical_formula_structural   Tm3Ta3FeB4Ru9
_chemical_formula_sum   'Tm3 Ta3 Fe1 B4 Ru9'
_cell_volume   280.82011538
_cell_formula_units_Z   1
loop_
 _symmetry_equiv_pos_site_id
 _symmetry_equiv_pos_as_xyz
  1  'x, y, z'
loop_
 _atom_site_type_symbol
 _atom_site_label
 _atom_site_symmetry_multiplicity
 _atom_site_fract_x
 _atom_site_fract_y
 _atom_site_fract_z
 _atom_site_occupancy
  Tm  Tm0  1  0.821715  0.676930  0.000000  1
  Tm  Tm1  1  0.176930  0.321715  0.000000  1
  Tm  Tm2  1  0.327851  0.827851  0.000000  1
  Ta  Ta3  1  0.669836  0.169836  0.000000  1
  Ta  Ta4  1  0.498819  0.503642  0.000000  1
  Ta  Ta5  1  0.003642  0.998819  0.000000  1
  Fe  Fe6  1  0.508635  0.008635  0.500000  1
  B  B7  1  0.615617  0.890291  0.000000  1
  B  B8  1  0.390291  0.115617  0.000000  1
  B  B9  1  0.119094  0.619094  0.000000  1
  B  B10  1  0.876205  0.376205  0.000000  1
  Ru  Ru11  1  0.568254  0.727596  0.500000  1
  Ru  Ru12  1  0.444563  0.274440  0.500000  1
  Ru  Ru13  1  0.068703  0.781755  0.500000  1
  Ru  Ru14  1  0.917526  0.212317  0.500000  1
  Ru  Ru15  1  0.281755  0.568703  0.500000  1
  Ru  Ru16  1  0.712317  0.417526  0.500000  1
  Ru  Ru17  1  0.227596  0.068254  0.500000  1
  Ru  Ru18  1  0.774440  0.944563  0.500000  1
  Ru  Ru19  1  0.996211  0.496211  0.500000  1
