# generated using pymatgen
data_Eu2Si2Ir3Rh
_symmetry_space_group_name_H-M   'P 1'
_cell_length_a   8.92822588
_cell_length_b   8.92822457
_cell_length_c   4.17027800
_cell_angle_alpha   90.00000000
_cell_angle_beta   90.00000000
_cell_angle_gamma   152.75557193
_symmetry_Int_Tables_number   1
_chemical_formula_structural   Eu2Si2Ir3Rh
_chemical_formula_sum   'Eu2 Si2 Ir3 Rh1'
_cell_volume   152.18055776
_cell_formula_units_Z   1
loop_
 _symmetry_equiv_pos_site_id
 _symmetry_equiv_pos_as_xyz
  1  'x, y, z'
loop_
 _atom_site_type_symbol
 _atom_site_label
 _atom_site_symmetry_multiplicity
 _atom_site_fract_x
 _atom_site_fract_y
 _atom_site_fract_z
 _atom_site_occupancy
  Eu  Eu0  1  0.097396  0.902604  0.750000  1
  Eu  Eu1  1  0.902889  0.097111  0.250000  1
  Si  Si2  1  0.321262  0.678738  0.750000  1
  Si  Si3  1  0.678512  0.321488  0.250000  1
  Ir  Ir4  1  0.541448  0.458552  0.250000  1
  Ir  Ir5  1  0.458354  0.541646  0.750000  1
  Ir  Ir6  1  0.249483  0.750517  0.250000  1
  Rh  Rh7  1  0.750657  0.249343  0.750000  1
