# generated using pymatgen
data_TbEr2Tm2P12Ru19
_symmetry_space_group_name_H-M   'P 1'
_cell_length_a   12.51977203
_cell_length_b   12.51977318
_cell_length_c   3.97178000
_cell_angle_alpha   90.00000000
_cell_angle_beta   90.00000000
_cell_angle_gamma   120.00852214
_symmetry_Int_Tables_number   1
_chemical_formula_structural   TbEr2Tm2P12Ru19
_chemical_formula_sum   'Tb1 Er2 Tm2 P12 Ru19'
_cell_volume   539.10256338
_cell_formula_units_Z   1
loop_
 _symmetry_equiv_pos_site_id
 _symmetry_equiv_pos_as_xyz
  1  'x, y, z'
loop_
 _atom_site_type_symbol
 _atom_site_label
 _atom_site_symmetry_multiplicity
 _atom_site_fract_x
 _atom_site_fract_y
 _atom_site_fract_z
 _atom_site_occupancy
  Tb  Tb0  1  0.183418  0.183418  0.500000  1
  Er  Er1  1  0.816643  0.999944  0.500000  1
  Er  Er2  1  0.999944  0.816643  0.500000  1
  Tm  Tm3  1  0.333390  0.666746  0.000000  1
  Tm  Tm4  1  0.666746  0.333390  0.000000  1
  P  P5  1  0.815719  0.815719  0.000000  1
  P  P6  1  0.183956  0.999545  0.000000  1
  P  P7  1  0.999545  0.183956  0.000000  1
  P  P8  1  0.171567  0.478358  0.500000  1
  P  P9  1  0.521786  0.693361  0.500000  1
  P  P10  1  0.306808  0.828292  0.500000  1
  P  P11  1  0.693361  0.521786  0.500000  1
  P  P12  1  0.828292  0.306808  0.500000  1
  P  P13  1  0.478358  0.171567  0.500000  1
  P  P14  1  0.372416  0.372416  0.000000  1
  P  P15  1  0.627859  0.999990  0.000000  1
  P  P16  1  0.999990  0.627859  0.000000  1
  Ru  Ru17  1  0.554447  0.554447  0.000000  1
  Ru  Ru18  1  0.445844  0.999928  0.000000  1
  Ru  Ru19  1  0.999928  0.445844  0.000000  1
  Ru  Ru20  1  0.717096  0.717096  0.500000  1
  Ru  Ru21  1  0.283104  0.999680  0.500000  1
  Ru  Ru22  1  0.999680  0.283104  0.500000  1
  Ru  Ru23  1  0.184837  0.377932  0.000000  1
  Ru  Ru24  1  0.622816  0.807739  0.000000  1
  Ru  Ru25  1  0.192195  0.814900  0.000000  1
  Ru  Ru26  1  0.807739  0.622816  0.000000  1
  Ru  Ru27  1  0.814900  0.192195  0.000000  1
  Ru  Ru28  1  0.377932  0.184837  0.000000  1
  Ru  Ru29  1  0.365853  0.492367  0.500000  1
  Ru  Ru30  1  0.507869  0.873482  0.500000  1
  Ru  Ru31  1  0.126544  0.634314  0.500000  1
  Ru  Ru32  1  0.873482  0.507869  0.500000  1
  Ru  Ru33  1  0.634314  0.126544  0.500000  1
  Ru  Ru34  1  0.492367  0.365853  0.500000  1
  Ru  Ru35  1  0.999255  0.999255  0.000000  1
