# generated using pymatgen
data_Cs3NaVCl6
_symmetry_space_group_name_H-M   'P 1'
_cell_length_a   8.99878256
_cell_length_b   8.99878281
_cell_length_c   8.99878179
_cell_angle_alpha   94.24931839
_cell_angle_beta   94.24931763
_cell_angle_gamma   94.24932209
_symmetry_Int_Tables_number   1
_chemical_formula_structural   Cs3NaVCl6
_chemical_formula_sum   'Cs6 Na2 V2 Cl12'
_cell_volume   722.37904161
_cell_formula_units_Z   2
loop_
 _symmetry_equiv_pos_site_id
 _symmetry_equiv_pos_as_xyz
  1  'x, y, z'
loop_
 _atom_site_type_symbol
 _atom_site_label
 _atom_site_symmetry_multiplicity
 _atom_site_fract_x
 _atom_site_fract_y
 _atom_site_fract_z
 _atom_site_occupancy
  Cs  Cs0  1  0.375391  0.750000  0.124609  1
  Cs  Cs1  1  0.124609  0.375391  0.750000  1
  Cs  Cs2  1  0.750000  0.124609  0.375391  1
  Cs  Cs3  1  0.624609  0.250000  0.875391  1
  Cs  Cs4  1  0.875391  0.624609  0.250000  1
  Cs  Cs5  1  0.250000  0.875391  0.624609  1
  Na  Na6  1  0.250000  0.250000  0.250000  1
  Na  Na7  1  0.750000  0.750000  0.750000  1
  V  V8  1  0.500000  0.500000  0.500000  1
  V  V9  1  0.000000  0.000000  0.000000  1
  Cl  Cl10  1  0.416824  0.230815  0.532830  1
  Cl  Cl11  1  0.532830  0.416824  0.230815  1
  Cl  Cl12  1  0.230815  0.532830  0.416824  1
  Cl  Cl13  1  0.083176  0.967170  0.269185  1
  Cl  Cl14  1  0.269185  0.083176  0.967170  1
  Cl  Cl15  1  0.967170  0.269185  0.083176  1
  Cl  Cl16  1  0.032830  0.730815  0.916824  1
  Cl  Cl17  1  0.730815  0.916824  0.032830  1
  Cl  Cl18  1  0.916824  0.032830  0.730815  1
  Cl  Cl19  1  0.769185  0.467170  0.583176  1
  Cl  Cl20  1  0.467170  0.583176  0.769185  1
  Cl  Cl21  1  0.583176  0.769185  0.467170  1
