# generated using pymatgen
data_Y2ErMg3Sn2Au
_symmetry_space_group_name_H-M   'P 1'
_cell_length_a   7.54955461
_cell_length_b   7.54955446
_cell_length_c   4.43327200
_cell_angle_alpha   90.00000000
_cell_angle_beta   90.00000000
_cell_angle_gamma   119.87331883
_symmetry_Int_Tables_number   1
_chemical_formula_structural   Y2ErMg3Sn2Au
_chemical_formula_sum   'Y2 Er1 Mg3 Sn2 Au1'
_cell_volume   219.10416645
_cell_formula_units_Z   1
loop_
 _symmetry_equiv_pos_site_id
 _symmetry_equiv_pos_as_xyz
  1  'x, y, z'
loop_
 _atom_site_type_symbol
 _atom_site_label
 _atom_site_symmetry_multiplicity
 _atom_site_fract_x
 _atom_site_fract_y
 _atom_site_fract_z
 _atom_site_occupancy
  Y  Y0  1  0.594070  0.999664  0.000000  1
  Y  Y1  1  0.999664  0.594070  0.000000  1
  Er  Er2  1  0.404363  0.404363  0.000000  1
  Mg  Mg3  1  0.237904  0.000332  0.500000  1
  Mg  Mg4  1  0.000332  0.237904  0.500000  1
  Mg  Mg5  1  0.762098  0.762098  0.500000  1
  Sn  Sn6  1  0.334004  0.665635  0.500000  1
  Sn  Sn7  1  0.665635  0.334004  0.500000  1
  Au  Au8  1  0.001930  0.001930  0.000000  1
