# generated using pymatgen
data_Nd12Si7Ni4Ag
_symmetry_space_group_name_H-M   'P 1'
_cell_length_a   4.23429800
_cell_length_b   11.75582919
_cell_length_c   11.77995707
_cell_angle_alpha   89.93072547
_cell_angle_beta   90.00000000
_cell_angle_gamma   90.00000000
_symmetry_Int_Tables_number   1
_chemical_formula_structural   Nd12Si7Ni4Ag
_chemical_formula_sum   'Nd12 Si7 Ni4 Ag1'
_cell_volume   586.37855231
_cell_formula_units_Z   1
loop_
 _symmetry_equiv_pos_site_id
 _symmetry_equiv_pos_as_xyz
  1  'x, y, z'
loop_
 _atom_site_type_symbol
 _atom_site_label
 _atom_site_symmetry_multiplicity
 _atom_site_fract_x
 _atom_site_fract_y
 _atom_site_fract_z
 _atom_site_occupancy
  Nd  Nd0  1  0.250000  0.373639  0.065727  1
  Nd  Nd1  1  0.750000  0.632999  0.952593  1
  Nd  Nd2  1  0.750000  0.876650  0.439293  1
  Nd  Nd3  1  0.250000  0.119898  0.559638  1
  Nd  Nd4  1  0.250000  0.700129  0.215116  1
  Nd  Nd5  1  0.750000  0.293251  0.781205  1
  Nd  Nd6  1  0.750000  0.195257  0.289497  1
  Nd  Nd7  1  0.250000  0.802640  0.712236  1
  Nd  Nd8  1  0.250000  0.441873  0.381300  1
  Nd  Nd9  1  0.750000  0.556496  0.610222  1
  Nd  Nd10  1  0.750000  0.945032  0.116215  1
  Nd  Nd11  1  0.250000  0.058611  0.883916  1
  Si  Si12  1  0.250000  0.688452  0.470824  1
  Si  Si13  1  0.750000  0.311512  0.525679  1
  Si  Si14  1  0.750000  0.186232  0.029848  1
  Si  Si15  1  0.250000  0.817644  0.970536  1
  Si  Si16  1  0.250000  0.008540  0.300114  1
  Si  Si17  1  0.750000  0.990141  0.699867  1
  Si  Si18  1  0.750000  0.514523  0.200221  1
  Ni  Ni19  1  0.250000  0.134048  0.130730  1
  Ni  Ni20  1  0.750000  0.867815  0.870738  1
  Ni  Ni21  1  0.750000  0.634244  0.374098  1
  Ni  Ni22  1  0.250000  0.354844  0.615181  1
  Ag  Ag23  1  0.250000  0.495529  0.805206  1
