# generated using pymatgen
data_Y12Er4Cd4TcPd3
_symmetry_space_group_name_H-M   'P 1'
_cell_length_a   9.74468039
_cell_length_b   9.74468107
_cell_length_c   9.74467890
_cell_angle_alpha   59.35554326
_cell_angle_beta   59.35553866
_cell_angle_gamma   59.35554128
_symmetry_Int_Tables_number   1
_chemical_formula_structural   Y12Er4Cd4TcPd3
_chemical_formula_sum   'Y12 Er4 Cd4 Tc1 Pd3'
_cell_volume   644.71784073
_cell_formula_units_Z   1
loop_
 _symmetry_equiv_pos_site_id
 _symmetry_equiv_pos_as_xyz
  1  'x, y, z'
loop_
 _atom_site_type_symbol
 _atom_site_label
 _atom_site_symmetry_multiplicity
 _atom_site_fract_x
 _atom_site_fract_y
 _atom_site_fract_z
 _atom_site_occupancy
  Y  Y0  1  0.816335  0.188247  0.188247  1
  Y  Y1  1  0.189484  0.809558  0.809558  1
  Y  Y2  1  0.188247  0.816335  0.188247  1
  Y  Y3  1  0.809558  0.189484  0.809558  1
  Y  Y4  1  0.188247  0.188247  0.816335  1
  Y  Y5  1  0.809558  0.809558  0.189484  1
  Y  Y6  1  0.935496  0.565102  0.565102  1
  Y  Y7  1  0.556590  0.937970  0.937970  1
  Y  Y8  1  0.565102  0.935496  0.565102  1
  Y  Y9  1  0.937970  0.556590  0.937970  1
  Y  Y10  1  0.565102  0.565102  0.935496  1
  Y  Y11  1  0.937970  0.937970  0.556590  1
  Er  Er12  1  0.352652  0.352652  0.352652  1
  Er  Er13  1  0.351033  0.351033  0.945839  1
  Er  Er14  1  0.351033  0.945839  0.351033  1
  Er  Er15  1  0.945839  0.351033  0.351033  1
  Cd  Cd16  1  0.579799  0.579799  0.579799  1
  Cd  Cd17  1  0.580687  0.580687  0.254593  1
  Cd  Cd18  1  0.580687  0.254593  0.580687  1
  Cd  Cd19  1  0.254593  0.580687  0.580687  1
  Tc  Tc20  1  0.146258  0.146258  0.146258  1
  Pd  Pd21  1  0.146324  0.146324  0.565114  1
  Pd  Pd22  1  0.146324  0.565114  0.146324  1
  Pd  Pd23  1  0.565114  0.146324  0.146324  1
