# generated using pymatgen
data_Zr5Zn4Pt11
_symmetry_space_group_name_H-M   'P 1'
_cell_length_a   7.58104146
_cell_length_b   7.58104151
_cell_length_c   7.58104082
_cell_angle_alpha   105.79425374
_cell_angle_beta   105.79424041
_cell_angle_gamma   117.10565237
_symmetry_Int_Tables_number   1
_chemical_formula_structural   Zr5Zn4Pt11
_chemical_formula_sum   'Zr5 Zn4 Pt11'
_cell_volume   330.87915017
_cell_formula_units_Z   1
loop_
 _symmetry_equiv_pos_site_id
 _symmetry_equiv_pos_as_xyz
  1  'x, y, z'
loop_
 _atom_site_type_symbol
 _atom_site_label
 _atom_site_symmetry_multiplicity
 _atom_site_fract_x
 _atom_site_fract_y
 _atom_site_fract_z
 _atom_site_occupancy
  Zr  Zr0  1  0.208947  0.403337  0.612285  1
  Zr  Zr1  1  0.791053  0.596663  0.387715  1
  Zr  Zr2  1  0.596663  0.208947  0.805610  1
  Zr  Zr3  1  0.403337  0.791053  0.194390  1
  Zr  Zr4  1  0.000000  0.000000  0.000000  1
  Zn  Zn5  1  0.302453  0.095968  0.398419  1
  Zn  Zn6  1  0.697547  0.904032  0.601581  1
  Zn  Zn7  1  0.904032  0.302453  0.206485  1
  Zn  Zn8  1  0.095968  0.697547  0.793515  1
  Pt  Pt9  1  0.345230  0.446041  0.304213  1
  Pt  Pt10  1  0.654770  0.553959  0.695787  1
  Pt  Pt11  1  0.141828  0.041016  0.695787  1
  Pt  Pt12  1  0.041016  0.345230  0.899188  1
  Pt  Pt13  1  0.858172  0.958984  0.304213  1
  Pt  Pt14  1  0.958984  0.654770  0.100812  1
  Pt  Pt15  1  0.446041  0.141828  0.100812  1
  Pt  Pt16  1  0.553959  0.858172  0.899188  1
  Pt  Pt17  1  0.250000  0.750000  0.500000  1
  Pt  Pt18  1  0.750000  0.250000  0.500000  1
  Pt  Pt19  1  0.500000  0.500000  0.000000  1
