# generated using pymatgen
data_Ta12Mn3Ga8CuC4
_symmetry_space_group_name_H-M   'P 1'
_cell_length_a   8.22027795
_cell_length_b   8.21769467
_cell_length_c   8.19539312
_cell_angle_alpha   59.89037586
_cell_angle_beta   59.90697110
_cell_angle_gamma   59.99605039
_symmetry_Int_Tables_number   1
_chemical_formula_structural   Ta12Mn3Ga8CuC4
_chemical_formula_sum   'Ta12 Mn3 Ga8 Cu1 C4'
_cell_volume   390.85125321
_cell_formula_units_Z   1
loop_
 _symmetry_equiv_pos_site_id
 _symmetry_equiv_pos_as_xyz
  1  'x, y, z'
loop_
 _atom_site_type_symbol
 _atom_site_label
 _atom_site_symmetry_multiplicity
 _atom_site_fract_x
 _atom_site_fract_y
 _atom_site_fract_z
 _atom_site_occupancy
  Ta  Ta0  1  0.564759  0.941957  0.551280  1
  Ta  Ta1  1  0.307929  0.685305  0.698837  1
  Ta  Ta2  1  0.697348  0.303290  0.302028  1
  Ta  Ta3  1  0.303222  0.697386  0.301974  1
  Ta  Ta4  1  0.697400  0.697353  0.301994  1
  Ta  Ta5  1  0.308001  0.308046  0.698728  1
  Ta  Ta6  1  0.552600  0.552647  0.948006  1
  Ta  Ta7  1  0.942071  0.564695  0.551163  1
  Ta  Ta8  1  0.552652  0.946710  0.947972  1
  Ta  Ta9  1  0.941999  0.941954  0.551272  1
  Ta  Ta10  1  0.685241  0.308043  0.698720  1
  Ta  Ta11  1  0.946778  0.552614  0.948026  1
  Mn  Mn12  1  0.125000  0.125000  0.125000  1
  Mn  Mn13  1  0.625000  0.125000  0.125000  1
  Mn  Mn14  1  0.125000  0.625000  0.125000  1
  Ga  Ga15  1  0.914628  0.914589  0.914710  1
  Ga  Ga16  1  0.993946  0.335402  0.335309  1
  Ga  Ga17  1  0.335418  0.993834  0.335352  1
  Ga  Ga18  1  0.332021  0.332022  0.004001  1
  Ga  Ga19  1  0.914582  0.256166  0.914648  1
  Ga  Ga20  1  0.917979  0.917978  0.245999  1
  Ga  Ga21  1  0.256054  0.914598  0.914691  1
  Ga  Ga22  1  0.335372  0.335411  0.335290  1
  Cu  Cu23  1  0.125000  0.125000  0.625000  1
  C  C24  1  0.625000  0.625000  0.625000  1
  C  C25  1  0.125000  0.625000  0.625000  1
  C  C26  1  0.625000  0.125000  0.625000  1
  C  C27  1  0.625000  0.625000  0.125000  1
