# generated using pymatgen
data_Hf17ScRe7MoP2
_symmetry_space_group_name_H-M   'P 1'
_cell_length_a   8.55682476
_cell_length_b   8.55682404
_cell_length_c   8.60801100
_cell_angle_alpha   90.00000000
_cell_angle_beta   90.00000000
_cell_angle_gamma   119.92440626
_symmetry_Int_Tables_number   1
_chemical_formula_structural   Hf17ScRe7MoP2
_chemical_formula_sum   'Hf17 Sc1 Re7 Mo1 P2'
_cell_volume   546.24691446
_cell_formula_units_Z   1
loop_
 _symmetry_equiv_pos_site_id
 _symmetry_equiv_pos_as_xyz
  1  'x, y, z'
loop_
 _atom_site_type_symbol
 _atom_site_label
 _atom_site_symmetry_multiplicity
 _atom_site_fract_x
 _atom_site_fract_y
 _atom_site_fract_z
 _atom_site_occupancy
  Hf  Hf0  1  0.195871  0.804129  0.452572  1
  Hf  Hf1  1  0.197445  0.392515  0.451803  1
  Hf  Hf2  1  0.607485  0.802555  0.451803  1
  Hf  Hf3  1  0.803164  0.196836  0.549635  1
  Hf  Hf4  1  0.804360  0.609398  0.549761  1
  Hf  Hf5  1  0.390602  0.195640  0.549761  1
  Hf  Hf6  1  0.803164  0.196836  0.950365  1
  Hf  Hf7  1  0.804360  0.609398  0.950239  1
  Hf  Hf8  1  0.390602  0.195640  0.950239  1
  Hf  Hf9  1  0.195871  0.804129  0.047428  1
  Hf  Hf10  1  0.197445  0.392515  0.048197  1
  Hf  Hf11  1  0.607485  0.802555  0.048197  1
  Hf  Hf12  1  0.537638  0.075961  0.250000  1
  Hf  Hf13  1  0.924039  0.462362  0.250000  1
  Hf  Hf14  1  0.458586  0.541414  0.750000  1
  Hf  Hf15  1  0.459349  0.919166  0.750000  1
  Hf  Hf16  1  0.080834  0.540651  0.750000  1
  Sc  Sc17  1  0.542653  0.457347  0.250000  1
  Re  Re18  1  0.890588  0.778830  0.250000  1
  Re  Re19  1  0.221170  0.109412  0.250000  1
  Re  Re20  1  0.109369  0.890631  0.750000  1
  Re  Re21  1  0.108781  0.219366  0.750000  1
  Re  Re22  1  0.780634  0.891219  0.750000  1
  Re  Re23  1  0.999950  0.000050  0.500708  1
  Re  Re24  1  0.999950  0.000050  0.999292  1
  Mo  Mo25  1  0.891780  0.108220  0.250000  1
  P  P26  1  0.331184  0.668816  0.250000  1
  P  P27  1  0.665645  0.334355  0.750000  1
