# generated using pymatgen
data_KYbPO4
_symmetry_space_group_name_H-M   'P 1'
_cell_length_a   5.50971172
_cell_length_b   5.55593900
_cell_length_c   7.22760763
_cell_angle_alpha   90.00000000
_cell_angle_beta   107.07762191
_cell_angle_gamma   90.00000000
_symmetry_Int_Tables_number   1
_chemical_formula_structural   KYbPO4
_chemical_formula_sum   'K2 Yb2 P2 O8'
_cell_volume   211.49344518
_cell_formula_units_Z   2
loop_
 _symmetry_equiv_pos_site_id
 _symmetry_equiv_pos_as_xyz
  1  'x, y, z'
loop_
 _atom_site_type_symbol
 _atom_site_label
 _atom_site_symmetry_multiplicity
 _atom_site_fract_x
 _atom_site_fract_y
 _atom_site_fract_z
 _atom_site_occupancy
  K  K0  1  0.803114  0.249999  0.070516  1
  K  K1  1  0.196885  0.749999  0.929484  1
  Yb  Yb2  1  0.277290  0.749999  0.458552  1
  Yb  Yb3  1  0.722710  0.249999  0.541448  1
  P  P4  1  0.725601  0.749999  0.328331  1
  P  P5  1  0.274400  0.249999  0.671669  1
  O  O6  1  0.898736  0.749999  0.193773  1
  O  O7  1  0.545535  0.526675  0.297191  1
  O  O8  1  0.545535  0.973325  0.297191  1
  O  O9  1  0.102602  0.249999  0.457423  1
  O  O10  1  0.897399  0.749999  0.542577  1
  O  O11  1  0.454466  0.026675  0.702809  1
  O  O12  1  0.454466  0.473325  0.702809  1
  O  O13  1  0.101265  0.249999  0.806227  1
