# generated using pymatgen
data_CaScReB6
_symmetry_space_group_name_H-M   'P 1'
_cell_length_a   3.55629400
_cell_length_b   9.09850200
_cell_length_c   11.43802200
_cell_angle_alpha   90.00000000
_cell_angle_beta   90.00000000
_cell_angle_gamma   90.00000000
_symmetry_Int_Tables_number   1
_chemical_formula_structural   CaScReB6
_chemical_formula_sum   'Ca4 Sc4 Re4 B24'
_cell_volume   370.09948390
_cell_formula_units_Z   4
loop_
 _symmetry_equiv_pos_site_id
 _symmetry_equiv_pos_as_xyz
  1  'x, y, z'
loop_
 _atom_site_type_symbol
 _atom_site_label
 _atom_site_symmetry_multiplicity
 _atom_site_fract_x
 _atom_site_fract_y
 _atom_site_fract_z
 _atom_site_occupancy
  Ca  Ca0  1  0.000000  0.323874  0.415181  1
  Ca  Ca1  1  0.000000  0.676126  0.584819  1
  Ca  Ca2  1  0.000000  0.823874  0.084819  1
  Ca  Ca3  1  0.000000  0.176126  0.915181  1
  Sc  Sc4  1  0.000000  0.943907  0.367272  1
  Sc  Sc5  1  0.000000  0.056093  0.632728  1
  Sc  Sc6  1  0.000000  0.443907  0.132728  1
  Sc  Sc7  1  0.000000  0.556093  0.867272  1
  Re  Re8  1  0.000000  0.644205  0.317415  1
  Re  Re9  1  0.000000  0.355795  0.682585  1
  Re  Re10  1  0.000000  0.144205  0.182585  1
  Re  Re11  1  0.000000  0.855795  0.817415  1
  B  B12  1  0.500000  0.554852  0.432468  1
  B  B13  1  0.500000  0.445148  0.567532  1
  B  B14  1  0.500000  0.054852  0.067532  1
  B  B15  1  0.500000  0.945148  0.932468  1
  B  B16  1  0.500000  0.755581  0.417816  1
  B  B17  1  0.500000  0.244419  0.582184  1
  B  B18  1  0.500000  0.255581  0.082184  1
  B  B19  1  0.500000  0.744419  0.917816  1
  B  B20  1  0.500000  0.797212  0.263421  1
  B  B21  1  0.500000  0.202788  0.736579  1
  B  B22  1  0.500000  0.297212  0.236579  1
  B  B23  1  0.500000  0.702788  0.763421  1
  B  B24  1  0.500000  0.630304  0.182166  1
  B  B25  1  0.500000  0.369696  0.817834  1
  B  B26  1  0.500000  0.130304  0.317834  1
  B  B27  1  0.500000  0.869696  0.682166  1
  B  B28  1  0.500000  0.982852  0.213508  1
  B  B29  1  0.500000  0.017148  0.786492  1
  B  B30  1  0.500000  0.482852  0.286492  1
  B  B31  1  0.500000  0.517148  0.713508  1
  B  B32  1  0.500000  0.591589  0.024449  1
  B  B33  1  0.500000  0.408411  0.975551  1
  B  B34  1  0.500000  0.091589  0.475551  1
  B  B35  1  0.500000  0.908411  0.524449  1
