# generated using pymatgen
data_Ho(TaS2)3
_symmetry_space_group_name_H-M   'P 1'
_cell_length_a   5.79072600
_cell_length_b   5.79072579
_cell_length_c   13.84309000
_cell_angle_alpha   90.00000000
_cell_angle_beta   90.00000000
_cell_angle_gamma   120.00001264
_symmetry_Int_Tables_number   1
_chemical_formula_structural   Ho(TaS2)3
_chemical_formula_sum   'Ho2 Ta6 S12'
_cell_volume   402.00331530
_cell_formula_units_Z   2
loop_
 _symmetry_equiv_pos_site_id
 _symmetry_equiv_pos_as_xyz
  1  'x, y, z'
loop_
 _atom_site_type_symbol
 _atom_site_label
 _atom_site_symmetry_multiplicity
 _atom_site_fract_x
 _atom_site_fract_y
 _atom_site_fract_z
 _atom_site_occupancy
  Ho  Ho0  1  0.000000  0.000000  0.500000  1
  Ho  Ho1  1  0.000000  0.000000  0.000000  1
  Ta  Ta2  1  0.333333  0.666667  0.250000  1
  Ta  Ta3  1  0.666667  0.333333  0.750000  1
  Ta  Ta4  1  0.666667  0.333333  0.250000  1
  Ta  Ta5  1  0.333333  0.666667  0.750000  1
  Ta  Ta6  1  0.000000  0.000000  0.250000  1
  Ta  Ta7  1  0.000000  0.000000  0.750000  1
  S  S8  1  0.337199  0.000000  0.135836  1
  S  S9  1  0.000000  0.337199  0.135836  1
  S  S10  1  0.662801  0.662801  0.135836  1
  S  S11  1  0.337199  0.337199  0.635836  1
  S  S12  1  0.662801  0.662801  0.364164  1
  S  S13  1  0.662801  0.000000  0.635836  1
  S  S14  1  0.000000  0.662801  0.635836  1
  S  S15  1  0.000000  0.662801  0.864164  1
  S  S16  1  0.337199  0.337199  0.864164  1
  S  S17  1  0.000000  0.337199  0.364164  1
  S  S18  1  0.337199  0.000000  0.364164  1
  S  S19  1  0.662801  0.000000  0.864164  1
