# generated using pymatgen
data_Ca7Tm3(Si3H)2
_symmetry_space_group_name_H-M   'P 1'
_cell_length_a   8.85773291
_cell_length_b   8.86548887
_cell_length_c   8.86513274
_cell_angle_alpha   129.54072797
_cell_angle_beta   129.51712876
_cell_angle_gamma   74.13085410
_symmetry_Int_Tables_number   1
_chemical_formula_structural   Ca7Tm3(Si3H)2
_chemical_formula_sum   'Ca7 Tm3 Si6 H2'
_cell_volume   403.88502493
_cell_formula_units_Z   1
loop_
 _symmetry_equiv_pos_site_id
 _symmetry_equiv_pos_as_xyz
  1  'x, y, z'
loop_
 _atom_site_type_symbol
 _atom_site_label
 _atom_site_symmetry_multiplicity
 _atom_site_fract_x
 _atom_site_fract_y
 _atom_site_fract_z
 _atom_site_occupancy
  Ca  Ca0  1  0.503942  0.502808  0.004955  1
  Ca  Ca1  1  0.998988  0.997853  0.995045  1
  Ca  Ca2  1  0.680729  0.520182  0.500000  1
  Ca  Ca3  1  0.478731  0.977973  0.165602  1
  Ca  Ca4  1  0.813129  0.312371  0.834398  1
  Ca  Ca5  1  0.981826  0.812769  0.500000  1
  Ca  Ca6  1  0.313175  0.480735  0.500000  1
  Tm  Tm7  1  0.523971  0.026409  0.841885  1
  Tm  Tm8  1  0.182086  0.684524  0.158115  1
  Tm  Tm9  1  0.022541  0.185614  0.500000  1
  Si  Si10  1  0.247460  0.252800  0.984715  1
  Si  Si11  1  0.762745  0.768085  0.015285  1
  Si  Si12  1  0.880264  0.373862  0.266225  1
  Si  Si13  1  0.114039  0.607638  0.733775  1
  Si  Si14  1  0.373578  0.109889  0.500000  1
  Si  Si15  1  0.600514  0.881766  0.500000  1
  H  H16  1  0.261846  0.758903  0.500000  1
  H  H17  1  0.760436  0.245816  0.500000  1
