# generated using pymatgen
data_SrSm2Ga8Ag3
_symmetry_space_group_name_H-M   'P 1'
_cell_length_a   4.43882580
_cell_length_b   8.57290703
_cell_length_c   8.57290848
_cell_angle_alpha   68.77171166
_cell_angle_beta   74.99597987
_cell_angle_gamma   74.99597606
_symmetry_Int_Tables_number   1
_chemical_formula_structural   SrSm2Ga8Ag3
_chemical_formula_sum   'Sr1 Sm2 Ga8 Ag3'
_cell_volume   288.74344111
_cell_formula_units_Z   1
loop_
 _symmetry_equiv_pos_site_id
 _symmetry_equiv_pos_as_xyz
  1  'x, y, z'
loop_
 _atom_site_type_symbol
 _atom_site_label
 _atom_site_symmetry_multiplicity
 _atom_site_fract_x
 _atom_site_fract_y
 _atom_site_fract_z
 _atom_site_occupancy
  Sr  Sr0  1  0.000000  0.000000  0.000000  1
  Sm  Sm1  1  0.301031  0.698969  0.698969  1
  Sm  Sm2  1  0.698969  0.301031  0.301031  1
  Ga  Ga3  1  0.337352  0.296889  0.028407  1
  Ga  Ga4  1  0.662648  0.703111  0.971593  1
  Ga  Ga5  1  0.337352  0.028407  0.296889  1
  Ga  Ga6  1  0.662648  0.971593  0.703111  1
  Ga  Ga7  1  0.145390  0.572030  0.137192  1
  Ga  Ga8  1  0.854610  0.427970  0.862808  1
  Ga  Ga9  1  0.145390  0.137192  0.572030  1
  Ga  Ga10  1  0.854610  0.862808  0.427970  1
  Ag  Ag11  1  0.500000  0.306561  0.693439  1
  Ag  Ag12  1  0.500000  0.693439  0.306561  1
  Ag  Ag13  1  0.000000  0.500000  0.500000  1
