# generated using pymatgen
data_Hf3Zn2Sb
_symmetry_space_group_name_H-M   'P 1'
_cell_length_a   5.70089800
_cell_length_b   8.64271500
_cell_length_c   9.37602400
_cell_angle_alpha   90.00000000
_cell_angle_beta   90.00000000
_cell_angle_gamma   90.00000000
_symmetry_Int_Tables_number   1
_chemical_formula_structural   Hf3Zn2Sb
_chemical_formula_sum   'Hf12 Zn8 Sb4'
_cell_volume   461.96829742
_cell_formula_units_Z   4
loop_
 _symmetry_equiv_pos_site_id
 _symmetry_equiv_pos_as_xyz
  1  'x, y, z'
loop_
 _atom_site_type_symbol
 _atom_site_label
 _atom_site_symmetry_multiplicity
 _atom_site_fract_x
 _atom_site_fract_y
 _atom_site_fract_z
 _atom_site_occupancy
  Hf  Hf0  1  0.000000  0.750000  0.126920  1
  Hf  Hf1  1  0.500000  0.250000  0.873080  1
  Hf  Hf2  1  0.000000  0.250000  0.873080  1
  Hf  Hf3  1  0.500000  0.750000  0.126920  1
  Hf  Hf4  1  0.750000  0.465209  0.613091  1
  Hf  Hf5  1  0.250000  0.534791  0.386909  1
  Hf  Hf6  1  0.750000  0.965209  0.386909  1
  Hf  Hf7  1  0.250000  0.034791  0.613091  1
  Hf  Hf8  1  0.750000  0.376974  0.194882  1
  Hf  Hf9  1  0.250000  0.623026  0.805118  1
  Hf  Hf10  1  0.750000  0.876974  0.805118  1
  Hf  Hf11  1  0.250000  0.123026  0.194882  1
  Zn  Zn12  1  0.000000  0.750000  0.570527  1
  Zn  Zn13  1  0.500000  0.250000  0.429473  1
  Zn  Zn14  1  0.000000  0.250000  0.429473  1
  Zn  Zn15  1  0.500000  0.750000  0.570527  1
  Zn  Zn16  1  0.750000  0.133766  0.638022  1
  Zn  Zn17  1  0.250000  0.866234  0.361978  1
  Zn  Zn18  1  0.750000  0.633766  0.361978  1
  Zn  Zn19  1  0.250000  0.366234  0.638022  1
  Sb  Sb20  1  0.750000  0.054277  0.087819  1
  Sb  Sb21  1  0.250000  0.945723  0.912181  1
  Sb  Sb22  1  0.750000  0.554277  0.912181  1
  Sb  Sb23  1  0.250000  0.445723  0.087819  1
