# generated using pymatgen
data_Pr4Sm6Sn5Pb3
_symmetry_space_group_name_H-M   'P 1'
_cell_length_a   8.27854200
_cell_length_b   8.47357475
_cell_length_c   15.90693600
_cell_angle_alpha   90.06068628
_cell_angle_beta   90.00000000
_cell_angle_gamma   90.00000000
_symmetry_Int_Tables_number   1
_chemical_formula_structural   Pr4Sm6Sn5Pb3
_chemical_formula_sum   'Pr8 Sm12 Sn10 Pb6'
_cell_volume   1115.85255376
_cell_formula_units_Z   2
loop_
 _symmetry_equiv_pos_site_id
 _symmetry_equiv_pos_as_xyz
  1  'x, y, z'
loop_
 _atom_site_type_symbol
 _atom_site_label
 _atom_site_symmetry_multiplicity
 _atom_site_fract_x
 _atom_site_fract_y
 _atom_site_fract_z
 _atom_site_occupancy
  Pr  Pr0  1  0.510705  0.322733  0.901161  1
  Pr  Pr1  1  0.010705  0.177267  0.598839  1
  Pr  Pr2  1  0.490424  0.680487  0.400308  1
  Pr  Pr3  1  0.990424  0.819513  0.099692  1
  Pr  Pr4  1  0.493443  0.676626  0.099501  1
  Pr  Pr5  1  0.993443  0.823374  0.400499  1
  Pr  Pr6  1  0.507520  0.319950  0.599145  1
  Pr  Pr7  1  0.007520  0.180050  0.900855  1
  Sm  Sm8  1  0.349109  0.836435  0.874796  1
  Sm  Sm9  1  0.849109  0.663565  0.625204  1
  Sm  Sm10  1  0.648365  0.163750  0.375053  1
  Sm  Sm11  1  0.148365  0.336250  0.124947  1
  Sm  Sm12  1  0.651122  0.166498  0.124633  1
  Sm  Sm13  1  0.151122  0.333502  0.375367  1
  Sm  Sm14  1  0.349270  0.837765  0.624569  1
  Sm  Sm15  1  0.849270  0.662235  0.875431  1
  Sm  Sm16  1  0.182288  0.499772  0.750337  1
  Sm  Sm17  1  0.682288  0.000228  0.749663  1
  Sm  Sm18  1  0.817454  0.500161  0.248187  1
  Sm  Sm19  1  0.317454  0.999839  0.251813  1
  Sn  Sn20  1  0.309507  0.039642  0.458438  1
  Sn  Sn21  1  0.809507  0.460358  0.041562  1
  Sn  Sn22  1  0.546466  0.619499  0.749598  1
  Sn  Sn23  1  0.046466  0.880501  0.750402  1
  Sn  Sn24  1  0.452437  0.381276  0.250423  1
  Sn  Sn25  1  0.952437  0.118724  0.249577  1
  Sn  Sn26  1  0.312535  0.146050  0.750488  1
  Sn  Sn27  1  0.812535  0.353950  0.749512  1
  Sn  Sn28  1  0.688084  0.855340  0.249955  1
  Sn  Sn29  1  0.188084  0.644660  0.250045  1
  Pb  Pb30  1  0.308871  0.040444  0.041612  1
  Pb  Pb31  1  0.808871  0.459556  0.458388  1
  Pb  Pb32  1  0.691429  0.959256  0.540959  1
  Pb  Pb33  1  0.191429  0.540744  0.959041  1
  Pb  Pb34  1  0.690971  0.958978  0.958990  1
  Pb  Pb35  1  0.190971  0.541022  0.541010  1
