# generated using pymatgen
data_Hf13ZrP8
_symmetry_space_group_name_H-M   'P 1'
_cell_length_a   8.08186047
_cell_length_b   8.08186034
_cell_length_c   14.73567717
_cell_angle_alpha   75.75152989
_cell_angle_beta   75.75153081
_cell_angle_gamma   25.24991965
_symmetry_Int_Tables_number   1
_chemical_formula_structural   Hf13ZrP8
_chemical_formula_sum   'Hf13 Zr1 P8'
_cell_volume   397.28949676
_cell_formula_units_Z   1
loop_
 _symmetry_equiv_pos_site_id
 _symmetry_equiv_pos_as_xyz
  1  'x, y, z'
loop_
 _atom_site_type_symbol
 _atom_site_label
 _atom_site_symmetry_multiplicity
 _atom_site_fract_x
 _atom_site_fract_y
 _atom_site_fract_z
 _atom_site_occupancy
  Hf  Hf0  1  0.340637  0.340637  0.971520  1
  Hf  Hf1  1  0.996177  0.996177  0.668949  1
  Hf  Hf2  1  0.175410  0.175410  0.459241  1
  Hf  Hf3  1  0.824544  0.824544  0.540827  1
  Hf  Hf4  1  0.568701  0.568701  0.830402  1
  Hf  Hf5  1  0.999919  0.999919  0.000005  1
  Hf  Hf6  1  0.430814  0.430814  0.169285  1
  Hf  Hf7  1  0.794646  0.794646  0.796609  1
  Hf  Hf8  1  0.003875  0.003875  0.331280  1
  Hf  Hf9  1  0.802926  0.802926  0.312252  1
  Hf  Hf10  1  0.205489  0.205489  0.203508  1
  Hf  Hf11  1  0.197035  0.197035  0.687884  1
  Hf  Hf12  1  0.499942  0.499942  0.500169  1
  Zr  Zr13  1  0.660990  0.660990  0.028500  1
  P  P14  1  0.624391  0.624391  0.600888  1
  P  P15  1  0.936796  0.936796  0.852284  1
  P  P16  1  0.375691  0.375691  0.399242  1
  P  P17  1  0.370217  0.370217  0.660513  1
  P  P18  1  0.062384  0.062384  0.148667  1
  P  P19  1  0.823302  0.823302  0.111704  1
  P  P20  1  0.629771  0.629771  0.339595  1
  P  P21  1  0.176344  0.176344  0.886677  1
