# generated using pymatgen
data_La5Nd11Cd4Ni3Ir
_symmetry_space_group_name_H-M   'P 1'
_cell_length_a   9.95356564
_cell_length_b   9.98544713
_cell_length_c   9.98544801
_cell_angle_alpha   59.65597151
_cell_angle_beta   59.86334955
_cell_angle_gamma   59.86334859
_symmetry_Int_Tables_number   1
_chemical_formula_structural   La5Nd11Cd4Ni3Ir
_chemical_formula_sum   'La5 Nd11 Cd4 Ni3 Ir1'
_cell_volume   698.49193628
_cell_formula_units_Z   1
loop_
 _symmetry_equiv_pos_site_id
 _symmetry_equiv_pos_as_xyz
  1  'x, y, z'
loop_
 _atom_site_type_symbol
 _atom_site_label
 _atom_site_symmetry_multiplicity
 _atom_site_fract_x
 _atom_site_fract_y
 _atom_site_fract_z
 _atom_site_occupancy
  La  La0  1  0.595219  0.597770  0.597770  1
  La  La1  1  0.600120  0.599526  0.204835  1
  La  La2  1  0.600120  0.204835  0.599526  1
  La  La3  1  0.204559  0.601133  0.601133  1
  La  La4  1  0.061814  0.437287  0.437287  1
  Nd  Nd5  1  0.437111  0.060170  0.060170  1
  Nd  Nd6  1  0.440412  0.058544  0.438314  1
  Nd  Nd7  1  0.060186  0.437259  0.058389  1
  Nd  Nd8  1  0.440412  0.438314  0.058544  1
  Nd  Nd9  1  0.060186  0.058389  0.437259  1
  Nd  Nd10  1  0.187148  0.815733  0.815733  1
  Nd  Nd11  1  0.807148  0.187703  0.187703  1
  Nd  Nd12  1  0.814387  0.187440  0.815779  1
  Nd  Nd13  1  0.188744  0.807745  0.187179  1
  Nd  Nd14  1  0.814387  0.815779  0.187440  1
  Nd  Nd15  1  0.188744  0.187179  0.807745  1
  Cd  Cd16  1  0.830870  0.830776  0.830776  1
  Cd  Cd17  1  0.829165  0.831338  0.508648  1
  Cd  Cd18  1  0.829165  0.508648  0.831338  1
  Cd  Cd19  1  0.508400  0.830106  0.830106  1
  Ni  Ni20  1  0.393168  0.392258  0.824340  1
  Ni  Ni21  1  0.393168  0.824340  0.392258  1
  Ni  Ni22  1  0.825836  0.393410  0.393410  1
  Ir  Ir23  1  0.389532  0.394323  0.394323  1
