# generated using pymatgen
data_Tb(Zn2Pt)2
_symmetry_space_group_name_H-M   'P 1'
_cell_length_a   7.53729900
_cell_length_b   7.53729900
_cell_length_c   4.29066600
_cell_angle_alpha   90.00000000
_cell_angle_beta   90.00000000
_cell_angle_gamma   90.00000000
_symmetry_Int_Tables_number   1
_chemical_formula_structural   Tb(Zn2Pt)2
_chemical_formula_sum   'Tb2 Zn8 Pt4'
_cell_volume   243.75649501
_cell_formula_units_Z   2
loop_
 _symmetry_equiv_pos_site_id
 _symmetry_equiv_pos_as_xyz
  1  'x, y, z'
loop_
 _atom_site_type_symbol
 _atom_site_label
 _atom_site_symmetry_multiplicity
 _atom_site_fract_x
 _atom_site_fract_y
 _atom_site_fract_z
 _atom_site_occupancy
  Tb  Tb0  1  0.500000  0.500000  0.500000  1
  Tb  Tb1  1  0.000000  0.000000  0.000000  1
  Zn  Zn2  1  0.352400  0.099205  0.500000  1
  Zn  Zn3  1  0.647600  0.900795  0.500000  1
  Zn  Zn4  1  0.852400  0.400795  0.000000  1
  Zn  Zn5  1  0.147600  0.599205  0.000000  1
  Zn  Zn6  1  0.099205  0.352400  0.500000  1
  Zn  Zn7  1  0.900795  0.647600  0.500000  1
  Zn  Zn8  1  0.400795  0.852400  0.000000  1
  Zn  Zn9  1  0.599205  0.147600  0.000000  1
  Pt  Pt10  1  0.785521  0.214479  0.500000  1
  Pt  Pt11  1  0.214479  0.785521  0.500000  1
  Pt  Pt12  1  0.285521  0.285521  0.000000  1
  Pt  Pt13  1  0.714479  0.714479  0.000000  1
