# generated using pymatgen
data_Tb7Y(Si3Pd)4
_symmetry_space_group_name_H-M   'P 1'
_cell_length_a   8.17216800
_cell_length_b   8.17367052
_cell_length_c   8.13653800
_cell_angle_alpha   90.00000000
_cell_angle_beta   90.00000000
_cell_angle_gamma   119.99391932
_symmetry_Int_Tables_number   1
_chemical_formula_structural   Tb7Y(Si3Pd)4
_chemical_formula_sum   'Tb7 Y1 Si12 Pd4'
_cell_volume   470.70770733
_cell_formula_units_Z   1
loop_
 _symmetry_equiv_pos_site_id
 _symmetry_equiv_pos_as_xyz
  1  'x, y, z'
loop_
 _atom_site_type_symbol
 _atom_site_label
 _atom_site_symmetry_multiplicity
 _atom_site_fract_x
 _atom_site_fract_y
 _atom_site_fract_z
 _atom_site_occupancy
  Tb  Tb0  1  0.499621  0.999244  0.750000  1
  Tb  Tb1  1  0.999279  0.499650  0.250000  1
  Tb  Tb2  1  0.000810  0.500422  0.750000  1
  Tb  Tb3  1  0.500372  0.499650  0.250000  1
  Tb  Tb4  1  0.499610  0.500422  0.750000  1
  Tb  Tb5  1  0.000002  0.000003  0.250000  1
  Tb  Tb6  1  0.999977  0.999953  0.750000  1
  Y  Y7  1  0.500288  0.000576  0.250000  1
  Si  Si8  1  0.165771  0.331542  0.000909  1
  Si  Si9  1  0.834207  0.668416  0.000052  1
  Si  Si10  1  0.669121  0.834546  0.999635  1
  Si  Si11  1  0.834207  0.668416  0.499948  1
  Si  Si12  1  0.330912  0.165491  0.998657  1
  Si  Si13  1  0.165771  0.331542  0.499091  1
  Si  Si14  1  0.165424  0.834546  0.999635  1
  Si  Si15  1  0.330912  0.165491  0.501343  1
  Si  Si16  1  0.834579  0.165491  0.998657  1
  Si  Si17  1  0.669121  0.834546  0.500365  1
  Si  Si18  1  0.834579  0.165491  0.501343  1
  Si  Si19  1  0.165424  0.834546  0.500365  1
  Pd  Pd20  1  0.333615  0.667232  0.999937  1
  Pd  Pd21  1  0.666388  0.332776  0.998481  1
  Pd  Pd22  1  0.666388  0.332776  0.501519  1
  Pd  Pd23  1  0.333615  0.667232  0.500063  1
