# generated using pymatgen
data_Dy7Y2Ho11Pt16
_symmetry_space_group_name_H-M   'P 1'
_cell_length_a   7.46760210
_cell_length_b   7.54639106
_cell_length_c   14.73196102
_cell_angle_alpha   89.99379993
_cell_angle_beta   90.00381049
_cell_angle_gamma   89.99674256
_symmetry_Int_Tables_number   1
_chemical_formula_structural   Dy7Y2Ho11Pt16
_chemical_formula_sum   'Dy7 Y2 Ho11 Pt16'
_cell_volume   830.19675832
_cell_formula_units_Z   1
loop_
 _symmetry_equiv_pos_site_id
 _symmetry_equiv_pos_as_xyz
  1  'x, y, z'
loop_
 _atom_site_type_symbol
 _atom_site_label
 _atom_site_symmetry_multiplicity
 _atom_site_fract_x
 _atom_site_fract_y
 _atom_site_fract_z
 _atom_site_occupancy
  Dy  Dy0  1  0.656312  0.832226  0.878039  1
  Dy  Dy1  1  0.997819  0.819986  0.406787  1
  Dy  Dy2  1  0.497643  0.679933  0.093376  1
  Dy  Dy3  1  0.502236  0.320027  0.593026  1
  Dy  Dy4  1  0.002390  0.180325  0.906938  1
  Dy  Dy5  1  0.002140  0.179906  0.593109  1
  Dy  Dy6  1  0.502112  0.320060  0.906941  1
  Y  Y7  1  0.498006  0.679848  0.406887  1
  Y  Y8  1  0.998025  0.820035  0.093084  1
  Ho  Ho9  1  0.681148  0.988314  0.250003  1
  Ho  Ho10  1  0.181155  0.511658  0.250004  1
  Ho  Ho11  1  0.818906  0.488147  0.749835  1
  Ho  Ho12  1  0.318742  0.011953  0.749909  1
  Ho  Ho13  1  0.656280  0.832329  0.622163  1
  Ho  Ho14  1  0.156387  0.667710  0.877797  1
  Ho  Ho15  1  0.843787  0.332311  0.377785  1
  Ho  Ho16  1  0.343703  0.167762  0.122237  1
  Ho  Ho17  1  0.343726  0.167700  0.377781  1
  Ho  Ho18  1  0.843851  0.332374  0.122402  1
  Ho  Ho19  1  0.156303  0.667717  0.622067  1
  Pt  Pt20  1  0.816314  0.641885  0.250147  1
  Pt  Pt21  1  0.316258  0.858109  0.249873  1
  Pt  Pt22  1  0.683588  0.142617  0.749604  1
  Pt  Pt23  1  0.183304  0.357714  0.749989  1
  Pt  Pt24  1  0.546721  0.385698  0.249947  1
  Pt  Pt25  1  0.046827  0.114343  0.250118  1
  Pt  Pt26  1  0.953957  0.886165  0.749550  1
  Pt  Pt27  1  0.452985  0.613426  0.749595  1
  Pt  Pt28  1  0.817329  0.532613  0.542179  1
  Pt  Pt29  1  0.316287  0.967744  0.958063  1
  Pt  Pt30  1  0.682943  0.032879  0.457871  1
  Pt  Pt31  1  0.183064  0.467069  0.042114  1
  Pt  Pt32  1  0.182397  0.467112  0.457892  1
  Pt  Pt33  1  0.682294  0.033469  0.042722  1
  Pt  Pt34  1  0.317123  0.967515  0.542212  1
  Pt  Pt35  1  0.817934  0.531325  0.957959  1
