# generated using pymatgen
data_Nd4Al6IrOs
_symmetry_space_group_name_H-M   'P 1'
_cell_length_a   5.65583600
_cell_length_b   5.65583716
_cell_length_c   8.87481100
_cell_angle_alpha   90.00000000
_cell_angle_beta   90.00000000
_cell_angle_gamma   119.99999319
_symmetry_Int_Tables_number   1
_chemical_formula_structural   Nd4Al6IrOs
_chemical_formula_sum   'Nd4 Al6 Ir1 Os1'
_cell_volume   245.85751048
_cell_formula_units_Z   1
loop_
 _symmetry_equiv_pos_site_id
 _symmetry_equiv_pos_as_xyz
  1  'x, y, z'
loop_
 _atom_site_type_symbol
 _atom_site_label
 _atom_site_symmetry_multiplicity
 _atom_site_fract_x
 _atom_site_fract_y
 _atom_site_fract_z
 _atom_site_occupancy
  Nd  Nd0  1  0.333333  0.666667  0.448610  1
  Nd  Nd1  1  0.666667  0.333333  0.551390  1
  Nd  Nd2  1  0.666667  0.333333  0.952010  1
  Nd  Nd3  1  0.333333  0.666667  0.047990  1
  Al  Al4  1  0.841197  0.158803  0.250523  1
  Al  Al5  1  0.841197  0.682393  0.250523  1
  Al  Al6  1  0.317607  0.158803  0.250523  1
  Al  Al7  1  0.158803  0.841197  0.749477  1
  Al  Al8  1  0.158803  0.317607  0.749477  1
  Al  Al9  1  0.682393  0.841197  0.749477  1
  Ir  Ir10  1  0.000000  0.000000  0.000000  1
  Os  Os11  1  0.000000  0.000000  0.500000  1
