# generated using pymatgen
data_Cs2MoF5
_symmetry_space_group_name_H-M   'P 1'
_cell_length_a   6.31417700
_cell_length_b   8.28998700
_cell_length_c   13.15256000
_cell_angle_alpha   90.00000000
_cell_angle_beta   90.00000000
_cell_angle_gamma   90.00000000
_symmetry_Int_Tables_number   1
_chemical_formula_structural   Cs2MoF5
_chemical_formula_sum   'Cs8 Mo4 F20'
_cell_volume   688.46345676
_cell_formula_units_Z   4
loop_
 _symmetry_equiv_pos_site_id
 _symmetry_equiv_pos_as_xyz
  1  'x, y, z'
loop_
 _atom_site_type_symbol
 _atom_site_label
 _atom_site_symmetry_multiplicity
 _atom_site_fract_x
 _atom_site_fract_y
 _atom_site_fract_z
 _atom_site_occupancy
  Cs  Cs0  1  0.250000  0.492747  0.273701  1
  Cs  Cs1  1  0.750000  0.507253  0.726299  1
  Cs  Cs2  1  0.250000  0.992747  0.226299  1
  Cs  Cs3  1  0.750000  0.007253  0.773701  1
  Cs  Cs4  1  0.250000  0.146953  0.583550  1
  Cs  Cs5  1  0.750000  0.853047  0.416450  1
  Cs  Cs6  1  0.250000  0.646953  0.916450  1
  Cs  Cs7  1  0.750000  0.353047  0.083550  1
  Mo  Mo8  1  0.250000  0.655603  0.560355  1
  Mo  Mo9  1  0.750000  0.344397  0.439645  1
  Mo  Mo10  1  0.250000  0.155603  0.939645  1
  Mo  Mo11  1  0.750000  0.844397  0.060355  1
  F  F12  1  0.512552  0.196659  0.383638  1
  F  F13  1  0.012552  0.803341  0.616362  1
  F  F14  1  0.987448  0.696659  0.116362  1
  F  F15  1  0.487448  0.303341  0.883638  1
  F  F16  1  0.487448  0.803341  0.616362  1
  F  F17  1  0.987448  0.196659  0.383638  1
  F  F18  1  0.012552  0.303341  0.883638  1
  F  F19  1  0.512552  0.696659  0.116362  1
  F  F20  1  0.250000  0.783759  0.420988  1
  F  F21  1  0.750000  0.216241  0.579012  1
  F  F22  1  0.250000  0.283759  0.079012  1
  F  F23  1  0.750000  0.716241  0.920988  1
  F  F24  1  0.500000  0.500000  0.500000  1
  F  F25  1  0.000000  0.500000  0.500000  1
  F  F26  1  0.000000  0.000000  0.000000  1
  F  F27  1  0.500000  0.000000  0.000000  1
  F  F28  1  0.750000  0.985302  0.191255  1
  F  F29  1  0.250000  0.014698  0.808745  1
  F  F30  1  0.750000  0.485302  0.308745  1
  F  F31  1  0.250000  0.514698  0.691255  1
