# generated using pymatgen
data_Tm5Ir2Rh
_symmetry_space_group_name_H-M   'P 1'
_cell_length_a   10.73644500
_cell_length_b   10.73644500
_cell_length_c   6.32117000
_cell_angle_alpha   90.00000000
_cell_angle_beta   90.00000000
_cell_angle_gamma   90.00000000
_symmetry_Int_Tables_number   1
_chemical_formula_structural   Tm5Ir2Rh
_chemical_formula_sum   'Tm20 Ir8 Rh4'
_cell_volume   728.64917519
_cell_formula_units_Z   4
loop_
 _symmetry_equiv_pos_site_id
 _symmetry_equiv_pos_as_xyz
  1  'x, y, z'
loop_
 _atom_site_type_symbol
 _atom_site_label
 _atom_site_symmetry_multiplicity
 _atom_site_fract_x
 _atom_site_fract_y
 _atom_site_fract_z
 _atom_site_occupancy
  Tm  Tm0  1  0.290563  0.088258  0.377780  1
  Tm  Tm1  1  0.290563  0.911742  0.877780  1
  Tm  Tm2  1  0.709437  0.088258  0.877780  1
  Tm  Tm3  1  0.709437  0.911742  0.377780  1
  Tm  Tm4  1  0.588258  0.790563  0.877780  1
  Tm  Tm5  1  0.588258  0.209437  0.377780  1
  Tm  Tm6  1  0.411742  0.790563  0.377780  1
  Tm  Tm7  1  0.411742  0.209437  0.877780  1
  Tm  Tm8  1  0.209437  0.411742  0.622220  1
  Tm  Tm9  1  0.209437  0.588258  0.122220  1
  Tm  Tm10  1  0.790563  0.411742  0.122220  1
  Tm  Tm11  1  0.790563  0.588258  0.622220  1
  Tm  Tm12  1  0.911742  0.709437  0.122220  1
  Tm  Tm13  1  0.911742  0.290563  0.622220  1
  Tm  Tm14  1  0.088258  0.709437  0.622220  1
  Tm  Tm15  1  0.088258  0.290563  0.122220  1
  Tm  Tm16  1  0.000000  0.000000  0.500000  1
  Tm  Tm17  1  0.000000  0.000000  0.000000  1
  Tm  Tm18  1  0.500000  0.500000  0.000000  1
  Tm  Tm19  1  0.500000  0.500000  0.500000  1
  Ir  Ir20  1  0.845951  0.154049  0.250000  1
  Ir  Ir21  1  0.845951  0.845951  0.750000  1
  Ir  Ir22  1  0.154049  0.154049  0.750000  1
  Ir  Ir23  1  0.154049  0.845951  0.250000  1
  Ir  Ir24  1  0.654049  0.345951  0.750000  1
  Ir  Ir25  1  0.654049  0.654049  0.250000  1
  Ir  Ir26  1  0.345951  0.345951  0.250000  1
  Ir  Ir27  1  0.345951  0.654049  0.750000  1
  Rh  Rh28  1  0.500000  0.000000  0.122491  1
  Rh  Rh29  1  0.500000  0.000000  0.622491  1
  Rh  Rh30  1  0.000000  0.500000  0.877509  1
  Rh  Rh31  1  0.000000  0.500000  0.377509  1
