# generated using pymatgen
data_Tb6Ho7Th3(CdIr)4
_symmetry_space_group_name_H-M   'P 1'
_cell_length_a   9.71435774
_cell_length_b   9.71859431
_cell_length_c   9.71761902
_cell_angle_alpha   59.99678082
_cell_angle_beta   59.99032418
_cell_angle_gamma   59.98549741
_symmetry_Int_Tables_number   1
_chemical_formula_structural   Tb6Ho7Th3(CdIr)4
_chemical_formula_sum   'Tb6 Ho7 Th3 Cd4 Ir4'
_cell_volume   648.59331801
_cell_formula_units_Z   1
loop_
 _symmetry_equiv_pos_site_id
 _symmetry_equiv_pos_as_xyz
  1  'x, y, z'
loop_
 _atom_site_type_symbol
 _atom_site_label
 _atom_site_symmetry_multiplicity
 _atom_site_fract_x
 _atom_site_fract_y
 _atom_site_fract_z
 _atom_site_occupancy
  Tb  Tb0  1  0.188822  0.812778  0.812580  1
  Tb  Tb1  1  0.814140  0.185118  0.186858  1
  Tb  Tb2  1  0.815014  0.185330  0.814329  1
  Tb  Tb3  1  0.188326  0.811998  0.187681  1
  Tb  Tb4  1  0.814142  0.813886  0.186857  1
  Tb  Tb5  1  0.188823  0.185825  0.812577  1
  Ho  Ho6  1  0.198183  0.600293  0.601234  1
  Ho  Ho7  1  0.062234  0.438941  0.437923  1
  Ho  Ho8  1  0.436390  0.063491  0.063266  1
  Ho  Ho9  1  0.437136  0.062858  0.437149  1
  Ho  Ho10  1  0.062857  0.437745  0.061654  1
  Ho  Ho11  1  0.436391  0.436853  0.063266  1
  Ho  Ho12  1  0.062236  0.060901  0.437923  1
  Th  Th13  1  0.597567  0.599451  0.599898  1
  Th  Th14  1  0.598303  0.600348  0.200999  1
  Th  Th15  1  0.597569  0.203077  0.599896  1
  Cd  Cd16  1  0.833181  0.831111  0.830257  1
  Cd  Cd17  1  0.833066  0.831262  0.504414  1
  Cd  Cd18  1  0.833179  0.505456  0.830257  1
  Cd  Cd19  1  0.502514  0.832854  0.831780  1
  Ir  Ir20  1  0.393040  0.392769  0.392132  1
  Ir  Ir21  1  0.392900  0.392475  0.822151  1
  Ir  Ir22  1  0.393039  0.822058  0.392134  1
  Ir  Ir23  1  0.820952  0.393126  0.392789  1
