# generated using pymatgen
data_Dy8Ga12CoNi3
_symmetry_space_group_name_H-M   'P 1'
_cell_length_a   7.00144100
_cell_length_b   8.72963193
_cell_length_c   8.72963200
_cell_angle_alpha   120.00000025
_cell_angle_beta   90.00000000
_cell_angle_gamma   90.00000000
_symmetry_Int_Tables_number   1
_chemical_formula_structural   Dy8Ga12CoNi3
_chemical_formula_sum   'Dy8 Ga12 Co1 Ni3'
_cell_volume   462.07229866
_cell_formula_units_Z   1
loop_
 _symmetry_equiv_pos_site_id
 _symmetry_equiv_pos_as_xyz
  1  'x, y, z'
loop_
 _atom_site_type_symbol
 _atom_site_label
 _atom_site_symmetry_multiplicity
 _atom_site_fract_x
 _atom_site_fract_y
 _atom_site_fract_z
 _atom_site_occupancy
  Dy  Dy0  1  0.748318  0.000000  0.000000  1
  Dy  Dy1  1  0.249780  0.000000  0.000000  1
  Dy  Dy2  1  0.750308  0.478450  0.521550  1
  Dy  Dy3  1  0.252853  0.524563  0.475437  1
  Dy  Dy4  1  0.750308  0.043101  0.521550  1
  Dy  Dy5  1  0.252853  0.950873  0.475437  1
  Dy  Dy6  1  0.750308  0.478450  0.956899  1
  Dy  Dy7  1  0.252853  0.524563  0.049127  1
  Ga  Ga8  1  0.954505  0.828967  0.171033  1
  Ga  Ga9  1  0.047146  0.171737  0.828263  1
  Ga  Ga10  1  0.954505  0.342068  0.171033  1
  Ga  Ga11  1  0.454431  0.171346  0.828654  1
  Ga  Ga12  1  0.047146  0.656524  0.828263  1
  Ga  Ga13  1  0.545658  0.827527  0.172473  1
  Ga  Ga14  1  0.954505  0.828967  0.657932  1
  Ga  Ga15  1  0.454431  0.657307  0.828654  1
  Ga  Ga16  1  0.047146  0.171737  0.343476  1
  Ga  Ga17  1  0.545658  0.344948  0.172473  1
  Ga  Ga18  1  0.454431  0.171346  0.342693  1
  Ga  Ga19  1  0.545658  0.827527  0.655052  1
  Co  Co20  1  0.517301  0.666667  0.333333  1
  Ni  Ni21  1  0.969109  0.666667  0.333333  1
  Ni  Ni22  1  0.028555  0.333333  0.666667  1
  Ni  Ni23  1  0.472234  0.333333  0.666667  1
