# generated using pymatgen
data_Gd3C4
_symmetry_space_group_name_H-M   'P 1'
_cell_length_a   8.13947000
_cell_length_b   8.13947000
_cell_length_c   16.05321300
_cell_angle_alpha   90.00000000
_cell_angle_beta   90.00000000
_cell_angle_gamma   90.00000000
_symmetry_Int_Tables_number   1
_chemical_formula_structural   Gd3C4
_chemical_formula_sum   'Gd30 C40'
_cell_volume   1063.54096306
_cell_formula_units_Z   10
loop_
 _symmetry_equiv_pos_site_id
 _symmetry_equiv_pos_as_xyz
  1  'x, y, z'
loop_
 _atom_site_type_symbol
 _atom_site_label
 _atom_site_symmetry_multiplicity
 _atom_site_fract_x
 _atom_site_fract_y
 _atom_site_fract_z
 _atom_site_occupancy
  Gd  Gd0  1  0.500000  0.500000  0.500000  1
  Gd  Gd1  1  0.000000  0.000000  0.000000  1
  Gd  Gd2  1  0.500000  0.500000  0.188072  1
  Gd  Gd3  1  0.000000  0.000000  0.688072  1
  Gd  Gd4  1  0.500000  0.500000  0.811928  1
  Gd  Gd5  1  0.000000  0.000000  0.311928  1
  Gd  Gd6  1  0.702348  0.904283  0.500000  1
  Gd  Gd7  1  0.297652  0.095717  0.500000  1
  Gd  Gd8  1  0.797652  0.404283  0.000000  1
  Gd  Gd9  1  0.202348  0.595717  0.000000  1
  Gd  Gd10  1  0.904283  0.297652  0.500000  1
  Gd  Gd11  1  0.095717  0.702348  0.500000  1
  Gd  Gd12  1  0.404283  0.202348  0.000000  1
  Gd  Gd13  1  0.595717  0.797652  0.000000  1
  Gd  Gd14  1  0.789588  0.601039  0.352313  1
  Gd  Gd15  1  0.210412  0.398961  0.352313  1
  Gd  Gd16  1  0.710412  0.101039  0.852313  1
  Gd  Gd17  1  0.289588  0.898961  0.852313  1
  Gd  Gd18  1  0.601039  0.210412  0.352313  1
  Gd  Gd19  1  0.398961  0.789588  0.352313  1
  Gd  Gd20  1  0.101039  0.289588  0.852313  1
  Gd  Gd21  1  0.898961  0.710412  0.852313  1
  Gd  Gd22  1  0.210412  0.398961  0.647687  1
  Gd  Gd23  1  0.789588  0.601039  0.647687  1
  Gd  Gd24  1  0.289588  0.898961  0.147687  1
  Gd  Gd25  1  0.710412  0.101039  0.147687  1
  Gd  Gd26  1  0.398961  0.789588  0.647687  1
  Gd  Gd27  1  0.601039  0.210412  0.647687  1
  Gd  Gd28  1  0.898961  0.710412  0.147687  1
  Gd  Gd29  1  0.101039  0.289588  0.147687  1
  C  C30  1  0.500000  0.500000  0.959256  1
  C  C31  1  0.000000  0.000000  0.459256  1
  C  C32  1  0.500000  0.500000  0.040744  1
  C  C33  1  0.000000  0.000000  0.540744  1
  C  C34  1  0.500000  0.500000  0.343789  1
  C  C35  1  0.000000  0.000000  0.843789  1
  C  C36  1  0.500000  0.500000  0.656211  1
  C  C37  1  0.000000  0.000000  0.156211  1
  C  C38  1  0.605259  0.196044  0.500000  1
  C  C39  1  0.394741  0.803956  0.500000  1
  C  C40  1  0.894741  0.696044  0.000000  1
  C  C41  1  0.105259  0.303956  0.000000  1
  C  C42  1  0.196044  0.394741  0.500000  1
  C  C43  1  0.803956  0.605259  0.500000  1
  C  C44  1  0.696044  0.105259  0.000000  1
  C  C45  1  0.303956  0.894741  0.000000  1
  C  C46  1  0.693720  0.901490  0.326682  1
  C  C47  1  0.306280  0.098510  0.326682  1
  C  C48  1  0.806280  0.401490  0.826682  1
  C  C49  1  0.193720  0.598510  0.826682  1
  C  C50  1  0.901490  0.306280  0.326682  1
  C  C51  1  0.098510  0.693720  0.326682  1
  C  C52  1  0.401490  0.193720  0.826682  1
  C  C53  1  0.598510  0.806280  0.826682  1
  C  C54  1  0.306280  0.098510  0.673318  1
  C  C55  1  0.693720  0.901490  0.673318  1
  C  C56  1  0.193720  0.598510  0.173318  1
  C  C57  1  0.806280  0.401490  0.173318  1
  C  C58  1  0.098510  0.693720  0.673318  1
  C  C59  1  0.901490  0.306280  0.673318  1
  C  C60  1  0.598510  0.806280  0.173318  1
  C  C61  1  0.401490  0.193720  0.173318  1
  C  C62  1  0.650385  0.849615  0.250000  1
  C  C63  1  0.349615  0.150385  0.250000  1
  C  C64  1  0.849615  0.349615  0.750000  1
  C  C65  1  0.150385  0.650385  0.750000  1
  C  C66  1  0.849615  0.349615  0.250000  1
  C  C67  1  0.150385  0.650385  0.250000  1
  C  C68  1  0.349615  0.150385  0.750000  1
  C  C69  1  0.650385  0.849615  0.750000  1
