# generated using pymatgen
data_Tm7Lu9MgCo4Ag3
_symmetry_space_group_name_H-M   'P 1'
_cell_length_a   9.27093421
_cell_length_b   9.27693683
_cell_length_c   9.27833700
_cell_angle_alpha   59.99501784
_cell_angle_beta   59.97359322
_cell_angle_gamma   59.97717326
_symmetry_Int_Tables_number   1
_chemical_formula_structural   Tm7Lu9MgCo4Ag3
_chemical_formula_sum   'Tm7 Lu9 Mg1 Co4 Ag3'
_cell_volume   564.03389881
_cell_formula_units_Z   1
loop_
 _symmetry_equiv_pos_site_id
 _symmetry_equiv_pos_as_xyz
  1  'x, y, z'
loop_
 _atom_site_type_symbol
 _atom_site_label
 _atom_site_symmetry_multiplicity
 _atom_site_fract_x
 _atom_site_fract_y
 _atom_site_fract_z
 _atom_site_occupancy
  Tm  Tm0  1  0.809886  0.812408  0.188853  1
  Tm  Tm1  1  0.935841  0.562021  0.562468  1
  Tm  Tm2  1  0.561332  0.937753  0.937555  1
  Tm  Tm3  1  0.561332  0.937753  0.563360  1
  Tm  Tm4  1  0.935841  0.562021  0.939669  1
  Tm  Tm5  1  0.561530  0.563030  0.937720  1
  Tm  Tm6  1  0.935717  0.939725  0.562279  1
  Lu  Lu7  1  0.346120  0.345034  0.345066  1
  Lu  Lu8  1  0.346120  0.345034  0.963781  1
  Lu  Lu9  1  0.345824  0.963962  0.345107  1
  Lu  Lu10  1  0.953084  0.348737  0.349090  1
  Lu  Lu11  1  0.810073  0.189026  0.188682  1
  Lu  Lu12  1  0.185636  0.814218  0.813855  1
  Lu  Lu13  1  0.185636  0.814218  0.186291  1
  Lu  Lu14  1  0.810073  0.189026  0.812219  1
  Lu  Lu15  1  0.185272  0.186299  0.814215  1
  Mg  Mg16  1  0.287797  0.570868  0.570666  1
  Co  Co17  1  0.138383  0.142634  0.142585  1
  Co  Co18  1  0.138383  0.142634  0.576398  1
  Co  Co19  1  0.138616  0.576126  0.142629  1
  Co  Co20  1  0.576103  0.141515  0.141191  1
  Ag  Ag21  1  0.583752  0.582826  0.583139  1
  Ag  Ag22  1  0.583752  0.582826  0.250283  1
  Ag  Ag23  1  0.583899  0.250301  0.582899  1
