# generated using pymatgen
data_Ba6VIn(BO3)6
_symmetry_space_group_name_H-M   'P 1'
_cell_length_a   8.07399028
_cell_length_b   8.07399047
_cell_length_c   8.07398931
_cell_angle_alpha   105.81430610
_cell_angle_beta   105.81430247
_cell_angle_gamma   105.81431874
_symmetry_Int_Tables_number   1
_chemical_formula_structural   Ba6VIn(BO3)6
_chemical_formula_sum   'Ba6 V1 In1 B6 O18'
_cell_volume   451.76805206
_cell_formula_units_Z   1
loop_
 _symmetry_equiv_pos_site_id
 _symmetry_equiv_pos_as_xyz
  1  'x, y, z'
loop_
 _atom_site_type_symbol
 _atom_site_label
 _atom_site_symmetry_multiplicity
 _atom_site_fract_x
 _atom_site_fract_y
 _atom_site_fract_z
 _atom_site_occupancy
  Ba  Ba0  1  0.765254  0.667890  0.156666  1
  Ba  Ba1  1  0.332111  0.843334  0.234747  1
  Ba  Ba2  1  0.843334  0.234748  0.332110  1
  Ba  Ba3  1  0.156666  0.765253  0.667891  1
  Ba  Ba4  1  0.667890  0.156666  0.765253  1
  Ba  Ba5  1  0.234747  0.332110  0.843335  1
  V  V6  1  0.000000  0.000000  0.000000  1
  In  In7  1  0.500000  0.500000  0.500000  1
  B  B8  1  0.445050  0.207696  0.133200  1
  B  B9  1  0.133200  0.445050  0.207696  1
  B  B10  1  0.207696  0.133200  0.445050  1
  B  B11  1  0.792304  0.866800  0.554951  1
  B  B12  1  0.866801  0.554951  0.792304  1
  B  B13  1  0.554951  0.792304  0.866800  1
  O  O14  1  0.269751  0.073784  0.012017  1
  O  O15  1  0.564375  0.294793  0.062067  1
  O  O16  1  0.012017  0.269751  0.073784  1
  O  O17  1  0.322973  0.503648  0.236769  1
  O  O18  1  0.073784  0.012016  0.269751  1
  O  O19  1  0.062066  0.564375  0.294793  1
  O  O20  1  0.503648  0.236769  0.322973  1
  O  O21  1  0.705206  0.937933  0.435625  1
  O  O22  1  0.763231  0.677027  0.496353  1
  O  O23  1  0.236769  0.322974  0.503648  1
  O  O24  1  0.294793  0.062066  0.564375  1
  O  O25  1  0.496353  0.763231  0.677027  1
  O  O26  1  0.937933  0.435624  0.705206  1
  O  O27  1  0.926215  0.987983  0.730248  1
  O  O28  1  0.677027  0.496353  0.763231  1
  O  O29  1  0.987982  0.730249  0.926216  1
  O  O30  1  0.435624  0.705206  0.937933  1
  O  O31  1  0.730249  0.926216  0.987983  1
