# generated using pymatgen
data_Dy3Y5Tc3B24Ru
_symmetry_space_group_name_H-M   'P 1'
_cell_length_a   3.68677000
_cell_length_b   9.17020403
_cell_length_c   11.55967915
_cell_angle_alpha   89.92869027
_cell_angle_beta   90.00000000
_cell_angle_gamma   90.00000000
_symmetry_Int_Tables_number   1
_chemical_formula_structural   Dy3Y5Tc3B24Ru
_chemical_formula_sum   'Dy3 Y5 Tc3 B24 Ru1'
_cell_volume   390.81433670
_cell_formula_units_Z   1
loop_
 _symmetry_equiv_pos_site_id
 _symmetry_equiv_pos_as_xyz
  1  'x, y, z'
loop_
 _atom_site_type_symbol
 _atom_site_label
 _atom_site_symmetry_multiplicity
 _atom_site_fract_x
 _atom_site_fract_y
 _atom_site_fract_z
 _atom_site_occupancy
  Dy  Dy0  1  0.000000  0.057959  0.630863  1
  Dy  Dy1  1  0.000000  0.442907  0.130170  1
  Dy  Dy2  1  0.000000  0.557884  0.868942  1
  Y  Y3  1  0.000000  0.323775  0.414046  1
  Y  Y4  1  0.000000  0.675010  0.584026  1
  Y  Y5  1  0.000000  0.823166  0.087217  1
  Y  Y6  1  0.000000  0.177896  0.914580  1
  Y  Y7  1  0.000000  0.942592  0.370338  1
  Tc  Tc8  1  0.000000  0.638178  0.320522  1
  Tc  Tc9  1  0.000000  0.361729  0.679906  1
  Tc  Tc10  1  0.000000  0.137985  0.178217  1
  B  B11  1  0.500000  0.553050  0.432661  1
  B  B12  1  0.500000  0.446564  0.566931  1
  B  B13  1  0.500000  0.053107  0.066970  1
  B  B14  1  0.500000  0.946080  0.932691  1
  B  B15  1  0.500000  0.748115  0.418555  1
  B  B16  1  0.500000  0.251150  0.581696  1
  B  B17  1  0.500000  0.248855  0.081448  1
  B  B18  1  0.500000  0.751800  0.918222  1
  B  B19  1  0.500000  0.791421  0.265536  1
  B  B20  1  0.500000  0.208831  0.735030  1
  B  B21  1  0.500000  0.291442  0.234492  1
  B  B22  1  0.500000  0.709560  0.765384  1
  B  B23  1  0.500000  0.631121  0.185758  1
  B  B24  1  0.500000  0.369024  0.814671  1
  B  B25  1  0.500000  0.130675  0.313945  1
  B  B26  1  0.500000  0.868807  0.685999  1
  B  B27  1  0.500000  0.982090  0.211704  1
  B  B28  1  0.500000  0.016401  0.788440  1
  B  B29  1  0.500000  0.482504  0.287957  1
  B  B30  1  0.500000  0.517267  0.711563  1
  B  B31  1  0.500000  0.602463  0.028173  1
  B  B32  1  0.500000  0.399170  0.971476  1
  B  B33  1  0.500000  0.101908  0.471970  1
  B  B34  1  0.500000  0.897788  0.528928  1
  Ru  Ru35  1  0.000000  0.861723  0.820972  1
