# generated using pymatgen
data_DyHo3(Co5P3)4
_symmetry_space_group_name_H-M   'P 1'
_cell_length_a   3.63888200
_cell_length_b   10.25908906
_cell_length_c   11.70816307
_cell_angle_alpha   89.98788764
_cell_angle_beta   90.00000000
_cell_angle_gamma   90.00000000
_symmetry_Int_Tables_number   1
_chemical_formula_structural   DyHo3(Co5P3)4
_chemical_formula_sum   'Dy1 Ho3 Co20 P12'
_cell_volume   437.08462038
_cell_formula_units_Z   1
loop_
 _symmetry_equiv_pos_site_id
 _symmetry_equiv_pos_as_xyz
  1  'x, y, z'
loop_
 _atom_site_type_symbol
 _atom_site_label
 _atom_site_symmetry_multiplicity
 _atom_site_fract_x
 _atom_site_fract_y
 _atom_site_fract_z
 _atom_site_occupancy
  Dy  Dy0  1  0.750000  0.082888  0.797136  1
  Ho  Ho1  1  0.250000  0.582929  0.702775  1
  Ho  Ho2  1  0.250000  0.917025  0.202749  1
  Ho  Ho3  1  0.750000  0.417091  0.297259  1
  Co  Co4  1  0.250000  0.716032  0.991036  1
  Co  Co5  1  0.250000  0.783846  0.490892  1
  Co  Co6  1  0.750000  0.283975  0.009139  1
  Co  Co7  1  0.750000  0.216109  0.509099  1
  Co  Co8  1  0.250000  0.406863  0.487784  1
  Co  Co9  1  0.250000  0.093065  0.988231  1
  Co  Co10  1  0.750000  0.593106  0.512173  1
  Co  Co11  1  0.750000  0.906681  0.012293  1
  Co  Co12  1  0.250000  0.221279  0.176734  1
  Co  Co13  1  0.250000  0.279032  0.676552  1
  Co  Co14  1  0.750000  0.778670  0.823382  1
  Co  Co15  1  0.750000  0.721170  0.323344  1
  Co  Co16  1  0.250000  0.882404  0.698395  1
  Co  Co17  1  0.250000  0.617301  0.198591  1
  Co  Co18  1  0.750000  0.117324  0.301382  1
  Co  Co19  1  0.750000  0.382947  0.801420  1
  Co  Co20  1  0.250000  0.467955  0.931666  1
  Co  Co21  1  0.250000  0.032299  0.431411  1
  Co  Co22  1  0.750000  0.532353  0.068440  1
  Co  Co23  1  0.750000  0.967593  0.568153  1
  P  P24  1  0.250000  0.418406  0.112287  1
  P  P25  1  0.250000  0.081619  0.611867  1
  P  P26  1  0.750000  0.581653  0.887779  1
  P  P27  1  0.750000  0.918380  0.387637  1
  P  P28  1  0.250000  0.270641  0.870432  1
  P  P29  1  0.250000  0.229816  0.370218  1
  P  P30  1  0.750000  0.729767  0.129795  1
  P  P31  1  0.750000  0.770220  0.629764  1
  P  P32  1  0.250000  0.601436  0.391151  1
  P  P33  1  0.250000  0.898136  0.891336  1
  P  P34  1  0.750000  0.398539  0.608828  1
  P  P35  1  0.750000  0.101451  0.108874  1
