# generated using pymatgen
data_Hg3Pb(BrO3)8
_symmetry_space_group_name_H-M   'P 1'
_cell_length_a   5.54409200
_cell_length_b   6.67086315
_cell_length_c   16.10290177
_cell_angle_alpha   89.22335075
_cell_angle_beta   90.00000000
_cell_angle_gamma   90.00000000
_symmetry_Int_Tables_number   1
_chemical_formula_structural   Hg3Pb(BrO3)8
_chemical_formula_sum   'Hg3 Pb1 Br8 O24'
_cell_volume   595.49305907
_cell_formula_units_Z   1
loop_
 _symmetry_equiv_pos_site_id
 _symmetry_equiv_pos_as_xyz
  1  'x, y, z'
loop_
 _atom_site_type_symbol
 _atom_site_label
 _atom_site_symmetry_multiplicity
 _atom_site_fract_x
 _atom_site_fract_y
 _atom_site_fract_z
 _atom_site_occupancy
  Hg  Hg0  1  0.263123  0.750000  0.000000  1
  Hg  Hg1  1  0.734899  0.250000  0.000000  1
  Hg  Hg2  1  0.242770  0.250000  0.500000  1
  Pb  Pb3  1  0.783122  0.750000  0.500000  1
  Br  Br4  1  0.223994  0.193815  0.146216  1
  Br  Br5  1  0.770885  0.694047  0.145348  1
  Br  Br6  1  0.273823  0.689076  0.343743  1
  Br  Br7  1  0.730943  0.197121  0.352017  1
  Br  Br8  1  0.273823  0.810924  0.656257  1
  Br  Br9  1  0.730943  0.302879  0.647983  1
  Br  Br10  1  0.223994  0.306185  0.853784  1
  Br  Br11  1  0.770885  0.805953  0.854652  1
  O  O12  1  0.586614  0.591609  0.070509  1
  O  O13  1  0.409665  0.095172  0.071395  1
  O  O14  1  0.949782  0.862104  0.089332  1
  O  O15  1  0.044875  0.362426  0.090530  1
  O  O16  1  0.595799  0.835431  0.203012  1
  O  O17  1  0.394176  0.334404  0.205996  1
  O  O18  1  0.901032  0.338507  0.291463  1
  O  O19  1  0.070989  0.816297  0.289126  1
  O  O20  1  0.443138  0.862012  0.394182  1
  O  O21  1  0.559892  0.363721  0.409373  1
  O  O22  1  0.113595  0.580849  0.425927  1
  O  O23  1  0.918840  0.092201  0.426930  1
  O  O24  1  0.113595  0.919151  0.574073  1
  O  O25  1  0.918840  0.407799  0.573070  1
  O  O26  1  0.443138  0.637988  0.605818  1
  O  O27  1  0.559892  0.136279  0.590627  1
  O  O28  1  0.901032  0.161493  0.708537  1
  O  O29  1  0.070989  0.683703  0.710874  1
  O  O30  1  0.595799  0.664569  0.796988  1
  O  O31  1  0.394176  0.165596  0.794004  1
  O  O32  1  0.044875  0.137574  0.909470  1
  O  O33  1  0.949782  0.637896  0.910668  1
  O  O34  1  0.409665  0.404828  0.928605  1
  O  O35  1  0.586614  0.908391  0.929491  1
