# generated using pymatgen
data_Y3Pa(Rh2Pb)2
_symmetry_space_group_name_H-M   'P 1'
_cell_length_a   7.81070216
_cell_length_b   7.81070216
_cell_length_c   3.62015800
_cell_angle_alpha   90.00000000
_cell_angle_beta   90.00000000
_cell_angle_gamma   86.92437836
_symmetry_Int_Tables_number   1
_chemical_formula_structural   Y3Pa(Rh2Pb)2
_chemical_formula_sum   'Y3 Pa1 Rh4 Pb2'
_cell_volume   220.53710399
_cell_formula_units_Z   1
loop_
 _symmetry_equiv_pos_site_id
 _symmetry_equiv_pos_as_xyz
  1  'x, y, z'
loop_
 _atom_site_type_symbol
 _atom_site_label
 _atom_site_symmetry_multiplicity
 _atom_site_fract_x
 _atom_site_fract_y
 _atom_site_fract_z
 _atom_site_occupancy
  Y  Y0  1  0.324326  0.175675  0.500001  1
  Y  Y1  1  0.836226  0.328261  0.500001  1
  Y  Y2  1  0.171740  0.663773  0.500001  1
  Pa  Pa3  1  0.664450  0.835549  0.500001  1
  Rh  Rh4  1  0.640053  0.107603  0.000000  1
  Rh  Rh5  1  0.114479  0.385521  0.000000  1
  Rh  Rh6  1  0.845956  0.654044  0.000000  1
  Rh  Rh7  1  0.392397  0.859947  0.000000  1
  Pb  Pb8  1  0.011389  0.001017  0.000000  1
  Pb  Pb9  1  0.498984  0.488612  0.000000  1
