# generated using pymatgen
data_TmLuAl3Rh
_symmetry_space_group_name_H-M   'P 1'
_cell_length_a   5.47339200
_cell_length_b   5.47339242
_cell_length_c   8.66517000
_cell_angle_alpha   90.00000000
_cell_angle_beta   90.00000000
_cell_angle_gamma   119.99999747
_symmetry_Int_Tables_number   1
_chemical_formula_structural   TmLuAl3Rh
_chemical_formula_sum   'Tm2 Lu2 Al6 Rh2'
_cell_volume   224.81271453
_cell_formula_units_Z   2
loop_
 _symmetry_equiv_pos_site_id
 _symmetry_equiv_pos_as_xyz
  1  'x, y, z'
loop_
 _atom_site_type_symbol
 _atom_site_label
 _atom_site_symmetry_multiplicity
 _atom_site_fract_x
 _atom_site_fract_y
 _atom_site_fract_z
 _atom_site_occupancy
  Tm  Tm0  1  0.666666  0.333333  0.056356  1
  Tm  Tm1  1  0.666666  0.333333  0.443644  1
  Lu  Lu2  1  0.333333  0.666666  0.556621  1
  Lu  Lu3  1  0.333333  0.666666  0.943379  1
  Al  Al4  1  0.165137  0.330273  0.250001  1
  Al  Al5  1  0.165137  0.834863  0.250001  1
  Al  Al6  1  0.669726  0.834863  0.250001  1
  Al  Al7  1  0.330068  0.165034  0.750000  1
  Al  Al8  1  0.834967  0.165034  0.750000  1
  Al  Al9  1  0.834966  0.669932  0.750000  1
  Rh  Rh10  1  0.000000  0.000000  0.999564  1
  Rh  Rh11  1  0.000000  0.000000  0.500436  1
