# generated using pymatgen
data_Er3Cd3PtAu2
_symmetry_space_group_name_H-M   'P 1'
_cell_length_a   7.83260300
_cell_length_b   7.83260396
_cell_length_c   3.77770600
_cell_angle_alpha   90.00000000
_cell_angle_beta   90.00000000
_cell_angle_gamma   120.00000015
_symmetry_Int_Tables_number   1
_chemical_formula_structural   Er3Cd3PtAu2
_chemical_formula_sum   'Er3 Cd3 Pt1 Au2'
_cell_volume   200.71095145
_cell_formula_units_Z   1
loop_
 _symmetry_equiv_pos_site_id
 _symmetry_equiv_pos_as_xyz
  1  'x, y, z'
loop_
 _atom_site_type_symbol
 _atom_site_label
 _atom_site_symmetry_multiplicity
 _atom_site_fract_x
 _atom_site_fract_y
 _atom_site_fract_z
 _atom_site_occupancy
  Er  Er0  1  0.588442  0.982163  0.000000  1
  Er  Er1  1  0.017837  0.606279  0.000000  1
  Er  Er2  1  0.393721  0.411558  0.000000  1
  Cd  Cd3  1  0.269939  0.003009  0.500000  1
  Cd  Cd4  1  0.996991  0.266930  0.500000  1
  Cd  Cd5  1  0.733070  0.730061  0.500000  1
  Pt  Pt6  1  0.333333  0.666667  0.500000  1
  Au  Au7  1  0.666667  0.333333  0.500000  1
  Au  Au8  1  0.000000  0.000000  0.000000  1
