# generated using pymatgen
data_Dy7TmSb20
_symmetry_space_group_name_H-M   'P 1'
_cell_length_a   4.23809800
_cell_length_b   13.17194229
_cell_length_c   14.68138794
_cell_angle_alpha   77.67945653
_cell_angle_beta   90.00000000
_cell_angle_gamma   90.00000000
_symmetry_Int_Tables_number   1
_chemical_formula_structural   Dy7TmSb20
_chemical_formula_sum   'Dy7 Tm1 Sb20'
_cell_volume   800.69804803
_cell_formula_units_Z   1
loop_
 _symmetry_equiv_pos_site_id
 _symmetry_equiv_pos_as_xyz
  1  'x, y, z'
loop_
 _atom_site_type_symbol
 _atom_site_label
 _atom_site_symmetry_multiplicity
 _atom_site_fract_x
 _atom_site_fract_y
 _atom_site_fract_z
 _atom_site_occupancy
  Dy  Dy0  1  0.750000  0.606302  0.228872  1
  Dy  Dy1  1  0.250000  0.662710  0.855501  1
  Dy  Dy2  1  0.750000  0.337151  0.144089  1
  Dy  Dy3  1  0.250000  0.669280  0.577502  1
  Dy  Dy4  1  0.750000  0.330632  0.422912  1
  Dy  Dy5  1  0.250000  0.952792  0.360738  1
  Dy  Dy6  1  0.750000  0.047452  0.639342  1
  Tm  Tm7  1  0.250000  0.394053  0.770980  1
  Sb  Sb8  1  0.250000  0.143064  0.779512  1
  Sb  Sb9  1  0.750000  0.857616  0.220627  1
  Sb  Sb10  1  0.250000  0.143062  0.482387  1
  Sb  Sb11  1  0.750000  0.856909  0.517668  1
  Sb  Sb12  1  0.250000  0.152100  0.172740  1
  Sb  Sb13  1  0.750000  0.847844  0.827215  1
  Sb  Sb14  1  0.250000  0.420032  0.974774  1
  Sb  Sb15  1  0.750000  0.579928  0.024221  1
  Sb  Sb16  1  0.750000  0.030301  0.905994  1
  Sb  Sb17  1  0.250000  0.969915  0.093927  1
  Sb  Sb18  1  0.750000  0.138712  0.322230  1
  Sb  Sb19  1  0.250000  0.861440  0.677789  1
  Sb  Sb20  1  0.750000  0.279646  0.937568  1
  Sb  Sb21  1  0.250000  0.720437  0.061478  1
  Sb  Sb22  1  0.750000  0.286904  0.653625  1
  Sb  Sb23  1  0.250000  0.713398  0.347088  1
  Sb  Sb24  1  0.750000  0.574267  0.735012  1
  Sb  Sb25  1  0.250000  0.423997  0.265416  1
  Sb  Sb26  1  0.750000  0.574993  0.447512  1
  Sb  Sb27  1  0.250000  0.425063  0.553282  1
