# generated using pymatgen
data_Ho3Co8MoP6
_symmetry_space_group_name_H-M   'P 1'
_cell_length_a   3.71798700
_cell_length_b   10.56028200
_cell_length_c   12.22387500
_cell_angle_alpha   90.00000000
_cell_angle_beta   90.00000000
_cell_angle_gamma   90.00000000
_symmetry_Int_Tables_number   1
_chemical_formula_structural   Ho3Co8MoP6
_chemical_formula_sum   'Ho6 Co16 Mo2 P12'
_cell_volume   479.94589646
_cell_formula_units_Z   2
loop_
 _symmetry_equiv_pos_site_id
 _symmetry_equiv_pos_as_xyz
  1  'x, y, z'
loop_
 _atom_site_type_symbol
 _atom_site_label
 _atom_site_symmetry_multiplicity
 _atom_site_fract_x
 _atom_site_fract_y
 _atom_site_fract_z
 _atom_site_occupancy
  Ho  Ho0  1  0.000000  0.500000  0.524301  1
  Ho  Ho1  1  0.500000  0.000000  0.475699  1
  Ho  Ho2  1  0.500000  0.819113  0.205130  1
  Ho  Ho3  1  0.500000  0.180887  0.205130  1
  Ho  Ho4  1  0.000000  0.680887  0.794870  1
  Ho  Ho5  1  0.000000  0.319113  0.794870  1
  Co  Co6  1  0.000000  0.500000  0.986367  1
  Co  Co7  1  0.500000  0.000000  0.013633  1
  Co  Co8  1  0.500000  0.295951  0.431455  1
  Co  Co9  1  0.500000  0.704049  0.431455  1
  Co  Co10  1  0.000000  0.204049  0.568545  1
  Co  Co11  1  0.000000  0.795951  0.568545  1
  Co  Co12  1  0.500000  0.877940  0.706669  1
  Co  Co13  1  0.500000  0.122060  0.706669  1
  Co  Co14  1  0.000000  0.622060  0.293331  1
  Co  Co15  1  0.000000  0.377940  0.293331  1
  Co  Co16  1  0.500000  0.332434  0.990161  1
  Co  Co17  1  0.500000  0.667566  0.990161  1
  Co  Co18  1  0.000000  0.167566  0.009839  1
  Co  Co19  1  0.000000  0.832434  0.009839  1
  Co  Co20  1  0.500000  0.500000  0.701348  1
  Co  Co21  1  0.000000  0.000000  0.298652  1
  Mo  Mo22  1  0.500000  0.500000  0.156521  1
  Mo  Mo23  1  0.000000  0.000000  0.843479  1
  P  P24  1  0.500000  0.311586  0.616000  1
  P  P25  1  0.500000  0.688414  0.616000  1
  P  P26  1  0.000000  0.188414  0.384000  1
  P  P27  1  0.000000  0.811586  0.384000  1
  P  P28  1  0.500000  0.500000  0.880696  1
  P  P29  1  0.000000  0.000000  0.119304  1
  P  P30  1  0.500000  0.844470  0.892821  1
  P  P31  1  0.500000  0.155530  0.892821  1
  P  P32  1  0.000000  0.655530  0.107179  1
  P  P33  1  0.000000  0.344470  0.107179  1
  P  P34  1  0.500000  0.500000  0.349699  1
  P  P35  1  0.000000  0.000000  0.650301  1
