# generated using pymatgen
data_Li3Pr5(P3Ir4)4
_symmetry_space_group_name_H-M   'P 1'
_cell_length_a   12.82407900
_cell_length_b   12.82407945
_cell_length_c   4.02948500
_cell_angle_alpha   90.00000000
_cell_angle_beta   90.00000000
_cell_angle_gamma   119.99999627
_symmetry_Int_Tables_number   1
_chemical_formula_structural   Li3Pr5(P3Ir4)4
_chemical_formula_sum   'Li3 Pr5 P12 Ir16'
_cell_volume   573.89517850
_cell_formula_units_Z   1
loop_
 _symmetry_equiv_pos_site_id
 _symmetry_equiv_pos_as_xyz
  1  'x, y, z'
loop_
 _atom_site_type_symbol
 _atom_site_label
 _atom_site_symmetry_multiplicity
 _atom_site_fract_x
 _atom_site_fract_y
 _atom_site_fract_z
 _atom_site_occupancy
  Li  Li0  1  0.000000  0.440491  0.500000  1
  Li  Li1  1  0.559509  0.559509  0.500000  1
  Li  Li2  1  0.440491  0.000000  0.500000  1
  Pr  Pr3  1  0.333333  0.666667  0.500000  1
  Pr  Pr4  1  0.666667  0.333333  0.500000  1
  Pr  Pr5  1  0.000000  0.808436  0.000000  1
  Pr  Pr6  1  0.191564  0.191564  0.000000  1
  Pr  Pr7  1  0.808436  0.000000  0.000000  1
  P  P8  1  0.000000  0.626419  0.500000  1
  P  P9  1  0.373581  0.373581  0.500000  1
  P  P10  1  0.626419  0.000000  0.500000  1
  P  P11  1  0.518211  0.688212  0.000000  1
  P  P12  1  0.311788  0.829999  0.000000  1
  P  P13  1  0.170001  0.481789  0.000000  1
  P  P14  1  0.481789  0.170001  0.000000  1
  P  P15  1  0.688212  0.518211  0.000000  1
  P  P16  1  0.829999  0.311788  0.000000  1
  P  P17  1  0.000000  0.182678  0.500000  1
  P  P18  1  0.817322  0.817322  0.500000  1
  P  P19  1  0.182678  0.000000  0.500000  1
  Ir  Ir20  1  0.510923  0.869846  0.000000  1
  Ir  Ir21  1  0.130154  0.641078  0.000000  1
  Ir  Ir22  1  0.358922  0.489077  0.000000  1
  Ir  Ir23  1  0.489077  0.358922  0.000000  1
  Ir  Ir24  1  0.869846  0.510923  0.000000  1
  Ir  Ir25  1  0.641078  0.130154  0.000000  1
  Ir  Ir26  1  0.000000  0.282584  0.000000  1
  Ir  Ir27  1  0.717416  0.717416  0.000000  1
  Ir  Ir28  1  0.282584  0.000000  0.000000  1
  Ir  Ir29  1  0.624711  0.804093  0.500000  1
  Ir  Ir30  1  0.195907  0.820618  0.500000  1
  Ir  Ir31  1  0.179382  0.375289  0.500000  1
  Ir  Ir32  1  0.375289  0.179382  0.500000  1
  Ir  Ir33  1  0.804093  0.624711  0.500000  1
  Ir  Ir34  1  0.820618  0.195907  0.500000  1
  Ir  Ir35  1  0.000000  0.000000  0.500000  1
