# generated using pymatgen
data_Li4Ni2As6Ir5
_symmetry_space_group_name_H-M   'P 1'
_cell_length_a   6.92780723
_cell_length_b   6.87744740
_cell_length_c   6.87744519
_cell_angle_alpha   108.89613526
_cell_angle_beta   109.60998039
_cell_angle_gamma   109.60997829
_symmetry_Int_Tables_number   1
_chemical_formula_structural   Li4Ni2As6Ir5
_chemical_formula_sum   'Li4 Ni2 As6 Ir5'
_cell_volume   253.16064097
_cell_formula_units_Z   1
loop_
 _symmetry_equiv_pos_site_id
 _symmetry_equiv_pos_as_xyz
  1  'x, y, z'
loop_
 _atom_site_type_symbol
 _atom_site_label
 _atom_site_symmetry_multiplicity
 _atom_site_fract_x
 _atom_site_fract_y
 _atom_site_fract_z
 _atom_site_occupancy
  Li  Li0  1  0.000000  0.991591  0.499768  1
  Li  Li1  1  0.500000  0.003516  0.996484  1
  Li  Li2  1  0.000000  0.500232  0.008409  1
  Li  Li3  1  0.500000  0.503516  0.496484  1
  Ni  Ni4  1  0.247161  0.497618  0.749543  1
  Ni  Ni5  1  0.752839  0.250457  0.502382  1
  As  As6  1  0.688725  0.689549  0.999176  1
  As  As7  1  0.310830  0.313936  0.996894  1
  As  As8  1  0.000000  0.680071  0.691154  1
  As  As9  1  0.000000  0.308846  0.319929  1
  As  As10  1  0.689170  0.003106  0.686064  1
  As  As11  1  0.311275  0.000824  0.310451  1
  Ir  Ir12  1  0.000000  0.000545  0.999455  1
  Ir  Ir13  1  0.500000  0.255778  0.744222  1
  Ir  Ir14  1  0.500000  0.755778  0.244222  1
  Ir  Ir15  1  0.749420  0.497029  0.252391  1
  Ir  Ir16  1  0.250580  0.747609  0.502971  1
