# generated using pymatgen
data_LaTl(Ni9As5)2
_symmetry_space_group_name_H-M   'P 1'
_cell_length_a   6.73643700
_cell_length_b   6.73643675
_cell_length_c   11.24156100
_cell_angle_alpha   90.00000000
_cell_angle_beta   90.00000000
_cell_angle_gamma   120.00000612
_symmetry_Int_Tables_number   1
_chemical_formula_structural   LaTl(Ni9As5)2
_chemical_formula_sum   'La1 Tl1 Ni18 As10'
_cell_volume   441.79186595
_cell_formula_units_Z   1
loop_
 _symmetry_equiv_pos_site_id
 _symmetry_equiv_pos_as_xyz
  1  'x, y, z'
loop_
 _atom_site_type_symbol
 _atom_site_label
 _atom_site_symmetry_multiplicity
 _atom_site_fract_x
 _atom_site_fract_y
 _atom_site_fract_z
 _atom_site_occupancy
  La  La0  1  0.000000  0.000000  0.500000  1
  Tl  Tl1  1  0.000000  0.000000  0.000000  1
  Ni  Ni2  1  0.535407  0.464593  0.107559  1
  Ni  Ni3  1  0.071951  0.535975  0.604907  1
  Ni  Ni4  1  0.464025  0.928049  0.604907  1
  Ni  Ni5  1  0.535407  0.070815  0.107559  1
  Ni  Ni6  1  0.929185  0.464593  0.107559  1
  Ni  Ni7  1  0.070815  0.535407  0.892441  1
  Ni  Ni8  1  0.464593  0.929185  0.892441  1
  Ni  Ni9  1  0.464025  0.535975  0.604907  1
  Ni  Ni10  1  0.464593  0.535407  0.892441  1
  Ni  Ni11  1  0.535975  0.464025  0.395093  1
  Ni  Ni12  1  0.928049  0.464025  0.395093  1
  Ni  Ni13  1  0.535975  0.071951  0.395093  1
  Ni  Ni14  1  0.209144  0.790856  0.252907  1
  Ni  Ni15  1  0.418288  0.209144  0.747093  1
  Ni  Ni16  1  0.790856  0.581712  0.747093  1
  Ni  Ni17  1  0.209144  0.418288  0.252907  1
  Ni  Ni18  1  0.581712  0.790856  0.252907  1
  Ni  Ni19  1  0.790856  0.209144  0.747093  1
  As  As20  1  0.828768  0.171232  0.251760  1
  As  As21  1  0.657535  0.828768  0.748240  1
  As  As22  1  0.171232  0.342465  0.748240  1
  As  As23  1  0.828768  0.657535  0.251760  1
  As  As24  1  0.342465  0.171232  0.251760  1
  As  As25  1  0.171232  0.828768  0.748240  1
  As  As26  1  0.333333  0.666667  0.060629  1
  As  As27  1  0.666667  0.333333  0.561072  1
  As  As28  1  0.666667  0.333333  0.939371  1
  As  As29  1  0.333333  0.666667  0.438928  1
