# generated using pymatgen
data_Sm8Zr12Si15Sb
_symmetry_space_group_name_H-M   'P 1'
_cell_length_a   7.24173078
_cell_length_b   7.40922244
_cell_length_c   14.13643081
_cell_angle_alpha   90.12532128
_cell_angle_beta   89.36586120
_cell_angle_gamma   90.05241441
_symmetry_Int_Tables_number   1
_chemical_formula_structural   Sm8Zr12Si15Sb
_chemical_formula_sum   'Sm8 Zr12 Si15 Sb1'
_cell_volume   758.45002298
_cell_formula_units_Z   1
loop_
 _symmetry_equiv_pos_site_id
 _symmetry_equiv_pos_as_xyz
  1  'x, y, z'
loop_
 _atom_site_type_symbol
 _atom_site_label
 _atom_site_symmetry_multiplicity
 _atom_site_fract_x
 _atom_site_fract_y
 _atom_site_fract_z
 _atom_site_occupancy
  Sm  Sm0  1  0.013337  0.175879  0.096918  1
  Sm  Sm1  1  0.986325  0.825529  0.903816  1
  Sm  Sm2  1  0.486977  0.675007  0.903839  1
  Sm  Sm3  1  0.988597  0.829501  0.598766  1
  Sm  Sm4  1  0.512960  0.324709  0.097471  1
  Sm  Sm5  1  0.005827  0.171022  0.399919  1
  Sm  Sm6  1  0.510797  0.322636  0.399942  1
  Sm  Sm7  1  0.502483  0.681480  0.600883  1
  Zr  Zr8  1  0.159845  0.495585  0.754703  1
  Zr  Zr9  1  0.839959  0.503389  0.249965  1
  Zr  Zr10  1  0.339573  0.997840  0.249301  1
  Zr  Zr11  1  0.661331  0.001507  0.751940  1
  Zr  Zr12  1  0.342374  0.163175  0.630155  1
  Zr  Zr13  1  0.665275  0.825384  0.372675  1
  Zr  Zr14  1  0.162671  0.682863  0.370098  1
  Zr  Zr15  1  0.668728  0.823604  0.124058  1
  Zr  Zr16  1  0.824455  0.323086  0.625722  1
  Zr  Zr17  1  0.329537  0.176207  0.875750  1
  Zr  Zr18  1  0.830284  0.323728  0.875950  1
  Zr  Zr19  1  0.170064  0.676394  0.124641  1
  Si  Si20  1  0.035457  0.123161  0.750115  1
  Si  Si21  1  0.961821  0.879868  0.247301  1
  Si  Si22  1  0.463145  0.621893  0.248511  1
  Si  Si23  1  0.536029  0.378243  0.752043  1
  Si  Si24  1  0.286677  0.873102  0.752074  1
  Si  Si25  1  0.712823  0.122798  0.248066  1
  Si  Si26  1  0.212633  0.378163  0.249307  1
  Si  Si27  1  0.789967  0.622506  0.751194  1
  Si  Si28  1  0.826488  0.538010  0.456254  1
  Si  Si29  1  0.342367  0.964465  0.459529  1
  Si  Si30  1  0.846714  0.533452  0.041243  1
  Si  Si31  1  0.659591  0.036692  0.538288  1
  Si  Si32  1  0.153155  0.466862  0.959788  1
  Si  Si33  1  0.651948  0.033852  0.959039  1
  Si  Si34  1  0.346899  0.966569  0.041155  1
  Sb  Sb35  1  0.172882  0.461841  0.539578  1
