# generated using pymatgen
data_TaMnVF12
_symmetry_space_group_name_H-M   'P 1'
_cell_length_a   5.26234463
_cell_length_b   5.56464649
_cell_length_c   9.14981808
_cell_angle_alpha   73.85767011
_cell_angle_beta   88.68627464
_cell_angle_gamma   62.34458232
_symmetry_Int_Tables_number   1
_chemical_formula_structural   TaMnVF12
_chemical_formula_sum   'Ta1 Mn1 V1 F12'
_cell_volume   226.18786916
_cell_formula_units_Z   1
loop_
 _symmetry_equiv_pos_site_id
 _symmetry_equiv_pos_as_xyz
  1  'x, y, z'
loop_
 _atom_site_type_symbol
 _atom_site_label
 _atom_site_symmetry_multiplicity
 _atom_site_fract_x
 _atom_site_fract_y
 _atom_site_fract_z
 _atom_site_occupancy
  Ta  Ta0  1  0.229458  0.993184  0.763448  1
  Mn  Mn1  1  0.498658  0.505325  0.491221  1
  V  V2  1  0.773584  0.004613  0.240310  1
  F  F3  1  0.939198  0.222843  0.202631  1
  F  F4  1  0.052593  0.760979  0.797030  1
  F  F5  1  0.003061  0.772034  0.141779  1
  F  F6  1  0.467469  0.771050  0.628162  1
  F  F7  1  0.544149  0.219243  0.366546  1
  F  F8  1  0.945798  0.242850  0.573393  1
  F  F9  1  0.047611  0.767312  0.418884  1
  F  F10  1  0.408751  0.241030  0.683150  1
  F  F11  1  0.599971  0.771364  0.311477  1
  F  F12  1  0.516000  0.772909  0.931515  1
  F  F13  1  0.498813  0.213954  0.085383  1
  F  F14  1  0.974889  0.241310  0.865069  1
