# generated using pymatgen
data_La16Mg4Tc3Pt
_symmetry_space_group_name_H-M   'P 1'
_cell_length_a   10.10258335
_cell_length_b   10.22876494
_cell_length_c   10.22876500
_cell_angle_alpha   60.00000304
_cell_angle_beta   59.58596886
_cell_angle_gamma   59.58597257
_symmetry_Int_Tables_number   1
_chemical_formula_structural   La16Mg4Tc3Pt
_chemical_formula_sum   'La16 Mg4 Tc3 Pt1'
_cell_volume   742.70693372
_cell_formula_units_Z   1
loop_
 _symmetry_equiv_pos_site_id
 _symmetry_equiv_pos_as_xyz
  1  'x, y, z'
loop_
 _atom_site_type_symbol
 _atom_site_label
 _atom_site_symmetry_multiplicity
 _atom_site_fract_x
 _atom_site_fract_y
 _atom_site_fract_z
 _atom_site_occupancy
  La  La0  1  0.590805  0.597629  0.597629  1
  La  La1  1  0.590805  0.597629  0.213938  1
  La  La2  1  0.590805  0.213938  0.597629  1
  La  La3  1  0.219461  0.593513  0.593513  1
  La  La4  1  0.071429  0.437177  0.437177  1
  La  La5  1  0.438273  0.063695  0.063695  1
  La  La6  1  0.438273  0.063695  0.434337  1
  La  La7  1  0.071429  0.437177  0.054218  1
  La  La8  1  0.438273  0.434337  0.063695  1
  La  La9  1  0.071429  0.054218  0.437177  1
  La  La10  1  0.191446  0.808034  0.808034  1
  La  La11  1  0.806441  0.190984  0.190984  1
  La  La12  1  0.806441  0.190984  0.811590  1
  La  La13  1  0.191446  0.808034  0.192487  1
  La  La14  1  0.806441  0.811590  0.190984  1
  La  La15  1  0.191446  0.192487  0.808034  1
  Mg  Mg16  1  0.828189  0.827992  0.827992  1
  Mg  Mg17  1  0.828189  0.827992  0.515827  1
  Mg  Mg18  1  0.828189  0.515827  0.827992  1
  Mg  Mg19  1  0.515055  0.828315  0.828315  1
  Tc  Tc20  1  0.385204  0.384760  0.384760  1
  Tc  Tc21  1  0.385204  0.384760  0.845276  1
  Tc  Tc22  1  0.385204  0.845276  0.384760  1
  Pt  Pt23  1  0.830129  0.389957  0.389957  1
