# generated using pymatgen
data_Hf16Ni4Mo2PtAu
_symmetry_space_group_name_H-M   'P 1'
_cell_length_a   8.71144980
_cell_length_b   8.71144909
_cell_length_c   8.65443373
_cell_angle_alpha   60.13523408
_cell_angle_beta   60.13523685
_cell_angle_gamma   60.19384108
_symmetry_Int_Tables_number   1
_chemical_formula_structural   Hf16Ni4Mo2PtAu
_chemical_formula_sum   'Hf16 Ni4 Mo2 Pt1 Au1'
_cell_volume   466.04086412
_cell_formula_units_Z   1
loop_
 _symmetry_equiv_pos_site_id
 _symmetry_equiv_pos_as_xyz
  1  'x, y, z'
loop_
 _atom_site_type_symbol
 _atom_site_label
 _atom_site_symmetry_multiplicity
 _atom_site_fract_x
 _atom_site_fract_y
 _atom_site_fract_z
 _atom_site_occupancy
  Hf  Hf0  1  0.687592  0.103496  0.103251  1
  Hf  Hf1  1  0.103496  0.687592  0.103251  1
  Hf  Hf2  1  0.100054  0.100054  0.696404  1
  Hf  Hf3  1  0.100401  0.100401  0.103399  1
  Hf  Hf4  1  0.315525  0.315525  0.692122  1
  Hf  Hf5  1  0.688140  0.688140  0.311881  1
  Hf  Hf6  1  0.316387  0.694941  0.315170  1
  Hf  Hf7  1  0.693593  0.316122  0.676063  1
  Hf  Hf8  1  0.694941  0.316387  0.315170  1
  Hf  Hf9  1  0.316122  0.693593  0.676063  1
  Hf  Hf10  1  0.954686  0.954686  0.545142  1
  Hf  Hf11  1  0.551012  0.551012  0.946970  1
  Hf  Hf12  1  0.943800  0.551302  0.951177  1
  Hf  Hf13  1  0.552875  0.941725  0.554534  1
  Hf  Hf14  1  0.551302  0.943800  0.951177  1
  Hf  Hf15  1  0.941725  0.552875  0.554534  1
  Ni  Ni16  1  0.325502  0.885411  0.894320  1
  Ni  Ni17  1  0.885411  0.325502  0.894320  1
  Ni  Ni18  1  0.890419  0.890419  0.323164  1
  Ni  Ni19  1  0.890371  0.890371  0.895357  1
  Mo  Mo20  1  0.997375  0.333311  0.333445  1
  Mo  Mo21  1  0.333311  0.997375  0.333445  1
  Pt  Pt22  1  0.333389  0.333389  0.992298  1
  Au  Au23  1  0.332565  0.332565  0.337337  1
