# generated using pymatgen
data_Mg4Sn2B4Ir3Rh7
_symmetry_space_group_name_H-M   'P 1'
_cell_length_a   9.65448952
_cell_length_b   9.63470753
_cell_length_c   2.99439600
_cell_angle_alpha   90.00000000
_cell_angle_beta   90.00000000
_cell_angle_gamma   89.93556696
_symmetry_Int_Tables_number   1
_chemical_formula_structural   Mg4Sn2B4Ir3Rh7
_chemical_formula_sum   'Mg4 Sn2 B4 Ir3 Rh7'
_cell_volume   278.53309859
_cell_formula_units_Z   1
loop_
 _symmetry_equiv_pos_site_id
 _symmetry_equiv_pos_as_xyz
  1  'x, y, z'
loop_
 _atom_site_type_symbol
 _atom_site_label
 _atom_site_symmetry_multiplicity
 _atom_site_fract_x
 _atom_site_fract_y
 _atom_site_fract_z
 _atom_site_occupancy
  Mg  Mg0  1  0.676052  0.176236  0.000000  1
  Mg  Mg1  1  0.323690  0.824001  0.000000  1
  Mg  Mg2  1  0.175904  0.323920  0.000000  1
  Mg  Mg3  1  0.823854  0.675951  0.000000  1
  Sn  Sn4  1  0.998218  0.999414  0.000000  1
  Sn  Sn5  1  0.500068  0.500123  0.000000  1
  B  B6  1  0.121927  0.621573  0.000000  1
  B  B7  1  0.878403  0.378433  0.000000  1
  B  B8  1  0.621689  0.878176  0.000000  1
  B  B9  1  0.377512  0.121907  0.000000  1
  Ir  Ir10  1  0.501057  0.999841  0.500000  1
  Ir  Ir11  1  0.999824  0.500392  0.500000  1
  Ir  Ir12  1  0.222819  0.072349  0.500000  1
  Rh  Rh13  1  0.777525  0.927551  0.500000  1
  Rh  Rh14  1  0.072313  0.777566  0.500000  1
  Rh  Rh15  1  0.722435  0.427315  0.500000  1
  Rh  Rh16  1  0.927741  0.222570  0.500000  1
  Rh  Rh17  1  0.277640  0.572446  0.500000  1
  Rh  Rh18  1  0.572463  0.721968  0.500000  1
  Rh  Rh19  1  0.428864  0.278267  0.500000  1
