# generated using pymatgen
data_Yb11Ho2Tm7Sn16
_symmetry_space_group_name_H-M   'P 1'
_cell_length_a   7.80579503
_cell_length_b   8.39841520
_cell_length_c   15.89296720
_cell_angle_alpha   90.01532257
_cell_angle_beta   90.00943166
_cell_angle_gamma   89.86700577
_symmetry_Int_Tables_number   1
_chemical_formula_structural   Yb11Ho2Tm7Sn16
_chemical_formula_sum   'Yb11 Ho2 Tm7 Sn16'
_cell_volume   1041.88138879
_cell_formula_units_Z   1
loop_
 _symmetry_equiv_pos_site_id
 _symmetry_equiv_pos_as_xyz
  1  'x, y, z'
loop_
 _atom_site_type_symbol
 _atom_site_label
 _atom_site_symmetry_multiplicity
 _atom_site_fract_x
 _atom_site_fract_y
 _atom_site_fract_z
 _atom_site_occupancy
  Yb  Yb0  1  0.503849  0.687319  0.593489  1
  Yb  Yb1  1  0.003882  0.815207  0.908405  1
  Yb  Yb2  1  0.494398  0.312092  0.092285  1
  Yb  Yb3  1  0.995818  0.187092  0.408114  1
  Yb  Yb4  1  0.494499  0.312065  0.407757  1
  Yb  Yb5  1  0.995907  0.187118  0.091843  1
  Yb  Yb6  1  0.503790  0.687253  0.906501  1
  Yb  Yb7  1  0.003819  0.815266  0.591609  1
  Yb  Yb8  1  0.336208  0.989766  0.750006  1
  Yb  Yb9  1  0.163611  0.488373  0.249986  1
  Yb  Yb10  1  0.663410  0.009367  0.250013  1
  Ho  Ho11  1  0.674056  0.163940  0.877809  1
  Ho  Ho12  1  0.175419  0.334868  0.622782  1
  Tm  Tm13  1  0.674167  0.163790  0.622191  1
  Tm  Tm14  1  0.175327  0.335059  0.877202  1
  Tm  Tm15  1  0.326093  0.833252  0.122102  1
  Tm  Tm16  1  0.826360  0.664250  0.378166  1
  Tm  Tm17  1  0.326118  0.833246  0.377881  1
  Tm  Tm18  1  0.826361  0.664262  0.121845  1
  Tm  Tm19  1  0.837908  0.509997  0.750002  1
  Sn  Sn20  1  0.672036  0.962480  0.459243  1
  Sn  Sn21  1  0.171752  0.536697  0.040113  1
  Sn  Sn22  1  0.328151  0.037019  0.959367  1
  Sn  Sn23  1  0.828147  0.465553  0.543800  1
  Sn  Sn24  1  0.328998  0.036747  0.540597  1
  Sn  Sn25  1  0.828977  0.465785  0.956202  1
  Sn  Sn26  1  0.671959  0.962220  0.041011  1
  Sn  Sn27  1  0.171695  0.536942  0.459649  1
  Sn  Sn28  1  0.475914  0.379429  0.750047  1
  Sn  Sn29  1  0.971732  0.132819  0.749965  1
  Sn  Sn30  1  0.527896  0.625634  0.250009  1
  Sn  Sn31  1  0.027320  0.871552  0.249993  1
  Sn  Sn32  1  0.721725  0.865143  0.749905  1
  Sn  Sn33  1  0.209854  0.631205  0.750108  1
  Sn  Sn34  1  0.280838  0.126154  0.250003  1
  Sn  Sn35  1  0.782007  0.371041  0.250002  1
