# generated using pymatgen
data_Ac(SiAg)2
_symmetry_space_group_name_H-M   'P 1'
_cell_length_a   6.18489611
_cell_length_b   6.18489632
_cell_length_c   6.18489712
_cell_angle_alpha   137.74803502
_cell_angle_beta   137.74804301
_cell_angle_gamma   61.28910871
_symmetry_Int_Tables_number   1
_chemical_formula_structural   Ac(SiAg)2
_chemical_formula_sum   'Ac1 Si2 Ag2'
_cell_volume   105.76640119
_cell_formula_units_Z   1
loop_
 _symmetry_equiv_pos_site_id
 _symmetry_equiv_pos_as_xyz
  1  'x, y, z'
loop_
 _atom_site_type_symbol
 _atom_site_label
 _atom_site_symmetry_multiplicity
 _atom_site_fract_x
 _atom_site_fract_y
 _atom_site_fract_z
 _atom_site_occupancy
  Ac  Ac0  1  0.000000  0.000000  0.000000  1
  Si  Si1  1  0.612687  0.612687  0.000000  1
  Si  Si2  1  0.387313  0.387313  0.000000  1
  Ag  Ag3  1  0.250000  0.750000  0.500000  1
  Ag  Ag4  1  0.750000  0.250000  0.500000  1
