# generated using pymatgen
data_CaMgZr2(NiSb)4
_symmetry_space_group_name_H-M   'P 1'
_cell_length_a   6.19886461
_cell_length_b   6.19886439
_cell_length_c   7.60459662
_cell_angle_alpha   65.94751138
_cell_angle_beta   65.94750740
_cell_angle_gamma   90.00001041
_symmetry_Int_Tables_number   1
_chemical_formula_structural   CaMgZr2(NiSb)4
_chemical_formula_sum   'Ca1 Mg1 Zr2 Ni4 Sb4'
_cell_volume   238.78838548
_cell_formula_units_Z   1
loop_
 _symmetry_equiv_pos_site_id
 _symmetry_equiv_pos_as_xyz
  1  'x, y, z'
loop_
 _atom_site_type_symbol
 _atom_site_label
 _atom_site_symmetry_multiplicity
 _atom_site_fract_x
 _atom_site_fract_y
 _atom_site_fract_z
 _atom_site_occupancy
  Ca  Ca0  1  0.000000  0.000000  0.000000  1
  Mg  Mg1  1  0.249999  0.749999  0.500000  1
  Zr  Zr2  1  0.500000  0.500000  0.000000  1
  Zr  Zr3  1  0.749999  0.250000  0.500000  1
  Ni  Ni4  1  0.127397  0.138536  0.254755  1
  Ni  Ni5  1  0.617849  0.606707  0.254755  1
  Ni  Ni6  1  0.861463  0.382152  0.745243  1
  Ni  Ni7  1  0.393295  0.872603  0.745245  1
  Sb  Sb8  1  0.496513  0.996514  0.006970  1
  Sb  Sb9  1  0.750993  0.750993  0.498014  1
  Sb  Sb10  1  0.249007  0.249007  0.501986  1
  Sb  Sb11  1  0.003484  0.503485  0.993030  1
