# generated using pymatgen
data_Dy20NiRu11
_symmetry_space_group_name_H-M   'P 1'
_cell_length_a   10.79774363
_cell_length_b   10.79774354
_cell_length_c   6.37532550
_cell_angle_alpha   89.87612475
_cell_angle_beta   89.87612959
_cell_angle_gamma   89.73744897
_symmetry_Int_Tables_number   1
_chemical_formula_structural   Dy20NiRu11
_chemical_formula_sum   'Dy20 Ni1 Ru11'
_cell_volume   743.29601219
_cell_formula_units_Z   1
loop_
 _symmetry_equiv_pos_site_id
 _symmetry_equiv_pos_as_xyz
  1  'x, y, z'
loop_
 _atom_site_type_symbol
 _atom_site_label
 _atom_site_symmetry_multiplicity
 _atom_site_fract_x
 _atom_site_fract_y
 _atom_site_fract_z
 _atom_site_occupancy
  Dy  Dy0  1  0.292224  0.086803  0.376478  1
  Dy  Dy1  1  0.292171  0.916177  0.876828  1
  Dy  Dy2  1  0.708319  0.086899  0.877207  1
  Dy  Dy3  1  0.708568  0.913641  0.377452  1
  Dy  Dy4  1  0.590297  0.793517  0.877245  1
  Dy  Dy5  1  0.586193  0.207374  0.375462  1
  Dy  Dy6  1  0.414813  0.793503  0.376240  1
  Dy  Dy7  1  0.413535  0.209792  0.877447  1
  Dy  Dy8  1  0.206483  0.409703  0.622755  1
  Dy  Dy9  1  0.206497  0.585187  0.123760  1
  Dy  Dy10  1  0.792626  0.413807  0.124538  1
  Dy  Dy11  1  0.790208  0.586465  0.622553  1
  Dy  Dy12  1  0.913197  0.707776  0.123522  1
  Dy  Dy13  1  0.913101  0.291681  0.622793  1
  Dy  Dy14  1  0.083823  0.707829  0.623172  1
  Dy  Dy15  1  0.086359  0.291432  0.122548  1
  Dy  Dy16  1  0.000485  0.999808  0.499494  1
  Dy  Dy17  1  0.000192  0.999515  0.000506  1
  Dy  Dy18  1  0.501223  0.500926  0.000470  1
  Dy  Dy19  1  0.499074  0.498777  0.499530  1
  Ni  Ni20  1  0.346709  0.653291  0.750000  1
  Ru  Ru21  1  0.847003  0.152997  0.250000  1
  Ru  Ru22  1  0.847175  0.846576  0.749646  1
  Ru  Ru23  1  0.153424  0.152825  0.750354  1
  Ru  Ru24  1  0.155981  0.844019  0.250000  1
  Ru  Ru25  1  0.652413  0.347587  0.750000  1
  Ru  Ru26  1  0.649517  0.652934  0.250671  1
  Ru  Ru27  1  0.347066  0.350483  0.249329  1
  Ru  Ru28  1  0.499611  0.998404  0.124799  1
  Ru  Ru29  1  0.499306  0.999188  0.626951  1
  Ru  Ru30  1  0.000812  0.500694  0.873049  1
  Ru  Ru31  1  0.001596  0.500389  0.375201  1
