# generated using pymatgen
data_FeRuI18
_symmetry_space_group_name_H-M   'P 1'
_cell_length_a   9.89312146
_cell_length_b   9.89311921
_cell_length_c   9.89311889
_cell_angle_alpha   91.29405709
_cell_angle_beta   91.29404481
_cell_angle_gamma   91.29405209
_symmetry_Int_Tables_number   1
_chemical_formula_structural   FeRuI18
_chemical_formula_sum   'Fe1 Ru1 I18'
_cell_volume   967.52523601
_cell_formula_units_Z   1
loop_
 _symmetry_equiv_pos_site_id
 _symmetry_equiv_pos_as_xyz
  1  'x, y, z'
loop_
 _atom_site_type_symbol
 _atom_site_label
 _atom_site_symmetry_multiplicity
 _atom_site_fract_x
 _atom_site_fract_y
 _atom_site_fract_z
 _atom_site_occupancy
  Fe  Fe0  1  0.000000  0.000000  0.000000  1
  Ru  Ru1  1  0.500000  0.500000  0.500000  1
  I  I2  1  0.273578  0.996825  0.025364  1
  I  I3  1  0.025364  0.273578  0.996825  1
  I  I4  1  0.996825  0.025364  0.273578  1
  I  I5  1  0.726422  0.003175  0.974636  1
  I  I6  1  0.974636  0.726422  0.003175  1
  I  I7  1  0.003175  0.974636  0.726422  1
  I  I8  1  0.625822  0.243526  0.118401  1
  I  I9  1  0.118401  0.625822  0.243526  1
  I  I10  1  0.243526  0.118401  0.625822  1
  I  I11  1  0.374178  0.756474  0.881599  1
  I  I12  1  0.881599  0.374178  0.756474  1
  I  I13  1  0.756474  0.881599  0.374178  1
  I  I14  1  0.493065  0.228630  0.513802  1
  I  I15  1  0.513802  0.493065  0.228630  1
  I  I16  1  0.228630  0.513802  0.493065  1
  I  I17  1  0.506935  0.771370  0.486198  1
  I  I18  1  0.486198  0.506935  0.771370  1
  I  I19  1  0.771370  0.486198  0.506935  1
