# generated using pymatgen
data_Tb16MgHg3(IrRh)2
_symmetry_space_group_name_H-M   'P 1'
_cell_length_a   9.69697369
_cell_length_b   9.67431121
_cell_length_c   9.67431110
_cell_angle_alpha   59.72503709
_cell_angle_beta   59.86335067
_cell_angle_gamma   59.86334754
_symmetry_Int_Tables_number   1
_chemical_formula_structural   Tb16MgHg3(IrRh)2
_chemical_formula_sum   'Tb16 Mg1 Hg3 Ir2 Rh2'
_cell_volume   639.07866479
_cell_formula_units_Z   1
loop_
 _symmetry_equiv_pos_site_id
 _symmetry_equiv_pos_as_xyz
  1  'x, y, z'
loop_
 _atom_site_type_symbol
 _atom_site_label
 _atom_site_symmetry_multiplicity
 _atom_site_fract_x
 _atom_site_fract_y
 _atom_site_fract_z
 _atom_site_occupancy
  Tb  Tb0  1  0.191795  0.808879  0.808879  1
  Tb  Tb1  1  0.814470  0.188226  0.188226  1
  Tb  Tb2  1  0.063510  0.438969  0.061291  1
  Tb  Tb3  1  0.056222  0.647632  0.647632  1
  Tb  Tb4  1  0.651100  0.651942  0.651942  1
  Tb  Tb5  1  0.063510  0.061291  0.438969  1
  Tb  Tb6  1  0.192254  0.810483  0.190709  1
  Tb  Tb7  1  0.812093  0.811341  0.188702  1
  Tb  Tb8  1  0.812093  0.188702  0.811341  1
  Tb  Tb9  1  0.437614  0.061360  0.437576  1
  Tb  Tb10  1  0.437614  0.437576  0.061360  1
  Tb  Tb11  1  0.440094  0.061536  0.061536  1
  Tb  Tb12  1  0.064291  0.436227  0.436227  1
  Tb  Tb13  1  0.192254  0.190709  0.810483  1
  Tb  Tb14  1  0.648622  0.651303  0.046843  1
  Tb  Tb15  1  0.648622  0.046843  0.651303  1
  Mg  Mg16  1  0.717906  0.428054  0.428054  1
  Hg  Hg17  1  0.417609  0.413273  0.756390  1
  Hg  Hg18  1  0.417609  0.756390  0.413273  1
  Hg  Hg19  1  0.417623  0.413624  0.413624  1
  Ir  Ir20  1  0.859837  0.856817  0.856817  1
  Ir  Ir21  1  0.425334  0.856978  0.856978  1
  Rh  Rh22  1  0.858965  0.856249  0.425595  1
  Rh  Rh23  1  0.858965  0.425595  0.856249  1
