# generated using pymatgen
data_Th3U(GeIr)4
_symmetry_space_group_name_H-M   'P 1'
_cell_length_a   4.38683000
_cell_length_b   7.18403584
_cell_length_c   7.73190897
_cell_angle_alpha   89.88275290
_cell_angle_beta   90.00000000
_cell_angle_gamma   90.00000000
_symmetry_Int_Tables_number   1
_chemical_formula_structural   Th3U(GeIr)4
_chemical_formula_sum   'Th3 U1 Ge4 Ir4'
_cell_volume   243.67171372
_cell_formula_units_Z   1
loop_
 _symmetry_equiv_pos_site_id
 _symmetry_equiv_pos_as_xyz
  1  'x, y, z'
loop_
 _atom_site_type_symbol
 _atom_site_label
 _atom_site_symmetry_multiplicity
 _atom_site_fract_x
 _atom_site_fract_y
 _atom_site_fract_z
 _atom_site_occupancy
  Th  Th0  1  0.250000  0.491386  0.203837  1
  Th  Th1  1  0.750000  0.511267  0.792829  1
  Th  Th2  1  0.250000  0.991832  0.300987  1
  U  U3  1  0.750000  0.007416  0.703611  1
  Ge  Ge4  1  0.250000  0.829390  0.915664  1
  Ge  Ge5  1  0.750000  0.180351  0.078880  1
  Ge  Ge6  1  0.250000  0.311742  0.585347  1
  Ge  Ge7  1  0.750000  0.687495  0.416707  1
  Ir  Ir8  1  0.750000  0.780209  0.083576  1
  Ir  Ir9  1  0.250000  0.208847  0.903159  1
  Ir  Ir10  1  0.750000  0.262853  0.423139  1
  Ir  Ir11  1  0.250000  0.737213  0.592265  1
