# generated using pymatgen
data_SrEu7In8
_symmetry_space_group_name_H-M   'P 1'
_cell_length_a   6.44747051
_cell_length_b   6.44601103
_cell_length_c   13.40362944
_cell_angle_alpha   100.99407690
_cell_angle_beta   101.41449100
_cell_angle_gamma   103.04369608
_symmetry_Int_Tables_number   1
_chemical_formula_structural   SrEu7In8
_chemical_formula_sum   'Sr1 Eu7 In8'
_cell_volume   515.54191240
_cell_formula_units_Z   1
loop_
 _symmetry_equiv_pos_site_id
 _symmetry_equiv_pos_as_xyz
  1  'x, y, z'
loop_
 _atom_site_type_symbol
 _atom_site_label
 _atom_site_symmetry_multiplicity
 _atom_site_fract_x
 _atom_site_fract_y
 _atom_site_fract_z
 _atom_site_occupancy
  Sr  Sr0  1  0.668495  0.471436  0.146854  1
  Eu  Eu1  1  0.724498  0.420292  0.647293  1
  Eu  Eu2  1  0.208650  0.913346  0.156223  1
  Eu  Eu3  1  0.777068  0.075538  0.357486  1
  Eu  Eu4  1  0.302139  0.506775  0.344132  1
  Eu  Eu5  1  0.326968  0.523801  0.853723  1
  Eu  Eu6  1  0.758705  0.056896  0.840874  1
  Eu  Eu7  1  0.168835  0.963175  0.658923  1
  In  In8  1  0.864416  0.624870  0.421239  1
  In  In9  1  0.287783  0.035529  0.926991  1
  In  In10  1  0.112394  0.357155  0.074305  1
  In  In11  1  0.204271  0.442196  0.575618  1
  In  In12  1  0.695187  0.951887  0.076233  1
  In  In13  1  0.879609  0.618026  0.923083  1
  In  In14  1  0.613473  0.863858  0.573212  1
  In  In15  1  0.284274  0.031856  0.419923  1
