# generated using pymatgen
data_Yb6Cu5Ge6Pd
_symmetry_space_group_name_H-M   'P 1'
_cell_length_a   4.30572307
_cell_length_b   7.42933953
_cell_length_c   11.22175700
_cell_angle_alpha   108.99028541
_cell_angle_beta   101.06060978
_cell_angle_gamma   89.99999051
_symmetry_Int_Tables_number   1
_chemical_formula_structural   Yb6Cu5Ge6Pd
_chemical_formula_sum   'Yb6 Cu5 Ge6 Pd1'
_cell_volume   332.37219185
_cell_formula_units_Z   1
loop_
 _symmetry_equiv_pos_site_id
 _symmetry_equiv_pos_as_xyz
  1  'x, y, z'
loop_
 _atom_site_type_symbol
 _atom_site_label
 _atom_site_symmetry_multiplicity
 _atom_site_fract_x
 _atom_site_fract_y
 _atom_site_fract_z
 _atom_site_occupancy
  Yb  Yb0  1  0.501335  0.051411  0.002669  1
  Yb  Yb1  1  0.999315  0.463604  0.998629  1
  Yb  Yb2  1  0.665183  0.131511  0.330365  1
  Yb  Yb3  1  0.167675  0.714591  0.335350  1
  Yb  Yb4  1  0.832391  0.380591  0.664780  1
  Yb  Yb5  1  0.335323  0.796733  0.670647  1
  Cu  Cu6  1  0.570120  0.741338  0.140237  1
  Cu  Cu7  1  0.104283  0.276679  0.208566  1
  Cu  Cu8  1  0.729948  0.570242  0.459893  1
  Cu  Cu9  1  0.268421  0.107443  0.536842  1
  Cu  Cu10  1  0.896596  0.065008  0.793192  1
  Ge  Ge11  1  0.065426  0.908573  0.130852  1
  Ge  Ge12  1  0.600032  0.445014  0.200062  1
  Ge  Ge13  1  0.232618  0.398609  0.465236  1
  Ge  Ge14  1  0.767095  0.933879  0.534188  1
  Ge  Ge15  1  0.398087  0.232917  0.796176  1
  Ge  Ge16  1  0.937522  0.782073  0.875041  1
  Pd  Pd17  1  0.428635  0.595583  0.857272  1
