# generated using pymatgen
data_TaNb3Hg3PbO14
_symmetry_space_group_name_H-M   'P 1'
_cell_length_a   7.62318942
_cell_length_b   7.62318921
_cell_length_c   7.60562273
_cell_angle_alpha   59.08046859
_cell_angle_beta   59.08046852
_cell_angle_gamma   59.13213593
_symmetry_Int_Tables_number   1
_chemical_formula_structural   TaNb3Hg3PbO14
_chemical_formula_sum   'Ta1 Nb3 Hg3 Pb1 O14'
_cell_volume   306.10203243
_cell_formula_units_Z   1
loop_
 _symmetry_equiv_pos_site_id
 _symmetry_equiv_pos_as_xyz
  1  'x, y, z'
loop_
 _atom_site_type_symbol
 _atom_site_label
 _atom_site_symmetry_multiplicity
 _atom_site_fract_x
 _atom_site_fract_y
 _atom_site_fract_z
 _atom_site_occupancy
  Ta  Ta0  1  0.125000  0.125000  0.625000  1
  Nb  Nb1  1  0.125000  0.625000  0.125000  1
  Nb  Nb2  1  0.625000  0.125000  0.125000  1
  Nb  Nb3  1  0.125000  0.125000  0.125000  1
  Hg  Hg4  1  0.125000  0.625000  0.625000  1
  Hg  Hg5  1  0.625000  0.125000  0.625000  1
  Hg  Hg6  1  0.625000  0.625000  0.125000  1
  Pb  Pb7  1  0.625000  0.625000  0.625000  1
  O  O8  1  0.762152  0.762152  0.762318  1
  O  O9  1  0.193929  0.811863  0.809233  1
  O  O10  1  0.186118  0.811773  0.187004  1
  O  O11  1  0.811863  0.193929  0.809233  1
  O  O12  1  0.185856  0.185856  0.811210  1
  O  O13  1  0.809676  0.809676  0.195459  1
  O  O14  1  0.438227  0.063882  0.062996  1
  O  O15  1  0.811773  0.186118  0.187004  1
  O  O16  1  0.063882  0.438227  0.062996  1
  O  O17  1  0.064144  0.064144  0.438790  1
  O  O18  1  0.440324  0.440324  0.054541  1
  O  O19  1  0.438137  0.056071  0.440767  1
  O  O20  1  0.056071  0.438137  0.440767  1
  O  O21  1  0.487848  0.487848  0.487682  1
