# generated using pymatgen
data_TaNb2(InS3)2
_symmetry_space_group_name_H-M   'P 1'
_cell_length_a   8.68776410
_cell_length_b   8.68776377
_cell_length_c   8.68776446
_cell_angle_alpha   39.43413525
_cell_angle_beta   39.43413982
_cell_angle_gamma   39.43412835
_symmetry_Int_Tables_number   1
_chemical_formula_structural   TaNb2(InS3)2
_chemical_formula_sum   'Ta1 Nb2 In2 S6'
_cell_volume   238.12271293
_cell_formula_units_Z   1
loop_
 _symmetry_equiv_pos_site_id
 _symmetry_equiv_pos_as_xyz
  1  'x, y, z'
loop_
 _atom_site_type_symbol
 _atom_site_label
 _atom_site_symmetry_multiplicity
 _atom_site_fract_x
 _atom_site_fract_y
 _atom_site_fract_z
 _atom_site_occupancy
  Ta  Ta0  1  0.000000  0.000000  0.000000  1
  Nb  Nb1  1  0.333411  0.333411  0.333411  1
  Nb  Nb2  1  0.666589  0.666589  0.666589  1
  In  In3  1  0.166520  0.166520  0.166520  1
  In  In4  1  0.833480  0.833480  0.833480  1
  S  S5  1  0.395863  0.732769  0.065488  1
  S  S6  1  0.065488  0.395863  0.732769  1
  S  S7  1  0.732769  0.065488  0.395863  1
  S  S8  1  0.267231  0.604137  0.934512  1
  S  S9  1  0.934512  0.267231  0.604137  1
  S  S10  1  0.604137  0.934512  0.267231  1
