# generated using pymatgen
data_Cs4Cr5Pt3Se16
_symmetry_space_group_name_H-M   'P 1'
_cell_length_a   6.42957951
_cell_length_b   7.46834207
_cell_length_c   17.25241556
_cell_angle_alpha   89.85749773
_cell_angle_beta   90.07265639
_cell_angle_gamma   90.06762411
_symmetry_Int_Tables_number   1
_chemical_formula_structural   Cs4Cr5Pt3Se16
_chemical_formula_sum   'Cs4 Cr5 Pt3 Se16'
_cell_volume   828.42784829
_cell_formula_units_Z   1
loop_
 _symmetry_equiv_pos_site_id
 _symmetry_equiv_pos_as_xyz
  1  'x, y, z'
loop_
 _atom_site_type_symbol
 _atom_site_label
 _atom_site_symmetry_multiplicity
 _atom_site_fract_x
 _atom_site_fract_y
 _atom_site_fract_z
 _atom_site_occupancy
  Cs  Cs0  1  0.359053  0.999307  0.000020  1
  Cs  Cs1  1  0.640947  0.500693  0.499980  1
  Cs  Cs2  1  0.025556  0.997792  0.499783  1
  Cs  Cs3  1  0.974444  0.502208  0.000217  1
  Cr  Cr4  1  0.002743  0.000083  0.250854  1
  Cr  Cr5  1  0.003895  0.006124  0.748797  1
  Cr  Cr6  1  0.997257  0.499917  0.249146  1
  Cr  Cr7  1  0.996105  0.493876  0.751203  1
  Cr  Cr8  1  0.500000  0.250000  0.750000  1
  Pt  Pt9  1  0.500000  0.250000  0.250000  1
  Pt  Pt10  1  0.500000  0.750000  0.750000  1
  Pt  Pt11  1  0.500000  0.750000  0.250000  1
  Se  Se12  1  0.835748  0.250970  0.330004  1
  Se  Se13  1  0.834813  0.748886  0.671693  1
  Se  Se14  1  0.164198  0.751816  0.170129  1
  Se  Se15  1  0.165062  0.249493  0.832124  1
  Se  Se16  1  0.164252  0.249030  0.169996  1
  Se  Se17  1  0.165187  0.751114  0.828307  1
  Se  Se18  1  0.835802  0.748184  0.329871  1
  Se  Se19  1  0.834938  0.250507  0.667876  1
  Se  Se20  1  0.671184  0.000441  0.173392  1
  Se  Se21  1  0.673741  0.999629  0.828530  1
  Se  Se22  1  0.328816  0.499559  0.326608  1
  Se  Se23  1  0.326259  0.500371  0.671470  1
  Se  Se24  1  0.340935  0.999631  0.328379  1
  Se  Se25  1  0.338478  0.999799  0.670116  1
  Se  Se26  1  0.659065  0.500369  0.171621  1
  Se  Se27  1  0.661522  0.500201  0.829884  1
