# generated using pymatgen
data_Bi4PbI3
_symmetry_space_group_name_H-M   'P 1'
_cell_length_a   24.30075026
_cell_length_b   24.30075078
_cell_length_c   6.83846600
_cell_angle_alpha   80.05412746
_cell_angle_beta   80.05412724
_cell_angle_gamma   14.04688071
_symmetry_Int_Tables_number   1
_chemical_formula_structural   Bi4PbI3
_chemical_formula_sum   'Bi12 Pb3 I9'
_cell_volume   965.20203125
_cell_formula_units_Z   3
loop_
 _symmetry_equiv_pos_site_id
 _symmetry_equiv_pos_as_xyz
  1  'x, y, z'
loop_
 _atom_site_type_symbol
 _atom_site_label
 _atom_site_symmetry_multiplicity
 _atom_site_fract_x
 _atom_site_fract_y
 _atom_site_fract_z
 _atom_site_occupancy
  Bi  Bi0  1  0.092459  0.092459  0.022208  1
  Bi  Bi1  1  0.738519  0.738519  0.013957  1
  Bi  Bi2  1  0.242245  0.242245  0.518943  1
  Bi  Bi3  1  0.236494  0.236494  0.020689  1
  Bi  Bi4  1  0.742228  0.742228  0.516530  1
  Bi  Bi5  1  0.875341  0.875341  0.966920  1
  Bi  Bi6  1  0.299530  0.299530  0.157366  1
  Bi  Bi7  1  0.174922  0.174922  0.288622  1
  Bi  Bi8  1  0.677887  0.677887  0.784552  1
  Bi  Bi9  1  0.799632  0.799632  0.158212  1
  Bi  Bi10  1  0.177175  0.177175  0.791374  1
  Bi  Bi11  1  0.672696  0.672696  0.300158  1
  Pb  Pb12  1  0.934768  0.934768  0.152708  1
  Pb  Pb13  1  0.471730  0.471730  0.635032  1
  Pb  Pb14  1  0.602706  0.602706  0.502460  1
  I  I15  1  0.098373  0.098373  0.514459  1
  I  I16  1  0.594735  0.594735  0.023393  1
  I  I17  1  0.881424  0.881424  0.477055  1
  I  I18  1  0.372596  0.372596  0.961662  1
  I  I19  1  0.440725  0.440725  0.155397  1
  I  I20  1  0.969676  0.969676  0.630344  1
  I  I21  1  0.531967  0.531967  0.662137  1
  I  I22  1  0.032297  0.032297  0.103986  1
  I  I23  1  0.307963  0.307963  0.641837  1
