# generated using pymatgen
data_Lu4Ga18Ir4PtRh
_symmetry_space_group_name_H-M   'P 1'
_cell_length_a   7.57515297
_cell_length_b   7.57515427
_cell_length_c   9.43877100
_cell_angle_alpha   90.03788839
_cell_angle_beta   90.03789267
_cell_angle_gamma   119.98304408
_symmetry_Int_Tables_number   1
_chemical_formula_structural   Lu4Ga18Ir4PtRh
_chemical_formula_sum   'Lu4 Ga18 Ir4 Pt1 Rh1'
_cell_volume   469.14032936
_cell_formula_units_Z   1
loop_
 _symmetry_equiv_pos_site_id
 _symmetry_equiv_pos_as_xyz
  1  'x, y, z'
loop_
 _atom_site_type_symbol
 _atom_site_label
 _atom_site_symmetry_multiplicity
 _atom_site_fract_x
 _atom_site_fract_y
 _atom_site_fract_z
 _atom_site_occupancy
  Lu  Lu0  1  0.996437  0.667938  0.250483  1
  Lu  Lu1  1  0.003563  0.332062  0.749517  1
  Lu  Lu2  1  0.667938  0.996437  0.250483  1
  Lu  Lu3  1  0.332062  0.003563  0.749517  1
  Ga  Ga4  1  0.126790  0.126790  0.252868  1
  Ga  Ga5  1  0.873210  0.873210  0.747132  1
  Ga  Ga6  1  0.997754  0.337176  0.083681  1
  Ga  Ga7  1  0.002246  0.662824  0.916319  1
  Ga  Ga8  1  0.002525  0.666619  0.581132  1
  Ga  Ga9  1  0.333381  0.997475  0.418868  1
  Ga  Ga10  1  0.997475  0.333381  0.418868  1
  Ga  Ga11  1  0.666619  0.002525  0.581132  1
  Ga  Ga12  1  0.662824  0.002246  0.916319  1
  Ga  Ga13  1  0.337176  0.997754  0.083681  1
  Ga  Ga14  1  0.330202  0.330202  0.568297  1
  Ga  Ga15  1  0.669798  0.669798  0.431703  1
  Ga  Ga16  1  0.665435  0.665435  0.070490  1
  Ga  Ga17  1  0.334565  0.334565  0.929510  1
  Ga  Ga18  1  0.338540  0.547235  0.250549  1
  Ga  Ga19  1  0.661460  0.452765  0.749451  1
  Ga  Ga20  1  0.547235  0.338540  0.250549  1
  Ga  Ga21  1  0.452765  0.661460  0.749451  1
  Ir  Ir22  1  0.671468  0.328532  0.000000  1
  Ir  Ir23  1  0.328532  0.671468  0.000000  1
  Ir  Ir24  1  0.328184  0.671816  0.500000  1
  Ir  Ir25  1  0.671816  0.328184  0.500000  1
  Pt  Pt26  1  0.000000  0.000000  0.000000  1
  Rh  Rh27  1  0.000000  0.000000  0.500000  1
