# generated using pymatgen
data_Ti8Nb2Cu2Sn5Sb
_symmetry_space_group_name_H-M   'P 1'
_cell_length_a   8.23844101
_cell_length_b   8.22077203
_cell_length_c   5.54431301
_cell_angle_alpha   89.99797070
_cell_angle_beta   90.00657582
_cell_angle_gamma   120.07250116
_symmetry_Int_Tables_number   1
_chemical_formula_structural   Ti8Nb2Cu2Sn5Sb
_chemical_formula_sum   'Ti8 Nb2 Cu2 Sn5 Sb1'
_cell_volume   324.95128945
_cell_formula_units_Z   1
loop_
 _symmetry_equiv_pos_site_id
 _symmetry_equiv_pos_as_xyz
  1  'x, y, z'
loop_
 _atom_site_type_symbol
 _atom_site_label
 _atom_site_symmetry_multiplicity
 _atom_site_fract_x
 _atom_site_fract_y
 _atom_site_fract_z
 _atom_site_occupancy
  Ti  Ti0  1  0.271110  0.999991  0.741543  1
  Ti  Ti1  1  0.728064  0.000008  0.257022  1
  Ti  Ti2  1  0.998501  0.268335  0.742013  1
  Ti  Ti3  1  0.999099  0.728646  0.258529  1
  Ti  Ti4  1  0.730162  0.731649  0.742011  1
  Ti  Ti5  1  0.270462  0.271374  0.258524  1
  Ti  Ti6  1  0.666121  0.331827  0.000499  1
  Ti  Ti7  1  0.334291  0.668172  0.000504  1
  Nb  Nb8  1  0.334373  0.668221  0.499728  1
  Nb  Nb9  1  0.666164  0.331778  0.499728  1
  Cu  Cu10  1  0.002260  0.999998  0.498826  1
  Cu  Cu11  1  0.003123  0.999998  0.001663  1
  Sn  Sn12  1  0.378365  0.999997  0.244420  1
  Sn  Sn13  1  0.999371  0.617915  0.755154  1
  Sn  Sn14  1  0.000877  0.382212  0.244972  1
  Sn  Sn15  1  0.381448  0.382078  0.755160  1
  Sn  Sn16  1  0.618676  0.617798  0.244972  1
  Sb  Sb17  1  0.617536  0.000002  0.754733  1
