# generated using pymatgen
data_Zr6Ta2Ti2Ga12Rh7
_symmetry_space_group_name_H-M   'P 1'
_cell_length_a   8.82870131
_cell_length_b   8.82255125
_cell_length_c   8.82255173
_cell_angle_alpha   59.97854198
_cell_angle_beta   59.97693743
_cell_angle_gamma   59.97693738
_symmetry_Int_Tables_number   1
_chemical_formula_structural   Zr6Ta2Ti2Ga12Rh7
_chemical_formula_sum   'Zr6 Ta2 Ti2 Ga12 Rh7'
_cell_volume   485.67787665
_cell_formula_units_Z   1
loop_
 _symmetry_equiv_pos_site_id
 _symmetry_equiv_pos_as_xyz
  1  'x, y, z'
loop_
 _atom_site_type_symbol
 _atom_site_label
 _atom_site_symmetry_multiplicity
 _atom_site_fract_x
 _atom_site_fract_y
 _atom_site_fract_z
 _atom_site_occupancy
  Zr  Zr0  1  0.695134  0.694442  0.304923  1
  Zr  Zr1  1  0.305502  0.694442  0.304923  1
  Zr  Zr2  1  0.694696  0.305304  0.305304  1
  Zr  Zr3  1  0.305502  0.304923  0.694442  1
  Zr  Zr4  1  0.695134  0.304923  0.694442  1
  Zr  Zr5  1  0.304691  0.695309  0.695309  1
  Ta  Ta6  1  0.877952  0.877845  0.366252  1
  Ta  Ta7  1  0.877952  0.366252  0.877845  1
  Ti  Ti8  1  0.365891  0.878041  0.878041  1
  Ti  Ti9  1  0.878028  0.878041  0.878041  1
  Ga  Ga10  1  0.121642  0.118014  0.638702  1
  Ga  Ga11  1  0.121642  0.638702  0.118014  1
  Ga  Ga12  1  0.638296  0.119284  0.119284  1
  Ga  Ga13  1  0.123136  0.119284  0.119284  1
  Ga  Ga14  1  0.656918  0.660644  0.025519  1
  Ga  Ga15  1  0.656918  0.025519  0.660644  1
  Ga  Ga16  1  0.028865  0.658368  0.658368  1
  Ga  Ga17  1  0.654397  0.658368  0.658368  1
  Ga  Ga18  1  0.341441  0.342095  0.975025  1
  Ga  Ga19  1  0.341441  0.975025  0.342095  1
  Ga  Ga20  1  0.975458  0.341666  0.341666  1
  Ga  Ga21  1  0.341211  0.341666  0.341666  1
  Rh  Rh22  1  0.999534  0.000466  0.000466  1
  Rh  Rh23  1  0.995981  0.997072  0.502601  1
  Rh  Rh24  1  0.504346  0.997072  0.502601  1
  Rh  Rh25  1  0.995526  0.504474  0.504474  1
  Rh  Rh26  1  0.504346  0.502601  0.997072  1
  Rh  Rh27  1  0.995981  0.502601  0.997072  1
  Rh  Rh28  1  0.502445  0.997555  0.997555  1
