# generated using pymatgen
data_Y8Sc11Si16Mo
_symmetry_space_group_name_H-M   'P 1'
_cell_length_a   7.08303309
_cell_length_b   7.33528368
_cell_length_c   13.91172501
_cell_angle_alpha   90.16095792
_cell_angle_beta   89.69032899
_cell_angle_gamma   89.71231170
_symmetry_Int_Tables_number   1
_chemical_formula_structural   Y8Sc11Si16Mo
_chemical_formula_sum   'Y8 Sc11 Si16 Mo1'
_cell_volume   722.77580232
_cell_formula_units_Z   1
loop_
 _symmetry_equiv_pos_site_id
 _symmetry_equiv_pos_as_xyz
  1  'x, y, z'
loop_
 _atom_site_type_symbol
 _atom_site_label
 _atom_site_symmetry_multiplicity
 _atom_site_fract_x
 _atom_site_fract_y
 _atom_site_fract_z
 _atom_site_occupancy
  Y  Y0  1  0.011727  0.174600  0.097196  1
  Y  Y1  1  0.989328  0.825629  0.898788  1
  Y  Y2  1  0.487454  0.677489  0.899428  1
  Y  Y3  1  0.992891  0.829267  0.595771  1
  Y  Y4  1  0.512836  0.323707  0.096508  1
  Y  Y5  1  0.009809  0.175033  0.403609  1
  Y  Y6  1  0.507000  0.323771  0.409684  1
  Y  Y7  1  0.487628  0.675825  0.596156  1
  Sc  Sc8  1  0.163561  0.494947  0.744931  1
  Sc  Sc9  1  0.837733  0.498184  0.251876  1
  Sc  Sc10  1  0.337106  0.002625  0.252356  1
  Sc  Sc11  1  0.658097  0.002047  0.747161  1
  Sc  Sc12  1  0.665747  0.825701  0.378896  1
  Sc  Sc13  1  0.168664  0.678264  0.377909  1
  Sc  Sc14  1  0.669155  0.824179  0.124649  1
  Sc  Sc15  1  0.832747  0.323534  0.623874  1
  Sc  Sc16  1  0.332525  0.176705  0.874956  1
  Sc  Sc17  1  0.830349  0.322685  0.871885  1
  Sc  Sc18  1  0.170074  0.676776  0.125835  1
  Si  Si19  1  0.042700  0.120536  0.745209  1
  Si  Si20  1  0.963767  0.884889  0.251430  1
  Si  Si21  1  0.466902  0.617376  0.250923  1
  Si  Si22  1  0.531253  0.374993  0.745791  1
  Si  Si23  1  0.286680  0.880345  0.746097  1
  Si  Si24  1  0.711249  0.126849  0.250928  1
  Si  Si25  1  0.215481  0.373514  0.250742  1
  Si  Si26  1  0.784144  0.623925  0.746832  1
  Si  Si27  1  0.173955  0.451254  0.540849  1
  Si  Si28  1  0.843326  0.532483  0.460744  1
  Si  Si29  1  0.334177  0.969711  0.470913  1
  Si  Si30  1  0.845149  0.535315  0.038840  1
  Si  Si31  1  0.647016  0.035384  0.544801  1
  Si  Si32  1  0.154536  0.466289  0.959013  1
  Si  Si33  1  0.660793  0.035917  0.958799  1
  Si  Si34  1  0.341519  0.962954  0.038503  1
  Mo  Mo35  1  0.332925  0.177294  0.628123  1
