# generated using pymatgen
data_PrGa3Pd5
_symmetry_space_group_name_H-M   'P 1'
_cell_length_a   4.12013000
_cell_length_b   20.50118500
_cell_length_c   7.49776600
_cell_angle_alpha   90.00000000
_cell_angle_beta   90.00000000
_cell_angle_gamma   90.00000000
_symmetry_Int_Tables_number   1
_chemical_formula_structural   PrGa3Pd5
_chemical_formula_sum   'Pr4 Ga12 Pd20'
_cell_volume   633.31790465
_cell_formula_units_Z   4
loop_
 _symmetry_equiv_pos_site_id
 _symmetry_equiv_pos_as_xyz
  1  'x, y, z'
loop_
 _atom_site_type_symbol
 _atom_site_label
 _atom_site_symmetry_multiplicity
 _atom_site_fract_x
 _atom_site_fract_y
 _atom_site_fract_z
 _atom_site_occupancy
  Pr  Pr0  1  0.750000  0.642848  0.120550  1
  Pr  Pr1  1  0.250000  0.357152  0.879450  1
  Pr  Pr2  1  0.250000  0.857152  0.620550  1
  Pr  Pr3  1  0.750000  0.142848  0.379450  1
  Ga  Ga4  1  0.750000  0.737744  0.624836  1
  Ga  Ga5  1  0.250000  0.262256  0.375164  1
  Ga  Ga6  1  0.250000  0.762256  0.124836  1
  Ga  Ga7  1  0.750000  0.237744  0.875164  1
  Ga  Ga8  1  0.750000  0.924265  0.344689  1
  Ga  Ga9  1  0.250000  0.075735  0.655311  1
  Ga  Ga10  1  0.250000  0.575735  0.844689  1
  Ga  Ga11  1  0.750000  0.424265  0.155311  1
  Ga  Ga12  1  0.750000  0.915263  0.914554  1
  Ga  Ga13  1  0.250000  0.084737  0.085446  1
  Ga  Ga14  1  0.250000  0.584737  0.414554  1
  Ga  Ga15  1  0.750000  0.415263  0.585446  1
  Pd  Pd16  1  0.750000  0.799017  0.321761  1
  Pd  Pd17  1  0.250000  0.200983  0.678239  1
  Pd  Pd18  1  0.250000  0.700983  0.821761  1
  Pd  Pd19  1  0.750000  0.299017  0.178239  1
  Pd  Pd20  1  0.750000  0.993501  0.628899  1
  Pd  Pd21  1  0.250000  0.006499  0.371101  1
  Pd  Pd22  1  0.250000  0.506499  0.128899  1
  Pd  Pd23  1  0.750000  0.493501  0.871101  1
  Pd  Pd24  1  0.750000  0.514303  0.380107  1
  Pd  Pd25  1  0.250000  0.485697  0.619893  1
  Pd  Pd26  1  0.250000  0.985697  0.880107  1
  Pd  Pd27  1  0.750000  0.014303  0.119893  1
  Pd  Pd28  1  0.750000  0.794386  0.930077  1
  Pd  Pd29  1  0.250000  0.205614  0.069923  1
  Pd  Pd30  1  0.250000  0.705614  0.430077  1
  Pd  Pd31  1  0.750000  0.294386  0.569923  1
  Pd  Pd32  1  0.750000  0.615172  0.646375  1
  Pd  Pd33  1  0.250000  0.384827  0.353625  1
  Pd  Pd34  1  0.250000  0.884828  0.146375  1
  Pd  Pd35  1  0.750000  0.115172  0.853625  1
