# generated using pymatgen
data_Y3Er5In3Ru
_symmetry_space_group_name_H-M   'P 1'
_cell_length_a   10.34692600
_cell_length_b   10.34692484
_cell_length_c   7.07024300
_cell_angle_alpha   90.00000000
_cell_angle_beta   90.00000000
_cell_angle_gamma   119.99999733
_symmetry_Int_Tables_number   1
_chemical_formula_structural   Y3Er5In3Ru
_chemical_formula_sum   'Y6 Er10 In6 Ru2'
_cell_volume   655.52252756
_cell_formula_units_Z   2
loop_
 _symmetry_equiv_pos_site_id
 _symmetry_equiv_pos_as_xyz
  1  'x, y, z'
loop_
 _atom_site_type_symbol
 _atom_site_label
 _atom_site_symmetry_multiplicity
 _atom_site_fract_x
 _atom_site_fract_y
 _atom_site_fract_z
 _atom_site_occupancy
  Y  Y0  1  0.532219  0.064439  0.794660  1
  Y  Y1  1  0.935561  0.467781  0.794660  1
  Y  Y2  1  0.532219  0.467781  0.794660  1
  Y  Y3  1  0.467781  0.935561  0.294660  1
  Y  Y4  1  0.064439  0.532219  0.294660  1
  Y  Y5  1  0.467781  0.532219  0.294660  1
  Er  Er6  1  0.822787  0.645573  0.498856  1
  Er  Er7  1  0.354427  0.177213  0.498856  1
  Er  Er8  1  0.822787  0.177213  0.498856  1
  Er  Er9  1  0.177213  0.354427  0.998856  1
  Er  Er10  1  0.645573  0.822787  0.998856  1
  Er  Er11  1  0.177213  0.822787  0.998856  1
  Er  Er12  1  0.666667  0.333333  0.172340  1
  Er  Er13  1  0.333333  0.666667  0.672340  1
  Er  Er14  1  0.000000  0.000000  0.778724  1
  Er  Er15  1  0.000000  0.000000  0.278724  1
  In  In16  1  0.837239  0.674479  0.040760  1
  In  In17  1  0.325521  0.162761  0.040760  1
  In  In18  1  0.837239  0.162761  0.040760  1
  In  In19  1  0.162761  0.325521  0.540760  1
  In  In20  1  0.674479  0.837239  0.540760  1
  In  In21  1  0.162761  0.837239  0.540760  1
  Ru  Ru22  1  0.666667  0.333333  0.564060  1
  Ru  Ru23  1  0.333333  0.666667  0.064060  1
