# generated using pymatgen
data_TbYb2Ga3Ge2Pt
_symmetry_space_group_name_H-M   'P 1'
_cell_length_a   6.98573400
_cell_length_b   7.01408277
_cell_length_c   4.27933800
_cell_angle_alpha   90.00000000
_cell_angle_beta   90.00000000
_cell_angle_gamma   119.86638227
_symmetry_Int_Tables_number   1
_chemical_formula_structural   TbYb2Ga3Ge2Pt
_chemical_formula_sum   'Tb1 Yb2 Ga3 Ge2 Pt1'
_cell_volume   181.83325913
_cell_formula_units_Z   1
loop_
 _symmetry_equiv_pos_site_id
 _symmetry_equiv_pos_as_xyz
  1  'x, y, z'
loop_
 _atom_site_type_symbol
 _atom_site_label
 _atom_site_symmetry_multiplicity
 _atom_site_fract_x
 _atom_site_fract_y
 _atom_site_fract_z
 _atom_site_occupancy
  Tb  Tb0  1  0.418510  0.000000  0.000000  1
  Yb  Yb1  1  0.999918  0.418479  0.000000  1
  Yb  Yb2  1  0.581439  0.581521  0.000000  1
  Ga  Ga3  1  0.765291  0.000000  0.500000  1
  Ga  Ga4  1  0.235676  0.236165  0.500000  1
  Ga  Ga5  1  0.999512  0.763835  0.500000  1
  Ge  Ge6  1  0.663673  0.330548  0.500000  1
  Ge  Ge7  1  0.333125  0.669452  0.500000  1
  Pt  Pt8  1  0.002853  0.000000  0.000000  1
