# generated using pymatgen
data_LiTiRhSe4
_symmetry_space_group_name_H-M   'P 1'
_cell_length_a   7.27289487
_cell_length_b   7.27289475
_cell_length_c   6.07882600
_cell_angle_alpha   67.28108402
_cell_angle_beta   67.28109294
_cell_angle_gamma   29.24058198
_symmetry_Int_Tables_number   1
_chemical_formula_structural   LiTiRhSe4
_chemical_formula_sum   'Li1 Ti1 Rh1 Se4'
_cell_volume   144.01161675
_cell_formula_units_Z   1
loop_
 _symmetry_equiv_pos_site_id
 _symmetry_equiv_pos_as_xyz
  1  'x, y, z'
loop_
 _atom_site_type_symbol
 _atom_site_label
 _atom_site_symmetry_multiplicity
 _atom_site_fract_x
 _atom_site_fract_y
 _atom_site_fract_z
 _atom_site_occupancy
  Li  Li0  1  0.503234  0.503234  0.515783  1
  Ti  Ti1  1  0.753823  0.753823  0.188543  1
  Rh  Rh2  1  0.246014  0.246014  0.785095  1
  Se  Se3  1  0.379395  0.379395  0.970506  1
  Se  Se4  1  0.847661  0.847661  0.503283  1
  Se  Se5  1  0.148029  0.148029  0.511090  1
  Se  Se6  1  0.621843  0.621843  0.025700  1
