# generated using pymatgen
data_Np6Sc2HgSb9
_symmetry_space_group_name_H-M   'P 1'
_cell_length_a   9.25887500
_cell_length_b   9.25887392
_cell_length_c   6.28790700
_cell_angle_alpha   90.00000000
_cell_angle_beta   90.00000000
_cell_angle_gamma   120.00000029
_symmetry_Int_Tables_number   1
_chemical_formula_structural   Np6Sc2HgSb9
_chemical_formula_sum   'Np6 Sc2 Hg1 Sb9'
_cell_volume   466.82395236
_cell_formula_units_Z   1
loop_
 _symmetry_equiv_pos_site_id
 _symmetry_equiv_pos_as_xyz
  1  'x, y, z'
loop_
 _atom_site_type_symbol
 _atom_site_label
 _atom_site_symmetry_multiplicity
 _atom_site_fract_x
 _atom_site_fract_y
 _atom_site_fract_z
 _atom_site_occupancy
  Np  Np0  1  0.009810  0.621185  0.238147  1
  Np  Np1  1  0.378815  0.388624  0.238147  1
  Np  Np2  1  0.378815  0.990190  0.761853  1
  Np  Np3  1  0.611376  0.621185  0.761853  1
  Np  Np4  1  0.611376  0.990190  0.238147  1
  Np  Np5  1  0.009810  0.388624  0.761853  1
  Sc  Sc6  1  0.000000  0.000000  0.000000  1
  Sc  Sc7  1  0.000000  0.000000  0.500000  1
  Hg  Hg8  1  0.666667  0.333333  0.500000  1
  Sb  Sb9  1  0.990876  0.266256  0.258127  1
  Sb  Sb10  1  0.333333  0.666667  0.500000  1
  Sb  Sb11  1  0.666667  0.333333  0.000000  1
  Sb  Sb12  1  0.333333  0.666667  0.000000  1
  Sb  Sb13  1  0.275381  0.266256  0.741873  1
  Sb  Sb14  1  0.733744  0.009124  0.741873  1
  Sb  Sb15  1  0.990876  0.724619  0.741873  1
  Sb  Sb16  1  0.733744  0.724619  0.258127  1
  Sb  Sb17  1  0.275381  0.009124  0.258127  1
