# generated using pymatgen
data_Lu3Zn3CoCu2
_symmetry_space_group_name_H-M   'P 1'
_cell_length_a   7.01182700
_cell_length_b   7.01182698
_cell_length_c   3.68819300
_cell_angle_alpha   90.00000000
_cell_angle_beta   90.00000000
_cell_angle_gamma   120.00000480
_symmetry_Int_Tables_number   1
_chemical_formula_structural   Lu3Zn3CoCu2
_chemical_formula_sum   'Lu3 Zn3 Co1 Cu2'
_cell_volume   157.03867909
_cell_formula_units_Z   1
loop_
 _symmetry_equiv_pos_site_id
 _symmetry_equiv_pos_as_xyz
  1  'x, y, z'
loop_
 _atom_site_type_symbol
 _atom_site_label
 _atom_site_symmetry_multiplicity
 _atom_site_fract_x
 _atom_site_fract_y
 _atom_site_fract_z
 _atom_site_occupancy
  Lu  Lu0  1  0.422087  0.017421  0.000000  1
  Lu  Lu1  1  0.982579  0.404666  0.000000  1
  Lu  Lu2  1  0.595334  0.577913  0.000000  1
  Zn  Zn3  1  0.750810  0.006371  0.499999  1
  Zn  Zn4  1  0.255560  0.249189  0.499999  1
  Zn  Zn5  1  0.993629  0.744440  0.499999  1
  Co  Co6  1  0.666666  0.333333  0.499999  1
  Cu  Cu7  1  0.000000  0.000000  0.000000  1
  Cu  Cu8  1  0.333333  0.666666  0.499999  1
