# generated using pymatgen
data_Na2OsPbO6
_symmetry_space_group_name_H-M   'P 1'
_cell_length_a   5.81562000
_cell_length_b   5.81561893
_cell_length_c   10.32737700
_cell_angle_alpha   90.00000000
_cell_angle_beta   90.00000000
_cell_angle_gamma   119.99999471
_symmetry_Int_Tables_number   1
_chemical_formula_structural   Na2OsPbO6
_chemical_formula_sum   'Na4 Os2 Pb2 O12'
_cell_volume   302.49113324
_cell_formula_units_Z   2
loop_
 _symmetry_equiv_pos_site_id
 _symmetry_equiv_pos_as_xyz
  1  'x, y, z'
loop_
 _atom_site_type_symbol
 _atom_site_label
 _atom_site_symmetry_multiplicity
 _atom_site_fract_x
 _atom_site_fract_y
 _atom_site_fract_z
 _atom_site_occupancy
  Na  Na0  1  0.666666  0.333333  0.053437  1
  Na  Na1  1  0.666666  0.333333  0.446563  1
  Na  Na2  1  0.333334  0.666667  0.553437  1
  Na  Na3  1  0.333334  0.666667  0.946563  1
  Os  Os4  1  0.333334  0.666667  0.250000  1
  Os  Os5  1  0.666666  0.333333  0.750000  1
  Pb  Pb6  1  0.000000  0.000000  0.250000  1
  Pb  Pb7  1  0.000000  0.000000  0.750000  1
  O  O8  1  0.328531  0.397939  0.144120  1
  O  O9  1  0.069408  0.671469  0.144120  1
  O  O10  1  0.602061  0.930592  0.144120  1
  O  O11  1  0.069408  0.397939  0.355881  1
  O  O12  1  0.602061  0.671469  0.355881  1
  O  O13  1  0.328531  0.930592  0.355881  1
  O  O14  1  0.671469  0.069408  0.644120  1
  O  O15  1  0.397938  0.328531  0.644120  1
  O  O16  1  0.930592  0.602061  0.644120  1
  O  O17  1  0.397939  0.069408  0.855881  1
  O  O18  1  0.930592  0.328531  0.855881  1
  O  O19  1  0.671469  0.602061  0.855881  1
