# generated using pymatgen
data_Pr17Lu3Si15Ir
_symmetry_space_group_name_H-M   'P 1'
_cell_length_a   7.89636120
_cell_length_b   7.86202577
_cell_length_c   15.17415000
_cell_angle_alpha   90.08613290
_cell_angle_beta   89.78192122
_cell_angle_gamma   90.17582830
_symmetry_Int_Tables_number   1
_chemical_formula_structural   Pr17Lu3Si15Ir
_chemical_formula_sum   'Pr17 Lu3 Si15 Ir1'
_cell_volume   942.02009555
_cell_formula_units_Z   1
loop_
 _symmetry_equiv_pos_site_id
 _symmetry_equiv_pos_as_xyz
  1  'x, y, z'
loop_
 _atom_site_type_symbol
 _atom_site_label
 _atom_site_symmetry_multiplicity
 _atom_site_fract_x
 _atom_site_fract_y
 _atom_site_fract_z
 _atom_site_occupancy
  Pr  Pr0  1  0.696590  0.687381  0.500118  1
  Pr  Pr1  1  0.374962  0.010876  0.447473  1
  Pr  Pr2  1  0.488164  0.878886  0.699631  1
  Pr  Pr3  1  0.511935  0.123364  0.196556  1
  Pr  Pr4  1  0.876629  0.486466  0.300072  1
  Pr  Pr5  1  0.124326  0.505054  0.800724  1
  Pr  Pr6  1  0.625219  0.988924  0.947968  1
  Pr  Pr7  1  0.004882  0.373921  0.553549  1
  Pr  Pr8  1  0.988163  0.625044  0.052147  1
  Pr  Pr9  1  0.133463  0.985669  0.874329  1
  Pr  Pr10  1  0.519892  0.631090  0.125979  1
  Pr  Pr11  1  0.470433  0.363607  0.631210  1
  Pr  Pr12  1  0.627510  0.517291  0.873860  1
  Pr  Pr13  1  0.373116  0.479815  0.371380  1
  Pr  Pr14  1  0.874792  0.022717  0.377127  1
  Pr  Pr15  1  0.980512  0.125826  0.122083  1
  Pr  Pr16  1  0.026624  0.882409  0.624624  1
  Lu  Lu17  1  0.310999  0.309561  0.999811  1
  Lu  Lu18  1  0.188518  0.810100  0.249956  1
  Lu  Lu19  1  0.823384  0.189810  0.749341  1
  Si  Si20  1  0.329679  0.689604  0.953960  1
  Si  Si21  1  0.663403  0.303629  0.454679  1
  Si  Si22  1  0.691129  0.330273  0.046521  1
  Si  Si23  1  0.307432  0.670329  0.545281  1
  Si  Si24  1  0.811798  0.829805  0.205295  1
  Si  Si25  1  0.171275  0.189879  0.293199  1
  Si  Si26  1  0.830528  0.808750  0.796821  1
  Si  Si27  1  0.286540  0.922781  0.062600  1
  Si  Si28  1  0.574875  0.787730  0.309560  1
  Si  Si29  1  0.428118  0.209329  0.816504  1
  Si  Si30  1  0.782960  0.578469  0.690945  1
  Si  Si31  1  0.213660  0.423445  0.185256  1
  Si  Si32  1  0.705715  0.076436  0.563378  1
  Si  Si33  1  0.920087  0.285474  0.938141  1
  Si  Si34  1  0.085022  0.717875  0.435409  1
  Ir  Ir35  1  0.177663  0.178377  0.704520  1
