# generated using pymatgen
data_Ho3ErTm4(WO6)4
_symmetry_space_group_name_H-M   'P 1'
_cell_length_a   5.35876300
_cell_length_b   7.65089037
_cell_length_c   11.37641925
_cell_angle_alpha   75.39105946
_cell_angle_beta   90.00000000
_cell_angle_gamma   90.00000000
_symmetry_Int_Tables_number   1
_chemical_formula_structural   Ho3ErTm4(WO6)4
_chemical_formula_sum   'Ho3 Er1 Tm4 W4 O24'
_cell_volume   451.34570732
_cell_formula_units_Z   1
loop_
 _symmetry_equiv_pos_site_id
 _symmetry_equiv_pos_as_xyz
  1  'x, y, z'
loop_
 _atom_site_type_symbol
 _atom_site_label
 _atom_site_symmetry_multiplicity
 _atom_site_fract_x
 _atom_site_fract_y
 _atom_site_fract_z
 _atom_site_occupancy
  Ho  Ho0  1  0.259796  0.000000  0.250000  1
  Ho  Ho1  1  0.684092  0.500000  0.750000  1
  Ho  Ho2  1  0.315987  0.500000  0.250000  1
  Er  Er3  1  0.740128  0.000000  0.750000  1
  Tm  Tm4  1  0.184828  0.795101  0.578725  1
  Tm  Tm5  1  0.815092  0.795044  0.078599  1
  Tm  Tm6  1  0.184828  0.204899  0.921275  1
  Tm  Tm7  1  0.815092  0.204956  0.421401  1
  W  W8  1  0.255336  0.723073  0.886082  1
  W  W9  1  0.744704  0.722845  0.386181  1
  W  W10  1  0.255336  0.276927  0.613918  1
  W  W11  1  0.744704  0.277155  0.113819  1
  O  O12  1  0.042391  0.940788  0.896119  1
  O  O13  1  0.534826  0.847392  0.931710  1
  O  O14  1  0.956922  0.940665  0.396459  1
  O  O15  1  0.459419  0.790742  0.726522  1
  O  O16  1  0.465368  0.847124  0.431994  1
  O  O17  1  0.981279  0.711271  0.770447  1
  O  O18  1  0.541189  0.790260  0.226502  1
  O  O19  1  0.853347  0.634154  0.549843  1
  O  O20  1  0.361027  0.487709  0.886882  1
  O  O21  1  0.018630  0.711025  0.270470  1
  O  O22  1  0.361027  0.512291  0.613118  1
  O  O23  1  0.853347  0.365846  0.950157  1
  O  O24  1  0.146731  0.634254  0.049821  1
  O  O25  1  0.638908  0.487664  0.386936  1
  O  O26  1  0.981279  0.288729  0.729553  1
  O  O27  1  0.638908  0.512336  0.113064  1
  O  O28  1  0.146731  0.365746  0.450179  1
  O  O29  1  0.459419  0.209258  0.773478  1
  O  O30  1  0.018630  0.288975  0.229530  1
  O  O31  1  0.534826  0.152608  0.568290  1
  O  O32  1  0.541189  0.209740  0.273498  1
  O  O33  1  0.042391  0.059212  0.603881  1
  O  O34  1  0.465368  0.152876  0.068006  1
  O  O35  1  0.956922  0.059335  0.103541  1
