# generated using pymatgen
data_Zr3Ti3BeP2
_symmetry_space_group_name_H-M   'P 1'
_cell_length_a   6.90757900
_cell_length_b   6.90757921
_cell_length_c   3.61036300
_cell_angle_alpha   90.00000000
_cell_angle_beta   90.00000000
_cell_angle_gamma   119.99998463
_symmetry_Int_Tables_number   1
_chemical_formula_structural   Zr3Ti3BeP2
_chemical_formula_sum   'Zr3 Ti3 Be1 P2'
_cell_volume   149.18779767
_cell_formula_units_Z   1
loop_
 _symmetry_equiv_pos_site_id
 _symmetry_equiv_pos_as_xyz
  1  'x, y, z'
loop_
 _atom_site_type_symbol
 _atom_site_label
 _atom_site_symmetry_multiplicity
 _atom_site_fract_x
 _atom_site_fract_y
 _atom_site_fract_z
 _atom_site_occupancy
  Zr  Zr0  1  0.000000  0.589616  0.500000  1
  Zr  Zr1  1  0.410384  0.410384  0.500000  1
  Zr  Zr2  1  0.589616  0.000000  0.500000  1
  Ti  Ti3  1  0.239888  0.000000  0.000000  1
  Ti  Ti4  1  0.760112  0.760112  0.000000  1
  Ti  Ti5  1  0.000000  0.239888  0.000000  1
  Be  Be6  1  0.000000  0.000000  0.500000  1
  P  P7  1  0.666667  0.333333  0.000000  1
  P  P8  1  0.333333  0.666667  0.000000  1
