# generated using pymatgen
data_La3Ge2BRh6
_symmetry_space_group_name_H-M   'P 1'
_cell_length_a   5.67493500
_cell_length_b   5.67493486
_cell_length_c   15.21096800
_cell_angle_alpha   90.00000000
_cell_angle_beta   90.00000000
_cell_angle_gamma   119.99999500
_symmetry_Int_Tables_number   1
_chemical_formula_structural   La3Ge2BRh6
_chemical_formula_sum   'La6 Ge4 B2 Rh12'
_cell_volume   424.23771849
_cell_formula_units_Z   2
loop_
 _symmetry_equiv_pos_site_id
 _symmetry_equiv_pos_as_xyz
  1  'x, y, z'
loop_
 _atom_site_type_symbol
 _atom_site_label
 _atom_site_symmetry_multiplicity
 _atom_site_fract_x
 _atom_site_fract_y
 _atom_site_fract_z
 _atom_site_occupancy
  La  La0  1  0.666667  0.333333  0.969799  1
  La  La1  1  0.666667  0.333333  0.530201  1
  La  La2  1  0.333333  0.666667  0.047030  1
  La  La3  1  0.666667  0.333333  0.750000  1
  La  La4  1  0.333333  0.666667  0.452970  1
  La  La5  1  0.333333  0.666667  0.250000  1
  Ge  Ge6  1  0.000000  0.000000  0.486935  1
  Ge  Ge7  1  0.000000  0.000000  0.750000  1
  Ge  Ge8  1  0.333333  0.666667  0.750000  1
  Ge  Ge9  1  0.000000  0.000000  0.013065  1
  B  B10  1  0.666667  0.333333  0.250000  1
  B  B11  1  0.000000  0.000000  0.250000  1
  Rh  Rh12  1  0.166433  0.332867  0.875589  1
  Rh  Rh13  1  0.166433  0.332867  0.624411  1
  Rh  Rh14  1  0.667133  0.833567  0.875589  1
  Rh  Rh15  1  0.331210  0.165605  0.346173  1
  Rh  Rh16  1  0.834395  0.668790  0.346173  1
  Rh  Rh17  1  0.834395  0.165605  0.346173  1
  Rh  Rh18  1  0.834395  0.165605  0.153827  1
  Rh  Rh19  1  0.331210  0.165605  0.153827  1
  Rh  Rh20  1  0.667133  0.833567  0.624411  1
  Rh  Rh21  1  0.166433  0.833567  0.624411  1
  Rh  Rh22  1  0.834395  0.668790  0.153827  1
  Rh  Rh23  1  0.166433  0.833567  0.875589  1
