# generated using pymatgen
data_CeThAl20(FeRh)2
_symmetry_space_group_name_H-M   'P 1'
_cell_length_a   6.83218929
_cell_length_b   6.83218784
_cell_length_c   9.11794830
_cell_angle_alpha   90.16657918
_cell_angle_beta   90.16657759
_cell_angle_gamma   97.60412878
_symmetry_Int_Tables_number   1
_chemical_formula_structural   CeThAl20(FeRh)2
_chemical_formula_sum   'Ce1 Th1 Al20 Fe2 Rh2'
_cell_volume   421.86792670
_cell_formula_units_Z   1
loop_
 _symmetry_equiv_pos_site_id
 _symmetry_equiv_pos_as_xyz
  1  'x, y, z'
loop_
 _atom_site_type_symbol
 _atom_site_label
 _atom_site_symmetry_multiplicity
 _atom_site_fract_x
 _atom_site_fract_y
 _atom_site_fract_z
 _atom_site_occupancy
  Ce  Ce0  1  0.876821  0.123179  0.750000  1
  Th  Th1  1  0.124883  0.875117  0.250000  1
  Al  Al2  1  0.519739  0.776684  0.744717  1
  Al  Al3  1  0.481625  0.224754  0.255294  1
  Al  Al4  1  0.594005  0.862805  0.253396  1
  Al  Al5  1  0.779084  0.772542  0.001635  1
  Al  Al6  1  0.162920  0.845425  0.602147  1
  Al  Al7  1  0.220435  0.227761  0.996676  1
  Al  Al8  1  0.137195  0.405995  0.246604  1
  Al  Al9  1  0.626863  0.380209  0.949378  1
  Al  Al10  1  0.844456  0.163578  0.100516  1
  Al  Al11  1  0.381158  0.626118  0.450045  1
  Al  Al12  1  0.154575  0.837080  0.897853  1
  Al  Al13  1  0.223316  0.480261  0.755283  1
  Al  Al14  1  0.373882  0.618842  0.049955  1
  Al  Al15  1  0.836422  0.155544  0.399484  1
  Al  Al16  1  0.619791  0.373137  0.550622  1
  Al  Al17  1  0.406907  0.137005  0.746616  1
  Al  Al18  1  0.775246  0.518375  0.244706  1
  Al  Al19  1  0.772239  0.779565  0.503324  1
  Al  Al20  1  0.227458  0.220916  0.498365  1
  Al  Al21  1  0.862995  0.593093  0.753384  1
  Fe  Fe22  1  0.000205  0.501397  0.001551  1
  Fe  Fe23  1  0.498603  0.999795  0.498449  1
  Rh  Rh24  1  0.000150  0.500972  0.498864  1
  Rh  Rh25  1  0.499028  0.999850  0.001136  1
