# generated using pymatgen
data_Er2B10Ir
_symmetry_space_group_name_H-M   'P 1'
_cell_length_a   4.16292600
_cell_length_b   5.66669400
_cell_length_c   11.32303600
_cell_angle_alpha   90.00000000
_cell_angle_beta   90.00000000
_cell_angle_gamma   90.00000000
_symmetry_Int_Tables_number   1
_chemical_formula_structural   Er2B10Ir
_chemical_formula_sum   'Er4 B20 Ir2'
_cell_volume   267.11073387
_cell_formula_units_Z   2
loop_
 _symmetry_equiv_pos_site_id
 _symmetry_equiv_pos_as_xyz
  1  'x, y, z'
loop_
 _atom_site_type_symbol
 _atom_site_label
 _atom_site_symmetry_multiplicity
 _atom_site_fract_x
 _atom_site_fract_y
 _atom_site_fract_z
 _atom_site_occupancy
  Er  Er0  1  0.500000  0.204698  0.365737  1
  Er  Er1  1  0.500000  0.795302  0.634263  1
  Er  Er2  1  0.500000  0.295302  0.865737  1
  Er  Er3  1  0.500000  0.704698  0.134263  1
  B  B4  1  0.000000  0.381392  0.042475  1
  B  B5  1  0.000000  0.618608  0.957525  1
  B  B6  1  0.000000  0.118608  0.542475  1
  B  B7  1  0.000000  0.881392  0.457525  1
  B  B8  1  0.000000  0.363147  0.197349  1
  B  B9  1  0.000000  0.636853  0.802651  1
  B  B10  1  0.000000  0.136853  0.697349  1
  B  B11  1  0.000000  0.863147  0.302651  1
  B  B12  1  0.000000  0.054675  0.193117  1
  B  B13  1  0.000000  0.945325  0.806883  1
  B  B14  1  0.000000  0.445325  0.693117  1
  B  B15  1  0.000000  0.554675  0.306883  1
  B  B16  1  0.301831  0.219810  0.119556  1
  B  B17  1  0.698169  0.780190  0.880444  1
  B  B18  1  0.301831  0.780190  0.880444  1
  B  B19  1  0.698169  0.280190  0.619556  1
  B  B20  1  0.698169  0.219810  0.119556  1
  B  B21  1  0.301831  0.719810  0.380444  1
  B  B22  1  0.698169  0.719810  0.380444  1
  B  B23  1  0.301831  0.280190  0.619556  1
  Ir  Ir24  1  0.000000  0.000000  0.000000  1
  Ir  Ir25  1  0.000000  0.500000  0.500000  1
