# generated using pymatgen
data_KSrTcN3
_symmetry_space_group_name_H-M   'P 1'
_cell_length_a   6.47100129
_cell_length_b   6.47100110
_cell_length_c   12.78105126
_cell_angle_alpha   90.00813357
_cell_angle_beta   90.00813132
_cell_angle_gamma   125.89679656
_symmetry_Int_Tables_number   1
_chemical_formula_structural   KSrTcN3
_chemical_formula_sum   'K4 Sr4 Tc4 N12'
_cell_volume   433.54525310
_cell_formula_units_Z   4
loop_
 _symmetry_equiv_pos_site_id
 _symmetry_equiv_pos_as_xyz
  1  'x, y, z'
loop_
 _atom_site_type_symbol
 _atom_site_label
 _atom_site_symmetry_multiplicity
 _atom_site_fract_x
 _atom_site_fract_y
 _atom_site_fract_z
 _atom_site_occupancy
  K  K0  1  0.961753  0.552522  0.362144  1
  K  K1  1  0.447478  0.038247  0.137856  1
  K  K2  1  0.038247  0.447478  0.637856  1
  K  K3  1  0.552522  0.961753  0.862144  1
  Sr  Sr4  1  0.139182  0.343144  0.085920  1
  Sr  Sr5  1  0.656856  0.860818  0.414080  1
  Sr  Sr6  1  0.860818  0.656856  0.914080  1
  Sr  Sr7  1  0.343144  0.139182  0.585920  1
  Tc  Tc8  1  0.769799  0.725231  0.160880  1
  Tc  Tc9  1  0.274769  0.230201  0.339120  1
  Tc  Tc10  1  0.230201  0.274769  0.839120  1
  Tc  Tc11  1  0.725231  0.769799  0.660880  1
  N  N12  1  0.477797  0.522203  0.250000  1
  N  N13  1  0.522203  0.477797  0.750000  1
  N  N14  1  0.911322  0.569574  0.119109  1
  N  N15  1  0.430426  0.088678  0.380891  1
  N  N16  1  0.088678  0.430426  0.880891  1
  N  N17  1  0.569574  0.911322  0.619109  1
  N  N18  1  0.830806  0.686330  0.547373  1
  N  N19  1  0.313670  0.169194  0.952627  1
  N  N20  1  0.169194  0.313670  0.452627  1
  N  N21  1  0.686330  0.830806  0.047373  1
  N  N22  1  0.988944  0.011056  0.250000  1
  N  N23  1  0.011056  0.988944  0.750000  1
