# generated using pymatgen
data_Ho3ErGa18NiIr5
_symmetry_space_group_name_H-M   'P 1'
_cell_length_a   7.57486207
_cell_length_b   7.57509074
_cell_length_c   9.45424004
_cell_angle_alpha   90.20319210
_cell_angle_beta   90.20377834
_cell_angle_gamma   119.96540560
_symmetry_Int_Tables_number   1
_chemical_formula_structural   Ho3ErGa18NiIr5
_chemical_formula_sum   'Ho3 Er1 Ga18 Ni1 Ir5'
_cell_volume   469.95921379
_cell_formula_units_Z   1
loop_
 _symmetry_equiv_pos_site_id
 _symmetry_equiv_pos_as_xyz
  1  'x, y, z'
loop_
 _atom_site_type_symbol
 _atom_site_label
 _atom_site_symmetry_multiplicity
 _atom_site_fract_x
 _atom_site_fract_y
 _atom_site_fract_z
 _atom_site_occupancy
  Ho  Ho0  1  0.996817  0.667486  0.750171  1
  Ho  Ho1  1  0.003187  0.332521  0.249825  1
  Ho  Ho2  1  0.667483  0.996815  0.750172  1
  Er  Er3  1  0.332510  0.003185  0.249839  1
  Ga  Ga4  1  0.122715  0.122709  0.745450  1
  Ga  Ga5  1  0.877374  0.877327  0.254547  1
  Ga  Ga6  1  0.998967  0.330292  0.580134  1
  Ga  Ga7  1  0.001126  0.669798  0.419826  1
  Ga  Ga8  1  0.001207  0.666554  0.080723  1
  Ga  Ga9  1  0.333541  0.998878  0.919379  1
  Ga  Ga10  1  0.998890  0.333543  0.919314  1
  Ga  Ga11  1  0.666368  0.001112  0.080721  1
  Ga  Ga12  1  0.669627  0.001031  0.419822  1
  Ga  Ga13  1  0.330287  0.998956  0.580074  1
  Ga  Ga14  1  0.332296  0.332214  0.065290  1
  Ga  Ga15  1  0.667706  0.667712  0.934748  1
  Ga  Ga16  1  0.672137  0.672138  0.564993  1
  Ga  Ga17  1  0.327869  0.327785  0.434965  1
  Ga  Ga18  1  0.338686  0.546061  0.749539  1
  Ga  Ga19  1  0.661264  0.453852  0.250457  1
  Ga  Ga20  1  0.546058  0.338676  0.749537  1
  Ga  Ga21  1  0.453914  0.661354  0.250460  1
  Ni  Ni22  1  0.000011  0.000004  0.499991  1
  Ir  Ir23  1  0.671894  0.328036  0.499963  1
  Ir  Ir24  1  0.328071  0.671948  0.499969  1
  Ir  Ir25  1  0.328216  0.671783  0.000032  1
  Ir  Ir26  1  0.671756  0.328207  0.000031  1
  Ir  Ir27  1  0.000023  0.000023  0.000031  1
