# generated using pymatgen
data_Mn3HgSe6
_symmetry_space_group_name_H-M   'P 1'
_cell_length_a   3.45091200
_cell_length_b   3.45091247
_cell_length_c   23.08699300
_cell_angle_alpha   90.00000000
_cell_angle_beta   90.00000000
_cell_angle_gamma   119.99999550
_symmetry_Int_Tables_number   1
_chemical_formula_structural   Mn3HgSe6
_chemical_formula_sum   'Mn3 Hg1 Se6'
_cell_volume   238.10353933
_cell_formula_units_Z   1
loop_
 _symmetry_equiv_pos_site_id
 _symmetry_equiv_pos_as_xyz
  1  'x, y, z'
loop_
 _atom_site_type_symbol
 _atom_site_label
 _atom_site_symmetry_multiplicity
 _atom_site_fract_x
 _atom_site_fract_y
 _atom_site_fract_z
 _atom_site_occupancy
  Mn  Mn0  1  0.000000  0.000000  0.000000  1
  Mn  Mn1  1  0.000000  0.000000  0.283329  1
  Mn  Mn2  1  0.000000  0.000000  0.716671  1
  Hg  Hg3  1  0.000000  0.000000  0.500000  1
  Se  Se4  1  0.333333  0.666666  0.062740  1
  Se  Se5  1  0.666667  0.333333  0.220460  1
  Se  Se6  1  0.333333  0.666666  0.346515  1
  Se  Se7  1  0.666667  0.333333  0.653485  1
  Se  Se8  1  0.333333  0.666666  0.779540  1
  Se  Se9  1  0.666667  0.333333  0.937260  1
