# generated using pymatgen
data_Pr6CdSnNO
_symmetry_space_group_name_H-M   'P 1'
_cell_length_a   7.14152829
_cell_length_b   7.14152768
_cell_length_c   7.14152700
_cell_angle_alpha   59.99999852
_cell_angle_beta   60.00000132
_cell_angle_gamma   60.00000343
_symmetry_Int_Tables_number   1
_chemical_formula_structural   Pr6CdSnNO
_chemical_formula_sum   'Pr6 Cd1 Sn1 N1 O1'
_cell_volume   257.54811754
_cell_formula_units_Z   1
loop_
 _symmetry_equiv_pos_site_id
 _symmetry_equiv_pos_as_xyz
  1  'x, y, z'
loop_
 _atom_site_type_symbol
 _atom_site_label
 _atom_site_symmetry_multiplicity
 _atom_site_fract_x
 _atom_site_fract_y
 _atom_site_fract_z
 _atom_site_occupancy
  Pr  Pr0  1  0.752345  0.247656  0.247656  1
  Pr  Pr1  1  0.752344  0.752344  0.247657  1
  Pr  Pr2  1  0.247656  0.752345  0.247656  1
  Pr  Pr3  1  0.247657  0.752344  0.752344  1
  Pr  Pr4  1  0.247656  0.247656  0.752345  1
  Pr  Pr5  1  0.752344  0.247657  0.752344  1
  Cd  Cd6  1  0.250000  0.250000  0.250000  1
  Sn  Sn7  1  0.750000  0.750000  0.750000  1
  N  N8  1  0.000000  0.000000  0.000000  1
  O  O9  1  0.500000  0.500000  0.500000  1
