# generated using pymatgen
data_La5P12Ir16Ru3
_symmetry_space_group_name_H-M   'P 1'
_cell_length_a   12.80270200
_cell_length_b   12.80270322
_cell_length_c   4.05650400
_cell_angle_alpha   90.00000000
_cell_angle_beta   90.00000000
_cell_angle_gamma   120.00000202
_symmetry_Int_Tables_number   1
_chemical_formula_structural   La5P12Ir16Ru3
_chemical_formula_sum   'La5 P12 Ir16 Ru3'
_cell_volume   575.81880839
_cell_formula_units_Z   1
loop_
 _symmetry_equiv_pos_site_id
 _symmetry_equiv_pos_as_xyz
  1  'x, y, z'
loop_
 _atom_site_type_symbol
 _atom_site_label
 _atom_site_symmetry_multiplicity
 _atom_site_fract_x
 _atom_site_fract_y
 _atom_site_fract_z
 _atom_site_occupancy
  La  La0  1  0.000000  0.815097  0.500000  1
  La  La1  1  0.184903  0.184903  0.500000  1
  La  La2  1  0.815097  0.000000  0.500000  1
  La  La3  1  0.333333  0.666667  0.000000  1
  La  La4  1  0.666667  0.333333  0.000000  1
  P  P5  1  0.000000  0.184509  0.000000  1
  P  P6  1  0.815491  0.815491  0.000000  1
  P  P7  1  0.184509  0.000000  0.000000  1
  P  P8  1  0.521698  0.691968  0.500000  1
  P  P9  1  0.308032  0.829730  0.500000  1
  P  P10  1  0.170270  0.478302  0.500000  1
  P  P11  1  0.478302  0.170270  0.500000  1
  P  P12  1  0.691968  0.521698  0.500000  1
  P  P13  1  0.829730  0.308032  0.500000  1
  P  P14  1  0.000000  0.637211  0.000000  1
  P  P15  1  0.362789  0.362789  0.000000  1
  P  P16  1  0.637211  0.000000  0.000000  1
  Ir  Ir17  1  0.620233  0.801722  0.000000  1
  Ir  Ir18  1  0.198278  0.818511  0.000000  1
  Ir  Ir19  1  0.181489  0.379767  0.000000  1
  Ir  Ir20  1  0.379767  0.181489  0.000000  1
  Ir  Ir21  1  0.801722  0.620233  0.000000  1
  Ir  Ir22  1  0.818511  0.198278  0.000000  1
  Ir  Ir23  1  0.506989  0.872082  0.500000  1
  Ir  Ir24  1  0.127918  0.634908  0.500000  1
  Ir  Ir25  1  0.365092  0.493011  0.500000  1
  Ir  Ir26  1  0.493011  0.365092  0.500000  1
  Ir  Ir27  1  0.872082  0.506989  0.500000  1
  Ir  Ir28  1  0.634908  0.127918  0.500000  1
  Ir  Ir29  1  0.000000  0.000000  0.000000  1
  Ir  Ir30  1  0.000000  0.458481  0.000000  1
  Ir  Ir31  1  0.541519  0.541519  0.000000  1
  Ir  Ir32  1  0.458481  0.000000  0.000000  1
  Ru  Ru33  1  0.000000  0.288239  0.500000  1
  Ru  Ru34  1  0.711761  0.711761  0.500000  1
  Ru  Ru35  1  0.288239  0.000000  0.500000  1
