# generated using pymatgen
data_Y9Ho6Lu5(CoBi2)4
_symmetry_space_group_name_H-M   'P 1'
_cell_length_a   7.90976540
_cell_length_b   8.87452390
_cell_length_c   12.40582249
_cell_angle_alpha   89.89911251
_cell_angle_beta   90.05826728
_cell_angle_gamma   90.03735170
_symmetry_Int_Tables_number   1
_chemical_formula_structural   Y9Ho6Lu5(CoBi2)4
_chemical_formula_sum   'Y9 Ho6 Lu5 Co4 Bi8'
_cell_volume   870.82971356
_cell_formula_units_Z   1
loop_
 _symmetry_equiv_pos_site_id
 _symmetry_equiv_pos_as_xyz
  1  'x, y, z'
loop_
 _atom_site_type_symbol
 _atom_site_label
 _atom_site_symmetry_multiplicity
 _atom_site_fract_x
 _atom_site_fract_y
 _atom_site_fract_z
 _atom_site_occupancy
  Y  Y0  1  0.349535  0.749456  0.699983  1
  Y  Y1  1  0.650157  0.250243  0.299467  1
  Y  Y2  1  0.848732  0.250805  0.799706  1
  Y  Y3  1  0.150956  0.749358  0.200361  1
  Y  Y4  1  0.881678  0.748592  0.810610  1
  Y  Y5  1  0.118800  0.251525  0.189285  1
  Y  Y6  1  0.380465  0.250356  0.688627  1
  Y  Y7  1  0.617325  0.749247  0.311645  1
  Y  Y8  1  0.054029  0.749227  0.497037  1
  Ho  Ho9  1  0.675872  0.964201  0.562728  1
  Ho  Ho10  1  0.823579  0.963085  0.062476  1
  Ho  Ho11  1  0.176132  0.036746  0.937535  1
  Ho  Ho12  1  0.947358  0.251259  0.502344  1
  Ho  Ho13  1  0.553165  0.251697  0.002633  1
  Ho  Ho14  1  0.446383  0.748208  0.997395  1
  Lu  Lu15  1  0.671211  0.536698  0.562352  1
  Lu  Lu16  1  0.329060  0.462142  0.437694  1
  Lu  Lu17  1  0.171231  0.461769  0.937928  1
  Lu  Lu18  1  0.328515  0.036981  0.437962  1
  Lu  Lu19  1  0.828320  0.538110  0.062163  1
  Co  Co20  1  0.064493  0.747868  0.991921  1
  Co  Co21  1  0.935406  0.252087  0.008150  1
  Co  Co22  1  0.561673  0.251007  0.507171  1
  Co  Co23  1  0.436815  0.748806  0.492469  1
  Bi  Bi24  1  0.569052  0.507873  0.827253  1
  Bi  Bi25  1  0.430490  0.492074  0.172513  1
  Bi  Bi26  1  0.069283  0.491680  0.672709  1
  Bi  Bi27  1  0.428465  0.008205  0.172687  1
  Bi  Bi28  1  0.930103  0.507802  0.327138  1
  Bi  Bi29  1  0.571019  0.991837  0.827610  1
  Bi  Bi30  1  0.930221  0.992495  0.327556  1
  Bi  Bi31  1  0.070478  0.008564  0.672891  1
