# generated using pymatgen
data_Dy8Sc3Si16Mo9
_symmetry_space_group_name_H-M   'P 1'
_cell_length_a   6.98893381
_cell_length_b   6.98893442
_cell_length_c   12.90129721
_cell_angle_alpha   90.00132555
_cell_angle_beta   89.99867250
_cell_angle_gamma   89.89909866
_symmetry_Int_Tables_number   1
_chemical_formula_structural   Dy8Sc3Si16Mo9
_chemical_formula_sum   'Dy8 Sc3 Si16 Mo9'
_cell_volume   630.16546593
_cell_formula_units_Z   1
loop_
 _symmetry_equiv_pos_site_id
 _symmetry_equiv_pos_as_xyz
  1  'x, y, z'
loop_
 _atom_site_type_symbol
 _atom_site_label
 _atom_site_symmetry_multiplicity
 _atom_site_fract_x
 _atom_site_fract_y
 _atom_site_fract_z
 _atom_site_occupancy
  Dy  Dy0  1  0.994844  0.661737  0.031451  1
  Dy  Dy1  1  0.000814  0.342168  0.530951  1
  Dy  Dy2  1  0.661737  0.994844  0.968549  1
  Dy  Dy3  1  0.161183  0.505304  0.780503  1
  Dy  Dy4  1  0.837581  0.498980  0.284119  1
  Dy  Dy5  1  0.505304  0.161183  0.219497  1
  Dy  Dy6  1  0.498980  0.837581  0.715881  1
  Dy  Dy7  1  0.342168  0.000814  0.469049  1
  Sc  Sc8  1  0.829537  0.169659  0.748078  1
  Sc  Sc9  1  0.169659  0.829537  0.251922  1
  Sc  Sc10  1  0.330767  0.330767  0.000000  1
  Si  Si11  1  0.034025  0.713118  0.440922  1
  Si  Si12  1  0.956016  0.289611  0.938425  1
  Si  Si13  1  0.713118  0.034025  0.559078  1
  Si  Si14  1  0.210338  0.457280  0.189038  1
  Si  Si15  1  0.786731  0.546131  0.683699  1
  Si  Si16  1  0.457280  0.210338  0.810962  1
  Si  Si17  1  0.546131  0.786731  0.316301  1
  Si  Si18  1  0.289611  0.956016  0.061575  1
  Si  Si19  1  0.795798  0.872035  0.183741  1
  Si  Si20  1  0.302971  0.624932  0.565213  1
  Si  Si21  1  0.705116  0.372482  0.067201  1
  Si  Si22  1  0.624932  0.302971  0.434787  1
  Si  Si23  1  0.372482  0.705116  0.932799  1
  Si  Si24  1  0.127054  0.205010  0.316487  1
  Si  Si25  1  0.205010  0.127054  0.683513  1
  Si  Si26  1  0.872035  0.795798  0.816259  1
  Mo  Mo27  1  0.335300  0.504475  0.377072  1
  Mo  Mo28  1  0.840932  0.998896  0.373228  1
  Mo  Mo29  1  0.004710  0.158843  0.125634  1
  Mo  Mo30  1  0.998896  0.840932  0.626772  1
  Mo  Mo31  1  0.504475  0.335300  0.622928  1
  Mo  Mo32  1  0.158843  0.004710  0.874366  1
  Mo  Mo33  1  0.668062  0.668062  0.500000  1
  Mo  Mo34  1  0.497736  0.659826  0.124678  1
  Mo  Mo35  1  0.659826  0.497736  0.875322  1
