# generated using pymatgen
data_Ho4Al18Re2Ni3Pd
_symmetry_space_group_name_H-M   'P 1'
_cell_length_a   7.49269988
_cell_length_b   7.49269987
_cell_length_c   9.40499936
_cell_angle_alpha   89.98372517
_cell_angle_beta   89.98372859
_cell_angle_gamma   117.93651223
_symmetry_Int_Tables_number   1
_chemical_formula_structural   Ho4Al18Re2Ni3Pd
_chemical_formula_sum   'Ho4 Al18 Re2 Ni3 Pd1'
_cell_volume   466.47227639
_cell_formula_units_Z   1
loop_
 _symmetry_equiv_pos_site_id
 _symmetry_equiv_pos_as_xyz
  1  'x, y, z'
loop_
 _atom_site_type_symbol
 _atom_site_label
 _atom_site_symmetry_multiplicity
 _atom_site_fract_x
 _atom_site_fract_y
 _atom_site_fract_z
 _atom_site_occupancy
  Ho  Ho0  1  0.991481  0.687165  0.248813  1
  Ho  Ho1  1  0.004236  0.309937  0.750535  1
  Ho  Ho2  1  0.690063  0.995764  0.249465  1
  Ho  Ho3  1  0.312835  0.008519  0.751187  1
  Al  Al4  1  0.141339  0.140146  0.249376  1
  Al  Al5  1  0.859854  0.858661  0.750624  1
  Al  Al6  1  0.999495  0.342616  0.075093  1
  Al  Al7  1  0.002088  0.658594  0.924839  1
  Al  Al8  1  0.006931  0.663045  0.576227  1
  Al  Al9  1  0.336955  0.993069  0.423773  1
  Al  Al10  1  0.009795  0.345055  0.422596  1
  Al  Al11  1  0.654945  0.990205  0.577404  1
  Al  Al12  1  0.657384  0.000505  0.924907  1
  Al  Al13  1  0.341406  0.997912  0.075161  1
  Al  Al14  1  0.331383  0.335856  0.545651  1
  Al  Al15  1  0.664144  0.668618  0.454349  1
  Al  Al16  1  0.665357  0.666105  0.041297  1
  Al  Al17  1  0.333896  0.334643  0.958703  1
  Al  Al18  1  0.345773  0.566281  0.248666  1
  Al  Al19  1  0.654808  0.440878  0.757127  1
  Al  Al20  1  0.559122  0.345192  0.242873  1
  Al  Al21  1  0.433719  0.654227  0.751334  1
  Re  Re22  1  0.999839  0.000161  0.000000  1
  Re  Re23  1  0.000061  0.999939  0.500000  1
  Ni  Ni24  1  0.670755  0.329245  0.000000  1
  Ni  Ni25  1  0.329468  0.670532  0.000000  1
  Ni  Ni26  1  0.330592  0.669408  0.500000  1
  Pd  Pd27  1  0.672276  0.327724  0.500000  1
