# generated using pymatgen
data_Hf8Cr2Fe5Si14Ni
_symmetry_space_group_name_H-M   'P 1'
_cell_length_a   9.49495929
_cell_length_b   9.51384140
_cell_length_c   9.49873857
_cell_angle_alpha   94.15708734
_cell_angle_beta   94.14882945
_cell_angle_gamma   148.66318980
_symmetry_Int_Tables_number   1
_chemical_formula_structural   Hf8Cr2Fe5Si14Ni
_chemical_formula_sum   'Hf8 Cr2 Fe5 Si14 Ni1'
_cell_volume   429.90382200
_cell_formula_units_Z   1
loop_
 _symmetry_equiv_pos_site_id
 _symmetry_equiv_pos_as_xyz
  1  'x, y, z'
loop_
 _atom_site_type_symbol
 _atom_site_label
 _atom_site_symmetry_multiplicity
 _atom_site_fract_x
 _atom_site_fract_y
 _atom_site_fract_z
 _atom_site_occupancy
  Hf  Hf0  1  0.136024  0.136231  0.278733  1
  Hf  Hf1  1  0.866529  0.866428  0.725997  1
  Hf  Hf2  1  0.862052  0.137061  0.000363  1
  Hf  Hf3  1  0.138853  0.862470  0.000086  1
  Hf  Hf4  1  0.508280  0.311532  0.804757  1
  Hf  Hf5  1  0.503624  0.698084  0.196854  1
  Hf  Hf6  1  0.692426  0.495464  0.197299  1
  Hf  Hf7  1  0.298145  0.493667  0.804368  1
  Cr  Cr8  1  0.894254  0.103227  0.501784  1
  Cr  Cr9  1  0.890896  0.391212  0.781644  1
  Fe  Fe10  1  0.399865  0.901280  0.801250  1
  Fe  Fe11  1  0.096735  0.599956  0.199458  1
  Fe  Fe12  1  0.097616  0.907128  0.499685  1
  Fe  Fe13  1  0.398305  0.597543  0.499461  1
  Fe  Fe14  1  0.613649  0.394086  0.502067  1
  Si  Si15  1  0.453878  0.050551  0.584213  1
  Si  Si16  1  0.461974  0.871031  0.405844  1
  Si  Si17  1  0.939007  0.535965  0.410205  1
  Si  Si18  1  0.133370  0.542617  0.587834  1
  Si  Si19  1  0.751359  0.749961  0.002267  1
  Si  Si20  1  0.251369  0.251022  0.001341  1
  Si  Si21  1  0.309679  0.305601  0.582763  1
  Si  Si22  1  0.697240  0.693072  0.420006  1
  Si  Si23  1  0.712044  0.293848  0.000203  1
  Si  Si24  1  0.286872  0.704435  0.000451  1
  Si  Si25  1  0.011308  0.311566  0.296069  1
  Si  Si26  1  0.019482  0.727068  0.700765  1
  Si  Si27  1  0.681047  0.974850  0.705906  1
  Si  Si28  1  0.290936  0.991854  0.302131  1
  Ni  Ni29  1  0.603185  0.101190  0.206194  1
