# generated using pymatgen
data_La8Si13Hg
_symmetry_space_group_name_H-M   'P 1'
_cell_length_a   8.32404790
_cell_length_b   8.22977957
_cell_length_c   8.73010700
_cell_angle_alpha   90.00000000
_cell_angle_beta   90.00000000
_cell_angle_gamma   120.68373018
_symmetry_Int_Tables_number   1
_chemical_formula_structural   La8Si13Hg
_chemical_formula_sum   'La8 Si13 Hg1'
_cell_volume   514.32707109
_cell_formula_units_Z   1
loop_
 _symmetry_equiv_pos_site_id
 _symmetry_equiv_pos_as_xyz
  1  'x, y, z'
loop_
 _atom_site_type_symbol
 _atom_site_label
 _atom_site_symmetry_multiplicity
 _atom_site_fract_x
 _atom_site_fract_y
 _atom_site_fract_z
 _atom_site_occupancy
  La  La0  1  0.258459  0.250956  0.994569  1
  La  La1  1  0.747915  0.748730  0.000130  1
  La  La2  1  0.747915  0.748730  0.499870  1
  La  La3  1  0.258459  0.250956  0.505431  1
  La  La4  1  0.252626  0.751814  0.499600  1
  La  La5  1  0.741556  0.250284  0.507803  1
  La  La6  1  0.741556  0.250284  0.992197  1
  La  La7  1  0.252626  0.751814  0.000400  1
  Si  Si8  1  0.924746  0.599610  0.750000  1
  Si  Si9  1  0.583302  0.417375  0.250000  1
  Si  Si10  1  0.416833  0.583495  0.750000  1
  Si  Si11  1  0.425113  0.592593  0.250000  1
  Si  Si12  1  0.587477  0.416470  0.750000  1
  Si  Si13  1  0.075199  0.931923  0.250000  1
  Si  Si14  1  0.923385  0.075698  0.750000  1
  Si  Si15  1  0.604880  0.931107  0.250000  1
  Si  Si16  1  0.405170  0.074472  0.750000  1
  Si  Si17  1  0.918643  0.591717  0.250000  1
  Si  Si18  1  0.075133  0.414418  0.750000  1
  Si  Si19  1  0.414286  0.075278  0.250000  1
  Si  Si20  1  0.585871  0.923376  0.750000  1
  Hg  Hg21  1  0.058850  0.368900  0.250000  1
