# generated using pymatgen
data_Tm20IrRu4Rh7
_symmetry_space_group_name_H-M   'P 1'
_cell_length_a   10.70795196
_cell_length_b   10.70788499
_cell_length_c   6.32545030
_cell_angle_alpha   89.97460596
_cell_angle_beta   89.97605344
_cell_angle_gamma   90.06509502
_symmetry_Int_Tables_number   1
_chemical_formula_structural   Tm20IrRu4Rh7
_chemical_formula_sum   'Tm20 Ir1 Ru4 Rh7'
_cell_volume   725.27247958
_cell_formula_units_Z   1
loop_
 _symmetry_equiv_pos_site_id
 _symmetry_equiv_pos_as_xyz
  1  'x, y, z'
loop_
 _atom_site_type_symbol
 _atom_site_label
 _atom_site_symmetry_multiplicity
 _atom_site_fract_x
 _atom_site_fract_y
 _atom_site_fract_z
 _atom_site_occupancy
  Tm  Tm0  1  0.294002  0.085737  0.375454  1
  Tm  Tm1  1  0.293850  0.912215  0.875080  1
  Tm  Tm2  1  0.705830  0.086031  0.874843  1
  Tm  Tm3  1  0.705507  0.913575  0.374271  1
  Tm  Tm4  1  0.584007  0.793398  0.874810  1
  Tm  Tm5  1  0.586519  0.205857  0.375042  1
  Tm  Tm6  1  0.412775  0.793272  0.376541  1
  Tm  Tm7  1  0.413321  0.205578  0.874472  1
  Tm  Tm8  1  0.206591  0.415998  0.625182  1
  Tm  Tm9  1  0.206720  0.587232  0.123470  1
  Tm  Tm10  1  0.794143  0.413480  0.124969  1
  Tm  Tm11  1  0.794423  0.586675  0.625541  1
  Tm  Tm12  1  0.914260  0.705998  0.124558  1
  Tm  Tm13  1  0.913980  0.294195  0.625174  1
  Tm  Tm14  1  0.087774  0.706151  0.624947  1
  Tm  Tm15  1  0.086422  0.294509  0.125720  1
  Tm  Tm16  1  0.999689  0.000047  0.500327  1
  Tm  Tm17  1  0.999951  0.000310  0.999668  1
  Tm  Tm18  1  0.500049  0.499860  0.000047  1
  Tm  Tm19  1  0.500151  0.499941  0.499967  1
  Ir  Ir20  1  0.347780  0.652203  0.749987  1
  Ru  Ru21  1  0.500107  0.000569  0.123443  1
  Ru  Ru22  1  0.500280  0.000526  0.623006  1
  Ru  Ru23  1  0.999471  0.499725  0.876988  1
  Ru  Ru24  1  0.999441  0.499906  0.376537  1
  Rh  Rh25  1  0.847659  0.152343  0.250004  1
  Rh  Rh26  1  0.847300  0.847581  0.749795  1
  Rh  Rh27  1  0.152422  0.152660  0.750158  1
  Rh  Rh28  1  0.151761  0.848237  0.249997  1
  Rh  Rh29  1  0.652284  0.347714  0.749997  1
  Rh  Rh30  1  0.653798  0.652273  0.249787  1
  Rh  Rh31  1  0.347735  0.346202  0.250218  1
