# generated using pymatgen
data_FeTc6SbO24
_symmetry_space_group_name_H-M   'P 1'
_cell_length_a   10.85024326
_cell_length_b   10.85024274
_cell_length_c   10.85024261
_cell_angle_alpha   48.98196217
_cell_angle_beta   48.98197157
_cell_angle_gamma   48.98197171
_symmetry_Int_Tables_number   1
_chemical_formula_structural   FeTc6SbO24
_chemical_formula_sum   'Fe1 Tc6 Sb1 O24'
_cell_volume   667.65472200
_cell_formula_units_Z   1
loop_
 _symmetry_equiv_pos_site_id
 _symmetry_equiv_pos_as_xyz
  1  'x, y, z'
loop_
 _atom_site_type_symbol
 _atom_site_label
 _atom_site_symmetry_multiplicity
 _atom_site_fract_x
 _atom_site_fract_y
 _atom_site_fract_z
 _atom_site_occupancy
  Fe  Fe0  1  0.500000  0.500000  0.500000  1
  Tc  Tc1  1  0.590807  0.896121  0.257489  1
  Tc  Tc2  1  0.257489  0.590807  0.896121  1
  Tc  Tc3  1  0.896121  0.257489  0.590807  1
  Tc  Tc4  1  0.742511  0.409193  0.103879  1
  Tc  Tc5  1  0.103879  0.742511  0.409193  1
  Tc  Tc6  1  0.409193  0.103879  0.742511  1
  Sb  Sb7  1  0.000000  0.000000  0.000000  1
  O  O8  1  0.805708  0.872253  0.184903  1
  O  O9  1  0.184903  0.805708  0.872253  1
  O  O10  1  0.872253  0.184903  0.805708  1
  O  O11  1  0.663570  0.402450  0.311856  1
  O  O12  1  0.311856  0.663570  0.402450  1
  O  O13  1  0.402450  0.311856  0.663570  1
  O  O14  1  0.194292  0.127747  0.815097  1
  O  O15  1  0.815097  0.194292  0.127747  1
  O  O16  1  0.127747  0.815097  0.194292  1
  O  O17  1  0.336430  0.597550  0.688144  1
  O  O18  1  0.688144  0.336430  0.597550  1
  O  O19  1  0.597550  0.688144  0.336430  1
  O  O20  1  0.441769  0.972303  0.423357  1
  O  O21  1  0.423357  0.441769  0.972303  1
  O  O22  1  0.972303  0.423357  0.441769  1
  O  O23  1  0.916935  0.473783  0.952480  1
  O  O24  1  0.952480  0.916935  0.473783  1
  O  O25  1  0.473783  0.952480  0.916935  1
  O  O26  1  0.558231  0.027697  0.576643  1
  O  O27  1  0.576643  0.558231  0.027697  1
  O  O28  1  0.027697  0.576643  0.558231  1
  O  O29  1  0.083065  0.526217  0.047520  1
  O  O30  1  0.047520  0.083065  0.526217  1
  O  O31  1  0.526217  0.047520  0.083065  1
