# generated using pymatgen
data_TmZnCdCu2Ni
_symmetry_space_group_name_H-M   'P 1'
_cell_length_a   5.09808977
_cell_length_b   5.09808943
_cell_length_c   5.04825321
_cell_angle_alpha   60.01229723
_cell_angle_beta   60.01230412
_cell_angle_gamma   60.06783304
_symmetry_Int_Tables_number   1
_chemical_formula_structural   TmZnCdCu2Ni
_chemical_formula_sum   'Tm1 Zn1 Cd1 Cu2 Ni1'
_cell_volume   92.84189794
_cell_formula_units_Z   1
loop_
 _symmetry_equiv_pos_site_id
 _symmetry_equiv_pos_as_xyz
  1  'x, y, z'
loop_
 _atom_site_type_symbol
 _atom_site_label
 _atom_site_symmetry_multiplicity
 _atom_site_fract_x
 _atom_site_fract_y
 _atom_site_fract_z
 _atom_site_occupancy
  Tm  Tm0  1  0.000098  0.000098  0.994271  1
  Zn  Zn1  1  0.624600  0.624600  0.128919  1
  Cd  Cd2  1  0.252440  0.252440  0.247860  1
  Cu  Cu3  1  0.622713  0.125899  0.626857  1
  Cu  Cu4  1  0.125899  0.622713  0.626857  1
  Ni  Ni5  1  0.624251  0.624251  0.625235  1
