# generated using pymatgen
data_DyHo(CdIn2)2
_symmetry_space_group_name_H-M   'P 1'
_cell_length_a   6.47819000
_cell_length_b   6.47819038
_cell_length_c   4.62365100
_cell_angle_alpha   90.00000000
_cell_angle_beta   90.00000000
_cell_angle_gamma   91.50184686
_symmetry_Int_Tables_number   1
_chemical_formula_structural   DyHo(CdIn2)2
_chemical_formula_sum   'Dy1 Ho1 Cd2 In4'
_cell_volume   193.97386516
_cell_formula_units_Z   1
loop_
 _symmetry_equiv_pos_site_id
 _symmetry_equiv_pos_as_xyz
  1  'x, y, z'
loop_
 _atom_site_type_symbol
 _atom_site_label
 _atom_site_symmetry_multiplicity
 _atom_site_fract_x
 _atom_site_fract_y
 _atom_site_fract_z
 _atom_site_occupancy
  Dy  Dy0  1  0.000000  0.000000  0.500000  1
  Ho  Ho1  1  0.500000  0.500000  0.500000  1
  Cd  Cd2  1  0.751012  0.248988  0.000000  1
  Cd  Cd3  1  0.248988  0.751012  0.000000  1
  In  In4  1  0.500000  0.000000  0.500000  1
  In  In5  1  0.000000  0.500000  0.500000  1
  In  In6  1  0.749898  0.749898  0.000000  1
  In  In7  1  0.250102  0.250102  0.000000  1
