# generated using pymatgen
data_PrNdZnAg3
_symmetry_space_group_name_H-M   'P 1'
_cell_length_a   5.92842863
_cell_length_b   5.97596033
_cell_length_c   5.97595836
_cell_angle_alpha   132.56308221
_cell_angle_beta   105.55830109
_cell_angle_gamma   93.32352233
_symmetry_Int_Tables_number   1
_chemical_formula_structural   PrNdZnAg3
_chemical_formula_sum   'Pr1 Nd1 Zn1 Ag3'
_cell_volume   141.41384031
_cell_formula_units_Z   1
loop_
 _symmetry_equiv_pos_site_id
 _symmetry_equiv_pos_as_xyz
  1  'x, y, z'
loop_
 _atom_site_type_symbol
 _atom_site_label
 _atom_site_symmetry_multiplicity
 _atom_site_fract_x
 _atom_site_fract_y
 _atom_site_fract_z
 _atom_site_occupancy
  Pr  Pr0  1  0.713859  0.963762  0.750097  1
  Nd  Nd1  1  0.281665  0.034334  0.247330  1
  Zn  Zn2  1  0.711081  0.669072  0.042009  1
  Ag  Ag3  1  0.309750  0.344893  0.964859  1
  Ag  Ag4  1  0.862574  0.324332  0.538242  1
  Ag  Ag5  1  0.121071  0.663606  0.457464  1
