# generated using pymatgen
data_Zr6Zn16Au7C
_symmetry_space_group_name_H-M   'P 1'
_cell_length_a   8.82108812
_cell_length_b   8.83163104
_cell_length_c   8.83163100
_cell_angle_alpha   59.99999641
_cell_angle_beta   59.96045177
_cell_angle_gamma   59.96044413
_symmetry_Int_Tables_number   1
_chemical_formula_structural   Zr6Zn16Au7C
_chemical_formula_sum   'Zr6 Zn16 Au7 C1'
_cell_volume   486.21582576
_cell_formula_units_Z   1
loop_
 _symmetry_equiv_pos_site_id
 _symmetry_equiv_pos_as_xyz
  1  'x, y, z'
loop_
 _atom_site_type_symbol
 _atom_site_label
 _atom_site_symmetry_multiplicity
 _atom_site_fract_x
 _atom_site_fract_y
 _atom_site_fract_z
 _atom_site_occupancy
  Zr  Zr0  1  0.690153  0.310042  0.310042  1
  Zr  Zr1  1  0.309510  0.688353  0.688353  1
  Zr  Zr2  1  0.309510  0.688353  0.313785  1
  Zr  Zr3  1  0.690153  0.310042  0.689762  1
  Zr  Zr4  1  0.309510  0.313785  0.688353  1
  Zr  Zr5  1  0.690153  0.689762  0.310042  1
  Zn  Zn6  1  0.359948  0.880016  0.880016  1
  Zn  Zn7  1  0.498978  0.998592  0.998592  1
  Zn  Zn8  1  0.999298  0.499708  0.499708  1
  Zn  Zn9  1  0.999298  0.499708  0.001287  1
  Zn  Zn10  1  0.498978  0.998592  0.503839  1
  Zn  Zn11  1  0.999298  0.001287  0.499708  1
  Zn  Zn12  1  0.498978  0.503839  0.998592  1
  Zn  Zn13  1  0.333516  0.333065  0.333065  1
  Zn  Zn14  1  0.665222  0.668054  0.668054  1
  Zn  Zn15  1  0.333516  0.333065  0.000356  1
  Zn  Zn16  1  0.333516  0.000356  0.333065  1
  Zn  Zn17  1  0.665222  0.668054  0.998668  1
  Zn  Zn18  1  0.665222  0.998668  0.668054  1
  Zn  Zn19  1  0.000482  0.333173  0.333173  1
  Zn  Zn20  1  0.997901  0.667366  0.667366  1
  Zn  Zn21  1  0.001015  0.999662  0.999662  1
  Au  Au22  1  0.125044  0.117891  0.117891  1
  Au  Au23  1  0.879140  0.878913  0.878913  1
  Au  Au24  1  0.125044  0.117891  0.639177  1
  Au  Au25  1  0.125044  0.639177  0.117891  1
  Au  Au26  1  0.879140  0.878913  0.363032  1
  Au  Au27  1  0.879140  0.363032  0.878913  1
  Au  Au28  1  0.635561  0.121480  0.121480  1
  C  C29  1  0.502515  0.499162  0.499162  1
