# generated using pymatgen
data_LiHo4Tc2B16Rh
_symmetry_space_group_name_H-M   'P 1'
_cell_length_a   3.57905400
_cell_length_b   5.94320419
_cell_length_c   11.46067108
_cell_angle_alpha   90.01169434
_cell_angle_beta   90.00000000
_cell_angle_gamma   90.00000000
_symmetry_Int_Tables_number   1
_chemical_formula_structural   LiHo4Tc2B16Rh
_chemical_formula_sum   'Li1 Ho4 Tc2 B16 Rh1'
_cell_volume   243.78048814
_cell_formula_units_Z   1
loop_
 _symmetry_equiv_pos_site_id
 _symmetry_equiv_pos_as_xyz
  1  'x, y, z'
loop_
 _atom_site_type_symbol
 _atom_site_label
 _atom_site_symmetry_multiplicity
 _atom_site_fract_x
 _atom_site_fract_y
 _atom_site_fract_z
 _atom_site_occupancy
  Li  Li0  1  0.500000  0.134836  0.912385  1
  Ho  Ho1  1  0.500000  0.374126  0.146538  1
  Ho  Ho2  1  0.500000  0.624732  0.851175  1
  Ho  Ho3  1  0.500000  0.127367  0.651578  1
  Ho  Ho4  1  0.500000  0.870060  0.349783  1
  Tc  Tc5  1  0.500000  0.363593  0.412243  1
  Tc  Tc6  1  0.500000  0.636386  0.586913  1
  B  B7  1  0.000000  0.114132  0.047507  1
  B  B8  1  0.000000  0.885153  0.952759  1
  B  B9  1  0.000000  0.385815  0.547553  1
  B  B10  1  0.000000  0.612047  0.452961  1
  B  B11  1  0.000000  0.134457  0.469091  1
  B  B12  1  0.000000  0.864541  0.531784  1
  B  B13  1  0.000000  0.364566  0.967513  1
  B  B14  1  0.000000  0.634981  0.030541  1
  B  B15  1  0.000000  0.021771  0.191784  1
  B  B16  1  0.000000  0.981341  0.808588  1
  B  B17  1  0.000000  0.473621  0.694428  1
  B  B18  1  0.000000  0.524506  0.306577  1
  B  B19  1  0.000000  0.211761  0.313385  1
  B  B20  1  0.000000  0.788793  0.687432  1
  B  B21  1  0.000000  0.286798  0.816662  1
  B  B22  1  0.000000  0.711940  0.183746  1
  Rh  Rh23  1  0.500000  0.872680  0.087072  1
