# generated using pymatgen
data_Hf7ZrTaV11Ge16
_symmetry_space_group_name_H-M   'P 1'
_cell_length_a   6.63100455
_cell_length_b   6.76419828
_cell_length_c   12.81356218
_cell_angle_alpha   89.99197534
_cell_angle_beta   89.96776133
_cell_angle_gamma   90.06579594
_symmetry_Int_Tables_number   1
_chemical_formula_structural   Hf7ZrTaV11Ge16
_chemical_formula_sum   'Hf7 Zr1 Ta1 V11 Ge16'
_cell_volume   574.73173316
_cell_formula_units_Z   1
loop_
 _symmetry_equiv_pos_site_id
 _symmetry_equiv_pos_as_xyz
  1  'x, y, z'
loop_
 _atom_site_type_symbol
 _atom_site_label
 _atom_site_symmetry_multiplicity
 _atom_site_fract_x
 _atom_site_fract_y
 _atom_site_fract_z
 _atom_site_occupancy
  Hf  Hf0  1  0.488228  0.673321  0.091137  1
  Hf  Hf1  1  0.989535  0.826907  0.408975  1
  Hf  Hf2  1  0.511780  0.327129  0.591787  1
  Hf  Hf3  1  0.011322  0.173670  0.907729  1
  Hf  Hf4  1  0.512421  0.327799  0.907752  1
  Hf  Hf5  1  0.010978  0.173616  0.592097  1
  Hf  Hf6  1  0.488032  0.673019  0.409242  1
  Zr  Zr7  1  0.990727  0.826802  0.091249  1
  Ta  Ta8  1  0.336680  0.008409  0.250359  1
  V  V9  1  0.837686  0.492294  0.250321  1
  V  V10  1  0.660787  0.991617  0.749795  1
  V  V11  1  0.162300  0.507940  0.749703  1
  V  V12  1  0.660972  0.159442  0.124491  1
  V  V13  1  0.162965  0.339570  0.375668  1
  V  V14  1  0.337162  0.840953  0.626267  1
  V  V15  1  0.837414  0.658058  0.873976  1
  V  V16  1  0.337036  0.841203  0.873489  1
  V  V17  1  0.838120  0.658917  0.625150  1
  V  V18  1  0.661454  0.159090  0.376163  1
  V  V19  1  0.162795  0.339688  0.124585  1
  Ge  Ge20  1  0.697932  0.848791  0.250449  1
  Ge  Ge21  1  0.188762  0.638959  0.250694  1
  Ge  Ge22  1  0.309223  0.146980  0.749898  1
  Ge  Ge23  1  0.808707  0.353358  0.749671  1
  Ge  Ge24  1  0.678555  0.953476  0.956054  1
  Ge  Ge25  1  0.178778  0.546465  0.543312  1
  Ge  Ge26  1  0.321050  0.046752  0.460853  1
  Ge  Ge27  1  0.821226  0.453265  0.042470  1
  Ge  Ge28  1  0.322624  0.047708  0.039035  1
  Ge  Ge29  1  0.821655  0.453902  0.457409  1
  Ge  Ge30  1  0.679154  0.953293  0.543587  1
  Ge  Ge31  1  0.179065  0.546124  0.956309  1
  Ge  Ge32  1  0.472787  0.380615  0.250310  1
  Ge  Ge33  1  0.959765  0.130899  0.250404  1
  Ge  Ge34  1  0.531706  0.626060  0.749711  1
  Ge  Ge35  1  0.030614  0.873910  0.749899  1
