# generated using pymatgen
data_LaFeSiHg
_symmetry_space_group_name_H-M   'P 1'
_cell_length_a   10.36529625
_cell_length_b   10.36529776
_cell_length_c   4.09677800
_cell_angle_alpha   90.00000000
_cell_angle_beta   90.00000000
_cell_angle_gamma   157.16386027
_symmetry_Int_Tables_number   1
_chemical_formula_structural   LaFeSiHg
_chemical_formula_sum   'La2 Fe2 Si2 Hg2'
_cell_volume   170.82294183
_cell_formula_units_Z   2
loop_
 _symmetry_equiv_pos_site_id
 _symmetry_equiv_pos_as_xyz
  1  'x, y, z'
loop_
 _atom_site_type_symbol
 _atom_site_label
 _atom_site_symmetry_multiplicity
 _atom_site_fract_x
 _atom_site_fract_y
 _atom_site_fract_z
 _atom_site_occupancy
  La  La0  1  0.635920  0.364080  0.250000  1
  La  La1  1  0.364080  0.635920  0.750000  1
  Fe  Fe2  1  0.250696  0.749304  0.250000  1
  Fe  Fe3  1  0.749304  0.250696  0.750000  1
  Si  Si4  1  0.800910  0.199090  0.250000  1
  Si  Si5  1  0.199090  0.800910  0.750000  1
  Hg  Hg6  1  0.950099  0.049901  0.250000  1
  Hg  Hg7  1  0.049901  0.950099  0.750000  1
