# generated using pymatgen
data_DyLuHf4Pb5
_symmetry_space_group_name_H-M   'P 1'
_cell_length_a   6.04734180
_cell_length_b   9.14807031
_cell_length_c   11.31342254
_cell_angle_alpha   114.01224048
_cell_angle_beta   105.50151985
_cell_angle_gamma   90.00000120
_symmetry_Int_Tables_number   1
_chemical_formula_structural   DyLuHf4Pb5
_chemical_formula_sum   'Dy2 Lu2 Hf8 Pb10'
_cell_volume   546.69310434
_cell_formula_units_Z   2
loop_
 _symmetry_equiv_pos_site_id
 _symmetry_equiv_pos_as_xyz
  1  'x, y, z'
loop_
 _atom_site_type_symbol
 _atom_site_label
 _atom_site_symmetry_multiplicity
 _atom_site_fract_x
 _atom_site_fract_y
 _atom_site_fract_z
 _atom_site_occupancy
  Dy  Dy0  1  0.143869  0.254195  0.287738  1
  Dy  Dy1  1  0.856131  0.745805  0.712262  1
  Lu  Lu2  1  0.644017  0.033361  0.288034  1
  Lu  Lu3  1  0.355983  0.966639  0.711966  1
  Hf  Hf4  1  0.561871  0.312613  0.624204  1
  Hf  Hf5  1  0.438129  0.687387  0.375796  1
  Hf  Hf6  1  0.937666  0.687387  0.375796  1
  Hf  Hf7  1  0.062334  0.312613  0.624204  1
  Hf  Hf8  1  0.434155  0.670550  0.868311  1
  Hf  Hf9  1  0.565845  0.329450  0.131689  1
  Hf  Hf10  1  0.934216  0.195665  0.868432  1
  Hf  Hf11  1  0.065784  0.804335  0.131568  1
  Pb  Pb12  1  0.288984  0.591222  0.577968  1
  Pb  Pb13  1  0.711016  0.408778  0.422032  1
  Pb  Pb14  1  0.788162  0.988391  0.576325  1
  Pb  Pb15  1  0.211838  0.011609  0.423675  1
  Pb  Pb16  1  0.250466  0.000000  0.000000  1
  Pb  Pb17  1  0.749534  0.000000  0.000000  1
  Pb  Pb18  1  0.066791  0.462821  0.133582  1
  Pb  Pb19  1  0.933209  0.537179  0.866418  1
  Pb  Pb20  1  0.567269  0.673620  0.134538  1
  Pb  Pb21  1  0.432731  0.326380  0.865462  1
