# generated using pymatgen
data_Na6MnCrS4(O4F)4
_symmetry_space_group_name_H-M   'P 1'
_cell_length_a   6.78824600
_cell_length_b   9.19340400
_cell_length_c   13.91790100
_cell_angle_alpha   90.00000000
_cell_angle_beta   90.00000000
_cell_angle_gamma   90.00000000
_symmetry_Int_Tables_number   1
_chemical_formula_structural   Na6MnCrS4(O4F)4
_chemical_formula_sum   'Na12 Mn2 Cr2 S8 O32 F8'
_cell_volume   868.57567150
_cell_formula_units_Z   2
loop_
 _symmetry_equiv_pos_site_id
 _symmetry_equiv_pos_as_xyz
  1  'x, y, z'
loop_
 _atom_site_type_symbol
 _atom_site_label
 _atom_site_symmetry_multiplicity
 _atom_site_fract_x
 _atom_site_fract_y
 _atom_site_fract_z
 _atom_site_occupancy
  Na  Na0  1  0.525420  0.664830  0.906116  1
  Na  Na1  1  0.025420  0.835170  0.593884  1
  Na  Na2  1  0.474580  0.164830  0.593884  1
  Na  Na3  1  0.974580  0.335170  0.906116  1
  Na  Na4  1  0.471534  0.336297  0.096557  1
  Na  Na5  1  0.971534  0.163703  0.403443  1
  Na  Na6  1  0.528466  0.836297  0.403443  1
  Na  Na7  1  0.028466  0.663703  0.096557  1
  Na  Na8  1  0.750000  0.000000  0.056968  1
  Na  Na9  1  0.250000  0.500000  0.443032  1
  Na  Na10  1  0.250000  0.000000  0.945522  1
  Na  Na11  1  0.750000  0.500000  0.554478  1
  Mn  Mn12  1  0.250000  0.000000  0.196179  1
  Mn  Mn13  1  0.750000  0.500000  0.303821  1
  Cr  Cr14  1  0.750000  0.000000  0.808119  1
  Cr  Cr15  1  0.250000  0.500000  0.691881  1
  S  S16  1  0.009258  0.697611  0.855741  1
  S  S17  1  0.509258  0.802389  0.644259  1
  S  S18  1  0.990742  0.197611  0.644259  1
  S  S19  1  0.490742  0.302389  0.855741  1
  S  S20  1  0.985752  0.309607  0.144576  1
  S  S21  1  0.485752  0.190393  0.355424  1
  S  S22  1  0.014248  0.809607  0.355424  1
  S  S23  1  0.514248  0.690393  0.144576  1
  O  O24  1  0.445845  0.433430  0.793582  1
  O  O25  1  0.945845  0.066570  0.706418  1
  O  O26  1  0.554155  0.933430  0.706418  1
  O  O27  1  0.054155  0.566570  0.793582  1
  O  O28  1  0.560700  0.552167  0.202276  1
  O  O29  1  0.060700  0.947833  0.297724  1
  O  O30  1  0.439300  0.052167  0.297724  1
  O  O31  1  0.939300  0.447833  0.202276  1
  O  O32  1  0.191758  0.762576  0.892347  1
  O  O33  1  0.691758  0.737424  0.607653  1
  O  O34  1  0.808242  0.262576  0.607653  1
  O  O35  1  0.308242  0.237424  0.892347  1
  O  O36  1  0.803606  0.244621  0.107482  1
  O  O37  1  0.303606  0.255379  0.392518  1
  O  O38  1  0.196394  0.744621  0.392518  1
  O  O39  1  0.696394  0.755379  0.107482  1
  O  O40  1  0.880363  0.644637  0.933492  1
  O  O41  1  0.380363  0.855363  0.566508  1
  O  O42  1  0.119637  0.144637  0.566508  1
  O  O43  1  0.619637  0.355363  0.933492  1
  O  O44  1  0.115918  0.361244  0.066431  1
  O  O45  1  0.615918  0.138756  0.433569  1
  O  O46  1  0.884082  0.861244  0.433569  1
  O  O47  1  0.384082  0.638756  0.066431  1
  O  O48  1  0.398952  0.694732  0.706662  1
  O  O49  1  0.898952  0.805268  0.793338  1
  O  O50  1  0.601048  0.194732  0.793338  1
  O  O51  1  0.101048  0.305268  0.706662  1
  O  O52  1  0.591580  0.291479  0.290162  1
  O  O53  1  0.091580  0.208521  0.209838  1
  O  O54  1  0.408420  0.791479  0.209838  1
  O  O55  1  0.908420  0.708521  0.290162  1
  F  F56  1  0.581715  0.925464  0.908624  1
  F  F57  1  0.081715  0.574536  0.591376  1
  F  F58  1  0.418285  0.425464  0.591376  1
  F  F59  1  0.918285  0.074536  0.908624  1
  F  F60  1  0.415964  0.074717  0.097127  1
  F  F61  1  0.915964  0.425283  0.402873  1
  F  F62  1  0.584036  0.574717  0.402873  1
  F  F63  1  0.084036  0.925283  0.097127  1
