# generated using pymatgen
data_Gd4YHo3B20
_symmetry_space_group_name_H-M   'P 1'
_cell_length_a   7.11772360
_cell_length_b   7.10674252
_cell_length_c   7.13978856
_cell_angle_alpha   76.69482470
_cell_angle_beta   90.03711278
_cell_angle_gamma   89.98021328
_symmetry_Int_Tables_number   1
_chemical_formula_structural   Gd4YHo3B20
_chemical_formula_sum   'Gd4 Y1 Ho3 B20'
_cell_volume   351.46355755
_cell_formula_units_Z   1
loop_
 _symmetry_equiv_pos_site_id
 _symmetry_equiv_pos_as_xyz
  1  'x, y, z'
loop_
 _atom_site_type_symbol
 _atom_site_label
 _atom_site_symmetry_multiplicity
 _atom_site_fract_x
 _atom_site_fract_y
 _atom_site_fract_z
 _atom_site_occupancy
  Gd  Gd0  1  0.691929  0.771212  0.625906  1
  Gd  Gd1  1  0.191915  0.228799  0.874179  1
  Gd  Gd2  1  0.308303  0.229133  0.374334  1
  Gd  Gd3  1  0.808276  0.771756  0.125342  1
  Y  Y4  1  0.314763  0.756574  0.252881  1
  Ho  Ho5  1  0.815036  0.245010  0.247237  1
  Ho  Ho6  1  0.685082  0.245103  0.747136  1
  Ho  Ho7  1  0.184769  0.754780  0.752897  1
  B  B8  1  0.502969  0.313950  0.041058  1
  B  B9  1  0.002235  0.686050  0.459091  1
  B  B10  1  0.497354  0.686242  0.958484  1
  B  B11  1  0.997254  0.313738  0.541283  1
  B  B12  1  0.488637  0.926711  0.924126  1
  B  B13  1  0.988066  0.073560  0.575375  1
  B  B14  1  0.512680  0.074082  0.074249  1
  B  B15  1  0.011092  0.926303  0.425380  1
  B  B16  1  0.326236  0.496020  0.039755  1
  B  B17  1  0.826167  0.503658  0.460111  1
  B  B18  1  0.673784  0.503843  0.960098  1
  B  B19  1  0.173634  0.495961  0.540288  1
  B  B20  1  0.910624  0.498465  0.910859  1
  B  B21  1  0.410753  0.500845  0.589466  1
  B  B22  1  0.089168  0.500883  0.089179  1
  B  B23  1  0.589418  0.497852  0.411098  1
  B  B24  1  0.961533  0.496515  0.674368  1
  B  B25  1  0.461593  0.503375  0.825761  1
  B  B26  1  0.038114  0.503129  0.325839  1
  B  B27  1  0.538616  0.496451  0.174222  1
