# generated using pymatgen
data_Ho19Er(Ir2Os)4
_symmetry_space_group_name_H-M   'P 1'
_cell_length_a   10.81446800
_cell_length_b   10.81446800
_cell_length_c   6.38916300
_cell_angle_alpha   90.00000000
_cell_angle_beta   90.00000000
_cell_angle_gamma   90.00000000
_symmetry_Int_Tables_number   1
_chemical_formula_structural   Ho19Er(Ir2Os)4
_chemical_formula_sum   'Ho19 Er1 Ir8 Os4'
_cell_volume   747.22997938
_cell_formula_units_Z   1
loop_
 _symmetry_equiv_pos_site_id
 _symmetry_equiv_pos_as_xyz
  1  'x, y, z'
loop_
 _atom_site_type_symbol
 _atom_site_label
 _atom_site_symmetry_multiplicity
 _atom_site_fract_x
 _atom_site_fract_y
 _atom_site_fract_z
 _atom_site_occupancy
  Ho  Ho0  1  0.293657  0.086129  0.376460  1
  Ho  Ho1  1  0.293661  0.913863  0.876439  1
  Ho  Ho2  1  0.706339  0.086137  0.876439  1
  Ho  Ho3  1  0.706343  0.913871  0.376460  1
  Ho  Ho4  1  0.586151  0.793638  0.876373  1
  Ho  Ho5  1  0.586126  0.206432  0.376435  1
  Ho  Ho6  1  0.413874  0.793568  0.376435  1
  Ho  Ho7  1  0.413849  0.206362  0.876373  1
  Ho  Ho8  1  0.206432  0.413874  0.623565  1
  Ho  Ho9  1  0.206362  0.586151  0.123627  1
  Ho  Ho10  1  0.793638  0.413849  0.123627  1
  Ho  Ho11  1  0.793568  0.586126  0.623565  1
  Ho  Ho12  1  0.913863  0.706339  0.123561  1
  Ho  Ho13  1  0.913871  0.293657  0.623540  1
  Ho  Ho14  1  0.086129  0.706343  0.623540  1
  Ho  Ho15  1  0.086137  0.293661  0.123561  1
  Ho  Ho16  1  0.000000  0.000000  0.500000  1
  Ho  Ho17  1  0.000000  0.000000  0.000000  1
  Ho  Ho18  1  0.500000  0.500000  0.000000  1
  Er  Er19  1  0.500000  0.500000  0.500000  1
  Ir  Ir20  1  0.847694  0.152306  0.250040  1
  Ir  Ir21  1  0.847694  0.847694  0.749960  1
  Ir  Ir22  1  0.152306  0.152306  0.749960  1
  Ir  Ir23  1  0.152306  0.847694  0.250040  1
  Ir  Ir24  1  0.652193  0.347813  0.749752  1
  Ir  Ir25  1  0.652187  0.652193  0.250248  1
  Ir  Ir26  1  0.347813  0.347807  0.250248  1
  Ir  Ir27  1  0.347807  0.652187  0.749752  1
  Os  Os28  1  0.500000  0.000000  0.122528  1
  Os  Os29  1  0.500000  0.000000  0.622513  1
  Os  Os30  1  0.000000  0.500000  0.877472  1
  Os  Os31  1  0.000000  0.500000  0.377487  1
