# generated using pymatgen
data_Zr5BeSn2Bi
_symmetry_space_group_name_H-M   'P 1'
_cell_length_a   8.69933026
_cell_length_b   8.68920249
_cell_length_c   5.82402800
_cell_angle_alpha   90.00000000
_cell_angle_beta   90.00000000
_cell_angle_gamma   119.96149336
_symmetry_Int_Tables_number   1
_chemical_formula_structural   Zr5BeSn2Bi
_chemical_formula_sum   'Zr10 Be2 Sn4 Bi2'
_cell_volume   381.40660176
_cell_formula_units_Z   2
loop_
 _symmetry_equiv_pos_site_id
 _symmetry_equiv_pos_as_xyz
  1  'x, y, z'
loop_
 _atom_site_type_symbol
 _atom_site_label
 _atom_site_symmetry_multiplicity
 _atom_site_fract_x
 _atom_site_fract_y
 _atom_site_fract_z
 _atom_site_occupancy
  Zr  Zr0  1  0.669118  0.335328  0.003213  1
  Zr  Zr1  1  0.330882  0.666211  0.003213  1
  Zr  Zr2  1  0.330882  0.666211  0.496787  1
  Zr  Zr3  1  0.669118  0.335328  0.496787  1
  Zr  Zr4  1  0.752991  0.748216  0.750000  1
  Zr  Zr5  1  0.247009  0.995226  0.750000  1
  Zr  Zr6  1  0.000000  0.252448  0.750000  1
  Zr  Zr7  1  0.251987  0.252677  0.250000  1
  Zr  Zr8  1  0.748013  0.000690  0.250000  1
  Zr  Zr9  1  0.000000  0.746686  0.250000  1
  Be  Be10  1  0.000000  0.000109  0.002863  1
  Be  Be11  1  0.000000  0.000109  0.497137  1
  Sn  Sn12  1  0.000000  0.608156  0.750000  1
  Sn  Sn13  1  0.612208  0.612990  0.250000  1
  Sn  Sn14  1  0.387792  0.000781  0.250000  1
  Sn  Sn15  1  0.000000  0.389363  0.250000  1
  Bi  Bi16  1  0.390782  0.390126  0.750000  1
  Bi  Bi17  1  0.609218  0.999344  0.750000  1
