# generated using pymatgen
data_Ho5CdIn2Ni2Hg
_symmetry_space_group_name_H-M   'P 1'
_cell_length_a   7.90201303
_cell_length_b   18.01320888
_cell_length_c   3.55072500
_cell_angle_alpha   90.00000000
_cell_angle_beta   90.00000000
_cell_angle_gamma   89.83538232
_symmetry_Int_Tables_number   1
_chemical_formula_structural   Ho5CdIn2Ni2Hg
_chemical_formula_sum   'Ho10 Cd2 In4 Ni4 Hg2'
_cell_volume   505.41028070
_cell_formula_units_Z   2
loop_
 _symmetry_equiv_pos_site_id
 _symmetry_equiv_pos_as_xyz
  1  'x, y, z'
loop_
 _atom_site_type_symbol
 _atom_site_label
 _atom_site_symmetry_multiplicity
 _atom_site_fract_x
 _atom_site_fract_y
 _atom_site_fract_z
 _atom_site_occupancy
  Ho  Ho0  1  0.500000  0.500000  0.000000  1
  Ho  Ho1  1  0.000000  0.000000  0.000000  1
  Ho  Ho2  1  0.757053  0.281541  0.000000  1
  Ho  Ho3  1  0.242947  0.718459  0.000000  1
  Ho  Ho4  1  0.743007  0.780391  0.000000  1
  Ho  Ho5  1  0.256993  0.219609  0.000000  1
  Ho  Ho6  1  0.616858  0.089038  0.000000  1
  Ho  Ho7  1  0.383142  0.910962  0.000000  1
  Ho  Ho8  1  0.887822  0.587710  0.000000  1
  Ho  Ho9  1  0.112178  0.412290  0.000000  1
  Cd  Cd10  1  0.705462  0.931506  0.500000  1
  Cd  Cd11  1  0.294538  0.068494  0.500000  1
  In  In12  1  0.569055  0.651246  0.500000  1
  In  In13  1  0.430945  0.348754  0.500000  1
  In  In14  1  0.934795  0.151228  0.500000  1
  In  In15  1  0.065205  0.848772  0.500000  1
  Ni  Ni16  1  0.537626  0.198136  0.500000  1
  Ni  Ni17  1  0.462374  0.801864  0.500000  1
  Ni  Ni18  1  0.960170  0.698093  0.500000  1
  Ni  Ni19  1  0.039830  0.301907  0.500000  1
  Hg  Hg20  1  0.791706  0.431601  0.500000  1
  Hg  Hg21  1  0.208294  0.568399  0.500000  1
