# generated using pymatgen
data_Nd16Cd4Ru3Pt
_symmetry_space_group_name_H-M   'P 1'
_cell_length_a   9.93397108
_cell_length_b   9.94302529
_cell_length_c   9.94302500
_cell_angle_alpha   59.99999765
_cell_angle_beta   59.96984288
_cell_angle_gamma   59.96984538
_symmetry_Int_Tables_number   1
_chemical_formula_structural   Nd16Cd4Ru3Pt
_chemical_formula_sum   'Nd16 Cd4 Ru3 Pt1'
_cell_volume   694.13965716
_cell_formula_units_Z   1
loop_
 _symmetry_equiv_pos_site_id
 _symmetry_equiv_pos_as_xyz
  1  'x, y, z'
loop_
 _atom_site_type_symbol
 _atom_site_label
 _atom_site_symmetry_multiplicity
 _atom_site_fract_x
 _atom_site_fract_y
 _atom_site_fract_z
 _atom_site_occupancy
  Nd  Nd0  1  0.343692  0.350409  0.350409  1
  Nd  Nd1  1  0.343692  0.350409  0.955490  1
  Nd  Nd2  1  0.343692  0.955490  0.350409  1
  Nd  Nd3  1  0.958584  0.347139  0.347139  1
  Nd  Nd4  1  0.815541  0.190273  0.190273  1
  Nd  Nd5  1  0.190387  0.810802  0.810802  1
  Nd  Nd6  1  0.190387  0.810802  0.188009  1
  Nd  Nd7  1  0.815541  0.190273  0.803913  1
  Nd  Nd8  1  0.190387  0.188009  0.810802  1
  Nd  Nd9  1  0.815541  0.803913  0.190273  1
  Nd  Nd10  1  0.937471  0.562341  0.562341  1
  Nd  Nd11  1  0.559876  0.937447  0.937447  1
  Nd  Nd12  1  0.559876  0.937447  0.565230  1
  Nd  Nd13  1  0.937471  0.562341  0.937847  1
  Nd  Nd14  1  0.559876  0.565230  0.937447  1
  Nd  Nd15  1  0.937471  0.937847  0.562341  1
  Cd  Cd16  1  0.579923  0.579816  0.579816  1
  Cd  Cd17  1  0.579923  0.579816  0.260446  1
  Cd  Cd18  1  0.579923  0.260446  0.579816  1
  Cd  Cd19  1  0.260841  0.579720  0.579720  1
  Ru  Ru20  1  0.141233  0.138436  0.138436  1
  Ru  Ru21  1  0.141233  0.138436  0.581895  1
  Ru  Ru22  1  0.141233  0.581895  0.138436  1
  Pt  Pt23  1  0.576204  0.141265  0.141265  1
