# generated using pymatgen
data_Lu8Sc2Sn6C
_symmetry_space_group_name_H-M   'P 1'
_cell_length_a   8.67259200
_cell_length_b   8.67259201
_cell_length_c   6.45464800
_cell_angle_alpha   90.00000000
_cell_angle_beta   90.00000000
_cell_angle_gamma   119.99999996
_symmetry_Int_Tables_number   1
_chemical_formula_structural   Lu8Sc2Sn6C
_chemical_formula_sum   'Lu8 Sc2 Sn6 C1'
_cell_volume   420.43709514
_cell_formula_units_Z   1
loop_
 _symmetry_equiv_pos_site_id
 _symmetry_equiv_pos_as_xyz
  1  'x, y, z'
loop_
 _atom_site_type_symbol
 _atom_site_label
 _atom_site_symmetry_multiplicity
 _atom_site_fract_x
 _atom_site_fract_y
 _atom_site_fract_z
 _atom_site_occupancy
  Lu  Lu0  1  0.000000  0.774451  0.276627  1
  Lu  Lu1  1  0.225549  0.225549  0.276627  1
  Lu  Lu2  1  0.774451  0.000000  0.276627  1
  Lu  Lu3  1  0.000000  0.225549  0.723373  1
  Lu  Lu4  1  0.774451  0.774451  0.723373  1
  Lu  Lu5  1  0.225549  0.000000  0.723373  1
  Lu  Lu6  1  0.333333  0.666667  0.000000  1
  Lu  Lu7  1  0.666667  0.333333  0.000000  1
  Sc  Sc8  1  0.666667  0.333333  0.500000  1
  Sc  Sc9  1  0.333333  0.666667  0.500000  1
  Sn  Sn10  1  0.000000  0.402758  0.257450  1
  Sn  Sn11  1  0.597242  0.597242  0.257450  1
  Sn  Sn12  1  0.402758  0.000000  0.257450  1
  Sn  Sn13  1  0.000000  0.597242  0.742550  1
  Sn  Sn14  1  0.402758  0.402758  0.742550  1
  Sn  Sn15  1  0.597242  0.000000  0.742550  1
  C  C16  1  0.000000  0.000000  0.500000  1
