# generated using pymatgen
data_YHo19Cd6CoRu
_symmetry_space_group_name_H-M   'P 1'
_cell_length_a   9.55757702
_cell_length_b   9.55641151
_cell_length_c   9.75582600
_cell_angle_alpha   90.00000000
_cell_angle_beta   90.00000000
_cell_angle_gamma   119.99596718
_symmetry_Int_Tables_number   1
_chemical_formula_structural   YHo19Cd6CoRu
_chemical_formula_sum   'Y1 Ho19 Cd6 Co1 Ru1'
_cell_volume   771.71150373
_cell_formula_units_Z   1
loop_
 _symmetry_equiv_pos_site_id
 _symmetry_equiv_pos_as_xyz
  1  'x, y, z'
loop_
 _atom_site_type_symbol
 _atom_site_label
 _atom_site_symmetry_multiplicity
 _atom_site_fract_x
 _atom_site_fract_y
 _atom_site_fract_z
 _atom_site_occupancy
  Y  Y0  1  0.083470  0.541735  0.750000  1
  Ho  Ho1  1  0.999945  0.999972  0.499897  1
  Ho  Ho2  1  0.999945  0.999972  0.000103  1
  Ho  Ho3  1  0.212305  0.787946  0.435871  1
  Ho  Ho4  1  0.212305  0.424360  0.435871  1
  Ho  Ho5  1  0.575576  0.787788  0.436034  1
  Ho  Ho6  1  0.790332  0.209252  0.559884  1
  Ho  Ho7  1  0.790332  0.581080  0.559884  1
  Ho  Ho8  1  0.418919  0.209459  0.559984  1
  Ho  Ho9  1  0.790332  0.209252  0.940116  1
  Ho  Ho10  1  0.790332  0.581080  0.940116  1
  Ho  Ho11  1  0.418919  0.209459  0.940016  1
  Ho  Ho12  1  0.212305  0.787946  0.064129  1
  Ho  Ho13  1  0.212305  0.424360  0.064129  1
  Ho  Ho14  1  0.575576  0.787788  0.063966  1
  Ho  Ho15  1  0.541551  0.458481  0.250000  1
  Ho  Ho16  1  0.541551  0.083069  0.250000  1
  Ho  Ho17  1  0.916939  0.458470  0.250000  1
  Ho  Ho18  1  0.458607  0.541596  0.750000  1
  Ho  Ho19  1  0.458607  0.917012  0.750000  1
  Cd  Cd20  1  0.885204  0.114761  0.250000  1
  Cd  Cd21  1  0.885204  0.770444  0.250000  1
  Cd  Cd22  1  0.229544  0.114772  0.250000  1
  Cd  Cd23  1  0.114725  0.885537  0.750000  1
  Cd  Cd24  1  0.114725  0.229187  0.750000  1
  Cd  Cd25  1  0.770589  0.885295  0.750000  1
  Co  Co26  1  0.333318  0.666660  0.250000  1
  Ru  Ru27  1  0.666537  0.333268  0.750000  1
