# generated using pymatgen
data_Pr6YLuO12
_symmetry_space_group_name_H-M   'P 1'
_cell_length_a   6.99850099
_cell_length_b   6.99850112
_cell_length_c   6.99850122
_cell_angle_alpha   92.30390259
_cell_angle_beta   92.30390361
_cell_angle_gamma   92.30388560
_symmetry_Int_Tables_number   1
_chemical_formula_structural   Pr6YLuO12
_chemical_formula_sum   'Pr6 Y1 Lu1 O12'
_cell_volume   341.92546902
_cell_formula_units_Z   1
loop_
 _symmetry_equiv_pos_site_id
 _symmetry_equiv_pos_as_xyz
  1  'x, y, z'
loop_
 _atom_site_type_symbol
 _atom_site_label
 _atom_site_symmetry_multiplicity
 _atom_site_fract_x
 _atom_site_fract_y
 _atom_site_fract_z
 _atom_site_occupancy
  Pr  Pr0  1  0.558920  0.066219  0.254656  1
  Pr  Pr1  1  0.066219  0.254656  0.558920  1
  Pr  Pr2  1  0.745344  0.441080  0.933781  1
  Pr  Pr3  1  0.254656  0.558920  0.066219  1
  Pr  Pr4  1  0.933781  0.745344  0.441080  1
  Pr  Pr5  1  0.441080  0.933781  0.745344  1
  Y  Y6  1  0.000000  0.000000  0.000000  1
  Lu  Lu7  1  0.500000  0.500000  0.500000  1
  O  O8  1  0.690547  0.088975  0.934454  1
  O  O9  1  0.911025  0.065546  0.309453  1
  O  O10  1  0.407313  0.196663  0.535657  1
  O  O11  1  0.065546  0.309453  0.911025  1
  O  O12  1  0.535657  0.407313  0.196663  1
  O  O13  1  0.803337  0.464343  0.592687  1
  O  O14  1  0.196663  0.535657  0.407313  1
  O  O15  1  0.464343  0.592687  0.803337  1
  O  O16  1  0.934454  0.690547  0.088975  1
  O  O17  1  0.592687  0.803337  0.464343  1
  O  O18  1  0.088975  0.934454  0.690547  1
  O  O19  1  0.309453  0.911025  0.065546  1
