# generated using pymatgen
data_Ce2Y9In9Ni4
_symmetry_space_group_name_H-M   'P 1'
_cell_length_a   12.96983547
_cell_length_b   12.96983415
_cell_length_c   3.66917600
_cell_angle_alpha   90.00000000
_cell_angle_beta   90.00000000
_cell_angle_gamma   110.34008494
_symmetry_Int_Tables_number   1
_chemical_formula_structural   Ce2Y9In9Ni4
_chemical_formula_sum   'Ce2 Y9 In9 Ni4'
_cell_volume   578.73044742
_cell_formula_units_Z   1
loop_
 _symmetry_equiv_pos_site_id
 _symmetry_equiv_pos_as_xyz
  1  'x, y, z'
loop_
 _atom_site_type_symbol
 _atom_site_label
 _atom_site_symmetry_multiplicity
 _atom_site_fract_x
 _atom_site_fract_y
 _atom_site_fract_z
 _atom_site_occupancy
  Ce  Ce0  1  0.313007  0.313007  0.000000  1
  Ce  Ce1  1  0.686993  0.686993  0.000000  1
  Y  Y2  1  0.419837  0.077640  0.000000  1
  Y  Y3  1  0.580163  0.922360  0.000000  1
  Y  Y4  1  0.077640  0.419837  0.000000  1
  Y  Y5  1  0.922360  0.580163  0.000000  1
  Y  Y6  1  0.159476  0.840524  0.000000  1
  Y  Y7  1  0.840524  0.159476  0.000000  1
  Y  Y8  1  0.373803  0.626197  0.000000  1
  Y  Y9  1  0.626197  0.373803  0.000000  1
  Y  Y10  1  0.000000  0.000000  0.000000  1
  In  In11  1  0.368226  0.842303  0.500000  1
  In  In12  1  0.631774  0.157697  0.500000  1
  In  In13  1  0.842303  0.368226  0.500000  1
  In  In14  1  0.157697  0.631774  0.500000  1
  In  In15  1  0.218998  0.073399  0.500000  1
  In  In16  1  0.781002  0.926601  0.500000  1
  In  In17  1  0.073399  0.218998  0.500000  1
  In  In18  1  0.926601  0.781002  0.500000  1
  In  In19  1  0.500000  0.500000  0.500000  1
  Ni  Ni20  1  0.444760  0.250035  0.500000  1
  Ni  Ni21  1  0.555240  0.749965  0.500000  1
  Ni  Ni22  1  0.250035  0.444760  0.500000  1
  Ni  Ni23  1  0.749965  0.555240  0.500000  1
