# generated using pymatgen
data_Er12Lu8Bi11Te
_symmetry_space_group_name_H-M   'P 1'
_cell_length_a   8.14300853
_cell_length_b   9.35918800
_cell_length_c   11.90924500
_cell_angle_alpha   90.00000000
_cell_angle_beta   89.68059037
_cell_angle_gamma   90.00000000
_symmetry_Int_Tables_number   1
_chemical_formula_structural   Er12Lu8Bi11Te
_chemical_formula_sum   'Er12 Lu8 Bi11 Te1'
_cell_volume   907.61265416
_cell_formula_units_Z   1
loop_
 _symmetry_equiv_pos_site_id
 _symmetry_equiv_pos_as_xyz
  1  'x, y, z'
loop_
 _atom_site_type_symbol
 _atom_site_label
 _atom_site_symmetry_multiplicity
 _atom_site_fract_x
 _atom_site_fract_y
 _atom_site_fract_z
 _atom_site_occupancy
  Er  Er0  1  0.021850  0.250000  0.511566  1
  Er  Er1  1  0.979020  0.750000  0.490497  1
  Er  Er2  1  0.477037  0.750000  0.010650  1
  Er  Er3  1  0.522873  0.250000  0.988658  1
  Er  Er4  1  0.355042  0.250000  0.285954  1
  Er  Er5  1  0.647781  0.750000  0.716044  1
  Er  Er6  1  0.148777  0.750000  0.782335  1
  Er  Er7  1  0.850632  0.250000  0.217389  1
  Er  Er8  1  0.185999  0.250000  0.782135  1
  Er  Er9  1  0.814249  0.750000  0.217293  1
  Er  Er10  1  0.315487  0.750000  0.283640  1
  Er  Er11  1  0.679779  0.250000  0.713354  1
  Lu  Lu12  1  0.190699  0.067942  0.059616  1
  Lu  Lu13  1  0.809383  0.933151  0.940984  1
  Lu  Lu14  1  0.311276  0.935187  0.558234  1
  Lu  Lu15  1  0.809383  0.566849  0.940984  1
  Lu  Lu16  1  0.688216  0.069713  0.442179  1
  Lu  Lu17  1  0.190699  0.432058  0.059616  1
  Lu  Lu18  1  0.688216  0.430287  0.442179  1
  Lu  Lu19  1  0.311276  0.564813  0.558234  1
  Bi  Bi20  1  0.598967  0.750000  0.456388  1
  Bi  Bi21  1  0.096898  0.750000  0.043008  1
  Bi  Bi22  1  0.903341  0.250000  0.956479  1
  Bi  Bi23  1  0.066586  0.004598  0.325926  1
  Bi  Bi24  1  0.934148  0.996510  0.675897  1
  Bi  Bi25  1  0.434328  0.996121  0.824152  1
  Bi  Bi26  1  0.934148  0.503490  0.675897  1
  Bi  Bi27  1  0.566389  0.003886  0.174187  1
  Bi  Bi28  1  0.066586  0.495402  0.325926  1
  Bi  Bi29  1  0.566389  0.496114  0.174187  1
  Bi  Bi30  1  0.434328  0.503879  0.824152  1
  Te  Te31  1  0.400225  0.250000  0.542261  1
