# generated using pymatgen
data_Tb3ZnHg2Pd3
_symmetry_space_group_name_H-M   'P 1'
_cell_length_a   7.63579300
_cell_length_b   7.63059693
_cell_length_c   3.83468000
_cell_angle_alpha   90.00000000
_cell_angle_beta   90.00000000
_cell_angle_gamma   120.02251525
_symmetry_Int_Tables_number   1
_chemical_formula_structural   Tb3ZnHg2Pd3
_chemical_formula_sum   'Tb3 Zn1 Hg2 Pd3'
_cell_volume   193.45227590
_cell_formula_units_Z   1
loop_
 _symmetry_equiv_pos_site_id
 _symmetry_equiv_pos_as_xyz
  1  'x, y, z'
loop_
 _atom_site_type_symbol
 _atom_site_label
 _atom_site_symmetry_multiplicity
 _atom_site_fract_x
 _atom_site_fract_y
 _atom_site_fract_z
 _atom_site_occupancy
  Tb  Tb0  1  0.998458  0.396984  0.000000  1
  Tb  Tb1  1  0.601474  0.603016  0.000000  1
  Tb  Tb2  1  0.412382  0.000000  0.000000  1
  Zn  Zn3  1  0.733824  0.000000  0.500000  1
  Hg  Hg4  1  0.004831  0.740793  0.500000  1
  Hg  Hg5  1  0.264038  0.259207  0.500000  1
  Pd  Pd6  1  0.967092  0.000000  0.000000  1
  Pd  Pd7  1  0.345939  0.673978  0.500000  1
  Pd  Pd8  1  0.671962  0.326022  0.500000  1
