# generated using pymatgen
data_H4RhF7
_symmetry_space_group_name_H-M   'P 1'
_cell_length_a   3.14782096
_cell_length_b   7.96362359
_cell_length_c   7.22836998
_cell_angle_alpha   126.81401440
_cell_angle_beta   77.04553556
_cell_angle_gamma   91.27821394
_symmetry_Int_Tables_number   1
_chemical_formula_structural   H4RhF7
_chemical_formula_sum   'H4 Rh1 F7'
_cell_volume   139.90992050
_cell_formula_units_Z   1
loop_
 _symmetry_equiv_pos_site_id
 _symmetry_equiv_pos_as_xyz
  1  'x, y, z'
loop_
 _atom_site_type_symbol
 _atom_site_label
 _atom_site_symmetry_multiplicity
 _atom_site_fract_x
 _atom_site_fract_y
 _atom_site_fract_z
 _atom_site_occupancy
  H  H0  1  0.501024  0.967393  0.194963  1
  H  H1  1  0.911236  0.840097  0.859567  1
  H  H2  1  0.068166  0.606910  0.494674  1
  H  H3  1  0.020815  0.516870  0.170623  1
  Rh  Rh4  1  0.158928  0.235882  0.691711  1
  F  F5  1  0.031411  0.489262  0.322175  1
  F  F6  1  0.607355  0.136798  0.781025  1
  F  F7  1  0.000891  0.523494  0.028742  1
  F  F8  1  0.153490  0.733702  0.698388  1
  F  F9  1  0.709368  0.336516  0.603975  1
  F  F10  1  0.305771  0.959843  0.365854  1
  F  F11  1  0.644216  0.985204  0.062632  1
