# generated using pymatgen
data_Al11ReTc2Os
_symmetry_space_group_name_H-M   'P 1'
_cell_length_a   5.18038132
_cell_length_b   5.16903093
_cell_length_c   9.00637873
_cell_angle_alpha   105.14335783
_cell_angle_beta   90.39712577
_cell_angle_gamma   100.30954995
_symmetry_Int_Tables_number   1
_chemical_formula_structural   Al11ReTc2Os
_chemical_formula_sum   'Al11 Re1 Tc2 Os1'
_cell_volume   228.66961036
_cell_formula_units_Z   1
loop_
 _symmetry_equiv_pos_site_id
 _symmetry_equiv_pos_as_xyz
  1  'x, y, z'
loop_
 _atom_site_type_symbol
 _atom_site_label
 _atom_site_symmetry_multiplicity
 _atom_site_fract_x
 _atom_site_fract_y
 _atom_site_fract_z
 _atom_site_occupancy
  Al  Al0  1  0.801073  0.261569  0.634517  1
  Al  Al1  1  0.201013  0.742847  0.363675  1
  Al  Al2  1  0.149419  0.465429  0.871872  1
  Al  Al3  1  0.852725  0.532880  0.128961  1
  Al  Al4  1  0.997858  0.996882  0.000267  1
  Al  Al5  1  0.500817  0.098623  0.873279  1
  Al  Al6  1  0.499551  0.900949  0.127038  1
  Al  Al7  1  0.569286  0.320712  0.376763  1
  Al  Al8  1  0.431098  0.677827  0.622429  1
  Al  Al9  1  0.938874  0.806511  0.668857  1
  Al  Al10  1  0.056120  0.197597  0.331528  1
  Re  Re11  1  0.338503  0.387317  0.132985  1
  Tc  Tc12  1  0.722580  0.847950  0.401005  1
  Tc  Tc13  1  0.661819  0.608738  0.864533  1
  Os  Os14  1  0.279262  0.154168  0.602291  1
