# generated using pymatgen
data_Dy9Zn4
_symmetry_space_group_name_H-M   'P 1'
_cell_length_a   8.59450654
_cell_length_b   8.59450707
_cell_length_c   8.59450679
_cell_angle_alpha   94.95518234
_cell_angle_beta   94.95517798
_cell_angle_gamma   145.81696825
_symmetry_Int_Tables_number   1
_chemical_formula_structural   Dy9Zn4
_chemical_formula_sum   'Dy9 Zn4'
_cell_volume   340.92430690
_cell_formula_units_Z   1
loop_
 _symmetry_equiv_pos_site_id
 _symmetry_equiv_pos_as_xyz
  1  'x, y, z'
loop_
 _atom_site_type_symbol
 _atom_site_label
 _atom_site_symmetry_multiplicity
 _atom_site_fract_x
 _atom_site_fract_y
 _atom_site_fract_z
 _atom_site_occupancy
  Dy  Dy0  1  0.499999  0.499999  0.000000  1
  Dy  Dy1  1  0.181794  0.888122  0.069918  1
  Dy  Dy2  1  0.111877  0.181795  0.293672  1
  Dy  Dy3  1  0.881479  0.403250  0.284732  1
  Dy  Dy4  1  0.596748  0.881479  0.478229  1
  Dy  Dy5  1  0.403251  0.118520  0.521770  1
  Dy  Dy6  1  0.118520  0.596749  0.715268  1
  Dy  Dy7  1  0.888122  0.818204  0.706328  1
  Dy  Dy8  1  0.818205  0.111877  0.930082  1
  Zn  Zn9  1  0.390932  0.734631  0.125564  1
  Zn  Zn10  1  0.734631  0.609066  0.343700  1
  Zn  Zn11  1  0.265368  0.390933  0.656300  1
  Zn  Zn12  1  0.609067  0.265368  0.874436  1
