# generated using pymatgen
data_Yb5Pd2Pb
_symmetry_space_group_name_H-M   'P 1'
_cell_length_a   9.07894173
_cell_length_b   9.07894063
_cell_length_c   9.07894147
_cell_angle_alpha   128.82789807
_cell_angle_beta   128.82789018
_cell_angle_gamma   75.28765071
_symmetry_Int_Tables_number   1
_chemical_formula_structural   Yb5Pd2Pb
_chemical_formula_sum   'Yb10 Pd4 Pb2'
_cell_volume   442.07099265
_cell_formula_units_Z   2
loop_
 _symmetry_equiv_pos_site_id
 _symmetry_equiv_pos_as_xyz
  1  'x, y, z'
loop_
 _atom_site_type_symbol
 _atom_site_label
 _atom_site_symmetry_multiplicity
 _atom_site_fract_x
 _atom_site_fract_y
 _atom_site_fract_z
 _atom_site_occupancy
  Yb  Yb0  1  0.500000  0.500000  0.000000  1
  Yb  Yb1  1  0.000000  0.000000  0.000000  1
  Yb  Yb2  1  0.533789  0.033789  0.833732  1
  Yb  Yb3  1  0.200058  0.700058  0.166268  1
  Yb  Yb4  1  0.033789  0.200058  0.500000  1
  Yb  Yb5  1  0.700058  0.533789  0.500000  1
  Yb  Yb6  1  0.466211  0.966211  0.166268  1
  Yb  Yb7  1  0.799942  0.299942  0.833732  1
  Yb  Yb8  1  0.966211  0.799942  0.500000  1
  Yb  Yb9  1  0.299942  0.466211  0.500000  1
  Pd  Pd10  1  0.128889  0.628889  0.757778  1
  Pd  Pd11  1  0.871111  0.371111  0.242222  1
  Pd  Pd12  1  0.628889  0.871111  0.500000  1
  Pd  Pd13  1  0.371111  0.128889  0.500000  1
  Pb  Pb14  1  0.250000  0.250000  0.000000  1
  Pb  Pb15  1  0.750000  0.750000  0.000000  1
