# generated using pymatgen
data_LiCe(CrAs3)2
_symmetry_space_group_name_H-M   'P 1'
_cell_length_a   5.56474900
_cell_length_b   5.61504376
_cell_length_c   12.12504341
_cell_angle_alpha   90.94444762
_cell_angle_beta   90.00000000
_cell_angle_gamma   90.00000000
_symmetry_Int_Tables_number   1
_chemical_formula_structural   LiCe(CrAs3)2
_chemical_formula_sum   'Li2 Ce2 Cr4 As12'
_cell_volume   378.81138497
_cell_formula_units_Z   2
loop_
 _symmetry_equiv_pos_site_id
 _symmetry_equiv_pos_as_xyz
  1  'x, y, z'
loop_
 _atom_site_type_symbol
 _atom_site_label
 _atom_site_symmetry_multiplicity
 _atom_site_fract_x
 _atom_site_fract_y
 _atom_site_fract_z
 _atom_site_occupancy
  Li  Li0  1  0.250000  0.498535  0.312722  1
  Li  Li1  1  0.750000  0.501465  0.687278  1
  Ce  Ce2  1  0.250000  0.006597  0.686928  1
  Ce  Ce3  1  0.750000  0.993403  0.313072  1
  Cr  Cr4  1  0.999113  0.745143  0.912262  1
  Cr  Cr5  1  0.000887  0.254857  0.087738  1
  Cr  Cr6  1  0.499113  0.254857  0.087738  1
  Cr  Cr7  1  0.500887  0.745143  0.912262  1
  As  As8  1  0.975735  0.732823  0.505148  1
  As  As9  1  0.024265  0.267177  0.494852  1
  As  As10  1  0.475735  0.267177  0.494852  1
  As  As11  1  0.524265  0.732823  0.505148  1
  As  As12  1  0.250000  0.618592  0.074050  1
  As  As13  1  0.750000  0.381408  0.925950  1
  As  As14  1  0.250000  0.107813  0.930596  1
  As  As15  1  0.750000  0.892187  0.069404  1
  As  As16  1  0.250000  0.998889  0.208619  1
  As  As17  1  0.750000  0.001111  0.791381  1
  As  As18  1  0.250000  0.508301  0.786270  1
  As  As19  1  0.750000  0.491699  0.213730  1
