# generated using pymatgen
data_HfPa6TiGe10
_symmetry_space_group_name_H-M   'P 1'
_cell_length_a   8.61911600
_cell_length_b   8.61911651
_cell_length_c   5.83020000
_cell_angle_alpha   90.00000000
_cell_angle_beta   90.00000000
_cell_angle_gamma   119.99999805
_symmetry_Int_Tables_number   1
_chemical_formula_structural   HfPa6TiGe10
_chemical_formula_sum   'Hf1 Pa6 Ti1 Ge10'
_cell_volume   375.09352759
_cell_formula_units_Z   1
loop_
 _symmetry_equiv_pos_site_id
 _symmetry_equiv_pos_as_xyz
  1  'x, y, z'
loop_
 _atom_site_type_symbol
 _atom_site_label
 _atom_site_symmetry_multiplicity
 _atom_site_fract_x
 _atom_site_fract_y
 _atom_site_fract_z
 _atom_site_occupancy
  Hf  Hf0  1  0.000000  0.000000  0.000000  1
  Pa  Pa1  1  0.615877  0.000000  0.249335  1
  Pa  Pa2  1  0.615877  0.615877  0.750665  1
  Pa  Pa3  1  0.000000  0.384123  0.750665  1
  Pa  Pa4  1  0.000000  0.615877  0.249335  1
  Pa  Pa5  1  0.384123  0.384123  0.249335  1
  Pa  Pa6  1  0.384123  0.000000  0.750665  1
  Ti  Ti7  1  0.000000  0.000000  0.500000  1
  Ge  Ge8  1  0.266736  0.000000  0.256025  1
  Ge  Ge9  1  0.266736  0.266736  0.743975  1
  Ge  Ge10  1  0.000000  0.733264  0.743975  1
  Ge  Ge11  1  0.000000  0.266736  0.256025  1
  Ge  Ge12  1  0.733264  0.733264  0.256025  1
  Ge  Ge13  1  0.733264  0.000000  0.743975  1
  Ge  Ge14  1  0.333333  0.666667  0.000000  1
  Ge  Ge15  1  0.666667  0.333333  0.500000  1
  Ge  Ge16  1  0.666667  0.333333  0.000000  1
  Ge  Ge17  1  0.333333  0.666667  0.500000  1
