# generated using pymatgen
data_Mg4Zn2B4IrRh9
_symmetry_space_group_name_H-M   'P 1'
_cell_length_a   9.45426094
_cell_length_b   2.93733700
_cell_length_c   9.45426094
_cell_angle_alpha   90.00000000
_cell_angle_beta   90.05102784
_cell_angle_gamma   90.00000000
_symmetry_Int_Tables_number   1
_chemical_formula_structural   Mg4Zn2B4IrRh9
_chemical_formula_sum   'Mg4 Zn2 B4 Ir1 Rh9'
_cell_volume   262.54803544
_cell_formula_units_Z   1
loop_
 _symmetry_equiv_pos_site_id
 _symmetry_equiv_pos_as_xyz
  1  'x, y, z'
loop_
 _atom_site_type_symbol
 _atom_site_label
 _atom_site_symmetry_multiplicity
 _atom_site_fract_x
 _atom_site_fract_y
 _atom_site_fract_z
 _atom_site_occupancy
  Mg  Mg0  1  0.322865  0.000000  0.177136  1
  Mg  Mg1  1  0.824126  0.000000  0.324126  1
  Mg  Mg2  1  0.175875  0.000000  0.675875  1
  Mg  Mg3  1  0.677136  0.000000  0.822865  1
  Zn  Zn4  1  0.000000  0.000000  0.000000  1
  Zn  Zn5  1  0.500000  0.000000  0.500000  1
  B  B6  1  0.625658  0.000000  0.125657  1
  B  B7  1  0.126438  0.000000  0.373561  1
  B  B8  1  0.873562  0.000000  0.626439  1
  B  B9  1  0.374342  0.000000  0.874343  1
  Ir  Ir10  1  0.500000  0.500000  0.000000  1
  Rh  Rh11  1  0.784344  0.500000  0.072461  1
  Rh  Rh12  1  0.070963  0.500000  0.216478  1
  Rh  Rh13  1  0.572461  0.500000  0.284345  1
  Rh  Rh14  1  0.283523  0.500000  0.429038  1
  Rh  Rh15  1  0.000000  0.500000  0.500000  1
  Rh  Rh16  1  0.716477  0.500000  0.570963  1
  Rh  Rh17  1  0.427540  0.500000  0.715655  1
  Rh  Rh18  1  0.929037  0.500000  0.783522  1
  Rh  Rh19  1  0.215656  0.500000  0.927539  1
