# generated using pymatgen
data_CePa(MnCo)2
_symmetry_space_group_name_H-M   'P 1'
_cell_length_a   5.19356059
_cell_length_b   5.05732923
_cell_length_c   5.05733028
_cell_angle_alpha   59.83835271
_cell_angle_beta   59.10484008
_cell_angle_gamma   59.10485494
_symmetry_Int_Tables_number   1
_chemical_formula_structural   CePa(MnCo)2
_chemical_formula_sum   'Ce1 Pa1 Mn2 Co2'
_cell_volume   92.52597222
_cell_formula_units_Z   1
loop_
 _symmetry_equiv_pos_site_id
 _symmetry_equiv_pos_as_xyz
  1  'x, y, z'
loop_
 _atom_site_type_symbol
 _atom_site_label
 _atom_site_symmetry_multiplicity
 _atom_site_fract_x
 _atom_site_fract_y
 _atom_site_fract_z
 _atom_site_occupancy
  Ce  Ce0  1  0.249349  0.250651  0.250651  1
  Pa  Pa1  1  0.001129  0.998871  0.998871  1
  Mn  Mn2  1  0.625202  0.624524  0.125072  1
  Mn  Mn3  1  0.625202  0.125072  0.624524  1
  Co  Co4  1  0.124106  0.625441  0.625441  1
  Co  Co5  1  0.625011  0.625441  0.625441  1
