# generated using pymatgen
data_La2Tb3Tl(SbO7)2
_symmetry_space_group_name_H-M   'P 1'
_cell_length_a   6.64385575
_cell_length_b   6.50679606
_cell_length_c   7.73841300
_cell_angle_alpha   90.00000000
_cell_angle_beta   90.00000000
_cell_angle_gamma   109.77633514
_symmetry_Int_Tables_number   1
_chemical_formula_structural   La2Tb3Tl(SbO7)2
_chemical_formula_sum   'La2 Tb3 Tl1 Sb2 O14'
_cell_volume   314.80268178
_cell_formula_units_Z   1
loop_
 _symmetry_equiv_pos_site_id
 _symmetry_equiv_pos_as_xyz
  1  'x, y, z'
loop_
 _atom_site_type_symbol
 _atom_site_label
 _atom_site_symmetry_multiplicity
 _atom_site_fract_x
 _atom_site_fract_y
 _atom_site_fract_z
 _atom_site_occupancy
  La  La0  1  0.502512  0.506249  0.495486  1
  La  La1  1  0.502512  0.506249  0.004514  1
  Tb  Tb2  1  0.000312  0.530259  0.250000  1
  Tb  Tb3  1  0.469536  0.001235  0.250000  1
  Tb  Tb4  1  0.995166  0.458996  0.750000  1
  Tl  Tl5  1  0.505479  0.996441  0.750000  1
  Sb  Sb6  1  0.999460  0.998625  0.499473  1
  Sb  Sb7  1  0.999460  0.998625  0.000527  1
  O  O8  1  0.686893  0.931733  0.462385  1
  O  O9  1  0.930894  0.676628  0.532258  1
  O  O10  1  0.686893  0.931733  0.037615  1
  O  O11  1  0.930894  0.676628  0.967742  1
  O  O12  1  0.318755  0.071757  0.515726  1
  O  O13  1  0.066318  0.321563  0.471665  1
  O  O14  1  0.318755  0.071757  0.984274  1
  O  O15  1  0.066318  0.321563  0.028335  1
  O  O16  1  0.959888  0.072309  0.750000  1
  O  O17  1  0.063962  0.926782  0.250000  1
  O  O18  1  0.363672  0.644965  0.750000  1
  O  O19  1  0.637883  0.371160  0.250000  1
  O  O20  1  0.637790  0.345743  0.750000  1
  O  O21  1  0.356647  0.638999  0.250000  1
