# generated using pymatgen
data_Ti4NbSe4
_symmetry_space_group_name_H-M   'P 1'
_cell_length_a   7.11910009
_cell_length_b   7.11910021
_cell_length_c   7.11910011
_cell_angle_alpha   93.43562709
_cell_angle_beta   93.43563028
_cell_angle_gamma   151.65996704
_symmetry_Int_Tables_number   1
_chemical_formula_structural   Ti4NbSe4
_chemical_formula_sum   'Ti4 Nb1 Se4'
_cell_volume   166.06507279
_cell_formula_units_Z   1
loop_
 _symmetry_equiv_pos_site_id
 _symmetry_equiv_pos_as_xyz
  1  'x, y, z'
loop_
 _atom_site_type_symbol
 _atom_site_label
 _atom_site_symmetry_multiplicity
 _atom_site_fract_x
 _atom_site_fract_y
 _atom_site_fract_z
 _atom_site_occupancy
  Ti  Ti0  1  0.625980  0.691905  0.317884  1
  Ti  Ti1  1  0.691905  0.374020  0.065925  1
  Ti  Ti2  1  0.308095  0.625980  0.934075  1
  Ti  Ti3  1  0.374020  0.308095  0.682116  1
  Nb  Nb4  1  0.000000  0.000000  0.000000  1
  Se  Se5  1  0.723674  0.941691  0.665365  1
  Se  Se6  1  0.941691  0.276326  0.218017  1
  Se  Se7  1  0.058309  0.723674  0.781983  1
  Se  Se8  1  0.276326  0.058309  0.334635  1
