# generated using pymatgen
data_YbTa8CdSe16
_symmetry_space_group_name_H-M   'P 1'
_cell_length_a   7.03940400
_cell_length_b   7.03940254
_cell_length_c   14.44345500
_cell_angle_alpha   90.00000000
_cell_angle_beta   90.00000000
_cell_angle_gamma   120.00000688
_symmetry_Int_Tables_number   1
_chemical_formula_structural   YbTa8CdSe16
_chemical_formula_sum   'Yb1 Ta8 Cd1 Se16'
_cell_volume   619.83113130
_cell_formula_units_Z   1
loop_
 _symmetry_equiv_pos_site_id
 _symmetry_equiv_pos_as_xyz
  1  'x, y, z'
loop_
 _atom_site_type_symbol
 _atom_site_label
 _atom_site_symmetry_multiplicity
 _atom_site_fract_x
 _atom_site_fract_y
 _atom_site_fract_z
 _atom_site_occupancy
  Yb  Yb0  1  0.000000  0.000000  0.500000  1
  Ta  Ta1  1  0.510085  0.489915  0.752805  1
  Ta  Ta2  1  0.020167  0.510085  0.247195  1
  Ta  Ta3  1  0.489915  0.979833  0.247195  1
  Ta  Ta4  1  0.510085  0.020167  0.752805  1
  Ta  Ta5  1  0.979833  0.489915  0.752805  1
  Ta  Ta6  1  0.489915  0.510085  0.247195  1
  Ta  Ta7  1  0.000000  0.000000  0.750371  1
  Ta  Ta8  1  0.000000  0.000000  0.249629  1
  Cd  Cd9  1  0.000000  0.000000  0.000000  1
  Se  Se10  1  0.829532  0.170468  0.360853  1
  Se  Se11  1  0.829532  0.659064  0.360853  1
  Se  Se12  1  0.340936  0.170468  0.360853  1
  Se  Se13  1  0.662847  0.831423  0.864863  1
  Se  Se14  1  0.170468  0.340936  0.639147  1
  Se  Se15  1  0.168577  0.831423  0.864863  1
  Se  Se16  1  0.168577  0.337153  0.864863  1
  Se  Se17  1  0.831423  0.168577  0.135137  1
  Se  Se18  1  0.337153  0.168577  0.135137  1
  Se  Se19  1  0.659064  0.829532  0.639147  1
  Se  Se20  1  0.333333  0.666667  0.126464  1
  Se  Se21  1  0.666667  0.333333  0.630774  1
  Se  Se22  1  0.666667  0.333333  0.873536  1
  Se  Se23  1  0.333333  0.666667  0.369226  1
  Se  Se24  1  0.831423  0.662847  0.135137  1
  Se  Se25  1  0.170468  0.829532  0.639147  1
