# generated using pymatgen
data_Y4Ni2B16PtRh
_symmetry_space_group_name_H-M   'P 1'
_cell_length_a   6.93028691
_cell_length_b   6.93028593
_cell_length_c   6.93028740
_cell_angle_alpha   111.37403617
_cell_angle_beta   113.36918064
_cell_angle_gamma   103.82110619
_symmetry_Int_Tables_number   1
_chemical_formula_structural   Y4Ni2B16PtRh
_chemical_formula_sum   'Y4 Ni2 B16 Pt1 Rh1'
_cell_volume   254.30116778
_cell_formula_units_Z   1
loop_
 _symmetry_equiv_pos_site_id
 _symmetry_equiv_pos_as_xyz
  1  'x, y, z'
loop_
 _atom_site_type_symbol
 _atom_site_label
 _atom_site_symmetry_multiplicity
 _atom_site_fract_x
 _atom_site_fract_y
 _atom_site_fract_z
 _atom_site_occupancy
  Y  Y0  1  0.791701  0.794107  0.997595  1
  Y  Y1  1  0.203488  0.205893  0.997595  1
  Y  Y2  1  0.751372  0.249338  0.502034  1
  Y  Y3  1  0.252695  0.750662  0.502034  1
  Ni  Ni4  1  0.499616  0.742954  0.242570  1
  Ni  Ni5  1  0.499616  0.257046  0.756662  1
  B  B6  1  0.273960  0.108951  0.382910  1
  B  B7  1  0.726409  0.891881  0.618291  1
  B  B8  1  0.273960  0.891049  0.165009  1
  B  B9  1  0.726409  0.108119  0.834529  1
  B  B10  1  0.111081  0.731287  0.842368  1
  B  B11  1  0.890088  0.265799  0.155887  1
  B  B12  1  0.111081  0.268713  0.379794  1
  B  B13  1  0.890088  0.734201  0.624288  1
  B  B14  1  0.113261  0.108915  0.527594  1
  B  B15  1  0.581023  0.588004  0.474522  1
  B  B16  1  0.113261  0.585667  0.004346  1
  B  B17  1  0.581023  0.106501  0.993019  1
  B  B18  1  0.886518  0.893499  0.474522  1
  B  B19  1  0.418679  0.414333  0.527594  1
  B  B20  1  0.886518  0.411996  0.993019  1
  B  B21  1  0.418679  0.891085  0.004346  1
  Pt  Pt22  1  0.724724  0.500000  0.224724  1
  Rh  Rh23  1  0.274749  0.500000  0.774749  1
