# generated using pymatgen
data_BaPt2PbCl12
_symmetry_space_group_name_H-M   'P 1'
_cell_length_a   6.64238867
_cell_length_b   6.64238963
_cell_length_c   10.80339262
_cell_angle_alpha   87.65697441
_cell_angle_beta   87.65697586
_cell_angle_gamma   70.71188920
_symmetry_Int_Tables_number   1
_chemical_formula_structural   BaPt2PbCl12
_chemical_formula_sum   'Ba1 Pt2 Pb1 Cl12'
_cell_volume   449.33933358
_cell_formula_units_Z   1
loop_
 _symmetry_equiv_pos_site_id
 _symmetry_equiv_pos_as_xyz
  1  'x, y, z'
loop_
 _atom_site_type_symbol
 _atom_site_label
 _atom_site_symmetry_multiplicity
 _atom_site_fract_x
 _atom_site_fract_y
 _atom_site_fract_z
 _atom_site_occupancy
  Ba  Ba0  1  0.995544  0.004456  0.250000  1
  Pt  Pt1  1  0.506008  0.006947  0.506192  1
  Pt  Pt2  1  0.993053  0.493992  0.993808  1
  Pb  Pb3  1  0.009704  0.990296  0.750000  1
  Cl  Cl4  1  0.404649  0.737222  0.610780  1
  Cl  Cl5  1  0.598016  0.283203  0.402240  1
  Cl  Cl6  1  0.262778  0.595351  0.889220  1
  Cl  Cl7  1  0.716797  0.401984  0.097760  1
  Cl  Cl8  1  0.525395  0.152166  0.697030  1
  Cl  Cl9  1  0.496827  0.858535  0.312354  1
  Cl  Cl10  1  0.847834  0.474605  0.802970  1
  Cl  Cl11  1  0.141465  0.503173  0.187646  1
  Cl  Cl12  1  0.792390  0.858900  0.001475  1
  Cl  Cl13  1  0.197868  0.129429  0.982276  1
  Cl  Cl14  1  0.141100  0.207610  0.498525  1
  Cl  Cl15  1  0.870571  0.802132  0.517724  1
