# generated using pymatgen
data_Ti2Nb3Ge(B2Ru5)2
_symmetry_space_group_name_H-M   'P 1'
_cell_length_a   9.33955132
_cell_length_b   9.34108583
_cell_length_c   2.99772500
_cell_angle_alpha   90.00000000
_cell_angle_beta   90.00000000
_cell_angle_gamma   89.67139317
_symmetry_Int_Tables_number   1
_chemical_formula_structural   Ti2Nb3Ge(B2Ru5)2
_chemical_formula_sum   'Ti2 Nb3 Ge1 B4 Ru10'
_cell_volume   261.52187590
_cell_formula_units_Z   1
loop_
 _symmetry_equiv_pos_site_id
 _symmetry_equiv_pos_as_xyz
  1  'x, y, z'
loop_
 _atom_site_type_symbol
 _atom_site_label
 _atom_site_symmetry_multiplicity
 _atom_site_fract_x
 _atom_site_fract_y
 _atom_site_fract_z
 _atom_site_occupancy
  Ti  Ti0  1  0.825132  0.678680  0.000000  1
  Ti  Ti1  1  0.999639  0.998958  0.000000  1
  Nb  Nb2  1  0.173677  0.323710  0.000000  1
  Nb  Nb3  1  0.322301  0.823785  0.000000  1
  Nb  Nb4  1  0.678662  0.175262  0.000000  1
  Ge  Ge5  1  0.500261  0.500197  0.000000  1
  B  B6  1  0.624111  0.873540  0.000000  1
  B  B7  1  0.377560  0.124838  0.000000  1
  B  B8  1  0.123172  0.622708  0.000000  1
  B  B9  1  0.875295  0.378969  0.000000  1
  Ru  Ru10  1  0.571312  0.712146  0.500000  1
  Ru  Ru11  1  0.430917  0.286608  0.500000  1
  Ru  Ru12  1  0.070818  0.784230  0.500000  1
  Ru  Ru13  1  0.930156  0.216914  0.500000  1
  Ru  Ru14  1  0.286421  0.568178  0.500000  1
  Ru  Ru15  1  0.712608  0.430395  0.500000  1
  Ru  Ru16  1  0.216459  0.070649  0.500000  1
  Ru  Ru17  1  0.784513  0.927311  0.500000  1
  Ru  Ru18  1  0.500563  0.999315  0.500000  1
  Ru  Ru19  1  0.996423  0.503605  0.500000  1
