# generated using pymatgen
data_Er3Bi(Rh2O7)2
_symmetry_space_group_name_H-M   'P 1'
_cell_length_a   7.20395608
_cell_length_b   7.20395565
_cell_length_c   7.24500097
_cell_angle_alpha   60.18722943
_cell_angle_beta   60.18723124
_cell_angle_gamma   59.99999825
_symmetry_Int_Tables_number   1
_chemical_formula_structural   Er3Bi(Rh2O7)2
_chemical_formula_sum   'Er3 Bi1 Rh4 O14'
_cell_volume   266.61759024
_cell_formula_units_Z   1
loop_
 _symmetry_equiv_pos_site_id
 _symmetry_equiv_pos_as_xyz
  1  'x, y, z'
loop_
 _atom_site_type_symbol
 _atom_site_label
 _atom_site_symmetry_multiplicity
 _atom_site_fract_x
 _atom_site_fract_y
 _atom_site_fract_z
 _atom_site_occupancy
  Er  Er0  1  0.125000  0.125000  0.125000  1
  Er  Er1  1  0.125000  0.625000  0.125000  1
  Er  Er2  1  0.625000  0.125000  0.125000  1
  Bi  Bi3  1  0.125000  0.125000  0.625000  1
  Rh  Rh4  1  0.625000  0.625000  0.625000  1
  Rh  Rh5  1  0.625000  0.625000  0.125000  1
  Rh  Rh6  1  0.125000  0.625000  0.625000  1
  Rh  Rh7  1  0.625000  0.125000  0.625000  1
  O  O8  1  0.252719  0.252719  0.241842  1
  O  O9  1  0.286334  0.713285  0.287096  1
  O  O10  1  0.962221  0.962221  0.533839  1
  O  O11  1  0.541720  0.962221  0.533839  1
  O  O12  1  0.713285  0.713285  0.287096  1
  O  O13  1  0.962221  0.541720  0.533839  1
  O  O14  1  0.708280  0.287779  0.716161  1
  O  O15  1  0.287779  0.287779  0.716161  1
  O  O16  1  0.713285  0.286334  0.287096  1
  O  O17  1  0.287779  0.708280  0.716161  1
  O  O18  1  0.963666  0.536715  0.962904  1
  O  O19  1  0.536715  0.536715  0.962904  1
  O  O20  1  0.997281  0.997281  0.008158  1
  O  O21  1  0.536715  0.963666  0.962904  1
