# generated using pymatgen
data_Cs3Bi2(SbS3)3
_symmetry_space_group_name_H-M   'P 1'
_cell_length_a   13.77964573
_cell_length_b   13.77964473
_cell_length_c   9.55417590
_cell_angle_alpha   84.24129853
_cell_angle_beta   84.24129933
_cell_angle_gamma   139.65231578
_symmetry_Int_Tables_number   1
_chemical_formula_structural   Cs3Bi2(SbS3)3
_chemical_formula_sum   'Cs6 Bi4 Sb6 S18'
_cell_volume   1123.70342542
_cell_formula_units_Z   2
loop_
 _symmetry_equiv_pos_site_id
 _symmetry_equiv_pos_as_xyz
  1  'x, y, z'
loop_
 _atom_site_type_symbol
 _atom_site_label
 _atom_site_symmetry_multiplicity
 _atom_site_fract_x
 _atom_site_fract_y
 _atom_site_fract_z
 _atom_site_occupancy
  Cs  Cs0  1  0.418258  0.581742  0.500000  1
  Cs  Cs1  1  0.581742  0.418258  0.500000  1
  Cs  Cs2  1  0.022822  0.453291  0.233712  1
  Cs  Cs3  1  0.453291  0.022822  0.233712  1
  Cs  Cs4  1  0.977178  0.546709  0.766288  1
  Cs  Cs5  1  0.546709  0.977178  0.766288  1
  Bi  Bi6  1  0.425011  0.574989  0.000000  1
  Bi  Bi7  1  0.574989  0.425011  0.000000  1
  Bi  Bi8  1  0.921887  0.078113  0.500000  1
  Bi  Bi9  1  0.078113  0.921887  0.500000  1
  Sb  Sb10  1  0.034273  0.280258  0.837925  1
  Sb  Sb11  1  0.280258  0.034273  0.837925  1
  Sb  Sb12  1  0.965727  0.719742  0.162075  1
  Sb  Sb13  1  0.719742  0.965727  0.162075  1
  Sb  Sb14  1  0.885757  0.885757  0.871276  1
  Sb  Sb15  1  0.114243  0.114243  0.128724  1
  S  S16  1  0.119903  0.119903  0.632663  1
  S  S17  1  0.880097  0.880097  0.367337  1
  S  S18  1  0.808924  0.191076  0.000000  1
  S  S19  1  0.191076  0.808924  0.000000  1
  S  S20  1  0.239728  0.552750  0.836974  1
  S  S21  1  0.552750  0.239728  0.836974  1
  S  S22  1  0.760272  0.447250  0.163026  1
  S  S23  1  0.447250  0.760272  0.163026  1
  S  S24  1  0.993974  0.312217  0.602568  1
  S  S25  1  0.312217  0.993974  0.602568  1
  S  S26  1  0.006026  0.687783  0.397432  1
  S  S27  1  0.687783  0.006026  0.397432  1
  S  S28  1  0.368989  0.368989  0.879932  1
  S  S29  1  0.631011  0.631011  0.120068  1
  S  S30  1  0.701091  0.849397  0.772898  1
  S  S31  1  0.849397  0.701091  0.772898  1
  S  S32  1  0.298909  0.150603  0.227102  1
  S  S33  1  0.150603  0.298909  0.227102  1
