# generated using pymatgen
data_TbMgFeB6
_symmetry_space_group_name_H-M   'P 1'
_cell_length_a   3.43052600
_cell_length_b   8.84388300
_cell_length_c   11.21924600
_cell_angle_alpha   90.00000000
_cell_angle_beta   90.00000000
_cell_angle_gamma   90.00000000
_symmetry_Int_Tables_number   1
_chemical_formula_structural   TbMgFeB6
_chemical_formula_sum   'Tb4 Mg4 Fe4 B24'
_cell_volume   340.38261809
_cell_formula_units_Z   4
loop_
 _symmetry_equiv_pos_site_id
 _symmetry_equiv_pos_as_xyz
  1  'x, y, z'
loop_
 _atom_site_type_symbol
 _atom_site_label
 _atom_site_symmetry_multiplicity
 _atom_site_fract_x
 _atom_site_fract_y
 _atom_site_fract_z
 _atom_site_occupancy
  Tb  Tb0  1  0.000000  0.823229  0.085554  1
  Tb  Tb1  1  0.000000  0.176771  0.914446  1
  Tb  Tb2  1  0.000000  0.323229  0.414446  1
  Tb  Tb3  1  0.000000  0.676771  0.585554  1
  Mg  Mg4  1  0.000000  0.442730  0.131261  1
  Mg  Mg5  1  0.000000  0.557270  0.868739  1
  Mg  Mg6  1  0.000000  0.942730  0.368739  1
  Mg  Mg7  1  0.000000  0.057270  0.631261  1
  Fe  Fe8  1  0.000000  0.141324  0.182677  1
  Fe  Fe9  1  0.000000  0.858676  0.817323  1
  Fe  Fe10  1  0.000000  0.641324  0.317323  1
  Fe  Fe11  1  0.000000  0.358676  0.682677  1
  B  B12  1  0.500000  0.057011  0.069886  1
  B  B13  1  0.500000  0.942989  0.930114  1
  B  B14  1  0.500000  0.557011  0.430114  1
  B  B15  1  0.500000  0.442989  0.569886  1
  B  B16  1  0.500000  0.253856  0.084031  1
  B  B17  1  0.500000  0.746144  0.915969  1
  B  B18  1  0.500000  0.753856  0.415969  1
  B  B19  1  0.500000  0.246144  0.584031  1
  B  B20  1  0.500000  0.292197  0.235884  1
  B  B21  1  0.500000  0.707803  0.764116  1
  B  B22  1  0.500000  0.792197  0.264116  1
  B  B23  1  0.500000  0.207803  0.735884  1
  B  B24  1  0.500000  0.127724  0.316372  1
  B  B25  1  0.500000  0.872276  0.683628  1
  B  B26  1  0.500000  0.627724  0.183628  1
  B  B27  1  0.500000  0.372276  0.816372  1
  B  B28  1  0.500000  0.483356  0.286545  1
  B  B29  1  0.500000  0.516644  0.713455  1
  B  B30  1  0.500000  0.983356  0.213455  1
  B  B31  1  0.500000  0.016644  0.786545  1
  B  B32  1  0.500000  0.092735  0.474970  1
  B  B33  1  0.500000  0.907265  0.525030  1
  B  B34  1  0.500000  0.592735  0.025030  1
  B  B35  1  0.500000  0.407265  0.974970  1
