# generated using pymatgen
data_Y3Co7(P3Rh)2
_symmetry_space_group_name_H-M   'P 1'
_cell_length_a   3.72242100
_cell_length_b   10.65944100
_cell_length_c   12.37814400
_cell_angle_alpha   90.00000000
_cell_angle_beta   90.00000000
_cell_angle_gamma   90.00000000
_symmetry_Int_Tables_number   1
_chemical_formula_structural   Y3Co7(P3Rh)2
_chemical_formula_sum   'Y6 Co14 P12 Rh4'
_cell_volume   491.15147250
_cell_formula_units_Z   2
loop_
 _symmetry_equiv_pos_site_id
 _symmetry_equiv_pos_as_xyz
  1  'x, y, z'
loop_
 _atom_site_type_symbol
 _atom_site_label
 _atom_site_symmetry_multiplicity
 _atom_site_fract_x
 _atom_site_fract_y
 _atom_site_fract_z
 _atom_site_occupancy
  Y  Y0  1  0.000000  0.500000  0.520089  1
  Y  Y1  1  0.500000  0.000000  0.479911  1
  Y  Y2  1  0.500000  0.813601  0.205606  1
  Y  Y3  1  0.500000  0.186399  0.205606  1
  Y  Y4  1  0.000000  0.686399  0.794394  1
  Y  Y5  1  0.000000  0.313601  0.794394  1
  Co  Co6  1  0.000000  0.500000  0.988042  1
  Co  Co7  1  0.500000  0.000000  0.011958  1
  Co  Co8  1  0.500000  0.332193  0.993656  1
  Co  Co9  1  0.500000  0.667807  0.993656  1
  Co  Co10  1  0.000000  0.167807  0.006344  1
  Co  Co11  1  0.000000  0.832193  0.006344  1
  Co  Co12  1  0.500000  0.299569  0.430087  1
  Co  Co13  1  0.500000  0.700431  0.430087  1
  Co  Co14  1  0.000000  0.200431  0.569913  1
  Co  Co15  1  0.000000  0.799569  0.569913  1
  Co  Co16  1  0.500000  0.880567  0.709487  1
  Co  Co17  1  0.500000  0.119433  0.709487  1
  Co  Co18  1  0.000000  0.619433  0.290513  1
  Co  Co19  1  0.000000  0.380567  0.290513  1
  P  P20  1  0.500000  0.500000  0.889893  1
  P  P21  1  0.000000  0.000000  0.110107  1
  P  P22  1  0.500000  0.500000  0.349452  1
  P  P23  1  0.000000  0.000000  0.650548  1
  P  P24  1  0.500000  0.302166  0.613592  1
  P  P25  1  0.500000  0.697834  0.613592  1
  P  P26  1  0.000000  0.197834  0.386408  1
  P  P27  1  0.000000  0.802166  0.386408  1
  P  P28  1  0.500000  0.844798  0.894955  1
  P  P29  1  0.500000  0.155202  0.894955  1
  P  P30  1  0.000000  0.655202  0.105045  1
  P  P31  1  0.000000  0.344798  0.105045  1
  Rh  Rh32  1  0.500000  0.500000  0.159760  1
  Rh  Rh33  1  0.000000  0.000000  0.840240  1
  Rh  Rh34  1  0.500000  0.500000  0.703432  1
  Rh  Rh35  1  0.000000  0.000000  0.296568  1
