# generated using pymatgen
data_Pr8Dy12Si15Sb
_symmetry_space_group_name_H-M   'P 1'
_cell_length_a   7.55990800
_cell_length_b   7.82967919
_cell_length_c   14.82358400
_cell_angle_alpha   90.00000000
_cell_angle_beta   90.00000000
_cell_angle_gamma   89.75227081
_symmetry_Int_Tables_number   1
_chemical_formula_structural   Pr8Dy12Si15Sb
_chemical_formula_sum   'Pr8 Dy12 Si15 Sb1'
_cell_volume   877.42425826
_cell_formula_units_Z   1
loop_
 _symmetry_equiv_pos_site_id
 _symmetry_equiv_pos_as_xyz
  1  'x, y, z'
loop_
 _atom_site_type_symbol
 _atom_site_label
 _atom_site_symmetry_multiplicity
 _atom_site_fract_x
 _atom_site_fract_y
 _atom_site_fract_z
 _atom_site_occupancy
  Pr  Pr0  1  0.982847  0.829121  0.091915  1
  Pr  Pr1  1  0.468517  0.681064  0.403271  1
  Pr  Pr2  1  0.526985  0.319065  0.901189  1
  Pr  Pr3  1  0.026537  0.181461  0.599585  1
  Pr  Pr4  1  0.026537  0.181461  0.900415  1
  Pr  Pr5  1  0.526985  0.319065  0.598811  1
  Pr  Pr6  1  0.468517  0.681064  0.096729  1
  Pr  Pr7  1  0.982847  0.829121  0.408085  1
  Dy  Dy8  1  0.642545  0.004500  0.250000  1
  Dy  Dy9  1  0.159103  0.505868  0.250000  1
  Dy  Dy10  1  0.851921  0.489011  0.750000  1
  Dy  Dy11  1  0.351411  0.010834  0.750000  1
  Dy  Dy12  1  0.681674  0.820999  0.876477  1
  Dy  Dy13  1  0.182056  0.677581  0.623704  1
  Dy  Dy14  1  0.819097  0.316624  0.120998  1
  Dy  Dy15  1  0.313207  0.176031  0.378831  1
  Dy  Dy16  1  0.313207  0.176031  0.121169  1
  Dy  Dy17  1  0.819097  0.316624  0.379002  1
  Dy  Dy18  1  0.182056  0.677581  0.876296  1
  Dy  Dy19  1  0.681674  0.820999  0.623523  1
  Si  Si20  1  0.267439  0.876470  0.250000  1
  Si  Si21  1  0.733504  0.119819  0.750000  1
  Si  Si22  1  0.234571  0.380063  0.750000  1
  Si  Si23  1  0.021288  0.112222  0.250000  1
  Si  Si24  1  0.515624  0.368921  0.250000  1
  Si  Si25  1  0.476635  0.610604  0.750000  1
  Si  Si26  1  0.975888  0.889094  0.750000  1
  Si  Si27  1  0.857043  0.530774  0.959717  1
  Si  Si28  1  0.356554  0.968432  0.541606  1
  Si  Si29  1  0.640884  0.027689  0.039991  1
  Si  Si30  1  0.141232  0.470513  0.459868  1
  Si  Si31  1  0.141232  0.470513  0.040132  1
  Si  Si32  1  0.640884  0.027689  0.460009  1
  Si  Si33  1  0.356554  0.968432  0.958394  1
  Si  Si34  1  0.857043  0.530774  0.540283  1
  Sb  Sb35  1  0.776812  0.633890  0.250000  1
