# generated using pymatgen
data_Er3Sn2RuPt2Pb
_symmetry_space_group_name_H-M   'P 1'
_cell_length_a   7.75802713
_cell_length_b   7.75802761
_cell_length_c   3.72751400
_cell_angle_alpha   90.00000000
_cell_angle_beta   90.00000000
_cell_angle_gamma   119.76634980
_symmetry_Int_Tables_number   1
_chemical_formula_structural   Er3Sn2RuPt2Pb
_chemical_formula_sum   'Er3 Sn2 Ru1 Pt2 Pb1'
_cell_volume   194.74675575
_cell_formula_units_Z   1
loop_
 _symmetry_equiv_pos_site_id
 _symmetry_equiv_pos_as_xyz
  1  'x, y, z'
loop_
 _atom_site_type_symbol
 _atom_site_label
 _atom_site_symmetry_multiplicity
 _atom_site_fract_x
 _atom_site_fract_y
 _atom_site_fract_z
 _atom_site_occupancy
  Er  Er0  1  0.397316  0.397316  0.500000  1
  Er  Er1  1  0.598985  0.002757  0.500000  1
  Er  Er2  1  0.002757  0.598985  0.500000  1
  Sn  Sn3  1  0.263338  0.000389  0.000000  1
  Sn  Sn4  1  0.000389  0.263338  0.000000  1
  Ru  Ru5  1  0.011109  0.011109  0.500000  1
  Pt  Pt6  1  0.664281  0.324972  0.000000  1
  Pt  Pt7  1  0.324972  0.664281  0.000000  1
  Pb  Pb8  1  0.736853  0.736853  0.000000  1
