# generated using pymatgen
data_Sr4ScOsO8
_symmetry_space_group_name_H-M   'P 1'
_cell_length_a   6.98408640
_cell_length_b   6.98408674
_cell_length_c   5.69418000
_cell_angle_alpha   90.00000000
_cell_angle_beta   90.00000000
_cell_angle_gamma   131.89890490
_symmetry_Int_Tables_number   1
_chemical_formula_structural   Sr4ScOsO8
_chemical_formula_sum   'Sr4 Sc1 Os1 O8'
_cell_volume   206.73434067
_cell_formula_units_Z   1
loop_
 _symmetry_equiv_pos_site_id
 _symmetry_equiv_pos_as_xyz
  1  'x, y, z'
loop_
 _atom_site_type_symbol
 _atom_site_label
 _atom_site_symmetry_multiplicity
 _atom_site_fract_x
 _atom_site_fract_y
 _atom_site_fract_z
 _atom_site_occupancy
  Sr  Sr0  1  0.646463  0.353537  0.000000  1
  Sr  Sr1  1  0.145477  0.854523  0.500000  1
  Sr  Sr2  1  0.854523  0.145477  0.500000  1
  Sr  Sr3  1  0.353537  0.646463  0.000000  1
  Sc  Sc4  1  0.000000  0.000000  0.000000  1
  Os  Os5  1  0.500000  0.500000  0.500000  1
  O  O6  1  0.744343  0.744343  0.258393  1
  O  O7  1  0.255657  0.255657  0.741607  1
  O  O8  1  0.255657  0.255657  0.258393  1
  O  O9  1  0.744343  0.744343  0.741607  1
  O  O10  1  0.834403  0.165597  0.000000  1
  O  O11  1  0.341195  0.658805  0.500000  1
  O  O12  1  0.658805  0.341195  0.500000  1
  O  O13  1  0.165597  0.834403  0.000000  1
