# generated using pymatgen
data_LiGd3RuC6
_symmetry_space_group_name_H-M   'P 1'
_cell_length_a   8.47683500
_cell_length_b   8.47683509
_cell_length_c   5.10274400
_cell_angle_alpha   90.00000000
_cell_angle_beta   90.00000000
_cell_angle_gamma   120.00000042
_symmetry_Int_Tables_number   1
_chemical_formula_structural   LiGd3RuC6
_chemical_formula_sum   'Li2 Gd6 Ru2 C12'
_cell_volume   317.54251102
_cell_formula_units_Z   2
loop_
 _symmetry_equiv_pos_site_id
 _symmetry_equiv_pos_as_xyz
  1  'x, y, z'
loop_
 _atom_site_type_symbol
 _atom_site_label
 _atom_site_symmetry_multiplicity
 _atom_site_fract_x
 _atom_site_fract_y
 _atom_site_fract_z
 _atom_site_occupancy
  Li  Li0  1  0.000000  0.000000  0.500000  1
  Li  Li1  1  0.000000  0.000000  0.000000  1
  Gd  Gd2  1  0.623808  0.684697  0.750000  1
  Gd  Gd3  1  0.939111  0.623808  0.250000  1
  Gd  Gd4  1  0.684697  0.060889  0.250000  1
  Gd  Gd5  1  0.315303  0.939111  0.750000  1
  Gd  Gd6  1  0.060889  0.376192  0.750000  1
  Gd  Gd7  1  0.376192  0.315303  0.250000  1
  Ru  Ru8  1  0.666667  0.333333  0.750000  1
  Ru  Ru9  1  0.333333  0.666667  0.250000  1
  C  C10  1  0.983615  0.755067  0.750000  1
  C  C11  1  0.228548  0.983615  0.250000  1
  C  C12  1  0.755067  0.771452  0.250000  1
  C  C13  1  0.244933  0.228548  0.750000  1
  C  C14  1  0.771452  0.016385  0.750000  1
  C  C15  1  0.016385  0.244933  0.250000  1
  C  C16  1  0.867356  0.578469  0.750000  1
  C  C17  1  0.288886  0.867356  0.250000  1
  C  C18  1  0.578469  0.711114  0.250000  1
  C  C19  1  0.421531  0.288886  0.750000  1
  C  C20  1  0.132644  0.421531  0.250000  1
  C  C21  1  0.711114  0.132644  0.750000  1
