# generated using pymatgen
data_Sc4BBr6
_symmetry_space_group_name_H-M   'P 1'
_cell_length_a   3.73398800
_cell_length_b   12.45493300
_cell_length_c   12.90328300
_cell_angle_alpha   90.00000000
_cell_angle_beta   90.00000000
_cell_angle_gamma   90.00000000
_symmetry_Int_Tables_number   1
_chemical_formula_structural   Sc4BBr6
_chemical_formula_sum   'Sc8 B2 Br12'
_cell_volume   600.08743875
_cell_formula_units_Z   2
loop_
 _symmetry_equiv_pos_site_id
 _symmetry_equiv_pos_as_xyz
  1  'x, y, z'
loop_
 _atom_site_type_symbol
 _atom_site_label
 _atom_site_symmetry_multiplicity
 _atom_site_fract_x
 _atom_site_fract_y
 _atom_site_fract_z
 _atom_site_occupancy
  Sc  Sc0  1  0.000000  0.100062  0.079553  1
  Sc  Sc1  1  0.000000  0.899938  0.920447  1
  Sc  Sc2  1  0.000000  0.600062  0.420447  1
  Sc  Sc3  1  0.000000  0.399938  0.579553  1
  Sc  Sc4  1  0.500000  0.120506  0.858533  1
  Sc  Sc5  1  0.500000  0.879494  0.141467  1
  Sc  Sc6  1  0.500000  0.620506  0.641467  1
  Sc  Sc7  1  0.500000  0.379494  0.358533  1
  B  B8  1  0.500000  0.000000  0.000000  1
  B  B9  1  0.500000  0.500000  0.500000  1
  Br  Br10  1  0.500000  0.268678  0.680946  1
  Br  Br11  1  0.500000  0.731322  0.319054  1
  Br  Br12  1  0.500000  0.768678  0.819054  1
  Br  Br13  1  0.500000  0.231322  0.180946  1
  Br  Br14  1  0.000000  0.260094  0.931725  1
  Br  Br15  1  0.000000  0.739906  0.068275  1
  Br  Br16  1  0.000000  0.480874  0.240255  1
  Br  Br17  1  0.000000  0.519126  0.759745  1
  Br  Br18  1  0.000000  0.980874  0.259745  1
  Br  Br19  1  0.000000  0.019126  0.740255  1
  Br  Br20  1  0.000000  0.239906  0.431725  1
  Br  Br21  1  0.000000  0.760094  0.568275  1
