# generated using pymatgen
data_Dy4Y2B14RuW
_symmetry_space_group_name_H-M   'P 1'
_cell_length_a   8.12337802
_cell_length_b   8.12337824
_cell_length_c   9.39817800
_cell_angle_alpha   90.00000000
_cell_angle_beta   90.00000000
_cell_angle_gamma   155.11904359
_symmetry_Int_Tables_number   1
_chemical_formula_structural   Dy4Y2B14RuW
_chemical_formula_sum   'Dy4 Y2 B14 Ru1 W1'
_cell_volume   260.93055465
_cell_formula_units_Z   1
loop_
 _symmetry_equiv_pos_site_id
 _symmetry_equiv_pos_as_xyz
  1  'x, y, z'
loop_
 _atom_site_type_symbol
 _atom_site_label
 _atom_site_symmetry_multiplicity
 _atom_site_fract_x
 _atom_site_fract_y
 _atom_site_fract_z
 _atom_site_occupancy
  Dy  Dy0  1  0.894152  0.105848  0.437399  1
  Dy  Dy1  1  0.107022  0.892978  0.558403  1
  Dy  Dy2  1  0.894152  0.105848  0.062601  1
  Dy  Dy3  1  0.107022  0.892978  0.941597  1
  Y  Y4  1  0.243442  0.756560  0.250000  1
  Y  Y5  1  0.754623  0.245376  0.750000  1
  B  B6  1  0.726504  0.273496  0.465052  1
  B  B7  1  0.272039  0.727960  0.531789  1
  B  B8  1  0.726504  0.273496  0.034948  1
  B  B9  1  0.272039  0.727960  0.968211  1
  B  B10  1  0.631410  0.368589  0.151455  1
  B  B11  1  0.365356  0.634644  0.853061  1
  B  B12  1  0.631410  0.368589  0.348545  1
  B  B13  1  0.365356  0.634644  0.646939  1
  B  B14  1  0.521325  0.478674  0.096715  1
  B  B15  1  0.480361  0.519639  0.909001  1
  B  B16  1  0.521325  0.478674  0.403285  1
  B  B17  1  0.480361  0.519639  0.590999  1
  B  B18  1  0.458914  0.541086  0.250000  1
  B  B19  1  0.545087  0.454914  0.750000  1
  Ru  Ru20  1  0.054297  0.945703  0.250000  1
  W  W21  1  0.947295  0.052705  0.750000  1
