# generated using pymatgen
data_Sr3CaLaU5O18
_symmetry_space_group_name_H-M   'P 1'
_cell_length_a   6.97712330
_cell_length_b   7.73569258
_cell_length_c   8.70544918
_cell_angle_alpha   100.45000921
_cell_angle_beta   98.48654050
_cell_angle_gamma   107.26100777
_symmetry_Int_Tables_number   1
_chemical_formula_structural   Sr3CaLaU5O18
_chemical_formula_sum   'Sr3 Ca1 La1 U5 O18'
_cell_volume   430.98890521
_cell_formula_units_Z   1
loop_
 _symmetry_equiv_pos_site_id
 _symmetry_equiv_pos_as_xyz
  1  'x, y, z'
loop_
 _atom_site_type_symbol
 _atom_site_label
 _atom_site_symmetry_multiplicity
 _atom_site_fract_x
 _atom_site_fract_y
 _atom_site_fract_z
 _atom_site_occupancy
  Sr  Sr0  1  0.599780  0.699869  0.198455  1
  Sr  Sr1  1  0.401301  0.301130  0.802619  1
  Sr  Sr2  1  0.201350  0.899670  0.417089  1
  Ca  Ca3  1  0.804098  0.111780  0.582948  1
  La  La4  1  0.998646  0.498408  0.997076  1
  U  U5  1  0.997667  0.998326  0.996939  1
  U  U6  1  0.792598  0.581942  0.589337  1
  U  U7  1  0.621933  0.198949  0.198239  1
  U  U8  1  0.381359  0.801075  0.802798  1
  U  U9  1  0.204490  0.418882  0.410190  1
  O  O10  1  0.824574  0.796579  0.481197  1
  O  O11  1  0.004394  0.239976  0.171235  1
  O  O12  1  0.673836  0.403239  0.069469  1
  O  O13  1  0.467405  0.999144  0.681664  1
  O  O14  1  0.859803  0.349504  0.418030  1
  O  O15  1  0.495484  0.391758  0.347603  1
  O  O16  1  0.239277  0.606471  0.271585  1
  O  O17  1  0.978069  0.815967  0.145059  1
  O  O18  1  0.661944  0.936255  0.995263  1
  O  O19  1  0.335686  0.061906  0.006877  1
  O  O20  1  0.012535  0.176711  0.844848  1
  O  O21  1  0.760565  0.386482  0.721317  1
  O  O22  1  0.504174  0.603933  0.656417  1
  O  O23  1  0.142430  0.654173  0.581172  1
  O  O24  1  0.552170  0.005194  0.325928  1
  O  O25  1  0.325913  0.595947  0.931071  1
  O  O26  1  0.993368  0.754016  0.827058  1
  O  O27  1  0.165152  0.212712  0.528519  1
