# generated using pymatgen
data_La8Al8Ir7Au
_symmetry_space_group_name_H-M   'P 1'
_cell_length_a   4.28419400
_cell_length_b   7.28251575
_cell_length_c   16.50443231
_cell_angle_alpha   89.91165307
_cell_angle_beta   90.00000000
_cell_angle_gamma   90.00000000
_symmetry_Int_Tables_number   1
_chemical_formula_structural   La8Al8Ir7Au
_chemical_formula_sum   'La8 Al8 Ir7 Au1'
_cell_volume   514.93289452
_cell_formula_units_Z   1
loop_
 _symmetry_equiv_pos_site_id
 _symmetry_equiv_pos_as_xyz
  1  'x, y, z'
loop_
 _atom_site_type_symbol
 _atom_site_label
 _atom_site_symmetry_multiplicity
 _atom_site_fract_x
 _atom_site_fract_y
 _atom_site_fract_z
 _atom_site_occupancy
  La  La0  1  0.750000  0.844574  0.936874  1
  La  La1  1  0.250000  0.149135  0.051284  1
  La  La2  1  0.250000  0.654128  0.442491  1
  La  La3  1  0.750000  0.344827  0.561613  1
  La  La4  1  0.750000  0.984522  0.719970  1
  La  La5  1  0.250000  0.008292  0.283754  1
  La  La6  1  0.250000  0.526785  0.224205  1
  La  La7  1  0.750000  0.484041  0.779129  1
  Al  Al8  1  0.750000  0.833702  0.146452  1
  Al  Al9  1  0.250000  0.155054  0.851000  1
  Al  Al10  1  0.250000  0.654923  0.648024  1
  Al  Al11  1  0.750000  0.348376  0.357672  1
  Al  Al12  1  0.750000  0.993655  0.440719  1
  Al  Al13  1  0.250000  0.007360  0.561205  1
  Al  Al14  1  0.250000  0.508653  0.938074  1
  Al  Al15  1  0.750000  0.498664  0.056314  1
  Ir  Ir16  1  0.750000  0.786677  0.572580  1
  Ir  Ir17  1  0.250000  0.213048  0.428458  1
  Ir  Ir18  1  0.250000  0.712175  0.071570  1
  Ir  Ir19  1  0.750000  0.285154  0.927641  1
  Ir  Ir20  1  0.750000  0.722743  0.319690  1
  Ir  Ir21  1  0.250000  0.278987  0.679711  1
  Ir  Ir22  1  0.250000  0.777310  0.819254  1
  Au  Au23  1  0.750000  0.227216  0.182315  1
