# generated using pymatgen
data_V2Co3TeO10
_symmetry_space_group_name_H-M   'P 1'
_cell_length_a   30.85591100
_cell_length_b   5.34145494
_cell_length_c   5.64011000
_cell_angle_alpha   81.45023980
_cell_angle_beta   90.00000000
_cell_angle_gamma   90.00000000
_symmetry_Int_Tables_number   1
_chemical_formula_structural   V2Co3TeO10
_chemical_formula_sum   'V8 Co12 Te4 O40'
_cell_volume   919.24703438
_cell_formula_units_Z   4
loop_
 _symmetry_equiv_pos_site_id
 _symmetry_equiv_pos_as_xyz
  1  'x, y, z'
loop_
 _atom_site_type_symbol
 _atom_site_label
 _atom_site_symmetry_multiplicity
 _atom_site_fract_x
 _atom_site_fract_y
 _atom_site_fract_z
 _atom_site_occupancy
  V  V0  1  0.444530  0.752007  0.219113  1
  V  V1  1  0.204973  0.929993  0.726907  1
  V  V2  1  0.055470  0.752007  0.719113  1
  V  V3  1  0.795027  0.070007  0.273093  1
  V  V4  1  0.295027  0.929993  0.226907  1
  V  V5  1  0.704973  0.070007  0.773093  1
  V  V6  1  0.555470  0.247993  0.780887  1
  V  V7  1  0.944530  0.247993  0.280887  1
  Co  Co8  1  0.870592  0.223592  0.732332  1
  Co  Co9  1  0.058131  0.304155  0.359055  1
  Co  Co10  1  0.129408  0.776408  0.267668  1
  Co  Co11  1  0.727390  0.582123  0.271714  1
  Co  Co12  1  0.629408  0.223592  0.232332  1
  Co  Co13  1  0.941869  0.695845  0.640945  1
  Co  Co14  1  0.441869  0.304155  0.859055  1
  Co  Co15  1  0.558131  0.695845  0.140945  1
  Co  Co16  1  0.272610  0.417877  0.728286  1
  Co  Co17  1  0.227390  0.417877  0.228286  1
  Co  Co18  1  0.772610  0.582123  0.771714  1
  Co  Co19  1  0.370592  0.776408  0.767668  1
  Te  Te20  1  0.130826  0.329966  0.931562  1
  Te  Te21  1  0.869174  0.670034  0.068438  1
  Te  Te22  1  0.369174  0.329966  0.431562  1
  Te  Te23  1  0.630826  0.670034  0.568438  1
  O  O24  1  0.900730  0.883217  0.827127  1
  O  O25  1  0.001751  0.682518  0.736790  1
  O  O26  1  0.599270  0.883217  0.327127  1
  O  O27  1  0.564642  0.927951  0.834490  1
  O  O28  1  0.760937  0.313568  0.145744  1
  O  O29  1  0.269358  0.202976  0.065029  1
  O  O30  1  0.498249  0.682518  0.236790  1
  O  O31  1  0.664430  0.511592  0.344621  1
  O  O32  1  0.831762  0.180354  0.455458  1
  O  O33  1  0.824837  0.968062  0.026543  1
  O  O34  1  0.998249  0.317482  0.263210  1
  O  O35  1  0.164430  0.488408  0.155379  1
  O  O36  1  0.920317  0.386699  0.515222  1
  O  O37  1  0.230642  0.202976  0.565029  1
  O  O38  1  0.668238  0.180354  0.955458  1
  O  O39  1  0.084866  0.609502  0.988186  1
  O  O40  1  0.415134  0.609502  0.488186  1
  O  O41  1  0.239063  0.686432  0.854256  1
  O  O42  1  0.331762  0.819646  0.044542  1
  O  O43  1  0.915134  0.390498  0.011814  1
  O  O44  1  0.324837  0.031938  0.473457  1
  O  O45  1  0.420317  0.613301  0.984778  1
  O  O46  1  0.730642  0.797024  0.934971  1
  O  O47  1  0.079683  0.613301  0.484778  1
  O  O48  1  0.175163  0.031938  0.973457  1
  O  O49  1  0.260937  0.686432  0.354256  1
  O  O50  1  0.769358  0.797024  0.434971  1
  O  O51  1  0.064642  0.072049  0.665510  1
  O  O52  1  0.675163  0.968062  0.526543  1
  O  O53  1  0.835570  0.511592  0.844621  1
  O  O54  1  0.584866  0.390498  0.511814  1
  O  O55  1  0.739063  0.313568  0.645744  1
  O  O56  1  0.579683  0.386699  0.015222  1
  O  O57  1  0.168238  0.819646  0.544542  1
  O  O58  1  0.435358  0.072049  0.165510  1
  O  O59  1  0.335570  0.488408  0.655379  1
  O  O60  1  0.935358  0.927951  0.334490  1
  O  O61  1  0.501751  0.317482  0.763210  1
  O  O62  1  0.099270  0.116783  0.172873  1
  O  O63  1  0.400730  0.116783  0.672873  1
