# generated using pymatgen
data_Co8ReMo12W3N4
_symmetry_space_group_name_H-M   'P 1'
_cell_length_a   7.98561099
_cell_length_b   7.95748449
_cell_length_c   7.95748400
_cell_angle_alpha   60.00000205
_cell_angle_beta   60.11644551
_cell_angle_gamma   60.11644787
_symmetry_Int_Tables_number   1
_chemical_formula_structural   Co8ReMo12W3N4
_chemical_formula_sum   'Co8 Re1 Mo12 W3 N4'
_cell_volume   358.18458721
_cell_formula_units_Z   1
loop_
 _symmetry_equiv_pos_site_id
 _symmetry_equiv_pos_as_xyz
  1  'x, y, z'
loop_
 _atom_site_type_symbol
 _atom_site_label
 _atom_site_symmetry_multiplicity
 _atom_site_fract_x
 _atom_site_fract_y
 _atom_site_fract_z
 _atom_site_occupancy
  Co  Co0  1  0.831353  0.505889  0.831379  1
  Co  Co1  1  0.418647  0.418621  0.744111  1
  Co  Co2  1  0.750166  0.416612  0.416612  1
  Co  Co3  1  0.418647  0.418621  0.418621  1
  Co  Co4  1  0.499834  0.833388  0.833388  1
  Co  Co5  1  0.831353  0.831379  0.831379  1
  Co  Co6  1  0.831353  0.831379  0.505889  1
  Co  Co7  1  0.418647  0.744111  0.418621  1
  Re  Re8  1  0.125000  0.625000  0.625000  1
  Mo  Mo9  1  0.188693  0.195187  0.808060  1
  Mo  Mo10  1  0.438072  0.061426  0.061426  1
  Mo  Mo11  1  0.061307  0.441940  0.441940  1
  Mo  Mo12  1  0.438072  0.439077  0.061426  1
  Mo  Mo13  1  0.438072  0.061426  0.439077  1
  Mo  Mo14  1  0.061307  0.441940  0.054813  1
  Mo  Mo15  1  0.811928  0.188574  0.810923  1
  Mo  Mo16  1  0.811928  0.188574  0.188574  1
  Mo  Mo17  1  0.188693  0.808060  0.808060  1
  Mo  Mo18  1  0.188693  0.808060  0.195187  1
  Mo  Mo19  1  0.061307  0.054813  0.441940  1
  Mo  Mo20  1  0.811928  0.810923  0.188574  1
  W  W21  1  0.625000  0.125000  0.625000  1
  W  W22  1  0.625000  0.625000  0.125000  1
  W  W23  1  0.625000  0.625000  0.625000  1
  N  N24  1  0.125000  0.625000  0.125000  1
  N  N25  1  0.125000  0.125000  0.625000  1
  N  N26  1  0.625000  0.125000  0.125000  1
  N  N27  1  0.125000  0.125000  0.125000  1
