# generated using pymatgen
data_YHo5(Si3Pt2)4
_symmetry_space_group_name_H-M   'P 1'
_cell_length_a   4.24242600
_cell_length_b   8.55094852
_cell_length_c   12.91707304
_cell_angle_alpha   80.24100729
_cell_angle_beta   90.00000000
_cell_angle_gamma   90.00000000
_symmetry_Int_Tables_number   1
_chemical_formula_structural   YHo5(Si3Pt2)4
_chemical_formula_sum   'Y1 Ho5 Si12 Pt8'
_cell_volume   461.80889850
_cell_formula_units_Z   1
loop_
 _symmetry_equiv_pos_site_id
 _symmetry_equiv_pos_as_xyz
  1  'x, y, z'
loop_
 _atom_site_type_symbol
 _atom_site_label
 _atom_site_symmetry_multiplicity
 _atom_site_fract_x
 _atom_site_fract_y
 _atom_site_fract_z
 _atom_site_occupancy
  Y  Y0  1  0.250000  0.766211  0.439323  1
  Ho  Ho1  1  0.250000  0.583623  0.186199  1
  Ho  Ho2  1  0.750000  0.233793  0.560567  1
  Ho  Ho3  1  0.750000  0.416372  0.813735  1
  Ho  Ho4  1  0.750000  0.926311  0.815928  1
  Ho  Ho5  1  0.250000  0.073726  0.183991  1
  Si  Si6  1  0.750000  0.588121  0.572089  1
  Si  Si7  1  0.750000  0.126989  0.004558  1
  Si  Si8  1  0.750000  0.873069  0.574292  1
  Si  Si9  1  0.250000  0.696378  0.713700  1
  Si  Si10  1  0.750000  0.303615  0.286282  1
  Si  Si11  1  0.750000  0.805865  0.276577  1
  Si  Si12  1  0.250000  0.873038  0.995435  1
  Si  Si13  1  0.250000  0.194217  0.723132  1
  Si  Si14  1  0.250000  0.378466  0.001411  1
  Si  Si15  1  0.250000  0.127419  0.426087  1
  Si  Si16  1  0.750000  0.621522  0.998550  1
  Si  Si17  1  0.250000  0.411179  0.428298  1
  Pt  Pt18  1  0.750000  0.351899  0.099224  1
  Pt  Pt19  1  0.250000  0.971372  0.624459  1
  Pt  Pt20  1  0.750000  0.849401  0.088809  1
  Pt  Pt21  1  0.750000  0.029508  0.375502  1
  Pt  Pt22  1  0.250000  0.648083  0.900810  1
  Pt  Pt23  1  0.250000  0.150624  0.911079  1
  Pt  Pt24  1  0.750000  0.532752  0.375743  1
  Pt  Pt25  1  0.250000  0.466448  0.624222  1
