# generated using pymatgen
data_Ba(ZrSe2)8
_symmetry_space_group_name_H-M   'P 1'
_cell_length_a   7.59682600
_cell_length_b   7.59682747
_cell_length_c   15.65654400
_cell_angle_alpha   90.00000000
_cell_angle_beta   90.00000000
_cell_angle_gamma   119.99999360
_symmetry_Int_Tables_number   1
_chemical_formula_structural   Ba(ZrSe2)8
_chemical_formula_sum   'Ba1 Zr8 Se16'
_cell_volume   782.51199788
_cell_formula_units_Z   1
loop_
 _symmetry_equiv_pos_site_id
 _symmetry_equiv_pos_as_xyz
  1  'x, y, z'
loop_
 _atom_site_type_symbol
 _atom_site_label
 _atom_site_symmetry_multiplicity
 _atom_site_fract_x
 _atom_site_fract_y
 _atom_site_fract_z
 _atom_site_occupancy
  Ba  Ba0  1  0.000000  0.000000  0.000000  1
  Zr  Zr1  1  0.501700  0.498300  0.738801  1
  Zr  Zr2  1  0.498300  0.501700  0.261199  1
  Zr  Zr3  1  0.501700  0.003400  0.738801  1
  Zr  Zr4  1  0.498300  0.996600  0.261199  1
  Zr  Zr5  1  0.996600  0.498300  0.738801  1
  Zr  Zr6  1  0.003400  0.501700  0.261199  1
  Zr  Zr7  1  0.000000  0.000000  0.735480  1
  Zr  Zr8  1  0.000000  0.000000  0.264520  1
  Se  Se9  1  0.832726  0.665453  0.156739  1
  Se  Se10  1  0.832806  0.665612  0.636559  1
  Se  Se11  1  0.832726  0.167274  0.156739  1
  Se  Se12  1  0.832806  0.167194  0.636559  1
  Se  Se13  1  0.333333  0.666667  0.156509  1
  Se  Se14  1  0.333333  0.666667  0.639261  1
  Se  Se15  1  0.334547  0.167274  0.156739  1
  Se  Se16  1  0.334388  0.167194  0.636559  1
  Se  Se17  1  0.665453  0.832726  0.843261  1
  Se  Se18  1  0.665612  0.832806  0.363441  1
  Se  Se19  1  0.666667  0.333333  0.843491  1
  Se  Se20  1  0.666667  0.333333  0.360739  1
  Se  Se21  1  0.167274  0.832726  0.843261  1
  Se  Se22  1  0.167194  0.832806  0.363441  1
  Se  Se23  1  0.167274  0.334547  0.843261  1
  Se  Se24  1  0.167194  0.334388  0.363441  1
