# generated using pymatgen
data_Ta3Ti2Nb5Si6
_symmetry_space_group_name_H-M   'P 1'
_cell_length_a   7.56250436
_cell_length_b   7.56499793
_cell_length_c   7.56517859
_cell_angle_alpha   128.84705689
_cell_angle_beta   128.83813551
_cell_angle_gamma   75.24976930
_symmetry_Int_Tables_number   1
_chemical_formula_structural   Ta3Ti2Nb5Si6
_chemical_formula_sum   'Ta3 Ti2 Nb5 Si6'
_cell_volume   255.59827444
_cell_formula_units_Z   1
loop_
 _symmetry_equiv_pos_site_id
 _symmetry_equiv_pos_as_xyz
  1  'x, y, z'
loop_
 _atom_site_type_symbol
 _atom_site_label
 _atom_site_symmetry_multiplicity
 _atom_site_fract_x
 _atom_site_fract_y
 _atom_site_fract_z
 _atom_site_occupancy
  Ta  Ta0  1  0.016432  0.185209  0.499997  1
  Ta  Ta1  1  0.517123  0.017429  0.832817  1
  Ta  Ta2  1  0.184298  0.684615  0.167181  1
  Ti  Ti3  1  0.499880  0.499881  0.999811  1
  Ti  Ti4  1  0.000063  0.000067  0.000188  1
  Nb  Nb5  1  0.481856  0.981455  0.165987  1
  Nb  Nb6  1  0.685826  0.517577  0.500011  1
  Nb  Nb7  1  0.983022  0.814765  0.500011  1
  Nb  Nb8  1  0.315027  0.483211  0.499989  1
  Nb  Nb9  1  0.815880  0.315452  0.834009  1
  Si  Si10  1  0.130999  0.630716  0.761776  1
  Si  Si11  1  0.630242  0.869545  0.500017  1
  Si  Si12  1  0.369423  0.130448  0.499981  1
  Si  Si13  1  0.869242  0.368921  0.238223  1
  Si  Si14  1  0.750530  0.750540  0.000366  1
  Si  Si15  1  0.250159  0.250169  0.999633  1
