# generated using pymatgen
data_Dy2Ti(NbSi2)2
_symmetry_space_group_name_H-M   'P 1'
_cell_length_a   7.07137900
_cell_length_b   7.07137900
_cell_length_c   13.01391100
_cell_angle_alpha   90.00000000
_cell_angle_beta   90.00000000
_cell_angle_gamma   90.00000000
_symmetry_Int_Tables_number   1
_chemical_formula_structural   Dy2Ti(NbSi2)2
_chemical_formula_sum   'Dy8 Ti4 Nb8 Si16'
_cell_volume   650.75282372
_cell_formula_units_Z   4
loop_
 _symmetry_equiv_pos_site_id
 _symmetry_equiv_pos_as_xyz
  1  'x, y, z'
loop_
 _atom_site_type_symbol
 _atom_site_label
 _atom_site_symmetry_multiplicity
 _atom_site_fract_x
 _atom_site_fract_y
 _atom_site_fract_z
 _atom_site_occupancy
  Dy  Dy0  1  0.996037  0.658301  0.033389  1
  Dy  Dy1  1  0.003963  0.341699  0.533389  1
  Dy  Dy2  1  0.658301  0.996037  0.966611  1
  Dy  Dy3  1  0.158301  0.503963  0.783389  1
  Dy  Dy4  1  0.841699  0.496037  0.283389  1
  Dy  Dy5  1  0.503963  0.158301  0.216611  1
  Dy  Dy6  1  0.496037  0.841699  0.716611  1
  Dy  Dy7  1  0.341699  0.003963  0.466611  1
  Ti  Ti8  1  0.673109  0.673109  0.500000  1
  Ti  Ti9  1  0.826891  0.173109  0.750000  1
  Ti  Ti10  1  0.173109  0.826891  0.250000  1
  Ti  Ti11  1  0.326891  0.326891  0.000000  1
  Nb  Nb12  1  0.346800  0.507071  0.375413  1
  Nb  Nb13  1  0.846800  0.992929  0.374587  1
  Nb  Nb14  1  0.007071  0.153200  0.125413  1
  Nb  Nb15  1  0.992929  0.846800  0.625413  1
  Nb  Nb16  1  0.507071  0.346800  0.624587  1
  Nb  Nb17  1  0.153200  0.007071  0.874587  1
  Nb  Nb18  1  0.492929  0.653200  0.124587  1
  Nb  Nb19  1  0.653200  0.492929  0.875413  1
  Si  Si20  1  0.046711  0.707043  0.436127  1
  Si  Si21  1  0.953289  0.292957  0.936127  1
  Si  Si22  1  0.707043  0.046711  0.563873  1
  Si  Si23  1  0.207043  0.453289  0.186127  1
  Si  Si24  1  0.792957  0.546711  0.686127  1
  Si  Si25  1  0.453289  0.207043  0.813873  1
  Si  Si26  1  0.546711  0.792957  0.313873  1
  Si  Si27  1  0.292957  0.953289  0.063873  1
  Si  Si28  1  0.797564  0.865561  0.183701  1
  Si  Si29  1  0.297564  0.634439  0.566299  1
  Si  Si30  1  0.702436  0.365561  0.066299  1
  Si  Si31  1  0.634439  0.297564  0.433701  1
  Si  Si32  1  0.365561  0.702436  0.933701  1
  Si  Si33  1  0.134439  0.202436  0.316299  1
  Si  Si34  1  0.202436  0.134439  0.683701  1
  Si  Si35  1  0.865561  0.797564  0.816299  1
