# generated using pymatgen
data_Y16Lu3MgIr12
_symmetry_space_group_name_H-M   'P 1'
_cell_length_a   10.86878900
_cell_length_b   10.86878900
_cell_length_c   6.32974500
_cell_angle_alpha   90.00000000
_cell_angle_beta   90.00000000
_cell_angle_gamma   90.00000000
_symmetry_Int_Tables_number   1
_chemical_formula_structural   Y16Lu3MgIr12
_chemical_formula_sum   'Y16 Lu3 Mg1 Ir12'
_cell_volume   747.73641219
_cell_formula_units_Z   1
loop_
 _symmetry_equiv_pos_site_id
 _symmetry_equiv_pos_as_xyz
  1  'x, y, z'
loop_
 _atom_site_type_symbol
 _atom_site_label
 _atom_site_symmetry_multiplicity
 _atom_site_fract_x
 _atom_site_fract_y
 _atom_site_fract_z
 _atom_site_occupancy
  Y  Y0  1  0.283762  0.084923  0.379338  1
  Y  Y1  1  0.289773  0.911950  0.880278  1
  Y  Y2  1  0.710227  0.088050  0.880278  1
  Y  Y3  1  0.716238  0.915077  0.379338  1
  Y  Y4  1  0.588987  0.790892  0.880279  1
  Y  Y5  1  0.587638  0.209289  0.378414  1
  Y  Y6  1  0.412362  0.790711  0.378414  1
  Y  Y7  1  0.411013  0.209108  0.880279  1
  Y  Y8  1  0.209289  0.412362  0.621586  1
  Y  Y9  1  0.209108  0.588987  0.119721  1
  Y  Y10  1  0.790892  0.411013  0.119721  1
  Y  Y11  1  0.790711  0.587638  0.621586  1
  Y  Y12  1  0.911950  0.710227  0.119722  1
  Y  Y13  1  0.915077  0.283762  0.620662  1
  Y  Y14  1  0.084923  0.716238  0.620662  1
  Y  Y15  1  0.088050  0.289773  0.119722  1
  Lu  Lu16  1  0.000000  0.000000  0.000000  1
  Lu  Lu17  1  0.500000  0.500000  0.000000  1
  Lu  Lu18  1  0.500000  0.500000  0.500000  1
  Mg  Mg19  1  0.000000  0.000000  0.500000  1
  Ir  Ir20  1  0.849176  0.152016  0.246648  1
  Ir  Ir21  1  0.847984  0.849176  0.753352  1
  Ir  Ir22  1  0.152016  0.150824  0.753352  1
  Ir  Ir23  1  0.150824  0.847984  0.246648  1
  Ir  Ir24  1  0.650629  0.349463  0.748700  1
  Ir  Ir25  1  0.650537  0.650629  0.251300  1
  Ir  Ir26  1  0.349463  0.349371  0.251300  1
  Ir  Ir27  1  0.349371  0.650537  0.748700  1
  Ir  Ir28  1  0.500000  0.000000  0.125870  1
  Ir  Ir29  1  0.500000  0.000000  0.622006  1
  Ir  Ir30  1  0.000000  0.500000  0.874130  1
  Ir  Ir31  1  0.000000  0.500000  0.377994  1
