# generated using pymatgen
data_Dy4YHo7Co5Sn
_symmetry_space_group_name_H-M   'P 1'
_cell_length_a   8.26402871
_cell_length_b   8.27639553
_cell_length_c   8.27639635
_cell_angle_alpha   107.04389205
_cell_angle_beta   110.63828930
_cell_angle_gamma   110.82327327
_symmetry_Int_Tables_number   1
_chemical_formula_structural   Dy4YHo7Co5Sn
_chemical_formula_sum   'Dy4 Y1 Ho7 Co5 Sn1'
_cell_volume   434.82398464
_cell_formula_units_Z   1
loop_
 _symmetry_equiv_pos_site_id
 _symmetry_equiv_pos_as_xyz
  1  'x, y, z'
loop_
 _atom_site_type_symbol
 _atom_site_label
 _atom_site_symmetry_multiplicity
 _atom_site_fract_x
 _atom_site_fract_y
 _atom_site_fract_z
 _atom_site_occupancy
  Dy  Dy0  1  0.192942  0.208591  0.402381  1
  Dy  Dy1  1  0.807318  0.791921  0.598735  1
  Dy  Dy2  1  0.192942  0.790561  0.984351  1
  Dy  Dy3  1  0.807318  0.208583  0.015397  1
  Y  Y4  1  0.477982  0.291624  0.186358  1
  Ho  Ho5  1  0.106695  0.292303  0.814392  1
  Ho  Ho6  1  0.893370  0.708142  0.185228  1
  Ho  Ho7  1  0.522854  0.708138  0.814716  1
  Ho  Ho8  1  0.306026  0.620432  0.314090  1
  Ho  Ho9  1  0.306026  0.991938  0.685596  1
  Ho  Ho10  1  0.694073  0.379924  0.686577  1
  Ho  Ho11  1  0.694073  0.007494  0.314147  1
  Co  Co12  1  0.499545  0.612925  0.111102  1
  Co  Co13  1  0.499545  0.388444  0.886621  1
  Co  Co14  1  0.377484  0.999842  0.377642  1
  Co  Co15  1  0.622266  0.999880  0.622386  1
  Co  Co16  1  0.999443  0.999309  0.000134  1
  Sn  Sn17  1  0.000099  0.499950  0.500148  1
