# generated using pymatgen
data_K2CaFeF7
_symmetry_space_group_name_H-M   'P 1'
_cell_length_a   8.03534727
_cell_length_b   8.03534703
_cell_length_c   8.03534785
_cell_angle_alpha   120.51427119
_cell_angle_beta   117.42663011
_cell_angle_gamma   91.81283947
_symmetry_Int_Tables_number   1
_chemical_formula_structural   K2CaFeF7
_chemical_formula_sum   'K4 Ca2 Fe2 F14'
_cell_volume   372.04083741
_cell_formula_units_Z   2
loop_
 _symmetry_equiv_pos_site_id
 _symmetry_equiv_pos_as_xyz
  1  'x, y, z'
loop_
 _atom_site_type_symbol
 _atom_site_label
 _atom_site_symmetry_multiplicity
 _atom_site_fract_x
 _atom_site_fract_y
 _atom_site_fract_z
 _atom_site_occupancy
  K  K0  1  0.500000  0.500000  0.000000  1
  K  K1  1  0.000000  0.000000  0.000000  1
  K  K2  1  0.000000  0.500000  0.000000  1
  K  K3  1  0.000000  0.000000  0.500000  1
  Ca  Ca4  1  0.500000  0.500000  0.500000  1
  Ca  Ca5  1  0.500000  0.000000  0.000000  1
  Fe  Fe6  1  0.000000  0.500000  0.500000  1
  Fe  Fe7  1  0.500000  0.000000  0.500000  1
  F  F8  1  0.874260  0.582679  0.291581  1
  F  F9  1  0.208902  0.917321  0.291581  1
  F  F10  1  0.176134  0.789575  0.745985  1
  F  F11  1  0.456411  0.710425  0.386558  1
  F  F12  1  0.456411  0.069852  0.745985  1
  F  F13  1  0.176134  0.430148  0.386558  1
  F  F14  1  0.823866  0.569852  0.613442  1
  F  F15  1  0.543589  0.930148  0.254015  1
  F  F16  1  0.543589  0.289575  0.613442  1
  F  F17  1  0.823866  0.210425  0.254015  1
  F  F18  1  0.375023  0.250000  0.125023  1
  F  F19  1  0.125740  0.417321  0.708419  1
  F  F20  1  0.791098  0.082679  0.708419  1
  F  F21  1  0.624977  0.750000  0.874977  1
