# generated using pymatgen
data_YLu5ZrCo17P12
_symmetry_space_group_name_H-M   'P 1'
_cell_length_a   3.67878800
_cell_length_b   10.53632400
_cell_length_c   12.22079100
_cell_angle_alpha   90.00000000
_cell_angle_beta   90.00000000
_cell_angle_gamma   90.00000000
_symmetry_Int_Tables_number   1
_chemical_formula_structural   YLu5ZrCo17P12
_chemical_formula_sum   'Y1 Lu5 Zr1 Co17 P12'
_cell_volume   473.68888592
_cell_formula_units_Z   1
loop_
 _symmetry_equiv_pos_site_id
 _symmetry_equiv_pos_as_xyz
  1  'x, y, z'
loop_
 _atom_site_type_symbol
 _atom_site_label
 _atom_site_symmetry_multiplicity
 _atom_site_fract_x
 _atom_site_fract_y
 _atom_site_fract_z
 _atom_site_occupancy
  Y  Y0  1  0.500000  0.000000  0.476622  1
  Lu  Lu1  1  0.000000  0.500000  0.530101  1
  Lu  Lu2  1  0.500000  0.822224  0.207244  1
  Lu  Lu3  1  0.500000  0.177776  0.207244  1
  Lu  Lu4  1  0.000000  0.681982  0.795903  1
  Lu  Lu5  1  0.000000  0.318018  0.795903  1
  Zr  Zr6  1  0.500000  0.500000  0.155603  1
  Co  Co7  1  0.000000  0.000000  0.836233  1
  Co  Co8  1  0.500000  0.500000  0.702438  1
  Co  Co9  1  0.000000  0.000000  0.294566  1
  Co  Co10  1  0.000000  0.500000  0.982952  1
  Co  Co11  1  0.500000  0.000000  0.013830  1
  Co  Co12  1  0.500000  0.326828  0.987378  1
  Co  Co13  1  0.500000  0.673172  0.987378  1
  Co  Co14  1  0.000000  0.161629  0.001393  1
  Co  Co15  1  0.000000  0.838371  0.001393  1
  Co  Co16  1  0.500000  0.295035  0.434946  1
  Co  Co17  1  0.500000  0.704965  0.434946  1
  Co  Co18  1  0.000000  0.202948  0.570707  1
  Co  Co19  1  0.000000  0.797052  0.570707  1
  Co  Co20  1  0.500000  0.878949  0.707689  1
  Co  Co21  1  0.500000  0.121051  0.707689  1
  Co  Co22  1  0.000000  0.623878  0.297563  1
  Co  Co23  1  0.000000  0.376122  0.297563  1
  P  P24  1  0.500000  0.500000  0.880281  1
  P  P25  1  0.000000  0.000000  0.117028  1
  P  P26  1  0.500000  0.500000  0.364556  1
  P  P27  1  0.000000  0.000000  0.654296  1
  P  P28  1  0.500000  0.311025  0.618908  1
  P  P29  1  0.500000  0.688975  0.618908  1
  P  P30  1  0.000000  0.187735  0.385040  1
  P  P31  1  0.000000  0.812265  0.385040  1
  P  P32  1  0.500000  0.851486  0.887449  1
  P  P33  1  0.500000  0.148514  0.887449  1
  P  P34  1  0.000000  0.666433  0.101528  1
  P  P35  1  0.000000  0.333567  0.101528  1
