# generated using pymatgen
data_DyY3Mn4Al4O20
_symmetry_space_group_name_H-M   'P 1'
_cell_length_a   5.67207700
_cell_length_b   7.27756700
_cell_length_c   8.45337700
_cell_angle_alpha   89.99696228
_cell_angle_beta   90.00000000
_cell_angle_gamma   90.00000000
_symmetry_Int_Tables_number   1
_chemical_formula_structural   DyY3Mn4Al4O20
_chemical_formula_sum   'Dy1 Y3 Mn4 Al4 O20'
_cell_volume   348.94627602
_cell_formula_units_Z   1
loop_
 _symmetry_equiv_pos_site_id
 _symmetry_equiv_pos_as_xyz
  1  'x, y, z'
loop_
 _atom_site_type_symbol
 _atom_site_label
 _atom_site_symmetry_multiplicity
 _atom_site_fract_x
 _atom_site_fract_y
 _atom_site_fract_z
 _atom_site_occupancy
  Dy  Dy0  1  0.000000  0.132885  0.168786  1
  Y  Y1  1  0.000000  0.367062  0.668756  1
  Y  Y2  1  0.000000  0.632942  0.331236  1
  Y  Y3  1  0.000000  0.867078  0.831231  1
  Mn  Mn4  1  0.253808  0.499985  0.000012  1
  Mn  Mn5  1  0.746179  0.000009  0.499968  1
  Mn  Mn6  1  0.746192  0.499985  0.000012  1
  Mn  Mn7  1  0.253821  0.000009  0.499968  1
  Al  Al8  1  0.500000  0.106904  0.857883  1
  Al  Al9  1  0.500000  0.893103  0.142130  1
  Al  Al10  1  0.500000  0.606928  0.642104  1
  Al  Al11  1  0.500000  0.393070  0.357890  1
  O  O12  1  0.250645  0.894962  0.289546  1
  O  O13  1  0.250810  0.105188  0.710383  1
  O  O14  1  0.749401  0.394614  0.210347  1
  O  O15  1  0.749195  0.605191  0.789622  1
  O  O16  1  0.749190  0.105188  0.710383  1
  O  O17  1  0.749355  0.894962  0.289546  1
  O  O18  1  0.250805  0.605191  0.789622  1
  O  O19  1  0.250599  0.394614  0.210347  1
  O  O20  1  0.500000  0.342154  0.928413  1
  O  O21  1  0.500000  0.657842  0.071576  1
  O  O22  1  0.500000  0.842151  0.571588  1
  O  O23  1  0.500000  0.157857  0.428407  1
  O  O24  1  0.280196  0.000146  0.000156  1
  O  O25  1  0.719535  0.499998  0.500004  1
  O  O26  1  0.719804  0.000146  0.000156  1
  O  O27  1  0.280465  0.499998  0.500004  1
  O  O28  1  0.000000  0.163058  0.443355  1
  O  O29  1  0.000000  0.836925  0.556417  1
  O  O30  1  0.000000  0.663090  0.056413  1
  O  O31  1  0.000000  0.336766  0.943740  1
