# generated using pymatgen
data_TlAgCl4
_symmetry_space_group_name_H-M   'P 1'
_cell_length_a   7.71941234
_cell_length_b   7.71941266
_cell_length_c   13.86749701
_cell_angle_alpha   62.02654283
_cell_angle_beta   62.02654077
_cell_angle_gamma   30.14573308
_symmetry_Int_Tables_number   1
_chemical_formula_structural   TlAgCl4
_chemical_formula_sum   'Tl2 Ag2 Cl8'
_cell_volume   362.74158166
_cell_formula_units_Z   2
loop_
 _symmetry_equiv_pos_site_id
 _symmetry_equiv_pos_as_xyz
  1  'x, y, z'
loop_
 _atom_site_type_symbol
 _atom_site_label
 _atom_site_symmetry_multiplicity
 _atom_site_fract_x
 _atom_site_fract_y
 _atom_site_fract_z
 _atom_site_occupancy
  Tl  Tl0  1  0.000000  0.000000  0.000000  1
  Tl  Tl1  1  0.000000  0.000000  0.500000  1
  Ag  Ag2  1  0.515120  0.484880  0.750000  1
  Ag  Ag3  1  0.484880  0.515120  0.250000  1
  Cl  Cl4  1  0.095762  0.114491  0.098307  1
  Cl  Cl5  1  0.885509  0.904238  0.401693  1
  Cl  Cl6  1  0.613952  0.619460  0.361686  1
  Cl  Cl7  1  0.380540  0.386048  0.138314  1
  Cl  Cl8  1  0.386048  0.380540  0.638314  1
  Cl  Cl9  1  0.904238  0.885509  0.901693  1
  Cl  Cl10  1  0.114491  0.095762  0.598307  1
  Cl  Cl11  1  0.619460  0.613952  0.861686  1
