# generated using pymatgen
data_Zr8Ta12Si3Ge13
_symmetry_space_group_name_H-M   'P 1'
_cell_length_a   6.82194643
_cell_length_b   6.94061752
_cell_length_c   13.31311700
_cell_angle_alpha   90.00000000
_cell_angle_beta   90.00000000
_cell_angle_gamma   89.86931048
_symmetry_Int_Tables_number   1
_chemical_formula_structural   Zr8Ta12Si3Ge13
_chemical_formula_sum   'Zr8 Ta12 Si3 Ge13'
_cell_volume   630.35475893
_cell_formula_units_Z   1
loop_
 _symmetry_equiv_pos_site_id
 _symmetry_equiv_pos_as_xyz
  1  'x, y, z'
loop_
 _atom_site_type_symbol
 _atom_site_label
 _atom_site_symmetry_multiplicity
 _atom_site_fract_x
 _atom_site_fract_y
 _atom_site_fract_z
 _atom_site_occupancy
  Zr  Zr0  1  0.489459  0.671769  0.592949  1
  Zr  Zr1  1  0.988588  0.828367  0.906595  1
  Zr  Zr2  1  0.511650  0.328977  0.092418  1
  Zr  Zr3  1  0.011638  0.175108  0.408028  1
  Zr  Zr4  1  0.511650  0.328977  0.407582  1
  Zr  Zr5  1  0.011638  0.175108  0.091972  1
  Zr  Zr6  1  0.489459  0.671769  0.907051  1
  Zr  Zr7  1  0.988588  0.828367  0.593405  1
  Ta  Ta8  1  0.658765  0.168828  0.626645  1
  Ta  Ta9  1  0.159087  0.330954  0.873634  1
  Ta  Ta10  1  0.345473  0.830118  0.125534  1
  Ta  Ta11  1  0.836240  0.665112  0.374620  1
  Ta  Ta12  1  0.345473  0.830118  0.374466  1
  Ta  Ta13  1  0.836240  0.665112  0.125380  1
  Ta  Ta14  1  0.658765  0.168828  0.873355  1
  Ta  Ta15  1  0.159087  0.330954  0.626366  1
  Ta  Ta16  1  0.832124  0.487275  0.750000  1
  Ta  Ta17  1  0.331804  0.012213  0.750000  1
  Ta  Ta18  1  0.167686  0.510391  0.250000  1
  Ta  Ta19  1  0.664526  0.987818  0.250000  1
  Si  Si20  1  0.458167  0.384819  0.750000  1
  Si  Si21  1  0.958946  0.114706  0.750000  1
  Si  Si22  1  0.540191  0.613773  0.250000  1
  Ge  Ge23  1  0.682857  0.962598  0.460941  1
  Ge  Ge24  1  0.180618  0.539148  0.039329  1
  Ge  Ge25  1  0.318785  0.037794  0.960778  1
  Ge  Ge26  1  0.818697  0.461420  0.539866  1
  Ge  Ge27  1  0.318785  0.037794  0.539222  1
  Ge  Ge28  1  0.818697  0.461420  0.960134  1
  Ge  Ge29  1  0.682857  0.962598  0.039059  1
  Ge  Ge30  1  0.180618  0.539148  0.460671  1
  Ge  Ge31  1  0.039560  0.886840  0.250000  1
  Ge  Ge32  1  0.695471  0.853645  0.750000  1
  Ge  Ge33  1  0.195811  0.646302  0.750000  1
  Ge  Ge34  1  0.307397  0.149362  0.250000  1
  Ge  Ge35  1  0.804606  0.352470  0.250000  1
