# generated using pymatgen
data_Hf6TaNb3(GaSn3)2
_symmetry_space_group_name_H-M   'P 1'
_cell_length_a   8.53587600
_cell_length_b   8.53587560
_cell_length_c   5.72545500
_cell_angle_alpha   90.00000000
_cell_angle_beta   90.00000000
_cell_angle_gamma   120.00000154
_symmetry_Int_Tables_number   1
_chemical_formula_structural   Hf6TaNb3(GaSn3)2
_chemical_formula_sum   'Hf6 Ta1 Nb3 Ga2 Sn6'
_cell_volume   361.27408130
_cell_formula_units_Z   1
loop_
 _symmetry_equiv_pos_site_id
 _symmetry_equiv_pos_as_xyz
  1  'x, y, z'
loop_
 _atom_site_type_symbol
 _atom_site_label
 _atom_site_symmetry_multiplicity
 _atom_site_fract_x
 _atom_site_fract_y
 _atom_site_fract_z
 _atom_site_occupancy
  Hf  Hf0  1  0.730127  0.730023  0.749910  1
  Hf  Hf1  1  0.269977  0.000104  0.749910  1
  Hf  Hf2  1  0.999896  0.269873  0.749910  1
  Hf  Hf3  1  0.269977  0.269873  0.250090  1
  Hf  Hf4  1  0.730127  0.000104  0.250090  1
  Hf  Hf5  1  0.999896  0.730023  0.250090  1
  Ta  Ta6  1  0.666667  0.333333  0.500000  1
  Nb  Nb7  1  0.666667  0.333333  0.000000  1
  Nb  Nb8  1  0.333333  0.666667  0.000000  1
  Nb  Nb9  1  0.333333  0.666667  0.500000  1
  Ga  Ga10  1  0.000000  0.000000  0.000000  1
  Ga  Ga11  1  0.000000  0.000000  0.500000  1
  Sn  Sn12  1  0.390238  0.390295  0.749967  1
  Sn  Sn13  1  0.609705  0.999943  0.749967  1
  Sn  Sn14  1  0.000057  0.609762  0.749967  1
  Sn  Sn15  1  0.609705  0.609762  0.250033  1
  Sn  Sn16  1  0.390238  0.999943  0.250033  1
  Sn  Sn17  1  0.000057  0.390295  0.250033  1
