# generated using pymatgen
data_Li(Ti4Sn3)3
_symmetry_space_group_name_H-M   'P 1'
_cell_length_a   9.24703500
_cell_length_b   9.24703593
_cell_length_c   5.70249000
_cell_angle_alpha   90.00000000
_cell_angle_beta   90.00000000
_cell_angle_gamma   120.00000027
_symmetry_Int_Tables_number   1
_chemical_formula_structural   Li(Ti4Sn3)3
_chemical_formula_sum   'Li1 Ti12 Sn9'
_cell_volume   422.27970476
_cell_formula_units_Z   1
loop_
 _symmetry_equiv_pos_site_id
 _symmetry_equiv_pos_as_xyz
  1  'x, y, z'
loop_
 _atom_site_type_symbol
 _atom_site_label
 _atom_site_symmetry_multiplicity
 _atom_site_fract_x
 _atom_site_fract_y
 _atom_site_fract_z
 _atom_site_occupancy
  Li  Li0  1  0.000000  0.000000  0.500000  1
  Ti  Ti1  1  0.843485  0.686971  0.755584  1
  Ti  Ti2  1  0.156515  0.843485  0.244416  1
  Ti  Ti3  1  0.686971  0.843485  0.244416  1
  Ti  Ti4  1  0.313029  0.156515  0.755584  1
  Ti  Ti5  1  0.843485  0.156515  0.755584  1
  Ti  Ti6  1  0.156515  0.313029  0.244416  1
  Ti  Ti7  1  0.500000  0.000000  0.500000  1
  Ti  Ti8  1  0.500000  0.500000  0.000000  1
  Ti  Ti9  1  0.000000  0.500000  0.000000  1
  Ti  Ti10  1  0.000000  0.500000  0.500000  1
  Ti  Ti11  1  0.500000  0.000000  0.000000  1
  Ti  Ti12  1  0.500000  0.500000  0.500000  1
  Sn  Sn13  1  0.197817  0.395635  0.746522  1
  Sn  Sn14  1  0.802183  0.197817  0.253478  1
  Sn  Sn15  1  0.395635  0.197817  0.253478  1
  Sn  Sn16  1  0.604365  0.802183  0.746522  1
  Sn  Sn17  1  0.197817  0.802183  0.746522  1
  Sn  Sn18  1  0.802183  0.604365  0.253478  1
  Sn  Sn19  1  0.666667  0.333333  0.749999  1
  Sn  Sn20  1  0.333333  0.666667  0.250001  1
  Sn  Sn21  1  0.000000  0.000000  0.000000  1
