# generated using pymatgen
data_CsLiNpTe3
_symmetry_space_group_name_H-M   'P 1'
_cell_length_a   4.44977000
_cell_length_b   8.63759125
_cell_length_c   11.70320300
_cell_angle_alpha   90.00000000
_cell_angle_beta   90.00000000
_cell_angle_gamma   75.07338597
_symmetry_Int_Tables_number   1
_chemical_formula_structural   CsLiNpTe3
_chemical_formula_sum   'Cs2 Li2 Np2 Te6'
_cell_volume   434.63770110
_cell_formula_units_Z   2
loop_
 _symmetry_equiv_pos_site_id
 _symmetry_equiv_pos_as_xyz
  1  'x, y, z'
loop_
 _atom_site_type_symbol
 _atom_site_label
 _atom_site_symmetry_multiplicity
 _atom_site_fract_x
 _atom_site_fract_y
 _atom_site_fract_z
 _atom_site_occupancy
  Cs  Cs0  1  0.743482  0.513035  0.250000  1
  Cs  Cs1  1  0.256518  0.486964  0.750000  1
  Li  Li2  1  0.463421  0.073158  0.250000  1
  Li  Li3  1  0.536579  0.926841  0.750000  1
  Np  Np4  1  0.000000  0.000000  0.000000  1
  Np  Np5  1  0.000000  0.000000  0.500000  1
  Te  Te6  1  0.379327  0.241347  0.049240  1
  Te  Te7  1  0.056751  0.886499  0.250000  1
  Te  Te8  1  0.379327  0.241347  0.450760  1
  Te  Te9  1  0.620672  0.758653  0.549240  1
  Te  Te10  1  0.943249  0.113501  0.750000  1
  Te  Te11  1  0.620672  0.758653  0.950760  1
