# generated using pymatgen
data_Hf6Zn21FeNi2
_symmetry_space_group_name_H-M   'P 1'
_cell_length_a   8.72105442
_cell_length_b   8.67187517
_cell_length_c   8.67186700
_cell_angle_alpha   59.94150178
_cell_angle_beta   59.81065169
_cell_angle_gamma   59.81063485
_symmetry_Int_Tables_number   1
_chemical_formula_structural   Hf6Zn21FeNi2
_chemical_formula_sum   'Hf6 Zn21 Fe1 Ni2'
_cell_volume   462.21007588
_cell_formula_units_Z   1
loop_
 _symmetry_equiv_pos_site_id
 _symmetry_equiv_pos_as_xyz
  1  'x, y, z'
loop_
 _atom_site_type_symbol
 _atom_site_label
 _atom_site_symmetry_multiplicity
 _atom_site_fract_x
 _atom_site_fract_y
 _atom_site_fract_z
 _atom_site_occupancy
  Hf  Hf0  1  0.700523  0.299468  0.299468  1
  Hf  Hf1  1  0.299477  0.700532  0.700532  1
  Hf  Hf2  1  0.300358  0.696641  0.303359  1
  Hf  Hf3  1  0.699642  0.303359  0.696641  1
  Hf  Hf4  1  0.300358  0.303359  0.696641  1
  Hf  Hf5  1  0.699642  0.696641  0.303359  1
  Zn  Zn6  1  0.116788  0.117930  0.117930  1
  Zn  Zn7  1  0.883212  0.882070  0.882070  1
  Zn  Zn8  1  0.113149  0.128894  0.644779  1
  Zn  Zn9  1  0.113149  0.644779  0.128894  1
  Zn  Zn10  1  0.886851  0.871106  0.355221  1
  Zn  Zn11  1  0.886851  0.355221  0.871106  1
  Zn  Zn12  1  0.647330  0.117934  0.117934  1
  Zn  Zn13  1  0.352670  0.882066  0.882066  1
  Zn  Zn14  1  0.500000  0.000000  0.000000  1
  Zn  Zn15  1  0.000000  0.500000  0.000000  1
  Zn  Zn16  1  0.500000  0.000000  0.500000  1
  Zn  Zn17  1  0.000000  0.000000  0.500000  1
  Zn  Zn18  1  0.500000  0.500000  0.000000  1
  Zn  Zn19  1  0.325406  0.335812  0.335812  1
  Zn  Zn20  1  0.674594  0.664188  0.664188  1
  Zn  Zn21  1  0.333290  0.333603  0.999828  1
  Zn  Zn22  1  0.333290  0.999828  0.333603  1
  Zn  Zn23  1  0.666710  0.666397  0.000172  1
  Zn  Zn24  1  0.666710  0.000172  0.666397  1
  Zn  Zn25  1  0.002979  0.335807  0.335807  1
  Zn  Zn26  1  0.997021  0.664193  0.664193  1
  Fe  Fe27  1  0.500000  0.500000  0.500000  1
  Ni  Ni28  1  0.000000  0.500000  0.500000  1
  Ni  Ni29  1  0.000000  0.000000  0.000000  1
