# generated using pymatgen
data_Nd8SnRhI12
_symmetry_space_group_name_H-M   'P 1'
_cell_length_a   4.40495100
_cell_length_b   14.59056917
_cell_length_c   15.40603200
_cell_angle_alpha   89.83140202
_cell_angle_beta   90.00000000
_cell_angle_gamma   90.00000000
_symmetry_Int_Tables_number   1
_chemical_formula_structural   Nd8SnRhI12
_chemical_formula_sum   'Nd8 Sn1 Rh1 I12'
_cell_volume   990.15282496
_cell_formula_units_Z   1
loop_
 _symmetry_equiv_pos_site_id
 _symmetry_equiv_pos_as_xyz
  1  'x, y, z'
loop_
 _atom_site_type_symbol
 _atom_site_label
 _atom_site_symmetry_multiplicity
 _atom_site_fract_x
 _atom_site_fract_y
 _atom_site_fract_z
 _atom_site_occupancy
  Nd  Nd0  1  0.500000  0.120617  0.338681  1
  Nd  Nd1  1  0.500000  0.879383  0.661319  1
  Nd  Nd2  1  0.500000  0.611433  0.148582  1
  Nd  Nd3  1  0.500000  0.388567  0.851418  1
  Nd  Nd4  1  0.000000  0.121251  0.581422  1
  Nd  Nd5  1  0.000000  0.878749  0.418578  1
  Nd  Nd6  1  0.000000  0.608636  0.927059  1
  Nd  Nd7  1  0.000000  0.391364  0.072941  1
  Sn  Sn8  1  0.500000  0.000000  0.500000  1
  Rh  Rh9  1  0.500000  0.500000  0.000000  1
  I  I10  1  0.500000  0.246048  0.161727  1
  I  I11  1  0.500000  0.753952  0.838273  1
  I  I12  1  0.500000  0.741562  0.334299  1
  I  I13  1  0.500000  0.258438  0.665701  1
  I  I14  1  0.000000  0.258173  0.414070  1
  I  I15  1  0.000000  0.741827  0.585930  1
  I  I16  1  0.000000  0.758042  0.085445  1
  I  I17  1  0.000000  0.241958  0.914555  1
  I  I18  1  0.000000  0.999631  0.240714  1
  I  I19  1  0.000000  0.000369  0.759286  1
  I  I20  1  0.000000  0.498773  0.259011  1
  I  I21  1  0.000000  0.501227  0.740989  1
