# generated using pymatgen
data_Ho6Er2Sc12Si15Bi
_symmetry_space_group_name_H-M   'P 1'
_cell_length_a   7.15218742
_cell_length_b   7.39515000
_cell_length_c   14.03506800
_cell_angle_alpha   90.06776959
_cell_angle_beta   88.69734819
_cell_angle_gamma   90.16958491
_symmetry_Int_Tables_number   1
_chemical_formula_structural   Ho6Er2Sc12Si15Bi
_chemical_formula_sum   'Ho6 Er2 Sc12 Si15 Bi1'
_cell_volume   742.14021895
_cell_formula_units_Z   1
loop_
 _symmetry_equiv_pos_site_id
 _symmetry_equiv_pos_as_xyz
  1  'x, y, z'
loop_
 _atom_site_type_symbol
 _atom_site_label
 _atom_site_symmetry_multiplicity
 _atom_site_fract_x
 _atom_site_fract_y
 _atom_site_fract_z
 _atom_site_occupancy
  Ho  Ho0  1  0.488866  0.675852  0.904026  1
  Ho  Ho1  1  0.993044  0.831457  0.598425  1
  Ho  Ho2  1  0.511679  0.324246  0.097345  1
  Ho  Ho3  1  0.999507  0.170057  0.398933  1
  Ho  Ho4  1  0.511570  0.317109  0.397476  1
  Ho  Ho5  1  0.511883  0.686546  0.601197  1
  Er  Er6  1  0.012262  0.176781  0.096619  1
  Er  Er7  1  0.988103  0.824607  0.904118  1
  Sc  Sc8  1  0.164654  0.501188  0.756193  1
  Sc  Sc9  1  0.834625  0.498875  0.251431  1
  Sc  Sc10  1  0.334773  0.001858  0.250284  1
  Sc  Sc11  1  0.667200  0.998505  0.751243  1
  Sc  Sc12  1  0.349276  0.155836  0.631757  1
  Sc  Sc13  1  0.658207  0.827399  0.372517  1
  Sc  Sc14  1  0.154221  0.683155  0.368937  1
  Sc  Sc15  1  0.667209  0.822792  0.123761  1
  Sc  Sc16  1  0.826583  0.326407  0.625840  1
  Sc  Sc17  1  0.330792  0.175408  0.875587  1
  Sc  Sc18  1  0.831575  0.323705  0.875671  1
  Sc  Sc19  1  0.168198  0.676580  0.124882  1
  Si  Si20  1  0.037019  0.119081  0.751208  1
  Si  Si21  1  0.960453  0.885177  0.245976  1
  Si  Si22  1  0.460878  0.616289  0.247539  1
  Si  Si23  1  0.536147  0.384716  0.752944  1
  Si  Si24  1  0.289441  0.866938  0.753132  1
  Si  Si25  1  0.710648  0.126795  0.246381  1
  Si  Si26  1  0.209407  0.372977  0.248822  1
  Si  Si27  1  0.793654  0.628834  0.751847  1
  Si  Si28  1  0.812039  0.541136  0.456533  1
  Si  Si29  1  0.329232  0.963295  0.459802  1
  Si  Si30  1  0.843436  0.534147  0.039870  1
  Si  Si31  1  0.672177  0.038790  0.538541  1
  Si  Si32  1  0.155839  0.465456  0.961430  1
  Si  Si33  1  0.655684  0.034551  0.960347  1
  Si  Si34  1  0.343006  0.966201  0.040173  1
  Bi  Bi35  1  0.186712  0.457251  0.539213  1
