# generated using pymatgen
data_Ce3Co2Si2Rh
_symmetry_space_group_name_H-M   'P 1'
_cell_length_a   5.66556000
_cell_length_b   7.50001600
_cell_length_c   14.34155600
_cell_angle_alpha   90.00000000
_cell_angle_beta   90.00000000
_cell_angle_gamma   90.00000000
_symmetry_Int_Tables_number   1
_chemical_formula_structural   Ce3Co2Si2Rh
_chemical_formula_sum   'Ce12 Co8 Si8 Rh4'
_cell_volume   609.39839513
_cell_formula_units_Z   4
loop_
 _symmetry_equiv_pos_site_id
 _symmetry_equiv_pos_as_xyz
  1  'x, y, z'
loop_
 _atom_site_type_symbol
 _atom_site_label
 _atom_site_symmetry_multiplicity
 _atom_site_fract_x
 _atom_site_fract_y
 _atom_site_fract_z
 _atom_site_occupancy
  Ce  Ce0  1  0.878398  0.849843  0.750000  1
  Ce  Ce1  1  0.841425  0.517803  0.399474  1
  Ce  Ce2  1  0.341425  0.982197  0.600526  1
  Ce  Ce3  1  0.158575  0.482197  0.899474  1
  Ce  Ce4  1  0.658575  0.017804  0.100526  1
  Ce  Ce5  1  0.121602  0.150157  0.250000  1
  Ce  Ce6  1  0.158575  0.482197  0.600526  1
  Ce  Ce7  1  0.658575  0.017804  0.399474  1
  Ce  Ce8  1  0.378398  0.650157  0.250000  1
  Ce  Ce9  1  0.341425  0.982197  0.899474  1
  Ce  Ce10  1  0.621602  0.349843  0.750000  1
  Ce  Ce11  1  0.841425  0.517803  0.100526  1
  Co  Co12  1  0.596783  0.351643  0.962907  1
  Co  Co13  1  0.096783  0.148357  0.462907  1
  Co  Co14  1  0.096783  0.148357  0.037093  1
  Co  Co15  1  0.903217  0.851643  0.962907  1
  Co  Co16  1  0.903217  0.851643  0.537093  1
  Co  Co17  1  0.596783  0.351643  0.537093  1
  Co  Co18  1  0.403217  0.648357  0.462907  1
  Co  Co19  1  0.403217  0.648357  0.037093  1
  Si  Si20  1  0.649918  0.639683  0.905642  1
  Si  Si21  1  0.850082  0.139683  0.594358  1
  Si  Si22  1  0.149918  0.860317  0.094358  1
  Si  Si23  1  0.149918  0.860317  0.405642  1
  Si  Si24  1  0.649918  0.639683  0.594358  1
  Si  Si25  1  0.850082  0.139683  0.905642  1
  Si  Si26  1  0.350082  0.360317  0.094358  1
  Si  Si27  1  0.350082  0.360317  0.405642  1
  Rh  Rh28  1  0.413217  0.703196  0.750000  1
  Rh  Rh29  1  0.586783  0.296804  0.250000  1
  Rh  Rh30  1  0.913217  0.796804  0.250000  1
  Rh  Rh31  1  0.086783  0.203196  0.750000  1
