# generated using pymatgen
data_La10Tc3Pt
_symmetry_space_group_name_H-M   'P 1'
_cell_length_a   9.17179168
_cell_length_b   9.07739233
_cell_length_c   7.47936117
_cell_angle_alpha   84.51141229
_cell_angle_beta   84.44726680
_cell_angle_gamma   43.33027648
_symmetry_Int_Tables_number   1
_chemical_formula_structural   La10Tc3Pt
_chemical_formula_sum   'La10 Tc3 Pt1'
_cell_volume   425.00332079
_cell_formula_units_Z   1
loop_
 _symmetry_equiv_pos_site_id
 _symmetry_equiv_pos_as_xyz
  1  'x, y, z'
loop_
 _atom_site_type_symbol
 _atom_site_label
 _atom_site_symmetry_multiplicity
 _atom_site_fract_x
 _atom_site_fract_y
 _atom_site_fract_z
 _atom_site_occupancy
  La  La0  1  0.029125  0.788764  0.901849  1
  La  La1  1  0.205085  0.982439  0.596157  1
  La  La2  1  0.984209  0.206081  0.098281  1
  La  La3  1  0.809327  0.009070  0.418768  1
  La  La4  1  0.353249  0.210028  0.812589  1
  La  La5  1  0.786927  0.643799  0.682348  1
  La  La6  1  0.639192  0.782918  0.178498  1
  La  La7  1  0.201276  0.367753  0.321945  1
  La  La8  1  0.582169  0.423680  0.745609  1
  La  La9  1  0.421948  0.578264  0.249457  1
  Tc  Tc10  1  0.172125  0.609330  0.578237  1
  Tc  Tc11  1  0.390406  0.831015  0.925769  1
  Tc  Tc12  1  0.829254  0.388637  0.414884  1
  Pt  Pt13  1  0.595708  0.178221  0.075609  1
