# generated using pymatgen
data_Tb14Y2MgHg3Ir4
_symmetry_space_group_name_H-M   'P 1'
_cell_length_a   9.66920349
_cell_length_b   9.66093815
_cell_length_c   9.66534800
_cell_angle_alpha   59.98489921
_cell_angle_beta   60.01318930
_cell_angle_gamma   60.00982903
_symmetry_Int_Tables_number   1
_chemical_formula_structural   Tb14Y2MgHg3Ir4
_chemical_formula_sum   'Tb14 Y2 Mg1 Hg3 Ir4'
_cell_volume   638.46695066
_cell_formula_units_Z   1
loop_
 _symmetry_equiv_pos_site_id
 _symmetry_equiv_pos_as_xyz
  1  'x, y, z'
loop_
 _atom_site_type_symbol
 _atom_site_label
 _atom_site_symmetry_multiplicity
 _atom_site_fract_x
 _atom_site_fract_y
 _atom_site_fract_z
 _atom_site_occupancy
  Tb  Tb0  1  0.599631  0.598059  0.597174  1
  Tb  Tb1  1  0.599631  0.598059  0.205136  1
  Tb  Tb2  1  0.600789  0.203700  0.597755  1
  Tb  Tb3  1  0.193863  0.602785  0.601676  1
  Tb  Tb4  1  0.057585  0.440783  0.442346  1
  Tb  Tb5  1  0.436770  0.061109  0.061901  1
  Tb  Tb6  1  0.436770  0.061109  0.440220  1
  Tb  Tb7  1  0.057585  0.440783  0.059285  1
  Tb  Tb8  1  0.437593  0.439295  0.061556  1
  Tb  Tb9  1  0.057885  0.059040  0.441537  1
  Tb  Tb10  1  0.187686  0.811258  0.811874  1
  Tb  Tb11  1  0.810684  0.188975  0.187779  1
  Tb  Tb12  1  0.810684  0.188975  0.812563  1
  Tb  Tb13  1  0.187686  0.811258  0.189183  1
  Y  Y14  1  0.811059  0.812690  0.188126  1
  Y  Y15  1  0.187228  0.189408  0.811682  1
  Mg  Mg16  1  0.534612  0.821477  0.821956  1
  Hg  Hg17  1  0.832060  0.836871  0.837249  1
  Hg  Hg18  1  0.832060  0.836871  0.493821  1
  Hg  Hg19  1  0.832437  0.492952  0.837306  1
  Ir  Ir20  1  0.389861  0.393475  0.391970  1
  Ir  Ir21  1  0.389861  0.393475  0.824693  1
  Ir  Ir22  1  0.390715  0.824846  0.392219  1
  Ir  Ir23  1  0.825267  0.392750  0.390992  1
