# generated using pymatgen
data_Eu2Al20GeRu3
_symmetry_space_group_name_H-M   'P 1'
_cell_length_a   6.92841715
_cell_length_b   6.91775171
_cell_length_c   9.23901700
_cell_angle_alpha   90.12000418
_cell_angle_beta   90.19013679
_cell_angle_gamma   96.90593610
_symmetry_Int_Tables_number   1
_chemical_formula_structural   Eu2Al20GeRu3
_chemical_formula_sum   'Eu2 Al20 Ge1 Ru3'
_cell_volume   439.60099201
_cell_formula_units_Z   1
loop_
 _symmetry_equiv_pos_site_id
 _symmetry_equiv_pos_as_xyz
  1  'x, y, z'
loop_
 _atom_site_type_symbol
 _atom_site_label
 _atom_site_symmetry_multiplicity
 _atom_site_fract_x
 _atom_site_fract_y
 _atom_site_fract_z
 _atom_site_occupancy
  Eu  Eu0  1  0.873464  0.121386  0.756534  1
  Eu  Eu1  1  0.126536  0.878614  0.243466  1
  Al  Al2  1  0.595569  0.853853  0.257828  1
  Al  Al3  1  0.784212  0.520644  0.254488  1
  Al  Al4  1  0.153652  0.833626  0.892332  1
  Al  Al5  1  0.404431  0.146147  0.742172  1
  Al  Al6  1  0.624260  0.393670  0.941050  1
  Al  Al7  1  0.842047  0.157550  0.402234  1
  Al  Al8  1  0.780762  0.766613  0.008820  1
  Al  Al9  1  0.861594  0.592939  0.747321  1
  Al  Al10  1  0.846348  0.166374  0.107668  1
  Al  Al11  1  0.215788  0.479356  0.745512  1
  Al  Al12  1  0.157953  0.842450  0.597766  1
  Al  Al13  1  0.784759  0.780217  0.499500  1
  Al  Al14  1  0.480781  0.237472  0.267711  1
  Al  Al15  1  0.625677  0.381410  0.549614  1
  Al  Al16  1  0.215241  0.219783  0.500500  1
  Al  Al17  1  0.374323  0.618590  0.450386  1
  Al  Al18  1  0.138406  0.407061  0.252679  1
  Al  Al19  1  0.519219  0.762528  0.732289  1
  Al  Al20  1  0.375740  0.606330  0.058950  1
  Al  Al21  1  0.219238  0.233387  0.991180  1
  Ge  Ge22  1  0.500000  0.000000  0.000000  1
  Ru  Ru23  1  0.500000  0.000000  0.500000  1
  Ru  Ru24  1  0.000000  0.500000  0.000000  1
  Ru  Ru25  1  0.000000  0.500000  0.500000  1
