# generated using pymatgen
data_YbZr3ScSe8
_symmetry_space_group_name_H-M   'P 1'
_cell_length_a   8.26557020
_cell_length_b   8.26557008
_cell_length_c   8.26557000
_cell_angle_alpha   54.97436581
_cell_angle_beta   54.97436641
_cell_angle_gamma   54.97436059
_symmetry_Int_Tables_number   1
_chemical_formula_structural   YbZr3ScSe8
_chemical_formula_sum   'Yb1 Zr3 Sc1 Se8'
_cell_volume   352.60774521
_cell_formula_units_Z   1
loop_
 _symmetry_equiv_pos_site_id
 _symmetry_equiv_pos_as_xyz
  1  'x, y, z'
loop_
 _atom_site_type_symbol
 _atom_site_label
 _atom_site_symmetry_multiplicity
 _atom_site_fract_x
 _atom_site_fract_y
 _atom_site_fract_z
 _atom_site_occupancy
  Yb  Yb0  1  0.500000  0.500000  0.500000  1
  Zr  Zr1  1  0.000000  0.500000  0.500000  1
  Zr  Zr2  1  0.500000  0.000000  0.500000  1
  Zr  Zr3  1  0.500000  0.500000  0.000000  1
  Sc  Sc4  1  0.000000  0.000000  0.000000  1
  Se  Se5  1  0.252595  0.758623  0.758623  1
  Se  Se6  1  0.241377  0.241377  0.747405  1
  Se  Se7  1  0.747405  0.241377  0.241377  1
  Se  Se8  1  0.241377  0.747405  0.241377  1
  Se  Se9  1  0.257896  0.257896  0.257896  1
  Se  Se10  1  0.742104  0.742104  0.742104  1
  Se  Se11  1  0.758623  0.252595  0.758623  1
  Se  Se12  1  0.758623  0.758623  0.252595  1
