# generated using pymatgen
data_Tb3TmCo16(MoP3)4
_symmetry_space_group_name_H-M   'P 1'
_cell_length_a   3.71914500
_cell_length_b   10.44474023
_cell_length_c   11.89540726
_cell_angle_alpha   90.02389638
_cell_angle_beta   90.00000000
_cell_angle_gamma   90.00000000
_symmetry_Int_Tables_number   1
_chemical_formula_structural   Tb3TmCo16(MoP3)4
_chemical_formula_sum   'Tb3 Tm1 Co16 Mo4 P12'
_cell_volume   462.08304283
_cell_formula_units_Z   1
loop_
 _symmetry_equiv_pos_site_id
 _symmetry_equiv_pos_as_xyz
  1  'x, y, z'
loop_
 _atom_site_type_symbol
 _atom_site_label
 _atom_site_symmetry_multiplicity
 _atom_site_fract_x
 _atom_site_fract_y
 _atom_site_fract_z
 _atom_site_occupancy
  Tb  Tb0  1  0.250000  0.583004  0.704268  1
  Tb  Tb1  1  0.250000  0.917106  0.204337  1
  Tb  Tb2  1  0.750000  0.416930  0.295704  1
  Tm  Tm3  1  0.750000  0.082729  0.795829  1
  Co  Co4  1  0.250000  0.405889  0.489626  1
  Co  Co5  1  0.250000  0.094158  0.987834  1
  Co  Co6  1  0.750000  0.594019  0.510425  1
  Co  Co7  1  0.750000  0.906607  0.010066  1
  Co  Co8  1  0.250000  0.221388  0.177464  1
  Co  Co9  1  0.250000  0.277229  0.678218  1
  Co  Co10  1  0.750000  0.778707  0.822123  1
  Co  Co11  1  0.750000  0.721854  0.322271  1
  Co  Co12  1  0.250000  0.888414  0.701215  1
  Co  Co13  1  0.250000  0.613075  0.200153  1
  Co  Co14  1  0.750000  0.113092  0.299908  1
  Co  Co15  1  0.750000  0.386232  0.799531  1
  Co  Co16  1  0.250000  0.465174  0.932834  1
  Co  Co17  1  0.250000  0.034371  0.433751  1
  Co  Co18  1  0.750000  0.534200  0.066629  1
  Co  Co19  1  0.750000  0.966112  0.567782  1
  Mo  Mo20  1  0.250000  0.708997  0.987076  1
  Mo  Mo21  1  0.250000  0.791656  0.487879  1
  Mo  Mo22  1  0.750000  0.291015  0.011923  1
  Mo  Mo23  1  0.750000  0.208381  0.512787  1
  P  P24  1  0.250000  0.420187  0.114599  1
  P  P25  1  0.250000  0.079657  0.616208  1
  P  P26  1  0.750000  0.579512  0.885071  1
  P  P27  1  0.750000  0.920486  0.385615  1
  P  P28  1  0.250000  0.268024  0.864423  1
  P  P29  1  0.250000  0.230120  0.364962  1
  P  P30  1  0.750000  0.730250  0.134973  1
  P  P31  1  0.750000  0.769800  0.635116  1
  P  P32  1  0.250000  0.596185  0.391467  1
  P  P33  1  0.250000  0.905290  0.890834  1
  P  P34  1  0.750000  0.404026  0.608541  1
  P  P35  1  0.750000  0.096124  0.108558  1
