# generated using pymatgen
data_HoSb2O6F
_symmetry_space_group_name_H-M   'P 1'
_cell_length_a   7.33454871
_cell_length_b   7.33454934
_cell_length_c   7.33455000
_cell_angle_alpha   120.40922395
_cell_angle_beta   119.40816444
_cell_angle_gamma   90.16040263
_symmetry_Int_Tables_number   1
_chemical_formula_structural   HoSb2O6F
_chemical_formula_sum   'Ho2 Sb4 O12 F2'
_cell_volume   279.35800013
_cell_formula_units_Z   2
loop_
 _symmetry_equiv_pos_site_id
 _symmetry_equiv_pos_as_xyz
  1  'x, y, z'
loop_
 _atom_site_type_symbol
 _atom_site_label
 _atom_site_symmetry_multiplicity
 _atom_site_fract_x
 _atom_site_fract_y
 _atom_site_fract_z
 _atom_site_occupancy
  Ho  Ho0  1  0.500000  0.500000  0.000000  1
  Ho  Ho1  1  0.000000  0.500000  0.500000  1
  Sb  Sb2  1  0.000000  0.000000  0.000000  1
  Sb  Sb3  1  0.500000  0.000000  0.500000  1
  Sb  Sb4  1  0.500000  0.000000  0.000000  1
  Sb  Sb5  1  0.500000  0.500000  0.500000  1
  O  O6  1  0.182131  0.932131  0.250000  1
  O  O7  1  0.579381  0.329381  0.250000  1
  O  O8  1  0.175114  0.904381  0.842824  1
  O  O9  1  0.561559  0.332290  0.657176  1
  O  O10  1  0.561559  0.904381  0.229269  1
  O  O11  1  0.175114  0.332290  0.270731  1
  O  O12  1  0.817869  0.067869  0.750000  1
  O  O13  1  0.420619  0.670619  0.750000  1
  O  O14  1  0.824886  0.095619  0.157176  1
  O  O15  1  0.438441  0.667710  0.342824  1
  O  O16  1  0.438441  0.095619  0.770731  1
  O  O17  1  0.824886  0.667710  0.729269  1
  F  F18  1  0.852871  0.602871  0.250000  1
  F  F19  1  0.147129  0.397129  0.750000  1
