# generated using pymatgen
data_Cd2Ga3MoO8
_symmetry_space_group_name_H-M   'P 1'
_cell_length_a   6.35247242
_cell_length_b   6.19447961
_cell_length_c   6.19448000
_cell_angle_alpha   60.00000861
_cell_angle_beta   60.81938220
_cell_angle_gamma   60.81939049
_symmetry_Int_Tables_number   1
_chemical_formula_structural   Cd2Ga3MoO8
_chemical_formula_sum   'Cd2 Ga3 Mo1 O8'
_cell_volume   174.46433448
_cell_formula_units_Z   1
loop_
 _symmetry_equiv_pos_site_id
 _symmetry_equiv_pos_as_xyz
  1  'x, y, z'
loop_
 _atom_site_type_symbol
 _atom_site_label
 _atom_site_symmetry_multiplicity
 _atom_site_fract_x
 _atom_site_fract_y
 _atom_site_fract_z
 _atom_site_occupancy
  Cd  Cd0  1  0.745092  0.751636  0.751636  1
  Cd  Cd1  1  0.504908  0.498364  0.498364  1
  Ga  Ga2  1  0.125000  0.125000  0.125000  1
  Ga  Ga3  1  0.125000  0.125000  0.625000  1
  Ga  Ga4  1  0.125000  0.625000  0.125000  1
  Mo  Mo5  1  0.625000  0.125000  0.125000  1
  O  O6  1  0.910471  0.321168  0.884181  1
  O  O7  1  0.339529  0.365819  0.928832  1
  O  O8  1  0.339529  0.365819  0.365819  1
  O  O9  1  0.925589  0.358137  0.358137  1
  O  O10  1  0.910471  0.884181  0.884181  1
  O  O11  1  0.324411  0.891863  0.891863  1
  O  O12  1  0.339529  0.928832  0.365819  1
  O  O13  1  0.910471  0.884181  0.321168  1
