# generated using pymatgen
data_Mn2GaCo4As
_symmetry_space_group_name_H-M   'P 1'
_cell_length_a   7.03140355
_cell_length_b   7.03140348
_cell_length_c   7.03140363
_cell_angle_alpha   33.61857438
_cell_angle_beta   33.61857483
_cell_angle_gamma   33.61858351
_symmetry_Int_Tables_number   1
_chemical_formula_structural   Mn2GaCo4As
_chemical_formula_sum   'Mn2 Ga1 Co4 As1'
_cell_volume   94.92958504
_cell_formula_units_Z   1
loop_
 _symmetry_equiv_pos_site_id
 _symmetry_equiv_pos_as_xyz
  1  'x, y, z'
loop_
 _atom_site_type_symbol
 _atom_site_label
 _atom_site_symmetry_multiplicity
 _atom_site_fract_x
 _atom_site_fract_y
 _atom_site_fract_z
 _atom_site_occupancy
  Mn  Mn0  1  0.252882  0.252882  0.252882  1
  Mn  Mn1  1  0.747118  0.747118  0.747118  1
  Ga  Ga2  1  0.000000  0.000000  0.000000  1
  Co  Co3  1  0.377271  0.377271  0.377271  1
  Co  Co4  1  0.872702  0.872702  0.872702  1
  Co  Co5  1  0.622729  0.622729  0.622729  1
  Co  Co6  1  0.127298  0.127298  0.127298  1
  As  As7  1  0.500000  0.500000  0.500000  1
