# generated using pymatgen
data_NaMnFe(Sb6Pt)2
_symmetry_space_group_name_H-M   'P 1'
_cell_length_a   8.10095427
_cell_length_b   8.13379703
_cell_length_c   8.10147946
_cell_angle_alpha   109.51602678
_cell_angle_beta   109.49053234
_cell_angle_gamma   109.45734372
_symmetry_Int_Tables_number   1
_chemical_formula_structural   NaMnFe(Sb6Pt)2
_chemical_formula_sum   'Na1 Mn1 Fe1 Sb12 Pt2'
_cell_volume   410.67881232
_cell_formula_units_Z   1
loop_
 _symmetry_equiv_pos_site_id
 _symmetry_equiv_pos_as_xyz
  1  'x, y, z'
loop_
 _atom_site_type_symbol
 _atom_site_label
 _atom_site_symmetry_multiplicity
 _atom_site_fract_x
 _atom_site_fract_y
 _atom_site_fract_z
 _atom_site_occupancy
  Na  Na0  1  0.000000  0.000000  0.000000  1
  Mn  Mn1  1  0.500000  0.500000  0.500000  1
  Fe  Fe2  1  0.000000  0.500000  0.000000  1
  Sb  Sb3  1  0.650646  0.802342  0.150854  1
  Sb  Sb4  1  0.853234  0.350446  0.181854  1
  Sb  Sb5  1  0.505129  0.833056  0.651701  1
  Sb  Sb6  1  0.831826  0.650433  0.503257  1
  Sb  Sb7  1  0.494871  0.166944  0.348299  1
  Sb  Sb8  1  0.146766  0.649554  0.818146  1
  Sb  Sb9  1  0.818082  0.166701  0.671404  1
  Sb  Sb10  1  0.181918  0.833299  0.328596  1
  Sb  Sb11  1  0.168174  0.349567  0.496743  1
  Sb  Sb12  1  0.671765  0.509200  0.837447  1
  Sb  Sb13  1  0.328235  0.490800  0.162553  1
  Sb  Sb14  1  0.349354  0.197658  0.849146  1
  Pt  Pt15  1  0.000000  0.000000  0.500000  1
  Pt  Pt16  1  0.500000  0.000000  0.000000  1
