# generated using pymatgen
data_TbY9(Pb3Cl)2
_symmetry_space_group_name_H-M   'P 1'
_cell_length_a   9.22198711
_cell_length_b   9.22198899
_cell_length_c   6.63482000
_cell_angle_alpha   90.00000000
_cell_angle_beta   90.00000000
_cell_angle_gamma   120.01741674
_symmetry_Int_Tables_number   1
_chemical_formula_structural   TbY9(Pb3Cl)2
_chemical_formula_sum   'Tb1 Y9 Pb6 Cl2'
_cell_volume   488.57657461
_cell_formula_units_Z   1
loop_
 _symmetry_equiv_pos_site_id
 _symmetry_equiv_pos_as_xyz
  1  'x, y, z'
loop_
 _atom_site_type_symbol
 _atom_site_label
 _atom_site_symmetry_multiplicity
 _atom_site_fract_x
 _atom_site_fract_y
 _atom_site_fract_z
 _atom_site_occupancy
  Tb  Tb0  1  0.260563  0.260563  0.750000  1
  Y  Y1  1  0.260708  0.000005  0.250000  1
  Y  Y2  1  0.739327  0.999997  0.750000  1
  Y  Y3  1  0.000005  0.260708  0.250000  1
  Y  Y4  1  0.999997  0.739327  0.750000  1
  Y  Y5  1  0.739312  0.739312  0.250000  1
  Y  Y6  1  0.333335  0.666680  0.000026  1
  Y  Y7  1  0.666680  0.333335  0.000026  1
  Y  Y8  1  0.666680  0.333335  0.499974  1
  Y  Y9  1  0.333335  0.666680  0.499974  1
  Pb  Pb10  1  0.610542  0.000000  0.250000  1
  Pb  Pb11  1  0.389487  0.999956  0.750000  1
  Pb  Pb12  1  0.000000  0.610542  0.250000  1
  Pb  Pb13  1  0.999956  0.389487  0.750000  1
  Pb  Pb14  1  0.389433  0.389433  0.250000  1
  Pb  Pb15  1  0.610581  0.610581  0.750000  1
  Cl  Cl16  1  0.000030  0.000030  0.999993  1
  Cl  Cl17  1  0.000030  0.000030  0.500007  1
