# generated using pymatgen
data_BaCrBF10
_symmetry_space_group_name_H-M   'P 1'
_cell_length_a   6.49185900
_cell_length_b   10.70630300
_cell_length_c   12.13367400
_cell_angle_alpha   90.00000000
_cell_angle_beta   90.00000000
_cell_angle_gamma   90.00000000
_symmetry_Int_Tables_number   1
_chemical_formula_structural   BaCrBF10
_chemical_formula_sum   'Ba4 Cr4 B4 F40'
_cell_volume   843.33656608
_cell_formula_units_Z   4
loop_
 _symmetry_equiv_pos_site_id
 _symmetry_equiv_pos_as_xyz
  1  'x, y, z'
loop_
 _atom_site_type_symbol
 _atom_site_label
 _atom_site_symmetry_multiplicity
 _atom_site_fract_x
 _atom_site_fract_y
 _atom_site_fract_z
 _atom_site_occupancy
  Ba  Ba0  1  0.750000  0.264227  0.612517  1
  Ba  Ba1  1  0.750000  0.764227  0.887483  1
  Ba  Ba2  1  0.250000  0.735773  0.387483  1
  Ba  Ba3  1  0.250000  0.235773  0.112517  1
  Cr  Cr4  1  0.250000  0.982589  0.698978  1
  Cr  Cr5  1  0.250000  0.482589  0.801022  1
  Cr  Cr6  1  0.750000  0.017411  0.301022  1
  Cr  Cr7  1  0.750000  0.517411  0.198978  1
  B  B8  1  0.750000  0.641727  0.571168  1
  B  B9  1  0.750000  0.141727  0.928832  1
  B  B10  1  0.250000  0.358273  0.428832  1
  B  B11  1  0.250000  0.858273  0.071168  1
  F  F12  1  0.572216  0.686027  0.516431  1
  F  F13  1  0.927784  0.186027  0.983569  1
  F  F14  1  0.072216  0.313973  0.483569  1
  F  F15  1  0.427784  0.813973  0.016431  1
  F  F16  1  0.427784  0.313973  0.483569  1
  F  F17  1  0.072216  0.813973  0.016431  1
  F  F18  1  0.927784  0.686027  0.516431  1
  F  F19  1  0.572216  0.186027  0.983569  1
  F  F20  1  0.750000  0.509531  0.571600  1
  F  F21  1  0.750000  0.009531  0.928400  1
  F  F22  1  0.250000  0.490469  0.428400  1
  F  F23  1  0.250000  0.990469  0.071600  1
  F  F24  1  0.750000  0.685476  0.681264  1
  F  F25  1  0.750000  0.185476  0.818736  1
  F  F26  1  0.250000  0.314524  0.318736  1
  F  F27  1  0.250000  0.814524  0.181264  1
  F  F28  1  0.250000  0.888886  0.576682  1
  F  F29  1  0.250000  0.388886  0.923318  1
  F  F30  1  0.750000  0.111114  0.423318  1
  F  F31  1  0.750000  0.611114  0.076682  1
  F  F32  1  0.447636  0.882865  0.757975  1
  F  F33  1  0.052364  0.382865  0.742025  1
  F  F34  1  0.947636  0.117135  0.242025  1
  F  F35  1  0.552364  0.617135  0.257975  1
  F  F36  1  0.552364  0.117135  0.242025  1
  F  F37  1  0.947636  0.617135  0.257975  1
  F  F38  1  0.052364  0.882865  0.757975  1
  F  F39  1  0.447636  0.382865  0.742025  1
  F  F40  1  0.250000  0.076422  0.817084  1
  F  F41  1  0.250000  0.576422  0.682916  1
  F  F42  1  0.750000  0.923578  0.182916  1
  F  F43  1  0.750000  0.423578  0.317084  1
  F  F44  1  0.050668  0.080079  0.637515  1
  F  F45  1  0.449332  0.580079  0.862485  1
  F  F46  1  0.550668  0.919921  0.362485  1
  F  F47  1  0.949332  0.419921  0.137515  1
  F  F48  1  0.949332  0.919921  0.362485  1
  F  F49  1  0.550668  0.419921  0.137515  1
  F  F50  1  0.449332  0.080079  0.637515  1
  F  F51  1  0.050668  0.580079  0.862485  1
