# generated using pymatgen
data_Dy4Tm6Ru3Rh
_symmetry_space_group_name_H-M   'P 1'
_cell_length_a   6.29287291
_cell_length_b   7.26651594
_cell_length_c   8.38722752
_cell_angle_alpha   96.87436691
_cell_angle_beta   111.94545164
_cell_angle_gamma   90.03393879
_symmetry_Int_Tables_number   1
_chemical_formula_structural   Dy4Tm6Ru3Rh
_chemical_formula_sum   'Dy4 Tm6 Ru3 Rh1'
_cell_volume   352.74932944
_cell_formula_units_Z   1
loop_
 _symmetry_equiv_pos_site_id
 _symmetry_equiv_pos_as_xyz
  1  'x, y, z'
loop_
 _atom_site_type_symbol
 _atom_site_label
 _atom_site_symmetry_multiplicity
 _atom_site_fract_x
 _atom_site_fract_y
 _atom_site_fract_z
 _atom_site_occupancy
  Dy  Dy0  1  0.791030  0.081500  0.813530  1
  Dy  Dy1  1  0.979199  0.415617  0.189804  1
  Dy  Dy2  1  0.210252  0.915984  0.187389  1
  Dy  Dy3  1  0.024981  0.585469  0.813475  1
  Tm  Tm4  1  0.203220  0.182724  0.564270  1
  Tm  Tm5  1  0.641744  0.315408  0.432395  1
  Tm  Tm6  1  0.793588  0.815382  0.434330  1
  Tm  Tm7  1  0.357874  0.686133  0.564237  1
  Tm  Tm8  1  0.419259  0.249121  0.000794  1
  Tm  Tm9  1  0.580299  0.752014  0.001302  1
  Ru  Ru10  1  0.822120  0.076707  0.219978  1
  Ru  Ru11  1  0.398317  0.575460  0.221259  1
  Ru  Ru12  1  0.179187  0.924247  0.778958  1
  Rh  Rh13  1  0.598929  0.424234  0.778278  1
