# generated using pymatgen
data_Li2U(TaN2)3
_symmetry_space_group_name_H-M   'P 1'
_cell_length_a   5.28931900
_cell_length_b   5.28931908
_cell_length_c   10.76611900
_cell_angle_alpha   90.00000000
_cell_angle_beta   90.00000000
_cell_angle_gamma   119.99999327
_symmetry_Int_Tables_number   1
_chemical_formula_structural   Li2U(TaN2)3
_chemical_formula_sum   'Li4 U2 Ta6 N12'
_cell_volume   260.84911267
_cell_formula_units_Z   2
loop_
 _symmetry_equiv_pos_site_id
 _symmetry_equiv_pos_as_xyz
  1  'x, y, z'
loop_
 _atom_site_type_symbol
 _atom_site_label
 _atom_site_symmetry_multiplicity
 _atom_site_fract_x
 _atom_site_fract_y
 _atom_site_fract_z
 _atom_site_occupancy
  Li  Li0  1  0.333333  0.666667  0.000000  1
  Li  Li1  1  0.333333  0.666667  0.500000  1
  Li  Li2  1  0.666667  0.333333  0.500000  1
  Li  Li3  1  0.666667  0.333333  0.000000  1
  U  U4  1  0.000000  0.000000  0.500000  1
  U  U5  1  0.000000  0.000000  0.000000  1
  Ta  Ta6  1  0.000000  0.348478  0.250000  1
  Ta  Ta7  1  0.651522  0.000000  0.750000  1
  Ta  Ta8  1  0.348478  0.348478  0.750000  1
  Ta  Ta9  1  0.651522  0.651522  0.250000  1
  Ta  Ta10  1  0.348478  0.000000  0.250000  1
  Ta  Ta11  1  0.000000  0.651522  0.750000  1
  N  N12  1  0.675216  0.675216  0.628810  1
  N  N13  1  0.675216  0.675216  0.871190  1
  N  N14  1  0.324784  0.324784  0.128810  1
  N  N15  1  0.324784  0.324784  0.371190  1
  N  N16  1  0.324784  0.000000  0.871190  1
  N  N17  1  0.324784  0.000000  0.628810  1
  N  N18  1  0.000000  0.675216  0.371190  1
  N  N19  1  0.000000  0.675216  0.128810  1
  N  N20  1  0.675216  0.000000  0.128810  1
  N  N21  1  0.675216  0.000000  0.371190  1
  N  N22  1  0.000000  0.324784  0.871190  1
  N  N23  1  0.000000  0.324784  0.628810  1
