# generated using pymatgen
data_Tb2Pr2Sm(Sn5Rh2)2
_symmetry_space_group_name_H-M   'P 1'
_cell_length_a   14.19002400
_cell_length_b   14.19002400
_cell_length_c   4.58893000
_cell_angle_alpha   90.00000000
_cell_angle_beta   90.00000000
_cell_angle_gamma   90.00000000
_symmetry_Int_Tables_number   1
_chemical_formula_structural   Tb2Pr2Sm(Sn5Rh2)2
_chemical_formula_sum   'Tb4 Pr4 Sm2 Sn20 Rh8'
_cell_volume   924.01217359
_cell_formula_units_Z   2
loop_
 _symmetry_equiv_pos_site_id
 _symmetry_equiv_pos_as_xyz
  1  'x, y, z'
loop_
 _atom_site_type_symbol
 _atom_site_label
 _atom_site_symmetry_multiplicity
 _atom_site_fract_x
 _atom_site_fract_y
 _atom_site_fract_z
 _atom_site_occupancy
  Tb  Tb0  1  0.677314  0.177314  0.500000  1
  Tb  Tb1  1  0.322686  0.822686  0.500000  1
  Tb  Tb2  1  0.177314  0.322686  0.500000  1
  Tb  Tb3  1  0.822686  0.677314  0.500000  1
  Pr  Pr4  1  0.888423  0.388423  0.500000  1
  Pr  Pr5  1  0.111577  0.611577  0.500000  1
  Pr  Pr6  1  0.388423  0.111577  0.500000  1
  Pr  Pr7  1  0.611577  0.888423  0.500000  1
  Sm  Sm8  1  0.500000  0.500000  0.000000  1
  Sm  Sm9  1  0.000000  0.000000  0.000000  1
  Sn  Sn10  1  0.570051  0.070051  0.000000  1
  Sn  Sn11  1  0.429949  0.929949  0.000000  1
  Sn  Sn12  1  0.070051  0.429949  0.000000  1
  Sn  Sn13  1  0.929949  0.570051  0.000000  1
  Sn  Sn14  1  0.653650  0.698730  0.000000  1
  Sn  Sn15  1  0.346350  0.301270  0.000000  1
  Sn  Sn16  1  0.153650  0.801270  0.000000  1
  Sn  Sn17  1  0.846350  0.198730  0.000000  1
  Sn  Sn18  1  0.301270  0.653650  0.000000  1
  Sn  Sn19  1  0.698730  0.346350  0.000000  1
  Sn  Sn20  1  0.198730  0.153650  0.000000  1
  Sn  Sn21  1  0.801270  0.846350  0.000000  1
  Sn  Sn22  1  0.663457  0.506096  0.500000  1
  Sn  Sn23  1  0.336543  0.493904  0.500000  1
  Sn  Sn24  1  0.163457  0.993904  0.500000  1
  Sn  Sn25  1  0.836543  0.006096  0.500000  1
  Sn  Sn26  1  0.493904  0.663457  0.500000  1
  Sn  Sn27  1  0.506096  0.336543  0.500000  1
  Sn  Sn28  1  0.006096  0.163457  0.500000  1
  Sn  Sn29  1  0.993904  0.836543  0.500000  1
  Rh  Rh30  1  0.746728  0.530297  0.000000  1
  Rh  Rh31  1  0.253272  0.469703  0.000000  1
  Rh  Rh32  1  0.246728  0.969703  0.000000  1
  Rh  Rh33  1  0.753272  0.030297  0.000000  1
  Rh  Rh34  1  0.469703  0.746728  0.000000  1
  Rh  Rh35  1  0.530297  0.253272  0.000000  1
  Rh  Rh36  1  0.030297  0.246728  0.000000  1
  Rh  Rh37  1  0.969703  0.753272  0.000000  1
