# generated using pymatgen
data_Sc12Tc(NiBr8)2
_symmetry_space_group_name_H-M   'P 1'
_cell_length_a   8.81539317
_cell_length_b   11.00035836
_cell_length_c   11.62342200
_cell_angle_alpha   117.16249779
_cell_angle_beta   101.60542796
_cell_angle_gamma   101.25974087
_symmetry_Int_Tables_number   1
_chemical_formula_structural   Sc12Tc(NiBr8)2
_chemical_formula_sum   'Sc12 Tc1 Ni2 Br16'
_cell_volume   927.51303954
_cell_formula_units_Z   1
loop_
 _symmetry_equiv_pos_site_id
 _symmetry_equiv_pos_as_xyz
  1  'x, y, z'
loop_
 _atom_site_type_symbol
 _atom_site_label
 _atom_site_symmetry_multiplicity
 _atom_site_fract_x
 _atom_site_fract_y
 _atom_site_fract_z
 _atom_site_occupancy
  Sc  Sc0  1  0.081207  0.255970  0.348722  1
  Sc  Sc1  1  0.918793  0.744030  0.651278  1
  Sc  Sc2  1  0.778529  0.535616  0.319271  1
  Sc  Sc3  1  0.221471  0.464384  0.680729  1
  Sc  Sc4  1  0.281644  0.744538  0.651324  1
  Sc  Sc5  1  0.718356  0.255462  0.348676  1
  Sc  Sc6  1  0.140249  0.535537  0.319500  1
  Sc  Sc7  1  0.859751  0.464463  0.680500  1
  Sc  Sc8  1  0.400600  0.350825  0.262072  1
  Sc  Sc9  1  0.599400  0.649175  0.737928  1
  Sc  Sc10  1  0.456703  0.300261  0.521437  1
  Sc  Sc11  1  0.543297  0.699739  0.478563  1
  Tc  Tc12  1  0.000000  0.500000  0.500000  1
  Ni  Ni13  1  0.346741  0.500185  0.499490  1
  Ni  Ni14  1  0.653260  0.499815  0.500510  1
  Br  Br15  1  0.399369  0.744876  0.889550  1
  Br  Br16  1  0.600631  0.255124  0.110450  1
  Br  Br17  1  0.192723  0.976015  0.788491  1
  Br  Br18  1  0.807277  0.023985  0.211509  1
  Br  Br19  1  0.334944  0.088686  0.247234  1
  Br  Br20  1  0.665056  0.911314  0.752766  1
  Br  Br21  1  0.557354  0.437428  0.803111  1
  Br  Br22  1  0.442646  0.562572  0.196889  1
  Br  Br23  1  0.310335  0.831143  0.462557  1
  Br  Br24  1  0.689665  0.168857  0.537443  1
  Br  Br25  1  0.166416  0.167973  0.533968  1
  Br  Br26  1  0.833584  0.832027  0.466032  1
  Br  Br27  1  0.925766  0.579423  0.155220  1
  Br  Br28  1  0.074234  0.420577  0.844780  1
  Br  Br29  1  0.925205  0.743539  0.889605  1
  Br  Br30  1  0.074795  0.256461  0.110395  1
