# generated using pymatgen
data_Tm6GaSiTc
_symmetry_space_group_name_H-M   'P 1'
_cell_length_a   8.36746508
_cell_length_b   8.36746594
_cell_length_c   8.36746600
_cell_angle_alpha   112.22086541
_cell_angle_beta   111.91168124
_cell_angle_gamma   104.39735211
_symmetry_Int_Tables_number   1
_chemical_formula_structural   Tm6GaSiTc
_chemical_formula_sum   'Tm12 Ga2 Si2 Tc2'
_cell_volume   448.35799391
_cell_formula_units_Z   2
loop_
 _symmetry_equiv_pos_site_id
 _symmetry_equiv_pos_as_xyz
  1  'x, y, z'
loop_
 _atom_site_type_symbol
 _atom_site_label
 _atom_site_symmetry_multiplicity
 _atom_site_fract_x
 _atom_site_fract_y
 _atom_site_fract_z
 _atom_site_occupancy
  Tm  Tm0  1  0.049203  0.742520  0.306683  1
  Tm  Tm1  1  0.950797  0.257480  0.693317  1
  Tm  Tm2  1  0.564164  0.257480  0.306683  1
  Tm  Tm3  1  0.435836  0.742520  0.693317  1
  Tm  Tm4  1  0.664614  0.852696  0.188082  1
  Tm  Tm5  1  0.335386  0.523468  0.188082  1
  Tm  Tm6  1  0.335386  0.147304  0.811918  1
  Tm  Tm7  1  0.664614  0.476532  0.811918  1
  Tm  Tm8  1  0.183099  0.228735  0.411835  1
  Tm  Tm9  1  0.816901  0.228735  0.045635  1
  Tm  Tm10  1  0.183099  0.771265  0.954365  1
  Tm  Tm11  1  0.816901  0.771265  0.588165  1
  Ga  Ga12  1  0.000000  0.500000  0.500000  1
  Ga  Ga13  1  0.500000  0.000000  0.500000  1
  Si  Si14  1  0.884990  0.884990  0.000000  1
  Si  Si15  1  0.115010  0.115010  0.000000  1
  Tc  Tc16  1  0.676467  0.500000  0.176467  1
  Tc  Tc17  1  0.323533  0.500000  0.823533  1
