# generated using pymatgen
data_Y2HoTm2(In2Pt)2
_symmetry_space_group_name_H-M   'P 1'
_cell_length_a   3.61012700
_cell_length_b   8.14790356
_cell_length_c   18.16765305
_cell_angle_alpha   90.09651406
_cell_angle_beta   90.00000000
_cell_angle_gamma   90.00000000
_symmetry_Int_Tables_number   1
_chemical_formula_structural   Y2HoTm2(In2Pt)2
_chemical_formula_sum   'Y4 Ho2 Tm4 In8 Pt4'
_cell_volume   534.40014993
_cell_formula_units_Z   2
loop_
 _symmetry_equiv_pos_site_id
 _symmetry_equiv_pos_as_xyz
  1  'x, y, z'
loop_
 _atom_site_type_symbol
 _atom_site_label
 _atom_site_symmetry_multiplicity
 _atom_site_fract_x
 _atom_site_fract_y
 _atom_site_fract_z
 _atom_site_occupancy
  Y  Y0  1  0.000000  0.242019  0.219807  1
  Y  Y1  1  0.000000  0.757981  0.780193  1
  Y  Y2  1  0.000000  0.000000  0.000000  1
  Y  Y3  1  0.000000  0.500000  0.500000  1
  Ho  Ho4  1  0.000000  0.257496  0.720139  1
  Ho  Ho5  1  0.000000  0.742504  0.279861  1
  Tm  Tm6  1  0.000000  0.116436  0.414395  1
  Tm  Tm7  1  0.000000  0.883564  0.585605  1
  Tm  Tm8  1  0.000000  0.383189  0.914437  1
  Tm  Tm9  1  0.000000  0.616811  0.085563  1
  In  In10  1  0.500000  0.422082  0.350932  1
  In  In11  1  0.500000  0.577918  0.649068  1
  In  In12  1  0.500000  0.078607  0.850890  1
  In  In13  1  0.500000  0.921393  0.149110  1
  In  In14  1  0.500000  0.294804  0.066080  1
  In  In15  1  0.500000  0.705196  0.933920  1
  In  In16  1  0.500000  0.205726  0.566320  1
  In  In17  1  0.500000  0.794274  0.433680  1
  Pt  Pt18  1  0.500000  0.023208  0.304889  1
  Pt  Pt19  1  0.500000  0.976792  0.695111  1
  Pt  Pt20  1  0.500000  0.472221  0.804373  1
  Pt  Pt21  1  0.500000  0.527779  0.195627  1
