# generated using pymatgen
data_YbSi3Pt5
_symmetry_space_group_name_H-M   'P 1'
_cell_length_a   4.05763200
_cell_length_b   19.77375400
_cell_length_c   7.28231300
_cell_angle_alpha   90.00000000
_cell_angle_beta   90.00000000
_cell_angle_gamma   90.00000000
_symmetry_Int_Tables_number   1
_chemical_formula_structural   YbSi3Pt5
_chemical_formula_sum   'Yb4 Si12 Pt20'
_cell_volume   584.29359436
_cell_formula_units_Z   4
loop_
 _symmetry_equiv_pos_site_id
 _symmetry_equiv_pos_as_xyz
  1  'x, y, z'
loop_
 _atom_site_type_symbol
 _atom_site_label
 _atom_site_symmetry_multiplicity
 _atom_site_fract_x
 _atom_site_fract_y
 _atom_site_fract_z
 _atom_site_occupancy
  Yb  Yb0  1  0.750000  0.642406  0.120830  1
  Yb  Yb1  1  0.250000  0.357594  0.879170  1
  Yb  Yb2  1  0.250000  0.857594  0.620830  1
  Yb  Yb3  1  0.750000  0.142406  0.379170  1
  Si  Si4  1  0.750000  0.740771  0.628472  1
  Si  Si5  1  0.250000  0.259229  0.371528  1
  Si  Si6  1  0.250000  0.759229  0.128472  1
  Si  Si7  1  0.750000  0.240771  0.871528  1
  Si  Si8  1  0.750000  0.923474  0.342108  1
  Si  Si9  1  0.250000  0.076526  0.657892  1
  Si  Si10  1  0.250000  0.576526  0.842108  1
  Si  Si11  1  0.750000  0.423474  0.157892  1
  Si  Si12  1  0.750000  0.914944  0.905414  1
  Si  Si13  1  0.250000  0.085056  0.094586  1
  Si  Si14  1  0.250000  0.585056  0.405414  1
  Si  Si15  1  0.750000  0.414944  0.594586  1
  Pt  Pt16  1  0.750000  0.800104  0.336163  1
  Pt  Pt17  1  0.250000  0.199896  0.663837  1
  Pt  Pt18  1  0.250000  0.699896  0.836163  1
  Pt  Pt19  1  0.750000  0.300104  0.163837  1
  Pt  Pt20  1  0.750000  0.987083  0.622851  1
  Pt  Pt21  1  0.250000  0.012917  0.377149  1
  Pt  Pt22  1  0.250000  0.512917  0.122851  1
  Pt  Pt23  1  0.750000  0.487083  0.877149  1
  Pt  Pt24  1  0.750000  0.517140  0.379056  1
  Pt  Pt25  1  0.250000  0.482860  0.620944  1
  Pt  Pt26  1  0.250000  0.982860  0.879056  1
  Pt  Pt27  1  0.750000  0.017140  0.120944  1
  Pt  Pt28  1  0.750000  0.797415  0.925233  1
  Pt  Pt29  1  0.250000  0.202585  0.074767  1
  Pt  Pt30  1  0.250000  0.702585  0.425233  1
  Pt  Pt31  1  0.750000  0.297415  0.574767  1
  Pt  Pt32  1  0.750000  0.618800  0.662340  1
  Pt  Pt33  1  0.250000  0.381199  0.337660  1
  Pt  Pt34  1  0.250000  0.881200  0.162340  1
  Pt  Pt35  1  0.750000  0.118800  0.837660  1
