# generated using pymatgen
data_Hf3Al3CoNiPt
_symmetry_space_group_name_H-M   'P 1'
_cell_length_a   7.05592200
_cell_length_b   7.05592189
_cell_length_c   6.77425600
_cell_angle_alpha   90.00000000
_cell_angle_beta   90.00000000
_cell_angle_gamma   120.00000987
_symmetry_Int_Tables_number   1
_chemical_formula_structural   Hf3Al3CoNiPt
_chemical_formula_sum   'Hf6 Al6 Co2 Ni2 Pt2'
_cell_volume   292.07859384
_cell_formula_units_Z   2
loop_
 _symmetry_equiv_pos_site_id
 _symmetry_equiv_pos_as_xyz
  1  'x, y, z'
loop_
 _atom_site_type_symbol
 _atom_site_label
 _atom_site_symmetry_multiplicity
 _atom_site_fract_x
 _atom_site_fract_y
 _atom_site_fract_z
 _atom_site_occupancy
  Hf  Hf0  1  0.606638  0.018749  0.750000  1
  Hf  Hf1  1  0.981251  0.587889  0.750000  1
  Hf  Hf2  1  0.412111  0.393362  0.750000  1
  Hf  Hf3  1  0.979305  0.587017  0.250000  1
  Hf  Hf4  1  0.607712  0.020695  0.250000  1
  Hf  Hf5  1  0.412983  0.392288  0.250000  1
  Al  Al6  1  0.748687  0.750622  0.999903  1
  Al  Al7  1  0.249378  0.998066  0.999903  1
  Al  Al8  1  0.001934  0.251313  0.999903  1
  Al  Al9  1  0.748687  0.750622  0.500097  1
  Al  Al10  1  0.249378  0.998066  0.500097  1
  Al  Al11  1  0.001934  0.251313  0.500097  1
  Co  Co12  1  0.666667  0.333333  0.998423  1
  Co  Co13  1  0.666667  0.333333  0.501577  1
  Ni  Ni14  1  0.000000  0.000000  0.750000  1
  Ni  Ni15  1  0.000000  0.000000  0.250000  1
  Pt  Pt16  1  0.333333  0.666667  0.498043  1
  Pt  Pt17  1  0.333333  0.666667  0.001958  1
