# generated using pymatgen
data_Zn3(NiSn)2
_symmetry_space_group_name_H-M   'P 1'
_cell_length_a   4.22976200
_cell_length_b   4.22976207
_cell_length_c   15.04633300
_cell_angle_alpha   90.00000000
_cell_angle_beta   90.00000000
_cell_angle_gamma   119.99998383
_symmetry_Int_Tables_number   1
_chemical_formula_structural   Zn3(NiSn)2
_chemical_formula_sum   'Zn6 Ni4 Sn4'
_cell_volume   233.12735758
_cell_formula_units_Z   2
loop_
 _symmetry_equiv_pos_site_id
 _symmetry_equiv_pos_as_xyz
  1  'x, y, z'
loop_
 _atom_site_type_symbol
 _atom_site_label
 _atom_site_symmetry_multiplicity
 _atom_site_fract_x
 _atom_site_fract_y
 _atom_site_fract_z
 _atom_site_occupancy
  Zn  Zn0  1  0.000000  0.000000  0.167788  1
  Zn  Zn1  1  0.000000  0.000000  0.832212  1
  Zn  Zn2  1  0.000000  0.000000  0.667788  1
  Zn  Zn3  1  0.000000  0.000000  0.332212  1
  Zn  Zn4  1  0.333333  0.666667  0.750000  1
  Zn  Zn5  1  0.666667  0.333333  0.250000  1
  Ni  Ni6  1  0.000000  0.000000  0.000000  1
  Ni  Ni7  1  0.000000  0.000000  0.500000  1
  Ni  Ni8  1  0.333333  0.666667  0.250000  1
  Ni  Ni9  1  0.666667  0.333333  0.750000  1
  Sn  Sn10  1  0.333333  0.666667  0.071102  1
  Sn  Sn11  1  0.666667  0.333333  0.928898  1
  Sn  Sn12  1  0.666667  0.333333  0.571102  1
  Sn  Sn13  1  0.333333  0.666667  0.428898  1
