# generated using pymatgen
data_Dy5ErAl24(IrOs3)2
_symmetry_space_group_name_H-M   'P 1'
_cell_length_a   8.80861539
_cell_length_b   8.80861576
_cell_length_c   9.54176101
_cell_angle_alpha   90.00387487
_cell_angle_beta   89.99612326
_cell_angle_gamma   119.59238188
_symmetry_Int_Tables_number   1
_chemical_formula_structural   Dy5ErAl24(IrOs3)2
_chemical_formula_sum   'Dy5 Er1 Al24 Ir2 Os6'
_cell_volume   643.78921857
_cell_formula_units_Z   1
loop_
 _symmetry_equiv_pos_site_id
 _symmetry_equiv_pos_as_xyz
  1  'x, y, z'
loop_
 _atom_site_type_symbol
 _atom_site_label
 _atom_site_symmetry_multiplicity
 _atom_site_fract_x
 _atom_site_fract_y
 _atom_site_fract_z
 _atom_site_occupancy
  Dy  Dy0  1  0.188645  0.385791  0.250087  1
  Dy  Dy1  1  0.811112  0.614032  0.749931  1
  Dy  Dy2  1  0.614209  0.811355  0.250087  1
  Dy  Dy3  1  0.385968  0.188888  0.749931  1
  Dy  Dy4  1  0.194786  0.805214  0.250095  1
  Er  Er5  1  0.804426  0.195574  0.749746  1
  Al  Al6  1  0.332553  0.667447  0.019449  1
  Al  Al7  1  0.667661  0.332339  0.979735  1
  Al  Al8  1  0.667645  0.332355  0.520338  1
  Al  Al9  1  0.332558  0.667442  0.480490  1
  Al  Al10  1  0.162122  0.324904  0.577133  1
  Al  Al11  1  0.837479  0.674816  0.423428  1
  Al  Al12  1  0.675096  0.837878  0.577133  1
  Al  Al13  1  0.837535  0.674873  0.076704  1
  Al  Al14  1  0.325184  0.162521  0.423428  1
  Al  Al15  1  0.162046  0.324845  0.922759  1
  Al  Al16  1  0.163988  0.836012  0.575278  1
  Al  Al17  1  0.325127  0.162465  0.076704  1
  Al  Al18  1  0.836049  0.163951  0.425579  1
  Al  Al19  1  0.675155  0.837954  0.922759  1
  Al  Al20  1  0.836071  0.163929  0.074506  1
  Al  Al21  1  0.163959  0.836041  0.924624  1
  Al  Al22  1  0.560384  0.123050  0.250082  1
  Al  Al23  1  0.440305  0.877407  0.749933  1
  Al  Al24  1  0.876950  0.439616  0.250082  1
  Al  Al25  1  0.122593  0.559695  0.749933  1
  Al  Al26  1  0.560534  0.439466  0.250091  1
  Al  Al27  1  0.439439  0.560561  0.749921  1
  Al  Al28  1  0.999727  0.000273  0.250031  1
  Al  Al29  1  0.999832  0.000168  0.749981  1
  Ir  Ir30  1  0.500094  0.499906  0.999913  1
  Ir  Ir31  1  0.500092  0.499908  0.500096  1
  Os  Os32  1  0.500327  0.000025  0.999868  1
  Os  Os33  1  0.999975  0.499673  0.999868  1
  Os  Os34  1  0.500331  0.000030  0.500137  1
  Os  Os35  1  0.999970  0.499669  0.500137  1
  Os  Os36  1  0.000038  0.999962  0.999975  1
  Os  Os37  1  0.000034  0.999966  0.500031  1
