# generated using pymatgen
data_PuF18
_symmetry_space_group_name_H-M   'P 1'
_cell_length_a   6.05525308
_cell_length_b   9.08339767
_cell_length_c   13.58138600
_cell_angle_alpha   102.97234031
_cell_angle_beta   88.96701670
_cell_angle_gamma   107.22620818
_symmetry_Int_Tables_number   1
_chemical_formula_structural   PuF18
_chemical_formula_sum   'Pu2 F36'
_cell_volume   694.34641475
_cell_formula_units_Z   2
loop_
 _symmetry_equiv_pos_site_id
 _symmetry_equiv_pos_as_xyz
  1  'x, y, z'
loop_
 _atom_site_type_symbol
 _atom_site_label
 _atom_site_symmetry_multiplicity
 _atom_site_fract_x
 _atom_site_fract_y
 _atom_site_fract_z
 _atom_site_occupancy
  Pu  Pu0  1  0.200883  0.988333  0.272568  1
  Pu  Pu1  1  0.799117  0.011667  0.727432  1
  F  F2  1  0.749566  0.643358  0.379440  1
  F  F3  1  0.250434  0.356642  0.620560  1
  F  F4  1  0.979357  0.368267  0.333429  1
  F  F5  1  0.020643  0.631733  0.666571  1
  F  F6  1  0.205725  0.869303  0.927323  1
  F  F7  1  0.794275  0.130697  0.072677  1
  F  F8  1  0.920101  0.030888  0.340221  1
  F  F9  1  0.079899  0.969112  0.659779  1
  F  F10  1  0.044601  0.755267  0.254057  1
  F  F11  1  0.955399  0.244733  0.745943  1
  F  F12  1  0.619341  0.520741  0.425846  1
  F  F13  1  0.380659  0.479259  0.574154  1
  F  F14  1  0.061192  0.981535  0.139310  1
  F  F15  1  0.938808  0.018465  0.860690  1
  F  F16  1  0.338151  0.000247  0.407033  1
  F  F17  1  0.661849  0.999753  0.592967  1
  F  F18  1  0.085801  0.441449  0.254829  1
  F  F19  1  0.914199  0.558551  0.745171  1
  F  F20  1  0.734554  0.680774  0.034272  1
  F  F21  1  0.265446  0.319226  0.965728  1
  F  F22  1  0.851347  0.571597  0.985089  1
  F  F23  1  0.148653  0.428403  0.014911  1
  F  F24  1  0.511225  0.527352  0.834833  1
  F  F25  1  0.488775  0.472648  0.165167  1
  F  F26  1  0.358893  0.220261  0.289879  1
  F  F27  1  0.641107  0.779739  0.710121  1
  F  F28  1  0.186986  0.771556  0.522956  1
  F  F29  1  0.813014  0.228444  0.477044  1
  F  F30  1  0.350709  0.831810  0.993308  1
  F  F31  1  0.649291  0.168190  0.006692  1
  F  F32  1  0.477685  0.938913  0.205869  1
  F  F33  1  0.522315  0.061087  0.794131  1
  F  F34  1  0.702169  0.439994  0.176066  1
  F  F35  1  0.297831  0.560006  0.823934  1
  F  F36  1  0.302214  0.692212  0.445858  1
  F  F37  1  0.697786  0.307788  0.554142  1
