# generated using pymatgen
data_HfSc2Ga3NiIr2
_symmetry_space_group_name_H-M   'P 1'
_cell_length_a   7.23132629
_cell_length_b   7.26240183
_cell_length_c   3.30185900
_cell_angle_alpha   90.00000000
_cell_angle_beta   90.00000000
_cell_angle_gamma   120.14225422
_symmetry_Int_Tables_number   1
_chemical_formula_structural   HfSc2Ga3NiIr2
_chemical_formula_sum   'Hf1 Sc2 Ga3 Ni1 Ir2'
_cell_volume   149.95572918
_cell_formula_units_Z   1
loop_
 _symmetry_equiv_pos_site_id
 _symmetry_equiv_pos_as_xyz
  1  'x, y, z'
loop_
 _atom_site_type_symbol
 _atom_site_label
 _atom_site_symmetry_multiplicity
 _atom_site_fract_x
 _atom_site_fract_y
 _atom_site_fract_z
 _atom_site_occupancy
  Hf  Hf0  1  0.000000  0.605217  0.500000  1
  Sc  Sc1  1  0.396563  0.396969  0.500000  1
  Sc  Sc2  1  0.603437  0.000407  0.500000  1
  Ga  Ga3  1  0.736939  0.740346  0.000000  1
  Ga  Ga4  1  0.263061  0.003407  0.000000  1
  Ga  Ga5  1  0.000000  0.255072  0.000000  1
  Ni  Ni6  1  0.000000  0.995037  0.500000  1
  Ir  Ir7  1  0.672872  0.338208  0.000000  1
  Ir  Ir8  1  0.327128  0.665337  0.000000  1
