# generated using pymatgen
data_Tm5Al2PbC4
_symmetry_space_group_name_H-M   'P 1'
_cell_length_a   10.88477900
_cell_length_b   10.88477900
_cell_length_c   3.49103300
_cell_angle_alpha   90.00000000
_cell_angle_beta   90.00000000
_cell_angle_gamma   90.00000000
_symmetry_Int_Tables_number   1
_chemical_formula_structural   Tm5Al2PbC4
_chemical_formula_sum   'Tm10 Al4 Pb2 C8'
_cell_volume   413.61205264
_cell_formula_units_Z   2
loop_
 _symmetry_equiv_pos_site_id
 _symmetry_equiv_pos_as_xyz
  1  'x, y, z'
loop_
 _atom_site_type_symbol
 _atom_site_label
 _atom_site_symmetry_multiplicity
 _atom_site_fract_x
 _atom_site_fract_y
 _atom_site_fract_z
 _atom_site_occupancy
  Tm  Tm0  1  0.550101  0.737508  0.500000  1
  Tm  Tm1  1  0.449899  0.262492  0.500000  1
  Tm  Tm2  1  0.050101  0.762492  0.500000  1
  Tm  Tm3  1  0.949899  0.237508  0.500000  1
  Tm  Tm4  1  0.262492  0.550101  0.500000  1
  Tm  Tm5  1  0.737508  0.449899  0.500000  1
  Tm  Tm6  1  0.237508  0.050101  0.500000  1
  Tm  Tm7  1  0.762492  0.949899  0.500000  1
  Tm  Tm8  1  0.500000  0.000000  0.000000  1
  Tm  Tm9  1  0.000000  0.500000  0.000000  1
  Al  Al10  1  0.703034  0.203034  0.000000  1
  Al  Al11  1  0.296966  0.796966  0.000000  1
  Al  Al12  1  0.203034  0.296966  0.000000  1
  Al  Al13  1  0.796966  0.703034  0.000000  1
  Pb  Pb14  1  0.500000  0.500000  0.000000  1
  Pb  Pb15  1  0.000000  0.000000  0.000000  1
  C  C16  1  0.629582  0.129582  0.500000  1
  C  C17  1  0.370418  0.870418  0.500000  1
  C  C18  1  0.129582  0.370418  0.500000  1
  C  C19  1  0.870418  0.629582  0.500000  1
  C  C20  1  0.162160  0.662160  0.000000  1
  C  C21  1  0.837840  0.337840  0.000000  1
  C  C22  1  0.662160  0.837840  0.000000  1
  C  C23  1  0.337840  0.162160  0.000000  1
