# generated using pymatgen
data_Ba2TiSe4
_symmetry_space_group_name_H-M   'P 1'
_cell_length_a   7.13470600
_cell_length_b   7.23317563
_cell_length_c   9.34823553
_cell_angle_alpha   71.30523780
_cell_angle_beta   90.00000000
_cell_angle_gamma   90.00000000
_symmetry_Int_Tables_number   1
_chemical_formula_structural   Ba2TiSe4
_chemical_formula_sum   'Ba4 Ti2 Se8'
_cell_volume   456.97724641
_cell_formula_units_Z   2
loop_
 _symmetry_equiv_pos_site_id
 _symmetry_equiv_pos_as_xyz
  1  'x, y, z'
loop_
 _atom_site_type_symbol
 _atom_site_label
 _atom_site_symmetry_multiplicity
 _atom_site_fract_x
 _atom_site_fract_y
 _atom_site_fract_z
 _atom_site_occupancy
  Ba  Ba0  1  0.750000  0.714413  0.074737  1
  Ba  Ba1  1  0.250000  0.285587  0.925263  1
  Ba  Ba2  1  0.750000  0.785289  0.542461  1
  Ba  Ba3  1  0.250000  0.214711  0.457539  1
  Ti  Ti4  1  0.750000  0.210864  0.708545  1
  Ti  Ti5  1  0.250000  0.789136  0.291455  1
  Se  Se6  1  0.007260  0.990124  0.772112  1
  Se  Se7  1  0.507260  0.009876  0.227888  1
  Se  Se8  1  0.250000  0.626764  0.558723  1
  Se  Se9  1  0.750000  0.373236  0.441277  1
  Se  Se10  1  0.250000  0.579819  0.137346  1
  Se  Se11  1  0.750000  0.420181  0.862654  1
  Se  Se12  1  0.492740  0.990124  0.772112  1
  Se  Se13  1  0.992740  0.009876  0.227888  1
