# generated using pymatgen
data_Ba2YbP2
_symmetry_space_group_name_H-M   'P 1'
_cell_length_a   4.67926771
_cell_length_b   8.22583900
_cell_length_c   9.16422927
_cell_angle_alpha   90.00000000
_cell_angle_beta   75.20860739
_cell_angle_gamma   90.00000000
_symmetry_Int_Tables_number   1
_chemical_formula_structural   Ba2YbP2
_chemical_formula_sum   'Ba4 Yb2 P4'
_cell_volume   341.05029097
_cell_formula_units_Z   2
loop_
 _symmetry_equiv_pos_site_id
 _symmetry_equiv_pos_as_xyz
  1  'x, y, z'
loop_
 _atom_site_type_symbol
 _atom_site_label
 _atom_site_symmetry_multiplicity
 _atom_site_fract_x
 _atom_site_fract_y
 _atom_site_fract_z
 _atom_site_occupancy
  Ba  Ba0  1  0.455213  0.270266  0.089574  1
  Ba  Ba1  1  0.295553  0.613194  0.408895  1
  Ba  Ba2  1  0.704447  0.113195  0.591105  1
  Ba  Ba3  1  0.544786  0.770266  0.910425  1
  Yb  Yb4  1  0.907416  0.913381  0.185169  1
  Yb  Yb5  1  0.092583  0.413381  0.814831  1
  P  P6  1  0.943741  0.570211  0.112516  1
  P  P7  1  0.327155  0.998927  0.345689  1
  P  P8  1  0.672844  0.498927  0.654311  1
  P  P9  1  0.056258  0.070211  0.887484  1
