# generated using pymatgen
data_Tm2ThSc2AlIr3
_symmetry_space_group_name_H-M   'P 1'
_cell_length_a   7.14650370
_cell_length_b   7.14650270
_cell_length_c   4.26129900
_cell_angle_alpha   90.00000000
_cell_angle_beta   90.00000000
_cell_angle_gamma   119.07100810
_symmetry_Int_Tables_number   1
_chemical_formula_structural   Tm2ThSc2AlIr3
_chemical_formula_sum   'Tm2 Th1 Sc2 Al1 Ir3'
_cell_volume   190.21714922
_cell_formula_units_Z   1
loop_
 _symmetry_equiv_pos_site_id
 _symmetry_equiv_pos_as_xyz
  1  'x, y, z'
loop_
 _atom_site_type_symbol
 _atom_site_label
 _atom_site_symmetry_multiplicity
 _atom_site_fract_x
 _atom_site_fract_y
 _atom_site_fract_z
 _atom_site_occupancy
  Tm  Tm0  1  0.410174  0.011070  0.500000  1
  Tm  Tm1  1  0.011070  0.410174  0.500000  1
  Th  Th2  1  0.566103  0.566103  0.500000  1
  Sc  Sc3  1  0.758946  0.014685  0.000000  1
  Sc  Sc4  1  0.014685  0.758946  0.000000  1
  Al  Al5  1  0.234881  0.234881  0.000000  1
  Ir  Ir6  1  0.343269  0.664296  0.000000  1
  Ir  Ir7  1  0.664296  0.343269  0.000000  1
  Ir  Ir8  1  0.996577  0.996577  0.500000  1
