# generated using pymatgen
data_Ba4Li4Si7Ge
_symmetry_space_group_name_H-M   'P 1'
_cell_length_a   4.62856100
_cell_length_b   7.30363767
_cell_length_c   11.76401063
_cell_angle_alpha   89.88655725
_cell_angle_beta   90.00000000
_cell_angle_gamma   90.00000000
_symmetry_Int_Tables_number   1
_chemical_formula_structural   Ba4Li4Si7Ge
_chemical_formula_sum   'Ba4 Li4 Si7 Ge1'
_cell_volume   397.68551076
_cell_formula_units_Z   1
loop_
 _symmetry_equiv_pos_site_id
 _symmetry_equiv_pos_as_xyz
  1  'x, y, z'
loop_
 _atom_site_type_symbol
 _atom_site_label
 _atom_site_symmetry_multiplicity
 _atom_site_fract_x
 _atom_site_fract_y
 _atom_site_fract_z
 _atom_site_occupancy
  Ba  Ba0  1  0.250000  0.134151  0.138753  1
  Ba  Ba1  1  0.750000  0.864499  0.861866  1
  Ba  Ba2  1  0.250000  0.634196  0.362281  1
  Ba  Ba3  1  0.750000  0.365457  0.637167  1
  Li  Li4  1  0.250000  0.116329  0.436736  1
  Li  Li5  1  0.750000  0.884098  0.562187  1
  Li  Li6  1  0.250000  0.616391  0.062665  1
  Li  Li7  1  0.750000  0.385830  0.937665  1
  Si  Si8  1  0.750000  0.470377  0.165373  1
  Si  Si9  1  0.250000  0.535248  0.834970  1
  Si  Si10  1  0.750000  0.969495  0.334496  1
  Si  Si11  1  0.250000  0.027698  0.662341  1
  Si  Si12  1  0.750000  0.293640  0.339902  1
  Si  Si13  1  0.250000  0.704927  0.659192  1
  Si  Si14  1  0.750000  0.794361  0.159958  1
  Ge  Ge15  1  0.250000  0.203302  0.844448  1
