# generated using pymatgen
data_Yb4Sc4Tc3B24Ir
_symmetry_space_group_name_H-M   'P 1'
_cell_length_a   3.55387700
_cell_length_b   9.02960996
_cell_length_c   11.37780363
_cell_angle_alpha   90.02292900
_cell_angle_beta   90.00000000
_cell_angle_gamma   90.00000000
_symmetry_Int_Tables_number   1
_chemical_formula_structural   Yb4Sc4Tc3B24Ir
_chemical_formula_sum   'Yb4 Sc4 Tc3 B24 Ir1'
_cell_volume   365.11509049
_cell_formula_units_Z   1
loop_
 _symmetry_equiv_pos_site_id
 _symmetry_equiv_pos_as_xyz
  1  'x, y, z'
loop_
 _atom_site_type_symbol
 _atom_site_label
 _atom_site_symmetry_multiplicity
 _atom_site_fract_x
 _atom_site_fract_y
 _atom_site_fract_z
 _atom_site_occupancy
  Yb  Yb0  1  0.500000  0.322164  0.415401  1
  Yb  Yb1  1  0.500000  0.677180  0.586027  1
  Yb  Yb2  1  0.500000  0.176129  0.915045  1
  Yb  Yb3  1  0.500000  0.824526  0.084163  1
  Sc  Sc4  1  0.500000  0.440837  0.131040  1
  Sc  Sc5  1  0.500000  0.556923  0.867211  1
  Sc  Sc6  1  0.500000  0.056337  0.633073  1
  Sc  Sc7  1  0.500000  0.945838  0.367448  1
  Tc  Tc8  1  0.500000  0.142950  0.184481  1
  Tc  Tc9  1  0.500000  0.856915  0.818050  1
  Tc  Tc10  1  0.500000  0.358166  0.681097  1
  B  B11  1  0.000000  0.092271  0.475087  1
  B  B12  1  0.000000  0.905967  0.525317  1
  B  B13  1  0.000000  0.406663  0.974955  1
  B  B14  1  0.000000  0.593378  0.025212  1
  B  B15  1  0.000000  0.129989  0.318326  1
  B  B16  1  0.000000  0.870205  0.682171  1
  B  B17  1  0.000000  0.370722  0.817347  1
  B  B18  1  0.000000  0.630980  0.182435  1
  B  B19  1  0.000000  0.054951  0.067395  1
  B  B20  1  0.000000  0.946307  0.932349  1
  B  B21  1  0.000000  0.445634  0.567254  1
  B  B22  1  0.000000  0.555182  0.432963  1
  B  B23  1  0.000000  0.483059  0.287824  1
  B  B24  1  0.000000  0.518465  0.712977  1
  B  B25  1  0.000000  0.018379  0.786453  1
  B  B26  1  0.000000  0.982136  0.212747  1
  B  B27  1  0.000000  0.254134  0.081653  1
  B  B28  1  0.000000  0.745203  0.918278  1
  B  B29  1  0.000000  0.244638  0.581596  1
  B  B30  1  0.000000  0.752628  0.417747  1
  B  B31  1  0.000000  0.295984  0.236728  1
  B  B32  1  0.000000  0.703788  0.763344  1
  B  B33  1  0.000000  0.204246  0.736222  1
  B  B34  1  0.000000  0.794889  0.263258  1
  Ir  Ir35  1  0.500000  0.642235  0.317328  1
