# generated using pymatgen
data_Th8Nb12Si15Au
_symmetry_space_group_name_H-M   'P 1'
_cell_length_a   7.19972466
_cell_length_b   7.25858554
_cell_length_c   13.45859583
_cell_angle_alpha   90.08832128
_cell_angle_beta   89.85111049
_cell_angle_gamma   89.81300459
_symmetry_Int_Tables_number   1
_chemical_formula_structural   Th8Nb12Si15Au
_chemical_formula_sum   'Th8 Nb12 Si15 Au1'
_cell_volume   703.33679341
_cell_formula_units_Z   1
loop_
 _symmetry_equiv_pos_site_id
 _symmetry_equiv_pos_as_xyz
  1  'x, y, z'
loop_
 _atom_site_type_symbol
 _atom_site_label
 _atom_site_symmetry_multiplicity
 _atom_site_fract_x
 _atom_site_fract_y
 _atom_site_fract_z
 _atom_site_occupancy
  Th  Th0  1  0.998200  0.339453  0.218271  1
  Th  Th1  1  0.000355  0.662859  0.718513  1
  Th  Th2  1  0.163493  0.498948  0.468265  1
  Th  Th3  1  0.504438  0.831184  0.030632  1
  Th  Th4  1  0.836181  0.501920  0.966486  1
  Th  Th5  1  0.499481  0.161885  0.533004  1
  Th  Th6  1  0.337569  0.000156  0.782258  1
  Th  Th7  1  0.665305  0.001797  0.283434  1
  Nb  Nb8  1  0.164722  0.175006  0.993258  1
  Nb  Nb9  1  0.831617  0.829762  0.499490  1
  Nb  Nb10  1  0.331301  0.659260  0.253394  1
  Nb  Nb11  1  0.668505  0.330629  0.750230  1
  Nb  Nb12  1  0.158832  0.990476  0.382625  1
  Nb  Nb13  1  0.840460  0.006847  0.872697  1
  Nb  Nb14  1  0.505622  0.659328  0.624774  1
  Nb  Nb15  1  0.340569  0.492907  0.875099  1
  Nb  Nb16  1  0.499706  0.353452  0.122361  1
  Nb  Nb17  1  0.659536  0.505575  0.377055  1
  Nb  Nb18  1  0.994738  0.159758  0.626429  1
  Nb  Nb19  1  0.994773  0.830671  0.121307  1
  Si  Si20  1  0.712214  0.959765  0.685721  1
  Si  Si21  1  0.460694  0.788804  0.436295  1
  Si  Si22  1  0.210388  0.539548  0.063902  1
  Si  Si23  1  0.539933  0.209458  0.937694  1
  Si  Si24  1  0.788933  0.458500  0.564546  1
  Si  Si25  1  0.038660  0.289917  0.812398  1
  Si  Si26  1  0.961924  0.712868  0.313217  1
  Si  Si27  1  0.377858  0.300785  0.314742  1
  Si  Si28  1  0.622360  0.701759  0.813551  1
  Si  Si29  1  0.202682  0.875167  0.566226  1
  Si  Si30  1  0.124535  0.798976  0.935033  1
  Si  Si31  1  0.798661  0.126433  0.064127  1
  Si  Si32  1  0.876119  0.202671  0.436580  1
  Si  Si33  1  0.297849  0.375003  0.685463  1
  Si  Si34  1  0.701819  0.627358  0.186845  1
  Au  Au35  1  0.289965  0.041113  0.184077  1
