# generated using pymatgen
data_SrGa5Pt3
_symmetry_space_group_name_H-M   'P 1'
_cell_length_a   4.15490100
_cell_length_b   7.54493400
_cell_length_c   21.24609700
_cell_angle_alpha   90.00000000
_cell_angle_beta   90.00000000
_cell_angle_gamma   90.00000000
_symmetry_Int_Tables_number   1
_chemical_formula_structural   SrGa5Pt3
_chemical_formula_sum   'Sr4 Ga20 Pt12'
_cell_volume   666.03229069
_cell_formula_units_Z   4
loop_
 _symmetry_equiv_pos_site_id
 _symmetry_equiv_pos_as_xyz
  1  'x, y, z'
loop_
 _atom_site_type_symbol
 _atom_site_label
 _atom_site_symmetry_multiplicity
 _atom_site_fract_x
 _atom_site_fract_y
 _atom_site_fract_z
 _atom_site_occupancy
  Sr  Sr0  1  0.250000  0.117346  0.640210  1
  Sr  Sr1  1  0.750000  0.882654  0.359790  1
  Sr  Sr2  1  0.250000  0.382654  0.140210  1
  Sr  Sr3  1  0.750000  0.617346  0.859790  1
  Ga  Ga4  1  0.750000  0.351526  0.382817  1
  Ga  Ga5  1  0.750000  0.884026  0.982367  1
  Ga  Ga6  1  0.750000  0.682762  0.199440  1
  Ga  Ga7  1  0.250000  0.871622  0.490171  1
  Ga  Ga8  1  0.250000  0.628378  0.990171  1
  Ga  Ga9  1  0.250000  0.317238  0.800560  1
  Ga  Ga10  1  0.750000  0.079408  0.206411  1
  Ga  Ga11  1  0.250000  0.648474  0.617183  1
  Ga  Ga12  1  0.250000  0.579408  0.293589  1
  Ga  Ga13  1  0.250000  0.182762  0.300560  1
  Ga  Ga14  1  0.750000  0.148474  0.882817  1
  Ga  Ga15  1  0.250000  0.920592  0.793589  1
  Ga  Ga16  1  0.750000  0.371622  0.009829  1
  Ga  Ga17  1  0.750000  0.615974  0.482367  1
  Ga  Ga18  1  0.750000  0.128378  0.509829  1
  Ga  Ga19  1  0.250000  0.115974  0.017633  1
  Ga  Ga20  1  0.250000  0.851526  0.117183  1
  Ga  Ga21  1  0.250000  0.384026  0.517633  1
  Ga  Ga22  1  0.750000  0.420592  0.706411  1
  Ga  Ga23  1  0.750000  0.817238  0.699440  1
  Pt  Pt24  1  0.750000  0.383963  0.263208  1
  Pt  Pt25  1  0.250000  0.883963  0.236792  1
  Pt  Pt26  1  0.250000  0.616037  0.736792  1
  Pt  Pt27  1  0.750000  0.116037  0.763208  1
  Pt  Pt28  1  0.250000  0.168676  0.427076  1
  Pt  Pt29  1  0.750000  0.428575  0.584702  1
  Pt  Pt30  1  0.750000  0.071425  0.084702  1
  Pt  Pt31  1  0.250000  0.928575  0.915298  1
  Pt  Pt32  1  0.750000  0.831324  0.572924  1
  Pt  Pt33  1  0.250000  0.331324  0.927076  1
  Pt  Pt34  1  0.750000  0.668676  0.072924  1
  Pt  Pt35  1  0.250000  0.571425  0.415298  1
