# generated using pymatgen
data_TmLuB6Ir
_symmetry_space_group_name_H-M   'P 1'
_cell_length_a   3.59265000
_cell_length_b   9.08894600
_cell_length_c   11.42984200
_cell_angle_alpha   90.00000000
_cell_angle_beta   90.00000000
_cell_angle_gamma   90.00000000
_symmetry_Int_Tables_number   1
_chemical_formula_structural   TmLuB6Ir
_chemical_formula_sum   'Tm4 Lu4 B24 Ir4'
_cell_volume   373.22322387
_cell_formula_units_Z   4
loop_
 _symmetry_equiv_pos_site_id
 _symmetry_equiv_pos_as_xyz
  1  'x, y, z'
loop_
 _atom_site_type_symbol
 _atom_site_label
 _atom_site_symmetry_multiplicity
 _atom_site_fract_x
 _atom_site_fract_y
 _atom_site_fract_z
 _atom_site_occupancy
  Tm  Tm0  1  0.000000  0.320482  0.413530  1
  Tm  Tm1  1  0.000000  0.679518  0.586470  1
  Tm  Tm2  1  0.000000  0.820482  0.086470  1
  Tm  Tm3  1  0.000000  0.179518  0.913530  1
  Lu  Lu4  1  0.000000  0.944004  0.374435  1
  Lu  Lu5  1  0.000000  0.055996  0.625565  1
  Lu  Lu6  1  0.000000  0.444004  0.125565  1
  Lu  Lu7  1  0.000000  0.555996  0.874435  1
  B  B8  1  0.500000  0.553574  0.434687  1
  B  B9  1  0.500000  0.446426  0.565313  1
  B  B10  1  0.500000  0.053574  0.065313  1
  B  B11  1  0.500000  0.946426  0.934687  1
  B  B12  1  0.500000  0.750509  0.421088  1
  B  B13  1  0.500000  0.249491  0.578912  1
  B  B14  1  0.500000  0.250509  0.078912  1
  B  B15  1  0.500000  0.749491  0.921088  1
  B  B16  1  0.500000  0.793723  0.264484  1
  B  B17  1  0.500000  0.206277  0.735516  1
  B  B18  1  0.500000  0.293723  0.235516  1
  B  B19  1  0.500000  0.706277  0.764484  1
  B  B20  1  0.500000  0.631224  0.183220  1
  B  B21  1  0.500000  0.368776  0.816780  1
  B  B22  1  0.500000  0.131224  0.316780  1
  B  B23  1  0.500000  0.868776  0.683220  1
  B  B24  1  0.500000  0.980711  0.213559  1
  B  B25  1  0.500000  0.019289  0.786441  1
  B  B26  1  0.500000  0.480711  0.286441  1
  B  B27  1  0.500000  0.519289  0.713559  1
  B  B28  1  0.500000  0.606874  0.029171  1
  B  B29  1  0.500000  0.393126  0.970829  1
  B  B30  1  0.500000  0.106874  0.470829  1
  B  B31  1  0.500000  0.893126  0.529171  1
  Ir  Ir32  1  0.000000  0.638673  0.320934  1
  Ir  Ir33  1  0.000000  0.361327  0.679066  1
  Ir  Ir34  1  0.000000  0.138673  0.179066  1
  Ir  Ir35  1  0.000000  0.861327  0.820934  1
