# generated using pymatgen
data_LaIn2FeIr8
_symmetry_space_group_name_H-M   'P 1'
_cell_length_a   8.83588200
_cell_length_b   8.83588200
_cell_length_c   5.26733200
_cell_angle_alpha   90.00000000
_cell_angle_beta   90.00000000
_cell_angle_gamma   90.00000000
_symmetry_Int_Tables_number   1
_chemical_formula_structural   LaIn2FeIr8
_chemical_formula_sum   'La2 In4 Fe2 Ir16'
_cell_volume   411.23541422
_cell_formula_units_Z   2
loop_
 _symmetry_equiv_pos_site_id
 _symmetry_equiv_pos_as_xyz
  1  'x, y, z'
loop_
 _atom_site_type_symbol
 _atom_site_label
 _atom_site_symmetry_multiplicity
 _atom_site_fract_x
 _atom_site_fract_y
 _atom_site_fract_z
 _atom_site_occupancy
  La  La0  1  0.500000  0.500000  0.000000  1
  La  La1  1  0.000000  0.000000  0.000000  1
  In  In2  1  0.622249  0.122249  0.000000  1
  In  In3  1  0.377751  0.877751  0.000000  1
  In  In4  1  0.122249  0.377751  0.000000  1
  In  In5  1  0.877751  0.622249  0.000000  1
  Fe  Fe6  1  0.500000  0.000000  0.500000  1
  Fe  Fe7  1  0.000000  0.500000  0.500000  1
  Ir  Ir8  1  0.707371  0.562861  0.500000  1
  Ir  Ir9  1  0.292629  0.437139  0.500000  1
  Ir  Ir10  1  0.207371  0.937139  0.500000  1
  Ir  Ir11  1  0.792629  0.062861  0.500000  1
  Ir  Ir12  1  0.437139  0.707371  0.500000  1
  Ir  Ir13  1  0.562861  0.292629  0.500000  1
  Ir  Ir14  1  0.062861  0.207371  0.500000  1
  Ir  Ir15  1  0.937139  0.792629  0.500000  1
  Ir  Ir16  1  0.824418  0.324418  0.756971  1
  Ir  Ir17  1  0.175582  0.675582  0.756971  1
  Ir  Ir18  1  0.324418  0.175582  0.756971  1
  Ir  Ir19  1  0.675582  0.824418  0.756971  1
  Ir  Ir20  1  0.175582  0.675582  0.243029  1
  Ir  Ir21  1  0.824418  0.324418  0.243029  1
  Ir  Ir22  1  0.675582  0.824418  0.243029  1
  Ir  Ir23  1  0.324418  0.175582  0.243029  1
