# generated using pymatgen
data_Dy3(YCo)2
_symmetry_space_group_name_H-M   'P 1'
_cell_length_a   6.30234983
_cell_length_b   6.94563512
_cell_length_c   8.60660287
_cell_angle_alpha   96.31118309
_cell_angle_beta   111.47743330
_cell_angle_gamma   89.99999909
_symmetry_Int_Tables_number   1
_chemical_formula_structural   Dy3(YCo)2
_chemical_formula_sum   'Dy6 Y4 Co4'
_cell_volume   348.12872024
_cell_formula_units_Z   2
loop_
 _symmetry_equiv_pos_site_id
 _symmetry_equiv_pos_as_xyz
  1  'x, y, z'
loop_
 _atom_site_type_symbol
 _atom_site_label
 _atom_site_symmetry_multiplicity
 _atom_site_fract_x
 _atom_site_fract_y
 _atom_site_fract_z
 _atom_site_occupancy
  Dy  Dy0  1  0.217070  0.184966  0.569479  1
  Dy  Dy1  1  0.647591  0.315034  0.430521  1
  Dy  Dy2  1  0.782930  0.815034  0.430521  1
  Dy  Dy3  1  0.352409  0.684966  0.569479  1
  Dy  Dy4  1  0.428773  0.250000  0.000000  1
  Dy  Dy5  1  0.571227  0.750000  0.000000  1
  Y  Y6  1  0.795707  0.087201  0.810353  1
  Y  Y7  1  0.985354  0.412799  0.189647  1
  Y  Y8  1  0.204293  0.912799  0.189647  1
  Y  Y9  1  0.014646  0.587201  0.810353  1
  Co  Co10  1  0.595779  0.430180  0.777077  1
  Co  Co11  1  0.818701  0.069820  0.222923  1
  Co  Co12  1  0.404221  0.569820  0.222923  1
  Co  Co13  1  0.181299  0.930180  0.777077  1
