# generated using pymatgen
data_Nb10Sn4Pt
_symmetry_space_group_name_H-M   'P 1'
_cell_length_a   10.29412100
_cell_length_b   10.29412100
_cell_length_c   5.32170700
_cell_angle_alpha   90.00000000
_cell_angle_beta   90.00000000
_cell_angle_gamma   90.00000000
_symmetry_Int_Tables_number   1
_chemical_formula_structural   Nb10Sn4Pt
_chemical_formula_sum   'Nb20 Sn8 Pt2'
_cell_volume   563.93558146
_cell_formula_units_Z   2
loop_
 _symmetry_equiv_pos_site_id
 _symmetry_equiv_pos_as_xyz
  1  'x, y, z'
loop_
 _atom_site_type_symbol
 _atom_site_label
 _atom_site_symmetry_multiplicity
 _atom_site_fract_x
 _atom_site_fract_y
 _atom_site_fract_z
 _atom_site_occupancy
  Nb  Nb0  1  0.401746  0.401746  0.000000  1
  Nb  Nb1  1  0.901746  0.098254  0.500000  1
  Nb  Nb2  1  0.098254  0.901746  0.500000  1
  Nb  Nb3  1  0.598254  0.598254  0.000000  1
  Nb  Nb4  1  0.129763  0.465285  0.000000  1
  Nb  Nb5  1  0.965285  0.370237  0.500000  1
  Nb  Nb6  1  0.034715  0.629763  0.500000  1
  Nb  Nb7  1  0.870237  0.534715  0.000000  1
  Nb  Nb8  1  0.370237  0.965285  0.500000  1
  Nb  Nb9  1  0.629763  0.034715  0.500000  1
  Nb  Nb10  1  0.465285  0.129763  0.000000  1
  Nb  Nb11  1  0.534715  0.870237  0.000000  1
  Nb  Nb12  1  0.181452  0.181452  0.253920  1
  Nb  Nb13  1  0.681452  0.318548  0.753920  1
  Nb  Nb14  1  0.318548  0.681452  0.753920  1
  Nb  Nb15  1  0.818548  0.818548  0.253920  1
  Nb  Nb16  1  0.318548  0.681452  0.246080  1
  Nb  Nb17  1  0.681452  0.318548  0.246080  1
  Nb  Nb18  1  0.181452  0.181452  0.746080  1
  Nb  Nb19  1  0.818548  0.818548  0.746080  1
  Sn  Sn20  1  0.264242  0.938211  0.000000  1
  Sn  Sn21  1  0.438211  0.235758  0.500000  1
  Sn  Sn22  1  0.561789  0.764242  0.500000  1
  Sn  Sn23  1  0.735758  0.061789  0.000000  1
  Sn  Sn24  1  0.235758  0.438211  0.500000  1
  Sn  Sn25  1  0.764242  0.561789  0.500000  1
  Sn  Sn26  1  0.938211  0.264242  0.000000  1
  Sn  Sn27  1  0.061789  0.735758  0.000000  1
  Pt  Pt28  1  0.000000  0.000000  0.000000  1
  Pt  Pt29  1  0.500000  0.500000  0.500000  1
