# generated using pymatgen
data_Y4ErTm3(ReB6)4
_symmetry_space_group_name_H-M   'P 1'
_cell_length_a   3.66411700
_cell_length_b   9.14509501
_cell_length_c   11.53383500
_cell_angle_alpha   90.00302408
_cell_angle_beta   90.00000000
_cell_angle_gamma   90.00000000
_symmetry_Int_Tables_number   1
_chemical_formula_structural   Y4ErTm3(ReB6)4
_chemical_formula_sum   'Y4 Er1 Tm3 Re4 B24'
_cell_volume   386.48379437
_cell_formula_units_Z   1
loop_
 _symmetry_equiv_pos_site_id
 _symmetry_equiv_pos_as_xyz
  1  'x, y, z'
loop_
 _atom_site_type_symbol
 _atom_site_label
 _atom_site_symmetry_multiplicity
 _atom_site_fract_x
 _atom_site_fract_y
 _atom_site_fract_z
 _atom_site_occupancy
  Y  Y0  1  0.000000  0.323226  0.413900  1
  Y  Y1  1  0.000000  0.676717  0.586192  1
  Y  Y2  1  0.000000  0.823169  0.086034  1
  Y  Y3  1  0.000000  0.176836  0.913841  1
  Er  Er4  1  0.000000  0.943426  0.370326  1
  Tm  Tm5  1  0.000000  0.056696  0.630037  1
  Tm  Tm6  1  0.000000  0.443390  0.129719  1
  Tm  Tm7  1  0.000000  0.556637  0.870174  1
  Re  Re8  1  0.000000  0.638761  0.320258  1
  Re  Re9  1  0.000000  0.360889  0.679774  1
  Re  Re10  1  0.000000  0.139387  0.179430  1
  Re  Re11  1  0.000000  0.860827  0.820369  1
  B  B12  1  0.500000  0.553433  0.432625  1
  B  B13  1  0.500000  0.446312  0.567449  1
  B  B14  1  0.500000  0.053712  0.067262  1
  B  B15  1  0.500000  0.946349  0.932584  1
  B  B16  1  0.500000  0.749738  0.418390  1
  B  B17  1  0.500000  0.249873  0.581699  1
  B  B18  1  0.500000  0.250291  0.081532  1
  B  B19  1  0.500000  0.749795  0.918372  1
  B  B20  1  0.500000  0.792370  0.265556  1
  B  B21  1  0.500000  0.207342  0.734379  1
  B  B22  1  0.500000  0.292858  0.234233  1
  B  B23  1  0.500000  0.707288  0.765699  1
  B  B24  1  0.500000  0.630210  0.185223  1
  B  B25  1  0.500000  0.369697  0.814706  1
  B  B26  1  0.500000  0.130689  0.314501  1
  B  B27  1  0.500000  0.869637  0.685399  1
  B  B28  1  0.500000  0.982415  0.212256  1
  B  B29  1  0.500000  0.017758  0.787537  1
  B  B30  1  0.500000  0.482112  0.287430  1
  B  B31  1  0.500000  0.517790  0.712519  1
  B  B32  1  0.500000  0.598740  0.027517  1
  B  B33  1  0.500000  0.401285  0.972397  1
  B  B34  1  0.500000  0.099284  0.472693  1
  B  B35  1  0.500000  0.901061  0.527985  1
