# generated using pymatgen
data_Tm20Si3NiSb8
_symmetry_space_group_name_H-M   'P 1'
_cell_length_a   7.81660460
_cell_length_b   8.95853100
_cell_length_c   11.72678968
_cell_angle_alpha   90.00000000
_cell_angle_beta   90.07540980
_cell_angle_gamma   90.00000000
_symmetry_Int_Tables_number   1
_chemical_formula_structural   Tm20Si3NiSb8
_chemical_formula_sum   'Tm20 Si3 Ni1 Sb8'
_cell_volume   821.17119123
_cell_formula_units_Z   1
loop_
 _symmetry_equiv_pos_site_id
 _symmetry_equiv_pos_as_xyz
  1  'x, y, z'
loop_
 _atom_site_type_symbol
 _atom_site_label
 _atom_site_symmetry_multiplicity
 _atom_site_fract_x
 _atom_site_fract_y
 _atom_site_fract_z
 _atom_site_occupancy
  Tm  Tm0  1  0.322006  0.540039  0.435788  1
  Tm  Tm1  1  0.860342  0.250000  0.795278  1
  Tm  Tm2  1  0.182929  0.552001  0.934864  1
  Tm  Tm3  1  0.322006  0.959961  0.435788  1
  Tm  Tm4  1  0.139838  0.750000  0.206701  1
  Tm  Tm5  1  0.834461  0.750000  0.784917  1
  Tm  Tm6  1  0.360490  0.750000  0.706434  1
  Tm  Tm7  1  0.964974  0.750000  0.497661  1
  Tm  Tm8  1  0.457505  0.250000  0.000522  1
  Tm  Tm9  1  0.677493  0.445088  0.562628  1
  Tm  Tm10  1  0.814004  0.052272  0.066056  1
  Tm  Tm11  1  0.669949  0.750000  0.283771  1
  Tm  Tm12  1  0.539025  0.750000  0.996656  1
  Tm  Tm13  1  0.049887  0.250000  0.500695  1
  Tm  Tm14  1  0.677493  0.054912  0.562628  1
  Tm  Tm15  1  0.182929  0.947999  0.934864  1
  Tm  Tm16  1  0.627137  0.250000  0.299747  1
  Tm  Tm17  1  0.342009  0.250000  0.706159  1
  Tm  Tm18  1  0.814004  0.447728  0.066056  1
  Tm  Tm19  1  0.168384  0.250000  0.216344  1
  Si  Si20  1  0.913294  0.750000  0.022670  1
  Si  Si21  1  0.588356  0.750000  0.521560  1
  Si  Si22  1  0.083063  0.250000  0.982090  1
  Ni  Ni23  1  0.415009  0.250000  0.482511  1
  Sb  Sb24  1  0.931544  0.489613  0.326428  1
  Sb  Sb25  1  0.430865  0.512201  0.170993  1
  Sb  Sb26  1  0.430865  0.987799  0.170993  1
  Sb  Sb27  1  0.568139  0.490709  0.826608  1
  Sb  Sb28  1  0.066159  0.509328  0.674778  1
  Sb  Sb29  1  0.568139  0.009291  0.826608  1
  Sb  Sb30  1  0.931544  0.010387  0.326428  1
  Sb  Sb31  1  0.066159  0.990672  0.674778  1
