# generated using pymatgen
data_Tb9Th(Sn3Ge)2
_symmetry_space_group_name_H-M   'P 1'
_cell_length_a   9.29626900
_cell_length_b   9.32526694
_cell_length_c   6.54838800
_cell_angle_alpha   90.00000000
_cell_angle_beta   90.00000000
_cell_angle_gamma   119.89718461
_symmetry_Int_Tables_number   1
_chemical_formula_structural   Tb9Th(Sn3Ge)2
_chemical_formula_sum   'Tb9 Th1 Sn6 Ge2'
_cell_volume   492.13471749
_cell_formula_units_Z   1
loop_
 _symmetry_equiv_pos_site_id
 _symmetry_equiv_pos_as_xyz
  1  'x, y, z'
loop_
 _atom_site_type_symbol
 _atom_site_label
 _atom_site_symmetry_multiplicity
 _atom_site_fract_x
 _atom_site_fract_y
 _atom_site_fract_z
 _atom_site_occupancy
  Tb  Tb0  1  0.999633  0.744390  0.750000  1
  Tb  Tb1  1  0.255243  0.255610  0.750000  1
  Tb  Tb2  1  0.333260  0.665559  0.500295  1
  Tb  Tb3  1  0.667701  0.334441  0.500295  1
  Tb  Tb4  1  0.746201  0.745545  0.250000  1
  Tb  Tb5  1  0.743324  0.000000  0.750000  1
  Tb  Tb6  1  0.000656  0.254455  0.250000  1
  Tb  Tb7  1  0.333260  0.665559  0.999705  1
  Tb  Tb8  1  0.667701  0.334441  0.999705  1
  Th  Th9  1  0.254609  0.000000  0.250000  1
  Sn  Sn10  1  0.609577  0.609562  0.750000  1
  Sn  Sn11  1  0.000015  0.390438  0.750000  1
  Sn  Sn12  1  0.389312  0.000000  0.750000  1
  Sn  Sn13  1  0.613365  0.000000  0.250000  1
  Sn  Sn14  1  0.393493  0.395328  0.250000  1
  Sn  Sn15  1  0.998165  0.604672  0.250000  1
  Ge  Ge16  1  0.997243  0.000000  0.994313  1
  Ge  Ge17  1  0.997243  0.000000  0.505687  1
