# generated using pymatgen
data_Dy9Mg(SiB4)4
_symmetry_space_group_name_H-M   'P 1'
_cell_length_a   7.18810900
_cell_length_b   7.18810900
_cell_length_c   8.01862800
_cell_angle_alpha   90.00000000
_cell_angle_beta   90.00000000
_cell_angle_gamma   90.00000000
_symmetry_Int_Tables_number   1
_chemical_formula_structural   Dy9Mg(SiB4)4
_chemical_formula_sum   'Dy9 Mg1 Si4 B16'
_cell_volume   414.31377644
_cell_formula_units_Z   1
loop_
 _symmetry_equiv_pos_site_id
 _symmetry_equiv_pos_as_xyz
  1  'x, y, z'
loop_
 _atom_site_type_symbol
 _atom_site_label
 _atom_site_symmetry_multiplicity
 _atom_site_fract_x
 _atom_site_fract_y
 _atom_site_fract_z
 _atom_site_occupancy
  Dy  Dy0  1  0.681945  0.179877  0.228148  1
  Dy  Dy1  1  0.318055  0.820123  0.771852  1
  Dy  Dy2  1  0.318055  0.820123  0.228148  1
  Dy  Dy3  1  0.820123  0.681945  0.228148  1
  Dy  Dy4  1  0.820123  0.681945  0.771852  1
  Dy  Dy5  1  0.681945  0.179877  0.771852  1
  Dy  Dy6  1  0.179877  0.318055  0.771852  1
  Dy  Dy7  1  0.179877  0.318055  0.228148  1
  Dy  Dy8  1  0.500000  0.500000  0.500000  1
  Mg  Mg9  1  0.000000  0.000000  0.500000  1
  Si  Si10  1  0.115007  0.616185  0.500000  1
  Si  Si11  1  0.884993  0.383815  0.500000  1
  Si  Si12  1  0.383815  0.115007  0.500000  1
  Si  Si13  1  0.616185  0.884993  0.500000  1
  B  B14  1  0.174360  0.038498  0.000000  1
  B  B15  1  0.825640  0.961502  0.000000  1
  B  B16  1  0.961502  0.174360  0.000000  1
  B  B17  1  0.327114  0.539732  0.000000  1
  B  B18  1  0.038498  0.825640  0.000000  1
  B  B19  1  0.672886  0.460268  0.000000  1
  B  B20  1  0.539732  0.672886  0.000000  1
  B  B21  1  0.460268  0.327114  0.000000  1
  B  B22  1  0.089387  0.588534  0.000000  1
  B  B23  1  0.910613  0.411466  0.000000  1
  B  B24  1  0.411466  0.089387  0.000000  1
  B  B25  1  0.588534  0.910613  0.000000  1
  B  B26  1  0.000000  0.000000  0.158570  1
  B  B27  1  0.000000  0.000000  0.841430  1
  B  B28  1  0.500000  0.500000  0.837450  1
  B  B29  1  0.500000  0.500000  0.162550  1
