# generated using pymatgen
data_Ho11LuIn20
_symmetry_space_group_name_H-M   'P 1'
_cell_length_a   6.51653000
_cell_length_b   10.39335000
_cell_length_c   12.18963606
_cell_angle_alpha   90.00000000
_cell_angle_beta   89.99615580
_cell_angle_gamma   90.00000000
_symmetry_Int_Tables_number   1
_chemical_formula_structural   Ho11LuIn20
_chemical_formula_sum   'Ho11 Lu1 In20'
_cell_volume   825.58670370
_cell_formula_units_Z   1
loop_
 _symmetry_equiv_pos_site_id
 _symmetry_equiv_pos_as_xyz
  1  'x, y, z'
loop_
 _atom_site_type_symbol
 _atom_site_label
 _atom_site_symmetry_multiplicity
 _atom_site_fract_x
 _atom_site_fract_y
 _atom_site_fract_z
 _atom_site_occupancy
  Ho  Ho0  1  0.852603  0.750000  0.055572  1
  Ho  Ho1  1  0.648118  0.750000  0.555325  1
  Ho  Ho2  1  0.147686  0.250000  0.944230  1
  Ho  Ho3  1  0.890831  0.509873  0.358743  1
  Ho  Ho4  1  0.609044  0.991330  0.858564  1
  Ho  Ho5  1  0.110554  0.010188  0.640560  1
  Ho  Ho6  1  0.390056  0.490595  0.141090  1
  Ho  Ho7  1  0.110554  0.489812  0.640560  1
  Ho  Ho8  1  0.390056  0.009405  0.141090  1
  Ho  Ho9  1  0.890831  0.990127  0.358743  1
  Ho  Ho10  1  0.609044  0.508670  0.858564  1
  Lu  Lu11  1  0.350734  0.250000  0.445246  1
  In  In12  1  0.872408  0.043731  0.099430  1
  In  In13  1  0.627968  0.456035  0.598754  1
  In  In14  1  0.127058  0.543725  0.900706  1
  In  In15  1  0.372831  0.957555  0.400967  1
  In  In16  1  0.127058  0.956275  0.900706  1
  In  In17  1  0.372831  0.542445  0.400967  1
  In  In18  1  0.872408  0.456269  0.099430  1
  In  In19  1  0.627968  0.043965  0.598754  1
  In  In20  1  0.155947  0.750000  0.244568  1
  In  In21  1  0.344572  0.750000  0.744271  1
  In  In22  1  0.844825  0.250000  0.755083  1
  In  In23  1  0.652576  0.250000  0.257157  1
  In  In24  1  0.386505  0.750000  0.007903  1
  In  In25  1  0.114304  0.750000  0.508295  1
  In  In26  1  0.613421  0.250000  0.992769  1
  In  In27  1  0.888744  0.250000  0.491318  1
  In  In28  1  0.624922  0.750000  0.284619  1
  In  In29  1  0.873852  0.750000  0.784339  1
  In  In30  1  0.374761  0.250000  0.714824  1
  In  In31  1  0.124930  0.250000  0.216852  1
