# generated using pymatgen
data_Au(O2F7)2
_symmetry_space_group_name_H-M   'P 1'
_cell_length_a   12.39405500
_cell_length_b   6.52589724
_cell_length_c   8.69421457
_cell_angle_alpha   68.14746005
_cell_angle_beta   90.00000000
_cell_angle_gamma   90.00000000
_symmetry_Int_Tables_number   1
_chemical_formula_structural   Au(O2F7)2
_chemical_formula_sum   'Au2 O8 F28'
_cell_volume   652.67921747
_cell_formula_units_Z   2
loop_
 _symmetry_equiv_pos_site_id
 _symmetry_equiv_pos_as_xyz
  1  'x, y, z'
loop_
 _atom_site_type_symbol
 _atom_site_label
 _atom_site_symmetry_multiplicity
 _atom_site_fract_x
 _atom_site_fract_y
 _atom_site_fract_z
 _atom_site_occupancy
  Au  Au0  1  0.500000  0.500000  0.500000  1
  Au  Au1  1  0.000000  0.500000  0.000000  1
  O  O2  1  0.366027  0.770363  0.907787  1
  O  O3  1  0.633973  0.229637  0.092213  1
  O  O4  1  0.866027  0.229637  0.592213  1
  O  O5  1  0.133973  0.770363  0.407787  1
  O  O6  1  0.736726  0.747381  0.877549  1
  O  O7  1  0.263274  0.252619  0.122451  1
  O  O8  1  0.236726  0.252619  0.622451  1
  O  O9  1  0.763274  0.747381  0.377549  1
  F  F10  1  0.442568  0.859368  0.780367  1
  F  F11  1  0.557432  0.140632  0.219633  1
  F  F12  1  0.942568  0.140632  0.719633  1
  F  F13  1  0.057432  0.859368  0.280367  1
  F  F14  1  0.432481  0.776456  0.484737  1
  F  F15  1  0.567519  0.223544  0.515263  1
  F  F16  1  0.932481  0.223544  0.015263  1
  F  F17  1  0.067519  0.776456  0.984737  1
  F  F18  1  0.426821  0.347177  0.710231  1
  F  F19  1  0.573179  0.652823  0.289769  1
  F  F20  1  0.926821  0.652823  0.789769  1
  F  F21  1  0.073179  0.347177  0.210231  1
  F  F22  1  0.090663  0.804480  0.547152  1
  F  F23  1  0.909337  0.195520  0.452848  1
  F  F24  1  0.590663  0.195520  0.952848  1
  F  F25  1  0.409337  0.804480  0.047152  1
  F  F26  1  0.345323  0.301532  0.000254  1
  F  F27  1  0.654677  0.698468  0.999746  1
  F  F28  1  0.845323  0.698468  0.499746  1
  F  F29  1  0.154677  0.301532  0.500254  1
  F  F30  1  0.122324  0.445448  0.879748  1
  F  F31  1  0.877676  0.554552  0.120252  1
  F  F32  1  0.622324  0.554552  0.620252  1
  F  F33  1  0.377676  0.445448  0.379748  1
  F  F34  1  0.190547  0.093651  0.766604  1
  F  F35  1  0.809453  0.906349  0.233396  1
  F  F36  1  0.690547  0.906349  0.733396  1
  F  F37  1  0.309453  0.093651  0.266604  1
