# generated using pymatgen
data_Er16Mg3InIrPd3
_symmetry_space_group_name_H-M   'P 1'
_cell_length_a   9.64760943
_cell_length_b   9.67993847
_cell_length_c   9.64760912
_cell_angle_alpha   60.09219222
_cell_angle_beta   59.99342199
_cell_angle_gamma   60.09219066
_symmetry_Int_Tables_number   1
_chemical_formula_structural   Er16Mg3InIrPd3
_chemical_formula_sum   'Er16 Mg3 In1 Ir1 Pd3'
_cell_volume   637.93896782
_cell_formula_units_Z   1
loop_
 _symmetry_equiv_pos_site_id
 _symmetry_equiv_pos_as_xyz
  1  'x, y, z'
loop_
 _atom_site_type_symbol
 _atom_site_label
 _atom_site_symmetry_multiplicity
 _atom_site_fract_x
 _atom_site_fract_y
 _atom_site_fract_z
 _atom_site_occupancy
  Er  Er0  1  0.064984  0.064851  0.435222  1
  Er  Er1  1  0.641991  0.062880  0.641991  1
  Er  Er2  1  0.191253  0.809174  0.191253  1
  Er  Er3  1  0.432538  0.065815  0.432538  1
  Er  Er4  1  0.185832  0.193154  0.811127  1
  Er  Er5  1  0.656327  0.649580  0.656327  1
  Er  Er6  1  0.054152  0.641440  0.647771  1
  Er  Er7  1  0.435222  0.064851  0.064984  1
  Er  Er8  1  0.647771  0.641440  0.054152  1
  Er  Er9  1  0.190283  0.809552  0.812620  1
  Er  Er10  1  0.812249  0.193240  0.812249  1
  Er  Er11  1  0.811127  0.193154  0.185832  1
  Er  Er12  1  0.812620  0.809552  0.190283  1
  Er  Er13  1  0.066834  0.430335  0.434545  1
  Er  Er14  1  0.434545  0.430335  0.066834  1
  Er  Er15  1  0.063196  0.432615  0.063196  1
  Mg  Mg16  1  0.739234  0.422424  0.420557  1
  Mg  Mg17  1  0.420557  0.422424  0.739234  1
  Mg  Mg18  1  0.421507  0.737962  0.421507  1
  In  In19  1  0.416628  0.417548  0.416628  1
  Ir  Ir20  1  0.860996  0.426830  0.860996  1
  Pd  Pd21  1  0.853278  0.858296  0.853278  1
  Pd  Pd22  1  0.428940  0.861276  0.857938  1
  Pd  Pd23  1  0.857938  0.861276  0.428940  1
