# generated using pymatgen
data_Y4TcOsRu6
_symmetry_space_group_name_H-M   'P 1'
_cell_length_a   5.17792380
_cell_length_b   5.37236301
_cell_length_c   9.02413100
_cell_angle_alpha   90.00000000
_cell_angle_beta   90.00000000
_cell_angle_gamma   119.52645283
_symmetry_Int_Tables_number   1
_chemical_formula_structural   Y4TcOsRu6
_chemical_formula_sum   'Y4 Tc1 Os1 Ru6'
_cell_volume   218.42868383
_cell_formula_units_Z   1
loop_
 _symmetry_equiv_pos_site_id
 _symmetry_equiv_pos_as_xyz
  1  'x, y, z'
loop_
 _atom_site_type_symbol
 _atom_site_label
 _atom_site_symmetry_multiplicity
 _atom_site_fract_x
 _atom_site_fract_y
 _atom_site_fract_z
 _atom_site_occupancy
  Y  Y0  1  0.329485  0.669396  0.433135  1
  Y  Y1  1  0.658362  0.329215  0.565695  1
  Y  Y2  1  0.658362  0.329215  0.934305  1
  Y  Y3  1  0.329485  0.669396  0.066865  1
  Tc  Tc4  1  0.682402  0.840137  0.750000  1
  Os  Os5  1  0.841043  0.160988  0.250000  1
  Ru  Ru6  1  0.982471  0.001755  0.499198  1
  Ru  Ru7  1  0.982471  0.001755  0.000802  1
  Ru  Ru8  1  0.828445  0.650844  0.250000  1
  Ru  Ru9  1  0.351193  0.171432  0.250000  1
  Ru  Ru10  1  0.180261  0.827561  0.750000  1
  Ru  Ru11  1  0.176021  0.348306  0.750000  1
