# generated using pymatgen
data_HfNb2InC2
_symmetry_space_group_name_H-M   'P 1'
_cell_length_a   3.20978000
_cell_length_b   3.20977912
_cell_length_c   20.01734500
_cell_angle_alpha   90.00000000
_cell_angle_beta   90.00000000
_cell_angle_gamma   120.00000911
_symmetry_Int_Tables_number   1
_chemical_formula_structural   HfNb2InC2
_chemical_formula_sum   'Hf2 Nb4 In2 C4'
_cell_volume   178.60247788
_cell_formula_units_Z   2
loop_
 _symmetry_equiv_pos_site_id
 _symmetry_equiv_pos_as_xyz
  1  'x, y, z'
loop_
 _atom_site_type_symbol
 _atom_site_label
 _atom_site_symmetry_multiplicity
 _atom_site_fract_x
 _atom_site_fract_y
 _atom_site_fract_z
 _atom_site_occupancy
  Hf  Hf0  1  0.000000  0.000000  0.500000  1
  Hf  Hf1  1  0.000000  0.000000  0.000000  1
  Nb  Nb2  1  0.333333  0.666667  0.128739  1
  Nb  Nb3  1  0.666667  0.333333  0.628739  1
  Nb  Nb4  1  0.333333  0.666667  0.371261  1
  Nb  Nb5  1  0.666667  0.333333  0.871261  1
  In  In6  1  0.000000  0.000000  0.250000  1
  In  In7  1  0.000000  0.000000  0.750000  1
  C  C8  1  0.666667  0.333333  0.430090  1
  C  C9  1  0.666667  0.333333  0.069910  1
  C  C10  1  0.333333  0.666667  0.569910  1
  C  C11  1  0.333333  0.666667  0.930090  1
