# generated using pymatgen
data_SrLi2CePb2
_symmetry_space_group_name_H-M   'P 1'
_cell_length_a   4.92335900
_cell_length_b   4.92336015
_cell_length_c   7.96881900
_cell_angle_alpha   90.00000000
_cell_angle_beta   90.00000000
_cell_angle_gamma   119.99999902
_symmetry_Int_Tables_number   1
_chemical_formula_structural   SrLi2CePb2
_chemical_formula_sum   'Sr1 Li2 Ce1 Pb2'
_cell_volume   167.28142098
_cell_formula_units_Z   1
loop_
 _symmetry_equiv_pos_site_id
 _symmetry_equiv_pos_as_xyz
  1  'x, y, z'
loop_
 _atom_site_type_symbol
 _atom_site_label
 _atom_site_symmetry_multiplicity
 _atom_site_fract_x
 _atom_site_fract_y
 _atom_site_fract_z
 _atom_site_occupancy
  Sr  Sr0  1  0.000000  0.000000  0.009316  1
  Li  Li1  1  0.666667  0.333333  0.291060  1
  Li  Li2  1  0.333333  0.666667  0.724779  1
  Ce  Ce3  1  0.000000  0.000000  0.508748  1
  Pb  Pb4  1  0.333333  0.666667  0.298865  1
  Pb  Pb5  1  0.666667  0.333333  0.721434  1
