# generated using pymatgen
data_SnHg3(Pt2O7)2
_symmetry_space_group_name_H-M   'P 1'
_cell_length_a   7.23242990
_cell_length_b   7.32486420
_cell_length_c   7.23243000
_cell_angle_alpha   60.41657037
_cell_angle_beta   59.99999956
_cell_angle_gamma   60.41657571
_symmetry_Int_Tables_number   1
_chemical_formula_structural   SnHg3(Pt2O7)2
_chemical_formula_sum   'Sn1 Hg3 Pt4 O14'
_cell_volume   272.62085730
_cell_formula_units_Z   1
loop_
 _symmetry_equiv_pos_site_id
 _symmetry_equiv_pos_as_xyz
  1  'x, y, z'
loop_
 _atom_site_type_symbol
 _atom_site_label
 _atom_site_symmetry_multiplicity
 _atom_site_fract_x
 _atom_site_fract_y
 _atom_site_fract_z
 _atom_site_occupancy
  Sn  Sn0  1  0.125000  0.625000  0.125000  1
  Hg  Hg1  1  0.125000  0.125000  0.125000  1
  Hg  Hg2  1  0.625000  0.125000  0.125000  1
  Hg  Hg3  1  0.125000  0.125000  0.625000  1
  Pt  Pt4  1  0.625000  0.625000  0.125000  1
  Pt  Pt5  1  0.625000  0.625000  0.625000  1
  Pt  Pt6  1  0.625000  0.125000  0.625000  1
  Pt  Pt7  1  0.125000  0.625000  0.625000  1
  O  O8  1  0.705115  0.297295  0.292475  1
  O  O9  1  0.705115  0.297295  0.705115  1
  O  O10  1  0.009325  0.972024  0.009325  1
  O  O11  1  0.289638  0.692844  0.289638  1
  O  O12  1  0.727881  0.692844  0.289638  1
  O  O13  1  0.960362  0.557156  0.522119  1
  O  O14  1  0.289638  0.692844  0.727881  1
  O  O15  1  0.240675  0.277976  0.240675  1
  O  O16  1  0.960362  0.557156  0.960362  1
  O  O17  1  0.544885  0.952705  0.544885  1
  O  O18  1  0.522119  0.557156  0.960362  1
  O  O19  1  0.957525  0.952705  0.544885  1
  O  O20  1  0.544885  0.952705  0.957525  1
  O  O21  1  0.292475  0.297295  0.705115  1
