# generated using pymatgen
data_Dy11Ho(InGa2)2
_symmetry_space_group_name_H-M   'P 1'
_cell_length_a   8.65334707
_cell_length_b   8.65202327
_cell_length_c   8.65202350
_cell_angle_alpha   112.74039226
_cell_angle_beta   111.98825858
_cell_angle_gamma   103.82359143
_symmetry_Int_Tables_number   1
_chemical_formula_structural   Dy11Ho(InGa2)2
_chemical_formula_sum   'Dy11 Ho1 In2 Ga4'
_cell_volume   495.08048865
_cell_formula_units_Z   1
loop_
 _symmetry_equiv_pos_site_id
 _symmetry_equiv_pos_as_xyz
  1  'x, y, z'
loop_
 _atom_site_type_symbol
 _atom_site_label
 _atom_site_symmetry_multiplicity
 _atom_site_fract_x
 _atom_site_fract_y
 _atom_site_fract_z
 _atom_site_occupancy
  Dy  Dy0  1  0.560382  0.763288  0.797093  1
  Dy  Dy1  1  0.034014  0.236788  0.797226  1
  Dy  Dy2  1  0.966070  0.763178  0.202891  1
  Dy  Dy3  1  0.187398  0.281623  0.468918  1
  Dy  Dy4  1  0.812492  0.718193  0.530874  1
  Dy  Dy5  1  0.187398  0.718479  0.905776  1
  Dy  Dy6  1  0.812492  0.281619  0.094299  1
  Dy  Dy7  1  0.320554  0.616295  0.295802  1
  Dy  Dy8  1  0.679363  0.383536  0.703996  1
  Dy  Dy9  1  0.320554  0.024752  0.704260  1
  Dy  Dy10  1  0.679363  0.975367  0.295826  1
  Ho  Ho11  1  0.439693  0.236595  0.203099  1
  In  In12  1  0.500018  0.499944  0.000075  1
  In  In13  1  0.000259  0.000147  0.000112  1
  Ga  Ga14  1  0.354500  0.000205  0.354295  1
  Ga  Ga15  1  0.645516  0.999982  0.645534  1
  Ga  Ga16  1  0.120632  0.620658  0.499974  1
  Ga  Ga17  1  0.879300  0.379350  0.499950  1
