# generated using pymatgen
data_ScPa7(Ta3Ge4)4
_symmetry_space_group_name_H-M   'P 1'
_cell_length_a   6.98111917
_cell_length_b   7.14041521
_cell_length_c   13.51742000
_cell_angle_alpha   90.04232741
_cell_angle_beta   90.01269661
_cell_angle_gamma   90.01560562
_symmetry_Int_Tables_number   1
_chemical_formula_structural   ScPa7(Ta3Ge4)4
_chemical_formula_sum   'Sc1 Pa7 Ta12 Ge16'
_cell_volume   673.81733707
_cell_formula_units_Z   1
loop_
 _symmetry_equiv_pos_site_id
 _symmetry_equiv_pos_as_xyz
  1  'x, y, z'
loop_
 _atom_site_type_symbol
 _atom_site_label
 _atom_site_symmetry_multiplicity
 _atom_site_fract_x
 _atom_site_fract_y
 _atom_site_fract_z
 _atom_site_occupancy
  Sc  Sc0  1  0.988991  0.826601  0.594152  1
  Pa  Pa1  1  0.493870  0.670100  0.592815  1
  Pa  Pa2  1  0.992616  0.828125  0.906333  1
  Pa  Pa3  1  0.507863  0.327984  0.092746  1
  Pa  Pa4  1  0.007128  0.175305  0.407470  1
  Pa  Pa5  1  0.508576  0.327636  0.409860  1
  Pa  Pa6  1  0.007837  0.172193  0.092849  1
  Pa  Pa7  1  0.491911  0.674150  0.904362  1
  Ta  Ta8  1  0.654859  0.168734  0.624233  1
  Ta  Ta9  1  0.156841  0.334736  0.873720  1
  Ta  Ta10  1  0.341261  0.834415  0.125558  1
  Ta  Ta11  1  0.838440  0.664157  0.374837  1
  Ta  Ta12  1  0.341718  0.834379  0.375394  1
  Ta  Ta13  1  0.841297  0.665501  0.125172  1
  Ta  Ta14  1  0.662705  0.162628  0.874152  1
  Ta  Ta15  1  0.160948  0.332773  0.624876  1
  Ta  Ta16  1  0.831456  0.493058  0.750498  1
  Ta  Ta17  1  0.333976  0.004020  0.749370  1
  Ta  Ta18  1  0.168708  0.505454  0.250761  1
  Ta  Ta19  1  0.669275  0.995925  0.251420  1
  Ge  Ge20  1  0.679670  0.954434  0.459373  1
  Ge  Ge21  1  0.175871  0.544751  0.042743  1
  Ge  Ge22  1  0.325929  0.046498  0.956063  1
  Ge  Ge23  1  0.830481  0.461177  0.545344  1
  Ge  Ge24  1  0.314024  0.035675  0.545532  1
  Ge  Ge25  1  0.823621  0.454589  0.956299  1
  Ge  Ge26  1  0.674748  0.954714  0.043439  1
  Ge  Ge27  1  0.172555  0.548184  0.459054  1
  Ge  Ge28  1  0.459327  0.376230  0.750664  1
  Ge  Ge29  1  0.961706  0.120173  0.746716  1
  Ge  Ge30  1  0.539859  0.623282  0.250520  1
  Ge  Ge31  1  0.040207  0.877151  0.251067  1
  Ge  Ge32  1  0.697735  0.859155  0.746460  1
  Ge  Ge33  1  0.185945  0.644444  0.745175  1
  Ge  Ge34  1  0.309534  0.141822  0.250708  1
  Ge  Ge35  1  0.808512  0.359844  0.250264  1
