# generated using pymatgen
data_Sr4HfVO8
_symmetry_space_group_name_H-M   'P 1'
_cell_length_a   5.73738563
_cell_length_b   5.74417700
_cell_length_c   12.50858037
_cell_angle_alpha   90.00000000
_cell_angle_beta   89.91466313
_cell_angle_gamma   90.00000000
_symmetry_Int_Tables_number   1
_chemical_formula_structural   Sr4HfVO8
_chemical_formula_sum   'Sr8 Hf2 V2 O16'
_cell_volume   412.23930491
_cell_formula_units_Z   2
loop_
 _symmetry_equiv_pos_site_id
 _symmetry_equiv_pos_as_xyz
  1  'x, y, z'
loop_
 _atom_site_type_symbol
 _atom_site_label
 _atom_site_symmetry_multiplicity
 _atom_site_fract_x
 _atom_site_fract_y
 _atom_site_fract_z
 _atom_site_occupancy
  Sr  Sr0  1  0.260570  0.760917  0.104674  1
  Sr  Sr1  1  0.260570  0.239083  0.604674  1
  Sr  Sr2  1  0.739701  0.759795  0.606599  1
  Sr  Sr3  1  0.739701  0.240205  0.106599  1
  Sr  Sr4  1  0.760299  0.259795  0.393401  1
  Sr  Sr5  1  0.760299  0.740205  0.893401  1
  Sr  Sr6  1  0.239430  0.260917  0.895326  1
  Sr  Sr7  1  0.239430  0.739083  0.395326  1
  Hf  Hf8  1  0.750000  0.250000  0.750000  1
  Hf  Hf9  1  0.750000  0.750000  0.250000  1
  V  V10  1  0.250000  0.750000  0.750000  1
  V  V11  1  0.250000  0.250000  0.250000  1
  O  O12  1  0.280198  0.220066  0.096649  1
  O  O13  1  0.280198  0.779934  0.596649  1
  O  O14  1  0.494747  0.996779  0.770286  1
  O  O15  1  0.494747  0.003221  0.270286  1
  O  O16  1  0.494548  0.503354  0.750020  1
  O  O17  1  0.494548  0.496646  0.250020  1
  O  O18  1  0.713211  0.213123  0.584517  1
  O  O19  1  0.713211  0.786877  0.084517  1
  O  O20  1  0.786789  0.286877  0.915483  1
  O  O21  1  0.786789  0.713123  0.415483  1
  O  O22  1  0.005452  0.003354  0.249980  1
  O  O23  1  0.005253  0.496779  0.229714  1
  O  O24  1  0.005452  0.996646  0.749980  1
  O  O25  1  0.005253  0.503221  0.729714  1
  O  O26  1  0.219802  0.720066  0.903351  1
  O  O27  1  0.219802  0.279934  0.403351  1
