# generated using pymatgen
data_Tb6AlZnOs
_symmetry_space_group_name_H-M   'P 1'
_cell_length_a   8.55274136
_cell_length_b   8.55274148
_cell_length_c   8.55274201
_cell_angle_alpha   104.02995392
_cell_angle_beta   111.66176778
_cell_angle_gamma   112.85772015
_symmetry_Int_Tables_number   1
_chemical_formula_structural   Tb6AlZnOs
_chemical_formula_sum   'Tb12 Al2 Zn2 Os2'
_cell_volume   478.33466335
_cell_formula_units_Z   2
loop_
 _symmetry_equiv_pos_site_id
 _symmetry_equiv_pos_as_xyz
  1  'x, y, z'
loop_
 _atom_site_type_symbol
 _atom_site_label
 _atom_site_symmetry_multiplicity
 _atom_site_fract_x
 _atom_site_fract_y
 _atom_site_fract_z
 _atom_site_occupancy
  Tb  Tb0  1  0.693418  0.260511  0.953929  1
  Tb  Tb1  1  0.306582  0.739489  0.046071  1
  Tb  Tb2  1  0.693418  0.739489  0.432908  1
  Tb  Tb3  1  0.306582  0.260511  0.567092  1
  Tb  Tb4  1  0.810745  0.147637  0.336891  1
  Tb  Tb5  1  0.810745  0.473856  0.663109  1
  Tb  Tb6  1  0.189255  0.852363  0.663109  1
  Tb  Tb7  1  0.189255  0.526144  0.336891  1
  Tb  Tb8  1  0.585462  0.772193  0.813269  1
  Tb  Tb9  1  0.958923  0.772193  0.186731  1
  Tb  Tb10  1  0.041077  0.227807  0.813269  1
  Tb  Tb11  1  0.414538  0.227807  0.186731  1
  Al  Al12  1  0.500000  0.500000  0.000000  1
  Al  Al13  1  0.500000  0.000000  0.500000  1
  Zn  Zn14  1  0.000000  0.120186  0.120186  1
  Zn  Zn15  1  0.000000  0.879814  0.879814  1
  Os  Os16  1  0.828024  0.500000  0.328024  1
  Os  Os17  1  0.171976  0.500000  0.671976  1
