# generated using pymatgen
data_Tb4Hg2Rh3Au
_symmetry_space_group_name_H-M   'P 1'
_cell_length_a   7.68084442
_cell_length_b   7.68084442
_cell_length_c   3.75810600
_cell_angle_alpha   90.00000000
_cell_angle_beta   90.00000000
_cell_angle_gamma   89.64228331
_symmetry_Int_Tables_number   1
_chemical_formula_structural   Tb4Hg2Rh3Au
_chemical_formula_sum   'Tb4 Hg2 Rh3 Au1'
_cell_volume   221.70653694
_cell_formula_units_Z   1
loop_
 _symmetry_equiv_pos_site_id
 _symmetry_equiv_pos_as_xyz
  1  'x, y, z'
loop_
 _atom_site_type_symbol
 _atom_site_label
 _atom_site_symmetry_multiplicity
 _atom_site_fract_x
 _atom_site_fract_y
 _atom_site_fract_z
 _atom_site_occupancy
  Tb  Tb0  1  0.335861  0.186501  0.500000  1
  Tb  Tb1  1  0.827294  0.327295  0.500000  1
  Tb  Tb2  1  0.153992  0.653991  0.500000  1
  Tb  Tb3  1  0.686500  0.835860  0.500000  1
  Hg  Hg4  1  0.997456  0.002649  0.000000  1
  Hg  Hg5  1  0.502649  0.497456  0.000000  1
  Rh  Rh6  1  0.631036  0.131037  0.000000  1
  Rh  Rh7  1  0.129850  0.364528  0.000000  1
  Rh  Rh8  1  0.864528  0.629849  0.000000  1
  Au  Au9  1  0.370835  0.870835  0.000000  1
