# generated using pymatgen
data_Rb3Al4InBr16
_symmetry_space_group_name_H-M   'P 1'
_cell_length_a   7.62295400
_cell_length_b   9.24739120
_cell_length_c   13.23684700
_cell_angle_alpha   75.28205720
_cell_angle_beta   90.00000000
_cell_angle_gamma   90.00000000
_symmetry_Int_Tables_number   1
_chemical_formula_structural   Rb3Al4InBr16
_chemical_formula_sum   'Rb3 Al4 In1 Br16'
_cell_volume   902.48103611
_cell_formula_units_Z   1
loop_
 _symmetry_equiv_pos_site_id
 _symmetry_equiv_pos_as_xyz
  1  'x, y, z'
loop_
 _atom_site_type_symbol
 _atom_site_label
 _atom_site_symmetry_multiplicity
 _atom_site_fract_x
 _atom_site_fract_y
 _atom_site_fract_z
 _atom_site_occupancy
  Rb  Rb0  1  0.850795  0.000000  0.250000  1
  Rb  Rb1  1  0.148229  0.000000  0.750000  1
  Rb  Rb2  1  0.394082  0.500000  0.250000  1
  Al  Al3  1  0.716031  0.217257  0.547844  1
  Al  Al4  1  0.716031  0.782743  0.952156  1
  Al  Al5  1  0.288262  0.783963  0.454934  1
  Al  Al6  1  0.288262  0.216037  0.045066  1
  In  In7  1  0.589301  0.500000  0.750000  1
  Br  Br8  1  0.081023  0.661412  0.377099  1
  Br  Br9  1  0.081023  0.338588  0.122901  1
  Br  Br10  1  0.915882  0.341105  0.629362  1
  Br  Br11  1  0.915882  0.658895  0.870638  1
  Br  Br12  1  0.433970  0.715130  0.912035  1
  Br  Br13  1  0.433970  0.284870  0.587965  1
  Br  Br14  1  0.568730  0.281197  0.087393  1
  Br  Br15  1  0.568730  0.718803  0.412607  1
  Br  Br16  1  0.758325  0.298543  0.367607  1
  Br  Br17  1  0.758325  0.701457  0.132393  1
  Br  Br18  1  0.248043  0.699180  0.635641  1
  Br  Br19  1  0.248043  0.300820  0.864359  1
  Br  Br20  1  0.241349  0.039457  0.404288  1
  Br  Br21  1  0.241349  0.960543  0.095712  1
  Br  Br22  1  0.757184  0.961322  0.600376  1
  Br  Br23  1  0.757184  0.038678  0.899624  1
