# generated using pymatgen
data_CeNd9Al(ZnRu2)3
_symmetry_space_group_name_H-M   'P 1'
_cell_length_a   8.49613924
_cell_length_b   8.49613928
_cell_length_c   8.49613861
_cell_angle_alpha   109.28657715
_cell_angle_beta   109.28658879
_cell_angle_gamma   109.28658471
_symmetry_Int_Tables_number   1
_chemical_formula_structural   CeNd9Al(ZnRu2)3
_chemical_formula_sum   'Ce1 Nd9 Al1 Zn3 Ru6'
_cell_volume   475.30967167
_cell_formula_units_Z   1
loop_
 _symmetry_equiv_pos_site_id
 _symmetry_equiv_pos_as_xyz
  1  'x, y, z'
loop_
 _atom_site_type_symbol
 _atom_site_label
 _atom_site_symmetry_multiplicity
 _atom_site_fract_x
 _atom_site_fract_y
 _atom_site_fract_z
 _atom_site_occupancy
  Ce  Ce0  1  0.602895  0.602895  0.602895  1
  Nd  Nd1  1  0.471064  0.153250  0.217299  1
  Nd  Nd2  1  0.153250  0.217299  0.471064  1
  Nd  Nd3  1  0.217299  0.471064  0.153250  1
  Nd  Nd4  1  0.412923  0.686112  0.910290  1
  Nd  Nd5  1  0.686112  0.910290  0.412923  1
  Nd  Nd6  1  0.910290  0.412923  0.686112  1
  Nd  Nd7  1  0.655917  0.091460  0.839511  1
  Nd  Nd8  1  0.091460  0.839511  0.655917  1
  Nd  Nd9  1  0.839511  0.655917  0.091460  1
  Al  Al10  1  0.991458  0.991458  0.991458  1
  Zn  Zn11  1  0.408688  0.318765  0.913039  1
  Zn  Zn12  1  0.318765  0.913039  0.408688  1
  Zn  Zn13  1  0.913039  0.408688  0.318765  1
  Ru  Ru14  1  0.029244  0.156535  0.786713  1
  Ru  Ru15  1  0.156535  0.786713  0.029244  1
  Ru  Ru16  1  0.786713  0.029244  0.156535  1
  Ru  Ru17  1  0.659180  0.538595  0.307064  1
  Ru  Ru18  1  0.538595  0.307064  0.659180  1
  Ru  Ru19  1  0.307064  0.659180  0.538595  1
