# generated using pymatgen
data_Ho6GaSn5Pd6
_symmetry_space_group_name_H-M   'P 1'
_cell_length_a   7.61978800
_cell_length_b   7.63829340
_cell_length_c   7.66188702
_cell_angle_alpha   90.00391208
_cell_angle_beta   89.99880771
_cell_angle_gamma   119.91922118
_symmetry_Int_Tables_number   1
_chemical_formula_structural   Ho6GaSn5Pd6
_chemical_formula_sum   'Ho6 Ga1 Sn5 Pd6'
_cell_volume   386.50803942
_cell_formula_units_Z   1
loop_
 _symmetry_equiv_pos_site_id
 _symmetry_equiv_pos_as_xyz
  1  'x, y, z'
loop_
 _atom_site_type_symbol
 _atom_site_label
 _atom_site_symmetry_multiplicity
 _atom_site_fract_x
 _atom_site_fract_y
 _atom_site_fract_z
 _atom_site_occupancy
  Ho  Ho0  1  0.409065  0.003045  0.245720  1
  Ho  Ho1  1  0.600619  0.602026  0.247375  1
  Ho  Ho2  1  0.992979  0.395230  0.246931  1
  Ho  Ho3  1  0.406026  0.996957  0.754277  1
  Ho  Ho4  1  0.597748  0.604765  0.753073  1
  Ho  Ho5  1  0.998598  0.397973  0.752625  1
  Ga  Ga6  1  0.731804  0.000001  0.999998  1
  Sn  Sn7  1  0.263215  0.260376  0.500042  1
  Sn  Sn8  1  0.002838  0.739625  0.499956  1
  Sn  Sn9  1  0.999732  0.736590  0.999870  1
  Sn  Sn10  1  0.263141  0.263419  0.000133  1
  Sn  Sn11  1  0.737076  0.999996  0.499997  1
  Pd  Pd12  1  0.338948  0.670507  0.005329  1
  Pd  Pd13  1  0.332960  0.665006  0.494029  1
  Pd  Pd14  1  0.668438  0.329494  0.994674  1
  Pd  Pd15  1  0.667953  0.334994  0.505972  1
  Pd  Pd16  1  0.994421  0.999973  0.244228  1
  Pd  Pd17  1  0.994440  0.000023  0.755771  1
