# generated using pymatgen
data_ErPa6Cd3O20
_symmetry_space_group_name_H-M   'P 1'
_cell_length_a   10.13144442
_cell_length_b   10.13144562
_cell_length_c   6.60970688
_cell_angle_alpha   83.63303864
_cell_angle_beta   83.63304427
_cell_angle_gamma   141.61765761
_symmetry_Int_Tables_number   1
_chemical_formula_structural   ErPa6Cd3O20
_chemical_formula_sum   'Er1 Pa6 Cd3 O20'
_cell_volume   396.56534658
_cell_formula_units_Z   1
loop_
 _symmetry_equiv_pos_site_id
 _symmetry_equiv_pos_as_xyz
  1  'x, y, z'
loop_
 _atom_site_type_symbol
 _atom_site_label
 _atom_site_symmetry_multiplicity
 _atom_site_fract_x
 _atom_site_fract_y
 _atom_site_fract_z
 _atom_site_occupancy
  Er  Er0  1  0.000000  0.000000  0.500000  1
  Pa  Pa1  1  0.901405  0.098595  0.000000  1
  Pa  Pa2  1  0.400451  0.599549  0.500000  1
  Pa  Pa3  1  0.098595  0.901405  0.000000  1
  Pa  Pa4  1  0.699517  0.300483  0.000000  1
  Pa  Pa5  1  0.599549  0.400451  0.500000  1
  Pa  Pa6  1  0.300483  0.699517  0.000000  1
  Cd  Cd7  1  0.500000  0.500000  0.000000  1
  Cd  Cd8  1  0.201690  0.798310  0.500000  1
  Cd  Cd9  1  0.798310  0.201690  0.500000  1
  O  O10  1  0.267613  0.470382  0.874667  1
  O  O11  1  0.886900  0.886900  0.876319  1
  O  O12  1  0.770166  0.966516  0.364947  1
  O  O13  1  0.033484  0.229834  0.635053  1
  O  O14  1  0.470382  0.267613  0.874667  1
  O  O15  1  0.375979  0.375979  0.387867  1
  O  O16  1  0.624021  0.624021  0.612133  1
  O  O17  1  0.066273  0.667805  0.897927  1
  O  O18  1  0.529618  0.732387  0.125333  1
  O  O19  1  0.966516  0.770166  0.364947  1
  O  O20  1  0.229834  0.033484  0.635053  1
  O  O21  1  0.667805  0.066273  0.897927  1
  O  O22  1  0.113100  0.113100  0.123681  1
  O  O23  1  0.581741  0.191935  0.357259  1
  O  O24  1  0.808065  0.418259  0.642741  1
  O  O25  1  0.418259  0.808065  0.642741  1
  O  O26  1  0.732387  0.529618  0.125333  1
  O  O27  1  0.191935  0.581741  0.357259  1
  O  O28  1  0.332195  0.933727  0.102073  1
  O  O29  1  0.933727  0.332195  0.102073  1
