# generated using pymatgen
data_Ho5Tm3Pt4
_symmetry_space_group_name_H-M   'P 1'
_cell_length_a   4.74415400
_cell_length_b   7.12901802
_cell_length_c   8.71144302
_cell_angle_alpha   90.00798008
_cell_angle_beta   90.00000000
_cell_angle_gamma   90.00000000
_symmetry_Int_Tables_number   1
_chemical_formula_structural   Ho5Tm3Pt4
_chemical_formula_sum   'Ho5 Tm3 Pt4'
_cell_volume   294.63109967
_cell_formula_units_Z   1
loop_
 _symmetry_equiv_pos_site_id
 _symmetry_equiv_pos_as_xyz
  1  'x, y, z'
loop_
 _atom_site_type_symbol
 _atom_site_label
 _atom_site_symmetry_multiplicity
 _atom_site_fract_x
 _atom_site_fract_y
 _atom_site_fract_z
 _atom_site_occupancy
  Ho  Ho0  1  0.750000  0.643834  0.420069  1
  Ho  Ho1  1  0.250000  0.989780  0.331876  1
  Ho  Ho2  1  0.250000  0.489359  0.167862  1
  Ho  Ho3  1  0.750000  0.010768  0.668133  1
  Ho  Ho4  1  0.750000  0.510367  0.832042  1
  Tm  Tm5  1  0.250000  0.856313  0.920221  1
  Tm  Tm6  1  0.250000  0.356003  0.579970  1
  Tm  Tm7  1  0.750000  0.143675  0.079752  1
  Pt  Pt8  1  0.250000  0.256946  0.907557  1
  Pt  Pt9  1  0.250000  0.757260  0.592888  1
  Pt  Pt10  1  0.750000  0.743143  0.092003  1
  Pt  Pt11  1  0.750000  0.242551  0.407628  1
