# generated using pymatgen
data_Mg3ZnCo10(SiB2)2
_symmetry_space_group_name_H-M   'P 1'
_cell_length_a   8.72921378
_cell_length_b   8.72921378
_cell_length_c   2.74328000
_cell_angle_alpha   90.00000000
_cell_angle_beta   90.00000000
_cell_angle_gamma   89.54510942
_symmetry_Int_Tables_number   1
_chemical_formula_structural   Mg3ZnCo10(SiB2)2
_chemical_formula_sum   'Mg3 Zn1 Co10 Si2 B4'
_cell_volume   209.02907979
_cell_formula_units_Z   1
loop_
 _symmetry_equiv_pos_site_id
 _symmetry_equiv_pos_as_xyz
  1  'x, y, z'
loop_
 _atom_site_type_symbol
 _atom_site_label
 _atom_site_symmetry_multiplicity
 _atom_site_fract_x
 _atom_site_fract_y
 _atom_site_fract_z
 _atom_site_occupancy
  Mg  Mg0  1  0.823607  0.324528  0.000000  1
  Mg  Mg1  1  0.175472  0.676393  0.000000  1
  Mg  Mg2  1  0.326488  0.173512  0.000000  1
  Zn  Zn3  1  0.677348  0.822652  0.000000  1
  Co  Co4  1  0.505459  0.994541  0.500000  1
  Co  Co5  1  0.568995  0.285619  0.500000  1
  Co  Co6  1  0.710148  0.573988  0.500000  1
  Co  Co7  1  0.285765  0.431215  0.500000  1
  Co  Co8  1  0.214381  0.931005  0.500000  1
  Co  Co9  1  0.998417  0.501583  0.500000  1
  Co  Co10  1  0.068785  0.214235  0.500000  1
  Co  Co11  1  0.785945  0.064311  0.500000  1
  Co  Co12  1  0.926012  0.789852  0.500000  1
  Co  Co13  1  0.435689  0.714055  0.500000  1
  Si  Si14  1  0.498381  0.497840  0.000000  1
  Si  Si15  1  0.002160  0.001619  0.000000  1
  B  B16  1  0.376026  0.877324  0.000000  1
  B  B17  1  0.122604  0.377396  0.000000  1
  B  B18  1  0.875642  0.624358  0.000000  1
  B  B19  1  0.622676  0.123974  0.000000  1
