# generated using pymatgen
data_Cs4Zn3Si4As8Pb
_symmetry_space_group_name_H-M   'P 1'
_cell_length_a   8.92523109
_cell_length_b   8.84074185
_cell_length_c   8.59815631
_cell_angle_alpha   67.86309743
_cell_angle_beta   75.24486555
_cell_angle_gamma   71.42203601
_symmetry_Int_Tables_number   1
_chemical_formula_structural   Cs4Zn3Si4As8Pb
_chemical_formula_sum   'Cs4 Zn3 Si4 As8 Pb1'
_cell_volume   588.64067537
_cell_formula_units_Z   1
loop_
 _symmetry_equiv_pos_site_id
 _symmetry_equiv_pos_as_xyz
  1  'x, y, z'
loop_
 _atom_site_type_symbol
 _atom_site_label
 _atom_site_symmetry_multiplicity
 _atom_site_fract_x
 _atom_site_fract_y
 _atom_site_fract_z
 _atom_site_occupancy
  Cs  Cs0  1  0.457260  0.770028  0.309351  1
  Cs  Cs1  1  0.546093  0.235096  0.686234  1
  Cs  Cs2  1  0.433171  0.799942  0.814693  1
  Cs  Cs3  1  0.563432  0.213930  0.188757  1
  Zn  Zn4  1  0.994829  0.884282  0.673375  1
  Zn  Zn5  1  0.013168  0.113933  0.319483  1
  Zn  Zn6  1  0.950279  0.802086  0.161091  1
  Si  Si7  1  0.973896  0.590311  0.583603  1
  Si  Si8  1  0.035684  0.415189  0.407380  1
  Si  Si9  1  0.141026  0.458263  0.977063  1
  Si  Si10  1  0.863071  0.548326  0.017891  1
  As  As11  1  0.847815  0.878503  0.431376  1
  As  As12  1  0.161704  0.126688  0.551610  1
  As  As13  1  0.805950  0.399725  0.315908  1
  As  As14  1  0.201706  0.603014  0.679461  1
  As  As15  1  0.784407  0.845836  0.944240  1
  As  As16  1  0.227809  0.161380  0.057019  1
  As  As17  1  0.791620  0.460944  0.818126  1
  As  As18  1  0.203083  0.562622  0.169839  1
  Pb  Pb19  1  0.004000  0.129906  0.893500  1
