# generated using pymatgen
data_Ho2PaAl2GaIr3
_symmetry_space_group_name_H-M   'P 1'
_cell_length_a   7.10064877
_cell_length_b   7.10295369
_cell_length_c   3.94440100
_cell_angle_alpha   90.00000000
_cell_angle_beta   90.00000000
_cell_angle_gamma   119.14910450
_symmetry_Int_Tables_number   1
_chemical_formula_structural   Ho2PaAl2GaIr3
_chemical_formula_sum   'Ho2 Pa1 Al2 Ga1 Ir3'
_cell_volume   173.74364669
_cell_formula_units_Z   1
loop_
 _symmetry_equiv_pos_site_id
 _symmetry_equiv_pos_as_xyz
  1  'x, y, z'
loop_
 _atom_site_type_symbol
 _atom_site_label
 _atom_site_symmetry_multiplicity
 _atom_site_fract_x
 _atom_site_fract_y
 _atom_site_fract_z
 _atom_site_occupancy
  Ho  Ho0  1  0.419009  0.005219  0.000000  1
  Ho  Ho1  1  0.000625  0.409425  0.000000  1
  Pa  Pa2  1  0.579398  0.583766  0.000000  1
  Al  Al3  1  0.009383  0.758378  0.500000  1
  Al  Al4  1  0.229550  0.225749  0.500000  1
  Ga  Ga5  1  0.753711  0.009815  0.500000  1
  Ir  Ir6  1  0.994564  0.987002  0.000000  1
  Ir  Ir7  1  0.664932  0.361848  0.500000  1
  Ir  Ir8  1  0.348829  0.658797  0.500000  1
