# generated using pymatgen
data_Zr6Al6GaPt5
_symmetry_space_group_name_H-M   'P 1'
_cell_length_a   6.80358300
_cell_length_b   6.80358350
_cell_length_c   8.10522400
_cell_angle_alpha   90.00000000
_cell_angle_beta   90.00000000
_cell_angle_gamma   120.00000245
_symmetry_Int_Tables_number   1
_chemical_formula_structural   Zr6Al6GaPt5
_chemical_formula_sum   'Zr6 Al6 Ga1 Pt5'
_cell_volume   324.91596336
_cell_formula_units_Z   1
loop_
 _symmetry_equiv_pos_site_id
 _symmetry_equiv_pos_as_xyz
  1  'x, y, z'
loop_
 _atom_site_type_symbol
 _atom_site_label
 _atom_site_symmetry_multiplicity
 _atom_site_fract_x
 _atom_site_fract_y
 _atom_site_fract_z
 _atom_site_occupancy
  Zr  Zr0  1  0.000066  0.583147  0.755443  1
  Zr  Zr1  1  0.999441  0.582909  0.244403  1
  Zr  Zr2  1  0.583468  0.000559  0.244403  1
  Zr  Zr3  1  0.583081  0.999934  0.755443  1
  Zr  Zr4  1  0.417091  0.416532  0.244403  1
  Zr  Zr5  1  0.416853  0.416919  0.755443  1
  Al  Al6  1  0.989925  0.240216  0.500113  1
  Al  Al7  1  0.753744  0.753195  0.000096  1
  Al  Al8  1  0.999451  0.246256  0.000096  1
  Al  Al9  1  0.250291  0.010075  0.500113  1
  Al  Al10  1  0.246805  0.000549  0.000096  1
  Al  Al11  1  0.759784  0.749709  0.500113  1
  Ga  Ga12  1  0.333333  0.666667  0.499600  1
  Pt  Pt13  1  0.666667  0.333333  0.500175  1
  Pt  Pt14  1  0.666667  0.333333  0.998924  1
  Pt  Pt15  1  0.000000  0.000000  0.251099  1
  Pt  Pt16  1  0.000000  0.000000  0.749156  1
  Pt  Pt17  1  0.333333  0.666667  0.000880  1
