# generated using pymatgen
data_Pr3Nd3Co16(TcP6)2
_symmetry_space_group_name_H-M   'P 1'
_cell_length_a   3.79185400
_cell_length_b   10.70769301
_cell_length_c   12.48183301
_cell_angle_alpha   90.00541050
_cell_angle_beta   90.00000000
_cell_angle_gamma   90.00000000
_symmetry_Int_Tables_number   1
_chemical_formula_structural   Pr3Nd3Co16(TcP6)2
_chemical_formula_sum   'Pr3 Nd3 Co16 Tc2 P12'
_cell_volume   506.78748884
_cell_formula_units_Z   1
loop_
 _symmetry_equiv_pos_site_id
 _symmetry_equiv_pos_as_xyz
  1  'x, y, z'
loop_
 _atom_site_type_symbol
 _atom_site_label
 _atom_site_symmetry_multiplicity
 _atom_site_fract_x
 _atom_site_fract_y
 _atom_site_fract_z
 _atom_site_occupancy
  Pr  Pr0  1  0.000000  0.499912  0.522405  1
  Pr  Pr1  1  0.500000  0.000138  0.477579  1
  Pr  Pr2  1  0.500000  0.817442  0.205895  1
  Nd  Nd3  1  0.500000  0.182920  0.205839  1
  Nd  Nd4  1  0.000000  0.682744  0.794234  1
  Nd  Nd5  1  0.000000  0.317167  0.794171  1
  Co  Co6  1  0.500000  0.499971  0.705560  1
  Co  Co7  1  0.000000  0.000542  0.294647  1
  Co  Co8  1  0.000000  0.499768  0.988208  1
  Co  Co9  1  0.500000  0.000202  0.011434  1
  Co  Co10  1  0.500000  0.332072  0.991757  1
  Co  Co11  1  0.500000  0.667725  0.991578  1
  Co  Co12  1  0.000000  0.168120  0.008147  1
  Co  Co13  1  0.000000  0.832122  0.007890  1
  Co  Co14  1  0.500000  0.296417  0.430240  1
  Co  Co15  1  0.500000  0.703455  0.430557  1
  Co  Co16  1  0.000000  0.203595  0.569776  1
  Co  Co17  1  0.000000  0.796425  0.569882  1
  Co  Co18  1  0.500000  0.881512  0.709954  1
  Co  Co19  1  0.500000  0.118548  0.709906  1
  Co  Co20  1  0.000000  0.618107  0.290280  1
  Co  Co21  1  0.000000  0.381354  0.290069  1
  Tc  Tc22  1  0.500000  0.499825  0.154563  1
  Tc  Tc23  1  0.000000  0.000028  0.845346  1
  P  P24  1  0.500000  0.499931  0.886097  1
  P  P25  1  0.000000  0.000517  0.113505  1
  P  P26  1  0.500000  0.500010  0.342782  1
  P  P27  1  0.000000  0.999993  0.657227  1
  P  P28  1  0.500000  0.306325  0.614330  1
  P  P29  1  0.500000  0.693622  0.614453  1
  P  P30  1  0.000000  0.193738  0.385650  1
  P  P31  1  0.000000  0.806158  0.386343  1
  P  P32  1  0.500000  0.847998  0.895418  1
  P  P33  1  0.500000  0.152094  0.895273  1
  P  P34  1  0.000000  0.651555  0.104297  1
  P  P35  1  0.000000  0.347946  0.104710  1
