# generated using pymatgen
data_Ca3TaAl3(SiO7)2
_symmetry_space_group_name_H-M   'P 1'
_cell_length_a   8.11063800
_cell_length_b   8.11063702
_cell_length_c   4.95707400
_cell_angle_alpha   90.00000000
_cell_angle_beta   90.00000000
_cell_angle_gamma   119.99999582
_symmetry_Int_Tables_number   1
_chemical_formula_structural   Ca3TaAl3(SiO7)2
_chemical_formula_sum   'Ca3 Ta1 Al3 Si2 O14'
_cell_volume   282.40087375
_cell_formula_units_Z   1
loop_
 _symmetry_equiv_pos_site_id
 _symmetry_equiv_pos_as_xyz
  1  'x, y, z'
loop_
 _atom_site_type_symbol
 _atom_site_label
 _atom_site_symmetry_multiplicity
 _atom_site_fract_x
 _atom_site_fract_y
 _atom_site_fract_z
 _atom_site_occupancy
  Ca  Ca0  1  0.000000  0.421484  0.000000  1
  Ca  Ca1  1  0.578516  0.578516  0.000000  1
  Ca  Ca2  1  0.421484  0.000000  0.000000  1
  Ta  Ta3  1  0.000000  0.000000  0.000000  1
  Al  Al4  1  0.257941  0.257941  0.500000  1
  Al  Al5  1  0.742059  0.000000  0.500000  1
  Al  Al6  1  0.000000  0.742059  0.500000  1
  Si  Si7  1  0.333333  0.666667  0.543936  1
  Si  Si8  1  0.666667  0.333333  0.456064  1
  O  O9  1  0.092723  0.226886  0.240928  1
  O  O10  1  0.773114  0.865837  0.240928  1
  O  O11  1  0.134163  0.907277  0.240928  1
  O  O12  1  0.865837  0.773114  0.759072  1
  O  O13  1  0.907277  0.134163  0.759072  1
  O  O14  1  0.226886  0.092723  0.759072  1
  O  O15  1  0.317857  0.472352  0.680383  1
  O  O16  1  0.527648  0.845505  0.680383  1
  O  O17  1  0.154495  0.682143  0.680383  1
  O  O18  1  0.333333  0.666667  0.218616  1
  O  O19  1  0.666667  0.333333  0.781384  1
  O  O20  1  0.472352  0.317857  0.319617  1
  O  O21  1  0.682143  0.154495  0.319617  1
  O  O22  1  0.845505  0.527648  0.319617  1
