# generated using pymatgen
data_Gd12AlIn(FeSi)2
_symmetry_space_group_name_H-M   'P 1'
_cell_length_a   8.64129930
_cell_length_b   8.64130067
_cell_length_c   8.64129900
_cell_angle_alpha   113.32552513
_cell_angle_beta   110.99142995
_cell_angle_gamma   104.23012427
_symmetry_Int_Tables_number   1
_chemical_formula_structural   Gd12AlIn(FeSi)2
_chemical_formula_sum   'Gd12 Al1 In1 Fe2 Si2'
_cell_volume   493.41870380
_cell_formula_units_Z   1
loop_
 _symmetry_equiv_pos_site_id
 _symmetry_equiv_pos_as_xyz
  1  'x, y, z'
loop_
 _atom_site_type_symbol
 _atom_site_label
 _atom_site_symmetry_multiplicity
 _atom_site_fract_x
 _atom_site_fract_y
 _atom_site_fract_z
 _atom_site_occupancy
  Gd  Gd0  1  0.435357  0.236053  0.199304  1
  Gd  Gd1  1  0.564643  0.763947  0.800696  1
  Gd  Gd2  1  0.036749  0.236053  0.800696  1
  Gd  Gd3  1  0.963251  0.763947  0.199304  1
  Gd  Gd4  1  0.186103  0.284110  0.470213  1
  Gd  Gd5  1  0.813897  0.715890  0.529787  1
  Gd  Gd6  1  0.186103  0.715890  0.901991  1
  Gd  Gd7  1  0.813897  0.284110  0.098009  1
  Gd  Gd8  1  0.305723  0.616537  0.310814  1
  Gd  Gd9  1  0.694277  0.383463  0.689186  1
  Gd  Gd10  1  0.305723  0.994909  0.689186  1
  Gd  Gd11  1  0.694277  0.005091  0.310814  1
  Al  Al12  1  0.000000  0.000000  0.000000  1
  In  In13  1  0.500000  0.500000  0.000000  1
  Fe  Fe14  1  0.102632  0.602632  0.500000  1
  Fe  Fe15  1  0.897368  0.397368  0.500000  1
  Si  Si16  1  0.365286  0.000000  0.365286  1
  Si  Si17  1  0.634714  0.000000  0.634714  1
