# generated using pymatgen
data_TbHf(GaPt)2
_symmetry_space_group_name_H-M   'P 1'
_cell_length_a   7.27113300
_cell_length_b   7.27113248
_cell_length_c   7.39546600
_cell_angle_alpha   90.00000000
_cell_angle_beta   90.00000000
_cell_angle_gamma   120.00000693
_symmetry_Int_Tables_number   1
_chemical_formula_structural   TbHf(GaPt)2
_chemical_formula_sum   'Tb3 Hf3 Ga6 Pt6'
_cell_volume   338.61039951
_cell_formula_units_Z   3
loop_
 _symmetry_equiv_pos_site_id
 _symmetry_equiv_pos_as_xyz
  1  'x, y, z'
loop_
 _atom_site_type_symbol
 _atom_site_label
 _atom_site_symmetry_multiplicity
 _atom_site_fract_x
 _atom_site_fract_y
 _atom_site_fract_z
 _atom_site_occupancy
  Tb  Tb0  1  0.409600  0.409192  0.250000  1
  Tb  Tb1  1  0.999592  0.590400  0.250000  1
  Tb  Tb2  1  0.590808  0.000408  0.250000  1
  Hf  Hf3  1  0.609543  0.998592  0.750000  1
  Hf  Hf4  1  0.389049  0.390457  0.750000  1
  Hf  Hf5  1  0.001408  0.610951  0.750000  1
  Ga  Ga6  1  0.263387  0.001333  0.990226  1
  Ga  Ga7  1  0.263387  0.001333  0.509774  1
  Ga  Ga8  1  0.998667  0.262054  0.509774  1
  Ga  Ga9  1  0.998667  0.262054  0.990226  1
  Ga  Ga10  1  0.737946  0.736613  0.990226  1
  Ga  Ga11  1  0.737946  0.736613  0.509774  1
  Pt  Pt12  1  0.666667  0.333333  0.533060  1
  Pt  Pt13  1  0.000000  0.000000  0.750000  1
  Pt  Pt14  1  0.666667  0.333333  0.966940  1
  Pt  Pt15  1  0.333333  0.666667  0.969251  1
  Pt  Pt16  1  0.333333  0.666667  0.530749  1
  Pt  Pt17  1  0.000000  0.000000  0.250000  1
