# generated using pymatgen
data_Tb4Ho5TmRu4
_symmetry_space_group_name_H-M   'P 1'
_cell_length_a   6.33765545
_cell_length_b   7.27807996
_cell_length_c   8.45813619
_cell_angle_alpha   96.70137403
_cell_angle_beta   112.00259695
_cell_angle_gamma   90.00000270
_symmetry_Int_Tables_number   1
_chemical_formula_structural   Tb4Ho5TmRu4
_chemical_formula_sum   'Tb4 Ho5 Tm1 Ru4'
_cell_volume   358.84808957
_cell_formula_units_Z   1
loop_
 _symmetry_equiv_pos_site_id
 _symmetry_equiv_pos_as_xyz
  1  'x, y, z'
loop_
 _atom_site_type_symbol
 _atom_site_label
 _atom_site_symmetry_multiplicity
 _atom_site_fract_x
 _atom_site_fract_y
 _atom_site_fract_z
 _atom_site_occupancy
  Tb  Tb0  1  0.790678  0.083677  0.813253  1
  Tb  Tb1  1  0.977424  0.416323  0.186747  1
  Tb  Tb2  1  0.208991  0.915600  0.186671  1
  Tb  Tb3  1  0.022320  0.584400  0.813329  1
  Ho  Ho4  1  0.206140  0.184543  0.565751  1
  Ho  Ho5  1  0.640389  0.315457  0.434249  1
  Ho  Ho6  1  0.793767  0.815214  0.433816  1
  Ho  Ho7  1  0.359952  0.684786  0.566184  1
  Ho  Ho8  1  0.419706  0.250000  0.000000  1
  Tm  Tm9  1  0.579572  0.750000  0.000000  1
  Ru  Ru10  1  0.602618  0.424510  0.780064  1
  Ru  Ru11  1  0.822553  0.075490  0.219936  1
  Ru  Ru12  1  0.398017  0.576513  0.220143  1
  Ru  Ru13  1  0.177875  0.923487  0.779857  1
