# generated using pymatgen
data_ErAl3Pt8
_symmetry_space_group_name_H-M   'P 1'
_cell_length_a   16.59467800
_cell_length_b   4.04360400
_cell_length_c   5.63314900
_cell_angle_alpha   90.00000000
_cell_angle_beta   90.00000000
_cell_angle_gamma   90.00000000
_symmetry_Int_Tables_number   1
_chemical_formula_structural   ErAl3Pt8
_chemical_formula_sum   'Er2 Al6 Pt16'
_cell_volume   377.99728985
_cell_formula_units_Z   2
loop_
 _symmetry_equiv_pos_site_id
 _symmetry_equiv_pos_as_xyz
  1  'x, y, z'
loop_
 _atom_site_type_symbol
 _atom_site_label
 _atom_site_symmetry_multiplicity
 _atom_site_fract_x
 _atom_site_fract_y
 _atom_site_fract_z
 _atom_site_occupancy
  Er  Er0  1  0.250000  0.000000  0.797719  1
  Er  Er1  1  0.750000  0.000000  0.202282  1
  Al  Al2  1  0.091459  0.000000  0.311230  1
  Al  Al3  1  0.408541  0.000000  0.311230  1
  Al  Al4  1  0.591459  0.000000  0.688770  1
  Al  Al5  1  0.908540  0.000000  0.688770  1
  Al  Al6  1  0.000000  0.499999  0.000000  1
  Al  Al7  1  0.500000  0.499999  0.000000  1
  Pt  Pt8  1  0.250000  0.000000  0.288449  1
  Pt  Pt9  1  0.750000  0.000000  0.711552  1
  Pt  Pt10  1  0.164033  0.499999  0.544606  1
  Pt  Pt11  1  0.335967  0.499999  0.544606  1
  Pt  Pt12  1  0.664032  0.499999  0.455393  1
  Pt  Pt13  1  0.835968  0.499999  0.455393  1
  Pt  Pt14  1  0.153718  0.499999  0.052320  1
  Pt  Pt15  1  0.346283  0.499999  0.052320  1
  Pt  Pt16  1  0.653718  0.499999  0.947679  1
  Pt  Pt17  1  0.846283  0.499999  0.947679  1
  Pt  Pt18  1  0.000000  0.499999  0.499999  1
  Pt  Pt19  1  0.500000  0.499999  0.499999  1
  Pt  Pt20  1  0.066225  0.000000  0.795823  1
  Pt  Pt21  1  0.433775  0.000000  0.795823  1
  Pt  Pt22  1  0.566224  0.000000  0.204177  1
  Pt  Pt23  1  0.933775  0.000000  0.204177  1
