# generated using pymatgen
data_Y20Ir5Pt3Rh4
_symmetry_space_group_name_H-M   'P 1'
_cell_length_a   10.99717894
_cell_length_b   10.99717879
_cell_length_c   6.39960700
_cell_angle_alpha   89.98127834
_cell_angle_beta   89.98127697
_cell_angle_gamma   90.19128121
_symmetry_Int_Tables_number   1
_chemical_formula_structural   Y20Ir5Pt3Rh4
_chemical_formula_sum   'Y20 Ir5 Pt3 Rh4'
_cell_volume   773.95091030
_cell_formula_units_Z   1
loop_
 _symmetry_equiv_pos_site_id
 _symmetry_equiv_pos_as_xyz
  1  'x, y, z'
loop_
 _atom_site_type_symbol
 _atom_site_label
 _atom_site_symmetry_multiplicity
 _atom_site_fract_x
 _atom_site_fract_y
 _atom_site_fract_z
 _atom_site_occupancy
  Y  Y0  1  0.292588  0.087797  0.377922  1
  Y  Y1  1  0.291930  0.907480  0.882685  1
  Y  Y2  1  0.705985  0.091160  0.879552  1
  Y  Y3  1  0.705263  0.908549  0.378650  1
  Y  Y4  1  0.586502  0.789910  0.883666  1
  Y  Y5  1  0.586430  0.209630  0.383237  1
  Y  Y6  1  0.409566  0.790422  0.383535  1
  Y  Y7  1  0.412720  0.209570  0.883079  1
  Y  Y8  1  0.210090  0.413498  0.616334  1
  Y  Y9  1  0.209578  0.590434  0.116465  1
  Y  Y10  1  0.790370  0.413570  0.116763  1
  Y  Y11  1  0.790430  0.587280  0.616921  1
  Y  Y12  1  0.912203  0.707412  0.122078  1
  Y  Y13  1  0.908840  0.294015  0.620448  1
  Y  Y14  1  0.092520  0.708070  0.617315  1
  Y  Y15  1  0.091451  0.294737  0.121350  1
  Y  Y16  1  0.000547  0.998336  0.499409  1
  Y  Y17  1  0.001664  0.999453  0.000591  1
  Y  Y18  1  0.499701  0.499440  0.000436  1
  Y  Y19  1  0.500560  0.500299  0.499564  1
  Ir  Ir20  1  0.152430  0.847570  0.250000  1
  Ir  Ir21  1  0.655025  0.344975  0.750000  1
  Ir  Ir22  1  0.655936  0.654734  0.249225  1
  Ir  Ir23  1  0.345266  0.344064  0.250775  1
  Ir  Ir24  1  0.346095  0.653905  0.750000  1
  Pt  Pt25  1  0.846477  0.153523  0.250000  1
  Pt  Pt26  1  0.845141  0.846319  0.750366  1
  Pt  Pt27  1  0.153681  0.154859  0.749634  1
  Rh  Rh28  1  0.500508  0.999929  0.129588  1
  Rh  Rh29  1  0.500524  0.000093  0.631035  1
  Rh  Rh30  1  0.999907  0.499476  0.868965  1
  Rh  Rh31  1  0.000071  0.499492  0.370412  1
