# generated using pymatgen
data_Dy3Th(HgPd2)2
_symmetry_space_group_name_H-M   'P 1'
_cell_length_a   7.81346000
_cell_length_b   7.81345987
_cell_length_c   3.74427800
_cell_angle_alpha   90.00000000
_cell_angle_beta   90.00000000
_cell_angle_gamma   90.87727614
_symmetry_Int_Tables_number   1
_chemical_formula_structural   Dy3Th(HgPd2)2
_chemical_formula_sum   'Dy3 Th1 Hg2 Pd4'
_cell_volume   228.56196211
_cell_formula_units_Z   1
loop_
 _symmetry_equiv_pos_site_id
 _symmetry_equiv_pos_as_xyz
  1  'x, y, z'
loop_
 _atom_site_type_symbol
 _atom_site_label
 _atom_site_symmetry_multiplicity
 _atom_site_fract_x
 _atom_site_fract_y
 _atom_site_fract_z
 _atom_site_occupancy
  Dy  Dy0  1  0.825248  0.669936  0.500000  1
  Dy  Dy1  1  0.169936  0.325248  0.500000  1
  Dy  Dy2  1  0.675663  0.175663  0.500000  1
  Th  Th3  1  0.328662  0.828662  0.500000  1
  Hg  Hg4  1  0.994290  0.002582  0.000000  1
  Hg  Hg5  1  0.502582  0.494290  0.000000  1
  Pd  Pd6  1  0.372415  0.126592  0.000000  1
  Pd  Pd7  1  0.874792  0.374792  0.000000  1
  Pd  Pd8  1  0.129821  0.629821  0.000000  1
  Pd  Pd9  1  0.626592  0.872415  0.000000  1
