# generated using pymatgen
data_Rb4Na2TbYSb4
_symmetry_space_group_name_H-M   'P 1'
_cell_length_a   11.37395421
_cell_length_b   11.37395468
_cell_length_c   7.49229300
_cell_angle_alpha   90.00000000
_cell_angle_beta   90.00000000
_cell_angle_gamma   98.23010712
_symmetry_Int_Tables_number   1
_chemical_formula_structural   Rb4Na2TbYSb4
_chemical_formula_sum   'Rb8 Na4 Tb2 Y2 Sb8'
_cell_volume   959.27206104
_cell_formula_units_Z   2
loop_
 _symmetry_equiv_pos_site_id
 _symmetry_equiv_pos_as_xyz
  1  'x, y, z'
loop_
 _atom_site_type_symbol
 _atom_site_label
 _atom_site_symmetry_multiplicity
 _atom_site_fract_x
 _atom_site_fract_y
 _atom_site_fract_z
 _atom_site_occupancy
  Rb  Rb0  1  0.070232  0.429768  0.250000  1
  Rb  Rb1  1  0.429768  0.070232  0.750000  1
  Rb  Rb2  1  0.929782  0.570218  0.750000  1
  Rb  Rb3  1  0.570218  0.929782  0.250000  1
  Rb  Rb4  1  0.676819  0.323180  0.215028  1
  Rb  Rb5  1  0.823181  0.176820  0.715028  1
  Rb  Rb6  1  0.323180  0.676819  0.784972  1
  Rb  Rb7  1  0.176820  0.823181  0.284972  1
  Na  Na8  1  0.382084  0.382084  0.000000  1
  Na  Na9  1  0.117916  0.117916  0.500000  1
  Na  Na10  1  0.617927  0.617927  0.000000  1
  Na  Na11  1  0.882073  0.882073  0.500000  1
  Tb  Tb12  1  0.131117  0.131117  0.000000  1
  Tb  Tb13  1  0.368883  0.368883  0.500000  1
  Y  Y14  1  0.868888  0.868888  0.000000  1
  Y  Y15  1  0.631112  0.631112  0.500000  1
  Sb  Sb16  1  0.846942  0.653057  0.250000  1
  Sb  Sb17  1  0.653057  0.846942  0.750000  1
  Sb  Sb18  1  0.152929  0.347070  0.750000  1
  Sb  Sb19  1  0.347070  0.152929  0.250000  1
  Sb  Sb20  1  0.899611  0.100258  0.212069  1
  Sb  Sb21  1  0.600389  0.399742  0.712069  1
  Sb  Sb22  1  0.100258  0.899611  0.787931  1
  Sb  Sb23  1  0.399742  0.600389  0.287931  1
