# generated using pymatgen
data_Nb2AlFe5B2
_symmetry_space_group_name_H-M   'P 1'
_cell_length_a   8.69238200
_cell_length_b   8.69238200
_cell_length_c   2.93198600
_cell_angle_alpha   90.00000000
_cell_angle_beta   90.00000000
_cell_angle_gamma   90.00000000
_symmetry_Int_Tables_number   1
_chemical_formula_structural   Nb2AlFe5B2
_chemical_formula_sum   'Nb4 Al2 Fe10 B4'
_cell_volume   221.53354637
_cell_formula_units_Z   2
loop_
 _symmetry_equiv_pos_site_id
 _symmetry_equiv_pos_as_xyz
  1  'x, y, z'
loop_
 _atom_site_type_symbol
 _atom_site_label
 _atom_site_symmetry_multiplicity
 _atom_site_fract_x
 _atom_site_fract_y
 _atom_site_fract_z
 _atom_site_occupancy
  Nb  Nb0  1  0.823063  0.676937  0.000000  1
  Nb  Nb1  1  0.176937  0.323063  0.000000  1
  Nb  Nb2  1  0.323063  0.823063  0.000000  1
  Nb  Nb3  1  0.676937  0.176937  0.000000  1
  Al  Al4  1  0.500000  0.500000  0.000000  1
  Al  Al5  1  0.000000  0.000000  0.000000  1
  Fe  Fe6  1  0.568039  0.719858  0.500000  1
  Fe  Fe7  1  0.431961  0.280142  0.500000  1
  Fe  Fe8  1  0.068039  0.780142  0.500000  1
  Fe  Fe9  1  0.931961  0.219858  0.500000  1
  Fe  Fe10  1  0.280142  0.568039  0.500000  1
  Fe  Fe11  1  0.719858  0.431961  0.500000  1
  Fe  Fe12  1  0.219858  0.068039  0.500000  1
  Fe  Fe13  1  0.780142  0.931961  0.500000  1
  Fe  Fe14  1  0.500000  0.000000  0.500000  1
  Fe  Fe15  1  0.000000  0.500000  0.500000  1
  B  B16  1  0.621903  0.878097  0.000000  1
  B  B17  1  0.378097  0.121903  0.000000  1
  B  B18  1  0.121903  0.621903  0.000000  1
  B  B19  1  0.878097  0.378097  0.000000  1
