# generated using pymatgen
data_Zr3BeGa4Cu3
_symmetry_space_group_name_H-M   'P 1'
_cell_length_a   7.65364164
_cell_length_b   7.69969506
_cell_length_c   7.69969437
_cell_angle_alpha   149.58848914
_cell_angle_beta   130.71240332
_cell_angle_gamma   59.07960577
_symmetry_Int_Tables_number   1
_chemical_formula_structural   Zr3BeGa4Cu3
_chemical_formula_sum   'Zr3 Be1 Ga4 Cu3'
_cell_volume   172.69752102
_cell_formula_units_Z   1
loop_
 _symmetry_equiv_pos_site_id
 _symmetry_equiv_pos_as_xyz
  1  'x, y, z'
loop_
 _atom_site_type_symbol
 _atom_site_label
 _atom_site_symmetry_multiplicity
 _atom_site_fract_x
 _atom_site_fract_y
 _atom_site_fract_z
 _atom_site_occupancy
  Zr  Zr0  1  0.849768  0.872603  0.977165  1
  Zr  Zr1  1  0.143775  0.124971  0.018805  1
  Zr  Zr2  1  0.495555  0.998788  0.496767  1
  Be  Be3  1  0.514764  0.344980  0.169782  1
  Ga  Ga4  1  0.806969  0.506155  0.300814  1
  Ga  Ga5  1  0.179596  0.489392  0.690204  1
  Ga  Ga6  1  0.315937  0.784596  0.531341  1
  Ga  Ga7  1  0.697306  0.219763  0.477543  1
  Cu  Cu8  1  0.887692  0.682644  0.205047  1
  Cu  Cu9  1  0.131121  0.318957  0.812164  1
  Cu  Cu10  1  0.477516  0.657150  0.820367  1
