# generated using pymatgen
data_Sr2(CaAu2)3
_symmetry_space_group_name_H-M   'P 1'
_cell_length_a   16.10057400
_cell_length_b   16.10057382
_cell_length_c   4.26495900
_cell_angle_alpha   90.00000000
_cell_angle_beta   90.00000000
_cell_angle_gamma   164.59147650
_symmetry_Int_Tables_number   1
_chemical_formula_structural   Sr2(CaAu2)3
_chemical_formula_sum   'Sr2 Ca3 Au6'
_cell_volume   293.75709920
_cell_formula_units_Z   1
loop_
 _symmetry_equiv_pos_site_id
 _symmetry_equiv_pos_as_xyz
  1  'x, y, z'
loop_
 _atom_site_type_symbol
 _atom_site_label
 _atom_site_symmetry_multiplicity
 _atom_site_fract_x
 _atom_site_fract_y
 _atom_site_fract_z
 _atom_site_occupancy
  Sr  Sr0  1  0.000924  0.999076  0.000000  1
  Sr  Sr1  1  0.801903  0.198096  0.500000  1
  Ca  Ca2  1  0.618496  0.381504  0.000000  1
  Ca  Ca3  1  0.383048  0.616952  0.000000  1
  Ca  Ca4  1  0.196492  0.803507  0.500000  1
  Au  Au5  1  0.715495  0.284505  0.000000  1
  Au  Au6  1  0.278571  0.721429  0.000000  1
  Au  Au7  1  0.900899  0.099101  0.500000  1
  Au  Au8  1  0.544754  0.455245  0.500000  1
  Au  Au9  1  0.457531  0.542468  0.500000  1
  Au  Au10  1  0.101885  0.898115  0.500000  1
