# generated using pymatgen
data_Nd7Lu3(Pb3Cl)2
_symmetry_space_group_name_H-M   'P 1'
_cell_length_a   9.41245700
_cell_length_b   9.41245649
_cell_length_c   6.70473900
_cell_angle_alpha   90.00000000
_cell_angle_beta   90.00000000
_cell_angle_gamma   120.00000530
_symmetry_Int_Tables_number   1
_chemical_formula_structural   Nd7Lu3(Pb3Cl)2
_chemical_formula_sum   'Nd7 Lu3 Pb6 Cl2'
_cell_volume   514.42074250
_cell_formula_units_Z   1
loop_
 _symmetry_equiv_pos_site_id
 _symmetry_equiv_pos_as_xyz
  1  'x, y, z'
loop_
 _atom_site_type_symbol
 _atom_site_label
 _atom_site_symmetry_multiplicity
 _atom_site_fract_x
 _atom_site_fract_y
 _atom_site_fract_z
 _atom_site_occupancy
  Nd  Nd0  1  0.260458  0.000335  0.249254  1
  Nd  Nd1  1  0.739877  0.000335  0.750746  1
  Nd  Nd2  1  0.999665  0.260123  0.249254  1
  Nd  Nd3  1  0.999665  0.739542  0.750746  1
  Nd  Nd4  1  0.739877  0.739542  0.249254  1
  Nd  Nd5  1  0.260458  0.260123  0.750746  1
  Nd  Nd6  1  0.333333  0.666667  0.500000  1
  Lu  Lu7  1  0.333333  0.666667  0.000000  1
  Lu  Lu8  1  0.666667  0.333333  0.000000  1
  Lu  Lu9  1  0.666667  0.333333  0.500000  1
  Pb  Pb10  1  0.609610  0.002968  0.248129  1
  Pb  Pb11  1  0.393357  0.002968  0.751871  1
  Pb  Pb12  1  0.997032  0.606643  0.248129  1
  Pb  Pb13  1  0.997032  0.390390  0.751871  1
  Pb  Pb14  1  0.393357  0.390390  0.248129  1
  Pb  Pb15  1  0.609610  0.606643  0.751871  1
  Cl  Cl16  1  0.000000  0.000000  0.000000  1
  Cl  Cl17  1  0.000000  0.000000  0.500000  1
