# generated using pymatgen
data_Ca20PdRh3
_symmetry_space_group_name_H-M   'P 1'
_cell_length_a   6.85060976
_cell_length_b   7.51628484
_cell_length_c   16.18091900
_cell_angle_alpha   90.00000000
_cell_angle_beta   90.00000000
_cell_angle_gamma   89.94587562
_symmetry_Int_Tables_number   1
_chemical_formula_structural   Ca20PdRh3
_chemical_formula_sum   'Ca20 Pd1 Rh3'
_cell_volume   833.17350165
_cell_formula_units_Z   1
loop_
 _symmetry_equiv_pos_site_id
 _symmetry_equiv_pos_as_xyz
  1  'x, y, z'
loop_
 _atom_site_type_symbol
 _atom_site_label
 _atom_site_symmetry_multiplicity
 _atom_site_fract_x
 _atom_site_fract_y
 _atom_site_fract_z
 _atom_site_occupancy
  Ca  Ca0  1  0.351751  0.309574  0.060317  1
  Ca  Ca1  1  0.645113  0.690772  0.935502  1
  Ca  Ca2  1  0.854373  0.191216  0.935731  1
  Ca  Ca3  1  0.645113  0.690772  0.564498  1
  Ca  Ca4  1  0.148078  0.810152  0.063114  1
  Ca  Ca5  1  0.351751  0.309574  0.439683  1
  Ca  Ca6  1  0.148078  0.810152  0.436886  1
  Ca  Ca7  1  0.854373  0.191216  0.564269  1
  Ca  Ca8  1  0.149188  0.092647  0.250000  1
  Ca  Ca9  1  0.843329  0.906369  0.750000  1
  Ca  Ca10  1  0.656618  0.406145  0.750000  1
  Ca  Ca11  1  0.340020  0.599571  0.250000  1
  Ca  Ca12  1  0.323062  0.035817  0.645796  1
  Ca  Ca13  1  0.677938  0.957618  0.356977  1
  Ca  Ca14  1  0.828316  0.466639  0.356845  1
  Ca  Ca15  1  0.677938  0.957618  0.143023  1
  Ca  Ca16  1  0.176766  0.536048  0.645769  1
  Ca  Ca17  1  0.323062  0.035817  0.854204  1
  Ca  Ca18  1  0.176766  0.536048  0.854231  1
  Ca  Ca19  1  0.828316  0.466639  0.143155  1
  Pd  Pd20  1  0.539203  0.259329  0.250000  1
  Rh  Rh21  1  0.464641  0.740266  0.750000  1
  Rh  Rh22  1  0.035619  0.240206  0.750000  1
  Rh  Rh23  1  0.960585  0.759794  0.250000  1
