# generated using pymatgen
data_Dy3Lu17(SiBi2)4
_symmetry_space_group_name_H-M   'P 1'
_cell_length_a   7.92683834
_cell_length_b   9.04705400
_cell_length_c   11.84065999
_cell_angle_alpha   90.00000000
_cell_angle_beta   89.93347863
_cell_angle_gamma   90.00000000
_symmetry_Int_Tables_number   1
_chemical_formula_structural   Dy3Lu17(SiBi2)4
_chemical_formula_sum   'Dy3 Lu17 Si4 Bi8'
_cell_volume   849.14684708
_cell_formula_units_Z   1
loop_
 _symmetry_equiv_pos_site_id
 _symmetry_equiv_pos_as_xyz
  1  'x, y, z'
loop_
 _atom_site_type_symbol
 _atom_site_label
 _atom_site_symmetry_multiplicity
 _atom_site_fract_x
 _atom_site_fract_y
 _atom_site_fract_z
 _atom_site_occupancy
  Dy  Dy0  1  0.861875  0.750000  0.794972  1
  Dy  Dy1  1  0.362041  0.250000  0.704967  1
  Dy  Dy2  1  0.137694  0.250000  0.204983  1
  Lu  Lu3  1  0.820573  0.554815  0.063086  1
  Lu  Lu4  1  0.679162  0.945455  0.562146  1
  Lu  Lu5  1  0.179097  0.054297  0.937372  1
  Lu  Lu6  1  0.320868  0.445605  0.437368  1
  Lu  Lu7  1  0.179097  0.445703  0.937372  1
  Lu  Lu8  1  0.320868  0.054395  0.437368  1
  Lu  Lu9  1  0.820573  0.945185  0.063086  1
  Lu  Lu10  1  0.679162  0.554545  0.562146  1
  Lu  Lu11  1  0.166206  0.750000  0.212079  1
  Lu  Lu12  1  0.334518  0.750000  0.711670  1
  Lu  Lu13  1  0.834194  0.250000  0.788064  1
  Lu  Lu14  1  0.665901  0.250000  0.287999  1
  Lu  Lu15  1  0.461207  0.750000  0.002143  1
  Lu  Lu16  1  0.039133  0.750000  0.501344  1
  Lu  Lu17  1  0.539458  0.250000  0.998656  1
  Lu  Lu18  1  0.960616  0.250000  0.498427  1
  Lu  Lu19  1  0.637724  0.750000  0.295308  1
  Si  Si20  1  0.411055  0.750000  0.478814  1
  Si  Si21  1  0.090496  0.750000  0.980690  1
  Si  Si22  1  0.590601  0.250000  0.519409  1
  Si  Si23  1  0.909444  0.250000  0.019382  1
  Bi  Bi24  1  0.931762  0.512026  0.326063  1
  Bi  Bi25  1  0.566635  0.988804  0.826101  1
  Bi  Bi26  1  0.066802  0.010935  0.673855  1
  Bi  Bi27  1  0.434020  0.489867  0.174555  1
  Bi  Bi28  1  0.066802  0.489065  0.673855  1
  Bi  Bi29  1  0.434020  0.010133  0.174555  1
  Bi  Bi30  1  0.931762  0.987974  0.326063  1
  Bi  Bi31  1  0.566635  0.511196  0.826101  1
