# generated using pymatgen
data_Sm15Pa5Rh16
_symmetry_space_group_name_H-M   'P 1'
_cell_length_a   7.56841917
_cell_length_b   7.57854355
_cell_length_c   14.61267381
_cell_angle_alpha   90.31019820
_cell_angle_beta   90.28410584
_cell_angle_gamma   90.44748368
_symmetry_Int_Tables_number   1
_chemical_formula_structural   Sm15Pa5Rh16
_chemical_formula_sum   'Sm15 Pa5 Rh16'
_cell_volume   838.09948986
_cell_formula_units_Z   1
loop_
 _symmetry_equiv_pos_site_id
 _symmetry_equiv_pos_as_xyz
  1  'x, y, z'
loop_
 _atom_site_type_symbol
 _atom_site_label
 _atom_site_symmetry_multiplicity
 _atom_site_fract_x
 _atom_site_fract_y
 _atom_site_fract_z
 _atom_site_occupancy
  Sm  Sm0  1  0.834033  0.661140  0.122188  1
  Sm  Sm1  1  0.663827  0.161443  0.879287  1
  Sm  Sm2  1  0.161692  0.336540  0.618048  1
  Sm  Sm3  1  0.510945  0.676632  0.591607  1
  Sm  Sm4  1  0.013289  0.818045  0.906319  1
  Sm  Sm5  1  0.485320  0.316915  0.093327  1
  Sm  Sm6  1  0.990634  0.179498  0.408692  1
  Sm  Sm7  1  0.488011  0.319520  0.407155  1
  Sm  Sm8  1  0.982653  0.180294  0.088012  1
  Sm  Sm9  1  0.517111  0.680733  0.910302  1
  Sm  Sm10  1  0.007895  0.821918  0.592852  1
  Sm  Sm11  1  0.821986  0.515702  0.747672  1
  Sm  Sm12  1  0.318515  0.982346  0.750138  1
  Sm  Sm13  1  0.177610  0.480385  0.247910  1
  Sm  Sm14  1  0.688338  0.019395  0.251374  1
  Pa  Pa15  1  0.659941  0.152216  0.620520  1
  Pa  Pa16  1  0.162147  0.344629  0.876128  1
  Pa  Pa17  1  0.335294  0.847505  0.122908  1
  Pa  Pa18  1  0.839801  0.655113  0.379368  1
  Pa  Pa19  1  0.339555  0.843598  0.378703  1
  Rh  Rh20  1  0.688550  0.949538  0.465045  1
  Rh  Rh21  1  0.208203  0.562092  0.036701  1
  Rh  Rh22  1  0.291513  0.061012  0.964826  1
  Rh  Rh23  1  0.803097  0.449585  0.534236  1
  Rh  Rh24  1  0.324366  0.025997  0.531093  1
  Rh  Rh25  1  0.855052  0.461452  0.952851  1
  Rh  Rh26  1  0.644553  0.960356  0.048032  1
  Rh  Rh27  1  0.166890  0.557524  0.452316  1
  Rh  Rh28  1  0.470521  0.353903  0.738659  1
  Rh  Rh29  1  0.964022  0.130942  0.751987  1
  Rh  Rh30  1  0.530994  0.645167  0.261725  1
  Rh  Rh31  1  0.045562  0.858249  0.260205  1
  Rh  Rh32  1  0.690992  0.878551  0.739492  1
  Rh  Rh33  1  0.212095  0.610608  0.761558  1
  Rh  Rh34  1  0.311412  0.114005  0.247712  1
  Rh  Rh35  1  0.793584  0.387447  0.261055  1
