# generated using pymatgen
data_Ca3(LaSi2)2
_symmetry_space_group_name_H-M   'P 1'
_cell_length_a   7.97251200
_cell_length_b   7.97251200
_cell_length_c   14.89683600
_cell_angle_alpha   90.00000000
_cell_angle_beta   90.00000000
_cell_angle_gamma   90.00000000
_symmetry_Int_Tables_number   1
_chemical_formula_structural   Ca3(LaSi2)2
_chemical_formula_sum   'Ca12 La8 Si16'
_cell_volume   946.85701225
_cell_formula_units_Z   4
loop_
 _symmetry_equiv_pos_site_id
 _symmetry_equiv_pos_as_xyz
  1  'x, y, z'
loop_
 _atom_site_type_symbol
 _atom_site_label
 _atom_site_symmetry_multiplicity
 _atom_site_fract_x
 _atom_site_fract_y
 _atom_site_fract_z
 _atom_site_occupancy
  Ca  Ca0  1  0.371807  0.488359  0.374462  1
  Ca  Ca1  1  0.871807  0.011641  0.375538  1
  Ca  Ca2  1  0.988359  0.128193  0.124462  1
  Ca  Ca3  1  0.011641  0.871807  0.624462  1
  Ca  Ca4  1  0.628193  0.511641  0.874462  1
  Ca  Ca5  1  0.488359  0.371807  0.625538  1
  Ca  Ca6  1  0.511641  0.628193  0.125538  1
  Ca  Ca7  1  0.128193  0.988359  0.875538  1
  Ca  Ca8  1  0.688203  0.688203  0.500000  1
  Ca  Ca9  1  0.811797  0.188203  0.750000  1
  Ca  Ca10  1  0.188203  0.811797  0.250000  1
  Ca  Ca11  1  0.311797  0.311797  0.000000  1
  La  La12  1  0.989444  0.620236  0.049856  1
  La  La13  1  0.010556  0.379764  0.549856  1
  La  La14  1  0.620236  0.989444  0.950144  1
  La  La15  1  0.120236  0.510556  0.799856  1
  La  La16  1  0.879764  0.489444  0.299856  1
  La  La17  1  0.510556  0.120236  0.200144  1
  La  La18  1  0.489444  0.879764  0.700144  1
  La  La19  1  0.379764  0.010556  0.450144  1
  Si  Si20  1  0.082139  0.708427  0.441203  1
  Si  Si21  1  0.917861  0.291573  0.941203  1
  Si  Si22  1  0.708427  0.082139  0.558797  1
  Si  Si23  1  0.208428  0.417861  0.191203  1
  Si  Si24  1  0.791573  0.582139  0.691203  1
  Si  Si25  1  0.417861  0.208428  0.808797  1
  Si  Si26  1  0.582139  0.791573  0.308797  1
  Si  Si27  1  0.291573  0.917861  0.058797  1
  Si  Si28  1  0.830350  0.798190  0.804794  1
  Si  Si29  1  0.169650  0.201810  0.304794  1
  Si  Si30  1  0.798190  0.830350  0.195206  1
  Si  Si31  1  0.298190  0.669650  0.554794  1
  Si  Si32  1  0.701810  0.330350  0.054794  1
  Si  Si33  1  0.669650  0.298190  0.445206  1
  Si  Si34  1  0.330350  0.701810  0.945206  1
  Si  Si35  1  0.201810  0.169650  0.695206  1
