# generated using pymatgen
data_La5Pr5(In3Cl)2
_symmetry_space_group_name_H-M   'P 1'
_cell_length_a   9.73559815
_cell_length_b   9.68766276
_cell_length_c   6.82087300
_cell_angle_alpha   90.00000000
_cell_angle_beta   90.00000000
_cell_angle_gamma   120.14350631
_symmetry_Int_Tables_number   1
_chemical_formula_structural   La5Pr5(In3Cl)2
_chemical_formula_sum   'La5 Pr5 In6 Cl2'
_cell_volume   556.31710125
_cell_formula_units_Z   1
loop_
 _symmetry_equiv_pos_site_id
 _symmetry_equiv_pos_as_xyz
  1  'x, y, z'
loop_
 _atom_site_type_symbol
 _atom_site_label
 _atom_site_symmetry_multiplicity
 _atom_site_fract_x
 _atom_site_fract_y
 _atom_site_fract_z
 _atom_site_occupancy
  La  La0  1  0.741268  0.741557  0.250000  1
  La  La1  1  0.999682  0.258462  0.250000  1
  La  La2  1  0.999899  0.741344  0.750000  1
  La  La3  1  0.258614  0.258558  0.750000  1
  La  La4  1  0.257348  0.000035  0.250000  1
  Pr  Pr5  1  0.666592  0.332398  0.999438  1
  Pr  Pr6  1  0.334295  0.667619  0.500547  1
  Pr  Pr7  1  0.666592  0.332398  0.500562  1
  Pr  Pr8  1  0.334295  0.667619  0.999453  1
  Pr  Pr9  1  0.742050  0.999981  0.750000  1
  In  In10  1  0.606244  0.607600  0.750000  1
  In  In11  1  0.000061  0.605758  0.250000  1
  In  In12  1  0.606714  0.999981  0.250000  1
  In  In13  1  0.394598  0.000024  0.750000  1
  In  In14  1  0.998700  0.392447  0.750000  1
  In  In15  1  0.394298  0.394195  0.250000  1
  Cl  Cl16  1  0.999375  0.000012  0.500873  1
  Cl  Cl17  1  0.999375  0.000012  0.999127  1
