# generated using pymatgen
data_Ho3Tm2Lu3(CdIr)2
_symmetry_space_group_name_H-M   'P 1'
_cell_length_a   9.50958322
_cell_length_b   9.50958299
_cell_length_c   9.50958300
_cell_angle_alpha   60.00000344
_cell_angle_beta   60.00000424
_cell_angle_gamma   59.99999801
_symmetry_Int_Tables_number   1
_chemical_formula_structural   Ho3Tm2Lu3(CdIr)2
_chemical_formula_sum   'Ho6 Tm4 Lu6 Cd4 Ir4'
_cell_volume   608.09222477
_cell_formula_units_Z   2
loop_
 _symmetry_equiv_pos_site_id
 _symmetry_equiv_pos_as_xyz
  1  'x, y, z'
loop_
 _atom_site_type_symbol
 _atom_site_label
 _atom_site_symmetry_multiplicity
 _atom_site_fract_x
 _atom_site_fract_y
 _atom_site_fract_z
 _atom_site_occupancy
  Ho  Ho0  1  0.188900  0.811100  0.811100  1
  Ho  Ho1  1  0.811100  0.188900  0.188900  1
  Ho  Ho2  1  0.811100  0.188900  0.811100  1
  Ho  Ho3  1  0.188900  0.811100  0.188900  1
  Ho  Ho4  1  0.811100  0.811100  0.188900  1
  Ho  Ho5  1  0.188900  0.188900  0.811100  1
  Tm  Tm6  1  0.599042  0.599042  0.599042  1
  Tm  Tm7  1  0.599042  0.599042  0.202875  1
  Tm  Tm8  1  0.599042  0.202875  0.599042  1
  Tm  Tm9  1  0.202875  0.599042  0.599042  1
  Lu  Lu10  1  0.061748  0.438252  0.438252  1
  Lu  Lu11  1  0.438252  0.061748  0.061748  1
  Lu  Lu12  1  0.438252  0.061748  0.438252  1
  Lu  Lu13  1  0.061748  0.438252  0.061748  1
  Lu  Lu14  1  0.438252  0.438252  0.061748  1
  Lu  Lu15  1  0.061748  0.061748  0.438252  1
  Cd  Cd16  1  0.830553  0.830553  0.830553  1
  Cd  Cd17  1  0.830553  0.830553  0.508341  1
  Cd  Cd18  1  0.830553  0.508341  0.830553  1
  Cd  Cd19  1  0.508341  0.830553  0.830553  1
  Ir  Ir20  1  0.391384  0.391384  0.391384  1
  Ir  Ir21  1  0.391384  0.391384  0.825849  1
  Ir  Ir22  1  0.391384  0.825849  0.391384  1
  Ir  Ir23  1  0.825849  0.391384  0.391384  1
