# generated using pymatgen
data_Lu6Si5SnOs4
_symmetry_space_group_name_H-M   'P 1'
_cell_length_a   5.68577548
_cell_length_b   5.68577398
_cell_length_c   13.69044600
_cell_angle_alpha   90.00000000
_cell_angle_beta   90.00000000
_cell_angle_gamma   136.71901221
_symmetry_Int_Tables_number   1
_chemical_formula_structural   Lu6Si5SnOs4
_chemical_formula_sum   'Lu6 Si5 Sn1 Os4'
_cell_volume   303.42615975
_cell_formula_units_Z   1
loop_
 _symmetry_equiv_pos_site_id
 _symmetry_equiv_pos_as_xyz
  1  'x, y, z'
loop_
 _atom_site_type_symbol
 _atom_site_label
 _atom_site_symmetry_multiplicity
 _atom_site_fract_x
 _atom_site_fract_y
 _atom_site_fract_z
 _atom_site_occupancy
  Lu  Lu0  1  0.639697  0.360303  0.250000  1
  Lu  Lu1  1  0.357361  0.642639  0.750000  1
  Lu  Lu2  1  0.928164  0.071836  0.104798  1
  Lu  Lu3  1  0.075597  0.924403  0.882540  1
  Lu  Lu4  1  0.075597  0.924403  0.617460  1
  Lu  Lu5  1  0.928164  0.071836  0.395202  1
  Si  Si6  1  0.671443  0.328557  0.750000  1
  Si  Si7  1  0.613270  0.386730  0.035542  1
  Si  Si8  1  0.383447  0.616553  0.958530  1
  Si  Si9  1  0.383447  0.616553  0.541470  1
  Si  Si10  1  0.613270  0.386730  0.464458  1
  Sn  Sn11  1  0.342151  0.657849  0.250000  1
  Os  Os12  1  0.787280  0.212720  0.585231  1
  Os  Os13  1  0.206915  0.793085  0.425059  1
  Os  Os14  1  0.206915  0.793085  0.074941  1
  Os  Os15  1  0.787280  0.212720  0.914769  1
