# generated using pymatgen
data_Dy4HoZnIn4Ir
_symmetry_space_group_name_H-M   'P 1'
_cell_length_a   3.63232200
_cell_length_b   8.15828956
_cell_length_c   18.31047848
_cell_angle_alpha   89.52114303
_cell_angle_beta   90.00000000
_cell_angle_gamma   90.00000000
_symmetry_Int_Tables_number   1
_chemical_formula_structural   Dy4HoZnIn4Ir
_chemical_formula_sum   'Dy8 Ho2 Zn2 In8 Ir2'
_cell_volume   542.58524830
_cell_formula_units_Z   2
loop_
 _symmetry_equiv_pos_site_id
 _symmetry_equiv_pos_as_xyz
  1  'x, y, z'
loop_
 _atom_site_type_symbol
 _atom_site_label
 _atom_site_symmetry_multiplicity
 _atom_site_fract_x
 _atom_site_fract_y
 _atom_site_fract_z
 _atom_site_occupancy
  Dy  Dy0  1  0.000000  0.118581  0.420590  1
  Dy  Dy1  1  0.000000  0.881419  0.579410  1
  Dy  Dy2  1  0.000000  0.384082  0.914024  1
  Dy  Dy3  1  0.000000  0.615918  0.085976  1
  Dy  Dy4  1  0.000000  0.257222  0.216393  1
  Dy  Dy5  1  0.000000  0.742778  0.783607  1
  Dy  Dy6  1  0.000000  0.000000  0.000000  1
  Dy  Dy7  1  0.000000  0.500000  0.500000  1
  Ho  Ho8  1  0.000000  0.284913  0.721968  1
  Ho  Ho9  1  0.000000  0.715087  0.278032  1
  Zn  Zn10  1  0.500000  0.018493  0.302052  1
  Zn  Zn11  1  0.500000  0.981507  0.697948  1
  In  In12  1  0.500000  0.415437  0.351746  1
  In  In13  1  0.500000  0.584563  0.648254  1
  In  In14  1  0.500000  0.080482  0.849212  1
  In  In15  1  0.500000  0.919518  0.150788  1
  In  In16  1  0.500000  0.293674  0.066902  1
  In  In17  1  0.500000  0.706326  0.933098  1
  In  In18  1  0.500000  0.209355  0.570438  1
  In  In19  1  0.500000  0.790645  0.429562  1
  Ir  Ir20  1  0.500000  0.478253  0.803640  1
  Ir  Ir21  1  0.500000  0.521747  0.196360  1
