# generated using pymatgen
data_Ta3Si3MoRu2
_symmetry_space_group_name_H-M   'P 1'
_cell_length_a   7.51205781
_cell_length_b   7.51205762
_cell_length_c   7.51205758
_cell_angle_alpha   126.82054270
_cell_angle_beta   124.04255118
_cell_angle_gamma   80.84423563
_symmetry_Int_Tables_number   1
_chemical_formula_structural   Ta3Si3MoRu2
_chemical_formula_sum   'Ta6 Si6 Mo2 Ru4'
_cell_volume   271.06940785
_cell_formula_units_Z   2
loop_
 _symmetry_equiv_pos_site_id
 _symmetry_equiv_pos_as_xyz
  1  'x, y, z'
loop_
 _atom_site_type_symbol
 _atom_site_label
 _atom_site_symmetry_multiplicity
 _atom_site_fract_x
 _atom_site_fract_y
 _atom_site_fract_z
 _atom_site_occupancy
  Ta  Ta0  1  0.460697  0.681375  0.720678  1
  Ta  Ta1  1  0.539303  0.259981  0.220678  1
  Ta  Ta2  1  0.747881  0.830309  0.582428  1
  Ta  Ta3  1  0.252119  0.834546  0.082428  1
  Ta  Ta4  1  0.058290  0.272949  0.714658  1
  Ta  Ta5  1  0.941710  0.656368  0.214658  1
  Si  Si6  1  0.278701  0.257507  0.478806  1
  Si  Si7  1  0.721299  0.200102  0.978806  1
  Si  Si8  1  0.326209  0.592239  0.258094  1
  Si  Si9  1  0.673791  0.931885  0.266031  1
  Si  Si10  1  0.165854  0.931885  0.758094  1
  Si  Si11  1  0.834146  0.592239  0.766031  1
  Mo  Mo12  1  0.500000  0.501296  0.001296  1
  Mo  Mo13  1  0.000000  0.501296  0.501296  1
  Ru  Ru14  1  0.092831  0.255823  0.094820  1
  Ru  Ru15  1  0.907169  0.001989  0.162994  1
  Ru  Ru16  1  0.338996  0.001989  0.594820  1
  Ru  Ru17  1  0.661004  0.255823  0.662994  1
