# generated using pymatgen
data_Yb4URu2
_symmetry_space_group_name_H-M   'P 1'
_cell_length_a   8.91729887
_cell_length_b   8.91729881
_cell_length_c   7.06347816
_cell_angle_alpha   81.12272645
_cell_angle_beta   81.12272427
_cell_angle_gamma   43.51840538
_symmetry_Int_Tables_number   1
_chemical_formula_structural   Yb4URu2
_chemical_formula_sum   'Yb8 U2 Ru4'
_cell_volume   381.38627336
_cell_formula_units_Z   2
loop_
 _symmetry_equiv_pos_site_id
 _symmetry_equiv_pos_as_xyz
  1  'x, y, z'
loop_
 _atom_site_type_symbol
 _atom_site_label
 _atom_site_symmetry_multiplicity
 _atom_site_fract_x
 _atom_site_fract_y
 _atom_site_fract_z
 _atom_site_occupancy
  Yb  Yb0  1  0.033595  0.786588  0.917630  1
  Yb  Yb1  1  0.213412  0.966405  0.582370  1
  Yb  Yb2  1  0.966405  0.213412  0.082370  1
  Yb  Yb3  1  0.786588  0.033595  0.417630  1
  Yb  Yb4  1  0.363777  0.204258  0.804256  1
  Yb  Yb5  1  0.795742  0.636223  0.695744  1
  Yb  Yb6  1  0.636223  0.795742  0.195744  1
  Yb  Yb7  1  0.204258  0.363777  0.304256  1
  U  U8  1  0.583999  0.416001  0.750000  1
  U  U9  1  0.416001  0.583999  0.250000  1
  Ru  Ru10  1  0.230898  0.590922  0.523952  1
  Ru  Ru11  1  0.409078  0.769102  0.976048  1
  Ru  Ru12  1  0.769102  0.409078  0.476048  1
  Ru  Ru13  1  0.590922  0.230898  0.023952  1
