# generated using pymatgen
data_Nd16In4CoRu3
_symmetry_space_group_name_H-M   'P 1'
_cell_length_a   9.88210930
_cell_length_b   9.92511924
_cell_length_c   9.92511900
_cell_angle_alpha   60.00000414
_cell_angle_beta   59.85592637
_cell_angle_gamma   59.85592002
_symmetry_Int_Tables_number   1
_chemical_formula_structural   Nd16In4CoRu3
_chemical_formula_sum   'Nd16 In4 Co1 Ru3'
_cell_volume   686.84210711
_cell_formula_units_Z   1
loop_
 _symmetry_equiv_pos_site_id
 _symmetry_equiv_pos_as_xyz
  1  'x, y, z'
loop_
 _atom_site_type_symbol
 _atom_site_label
 _atom_site_symmetry_multiplicity
 _atom_site_fract_x
 _atom_site_fract_y
 _atom_site_fract_z
 _atom_site_occupancy
  Nd  Nd0  1  0.440578  0.437070  0.061176  1
  Nd  Nd1  1  0.650312  0.655035  0.039619  1
  Nd  Nd2  1  0.193110  0.809266  0.188357  1
  Nd  Nd3  1  0.060170  0.440567  0.058696  1
  Nd  Nd4  1  0.193110  0.809266  0.809266  1
  Nd  Nd5  1  0.060170  0.440567  0.440567  1
  Nd  Nd6  1  0.809774  0.191270  0.191270  1
  Nd  Nd7  1  0.650312  0.655035  0.655035  1
  Nd  Nd8  1  0.809774  0.191270  0.807685  1
  Nd  Nd9  1  0.193110  0.188357  0.809266  1
  Nd  Nd10  1  0.039803  0.653400  0.653400  1
  Nd  Nd11  1  0.440578  0.061176  0.061176  1
  Nd  Nd12  1  0.060170  0.058696  0.440567  1
  Nd  Nd13  1  0.650312  0.039619  0.655035  1
  Nd  Nd14  1  0.809774  0.807685  0.191270  1
  Nd  Nd15  1  0.440578  0.061176  0.437070  1
  In  In16  1  0.419921  0.419399  0.419399  1
  In  In17  1  0.419921  0.419399  0.741282  1
  In  In18  1  0.419921  0.741282  0.419399  1
  In  In19  1  0.740057  0.419981  0.419981  1
  Co  Co20  1  0.416720  0.861093  0.861093  1
  Ru  Ru21  1  0.860608  0.861707  0.861707  1
  Ru  Ru22  1  0.860608  0.415977  0.861707  1
  Ru  Ru23  1  0.860608  0.861707  0.415977  1
