# generated using pymatgen
data_Be2Fe6ReW3
_symmetry_space_group_name_H-M   'P 1'
_cell_length_a   4.65081536
_cell_length_b   4.61470119
_cell_length_c   7.59057777
_cell_angle_alpha   90.02873570
_cell_angle_beta   90.02291799
_cell_angle_gamma   119.85008859
_symmetry_Int_Tables_number   1
_chemical_formula_structural   Be2Fe6ReW3
_chemical_formula_sum   'Be2 Fe6 Re1 W3'
_cell_volume   141.29670685
_cell_formula_units_Z   1
loop_
 _symmetry_equiv_pos_site_id
 _symmetry_equiv_pos_as_xyz
  1  'x, y, z'
loop_
 _atom_site_type_symbol
 _atom_site_label
 _atom_site_symmetry_multiplicity
 _atom_site_fract_x
 _atom_site_fract_y
 _atom_site_fract_z
 _atom_site_occupancy
  Be  Be0  1  0.831057  0.169622  0.251891  1
  Be  Be1  1  0.169938  0.340778  0.747916  1
  Fe  Fe2  1  0.999438  0.011511  0.999762  1
  Fe  Fe3  1  0.999893  0.004392  0.499944  1
  Fe  Fe4  1  0.834168  0.664616  0.249312  1
  Fe  Fe5  1  0.167293  0.832373  0.750869  1
  Fe  Fe6  1  0.658524  0.825516  0.749736  1
  Fe  Fe7  1  0.341475  0.167272  0.250844  1
  Re  Re8  1  0.330078  0.661609  0.436222  1
  W  W9  1  0.330020  0.660326  0.068337  1
  W  W10  1  0.668184  0.331685  0.560481  1
  W  W11  1  0.669932  0.330301  0.934685  1
