# generated using pymatgen
data_TbY(NbS2)6
_symmetry_space_group_name_H-M   'P 1'
_cell_length_a   5.83683400
_cell_length_b   5.83683628
_cell_length_c   13.88277200
_cell_angle_alpha   90.00000000
_cell_angle_beta   90.00000000
_cell_angle_gamma   120.00000975
_symmetry_Int_Tables_number   1
_chemical_formula_structural   TbY(NbS2)6
_chemical_formula_sum   'Tb1 Y1 Nb6 S12'
_cell_volume   409.60159030
_cell_formula_units_Z   1
loop_
 _symmetry_equiv_pos_site_id
 _symmetry_equiv_pos_as_xyz
  1  'x, y, z'
loop_
 _atom_site_type_symbol
 _atom_site_label
 _atom_site_symmetry_multiplicity
 _atom_site_fract_x
 _atom_site_fract_y
 _atom_site_fract_z
 _atom_site_occupancy
  Tb  Tb0  1  0.000000  0.000000  0.000000  1
  Y  Y1  1  0.000000  0.000000  0.500000  1
  Nb  Nb2  1  0.333333  0.666667  0.250152  1
  Nb  Nb3  1  0.000000  0.000000  0.250112  1
  Nb  Nb4  1  0.000000  0.000000  0.749888  1
  Nb  Nb5  1  0.333333  0.666667  0.749848  1
  Nb  Nb6  1  0.666667  0.333333  0.749848  1
  Nb  Nb7  1  0.666667  0.333333  0.250152  1
  S  S8  1  0.000000  0.662625  0.635876  1
  S  S9  1  0.000000  0.662256  0.863850  1
  S  S10  1  0.000000  0.337744  0.136150  1
  S  S11  1  0.000000  0.337375  0.364124  1
  S  S12  1  0.337375  0.337375  0.635876  1
  S  S13  1  0.337744  0.337744  0.863850  1
  S  S14  1  0.662256  0.662256  0.136150  1
  S  S15  1  0.662625  0.662625  0.364124  1
  S  S16  1  0.337744  0.000000  0.136150  1
  S  S17  1  0.337375  0.000000  0.364124  1
  S  S18  1  0.662625  0.000000  0.635876  1
  S  S19  1  0.662256  0.000000  0.863850  1
