# generated using pymatgen
data_CoSi4Ni3Ru4
_symmetry_space_group_name_H-M   'P 1'
_cell_length_a   3.74849800
_cell_length_b   5.55170528
_cell_length_c   7.02874649
_cell_angle_alpha   89.80052972
_cell_angle_beta   90.00000000
_cell_angle_gamma   90.00000000
_symmetry_Int_Tables_number   1
_chemical_formula_structural   CoSi4Ni3Ru4
_chemical_formula_sum   'Co1 Si4 Ni3 Ru4'
_cell_volume   146.27123707
_cell_formula_units_Z   1
loop_
 _symmetry_equiv_pos_site_id
 _symmetry_equiv_pos_as_xyz
  1  'x, y, z'
loop_
 _atom_site_type_symbol
 _atom_site_label
 _atom_site_symmetry_multiplicity
 _atom_site_fract_x
 _atom_site_fract_y
 _atom_site_fract_z
 _atom_site_occupancy
  Co  Co0  1  0.000000  0.650196  0.060217  1
  Si  Si1  1  0.000000  0.247577  0.119377  1
  Si  Si2  1  0.000000  0.747537  0.378211  1
  Si  Si3  1  0.500000  0.754506  0.882605  1
  Si  Si4  1  0.500000  0.253002  0.620080  1
  Ni  Ni5  1  0.000000  0.151619  0.438610  1
  Ni  Ni6  1  0.500000  0.351062  0.939578  1
  Ni  Ni7  1  0.500000  0.847927  0.561902  1
  Ru  Ru8  1  0.000000  0.527620  0.687486  1
  Ru  Ru9  1  0.000000  0.027714  0.812656  1
  Ru  Ru10  1  0.500000  0.472054  0.310661  1
  Ru  Ru11  1  0.500000  0.969187  0.188615  1
