# generated using pymatgen
data_Pr3Nd(Ga3Ir)6
_symmetry_space_group_name_H-M   'P 1'
_cell_length_a   7.66228201
_cell_length_b   7.66139508
_cell_length_c   9.65341700
_cell_angle_alpha   90.00000000
_cell_angle_beta   90.00000000
_cell_angle_gamma   119.63176826
_symmetry_Int_Tables_number   1
_chemical_formula_structural   Pr3Nd(Ga3Ir)6
_chemical_formula_sum   'Pr3 Nd1 Ga18 Ir6'
_cell_volume   492.58051616
_cell_formula_units_Z   1
loop_
 _symmetry_equiv_pos_site_id
 _symmetry_equiv_pos_as_xyz
  1  'x, y, z'
loop_
 _atom_site_type_symbol
 _atom_site_label
 _atom_site_symmetry_multiplicity
 _atom_site_fract_x
 _atom_site_fract_y
 _atom_site_fract_z
 _atom_site_occupancy
  Pr  Pr0  1  0.002895  0.330437  0.750000  1
  Pr  Pr1  1  0.669558  0.997087  0.250000  1
  Pr  Pr2  1  0.330484  0.002932  0.750000  1
  Nd  Nd3  1  0.997176  0.669556  0.250000  1
  Ga  Ga4  1  0.130109  0.129905  0.250000  1
  Ga  Ga5  1  0.869771  0.869762  0.750000  1
  Ga  Ga6  1  0.001838  0.335395  0.077771  1
  Ga  Ga7  1  0.998182  0.664919  0.922625  1
  Ga  Ga8  1  0.998182  0.664919  0.577375  1
  Ga  Ga9  1  0.334773  0.001542  0.422232  1
  Ga  Ga10  1  0.001838  0.335395  0.422229  1
  Ga  Ga11  1  0.664915  0.998154  0.577607  1
  Ga  Ga12  1  0.664915  0.998154  0.922393  1
  Ga  Ga13  1  0.334773  0.001542  0.077768  1
  Ga  Ga14  1  0.333531  0.333530  0.556309  1
  Ga  Ga15  1  0.666705  0.666467  0.443518  1
  Ga  Ga16  1  0.666705  0.666467  0.056482  1
  Ga  Ga17  1  0.333531  0.333530  0.943691  1
  Ga  Ga18  1  0.339333  0.544892  0.250000  1
  Ga  Ga19  1  0.660470  0.455201  0.750000  1
  Ga  Ga20  1  0.545159  0.339787  0.250000  1
  Ga  Ga21  1  0.455181  0.660457  0.750000  1
  Ir  Ir22  1  0.670924  0.329261  0.000092  1
  Ir  Ir23  1  0.329089  0.670850  0.000100  1
  Ir  Ir24  1  0.329089  0.670850  0.499900  1
  Ir  Ir25  1  0.670924  0.329261  0.499908  1
  Ir  Ir26  1  0.999974  0.999876  0.000105  1
  Ir  Ir27  1  0.999974  0.999876  0.499895  1
