# generated using pymatgen
data_TbYbNbIr3
_symmetry_space_group_name_H-M   'P 1'
_cell_length_a   5.64664388
_cell_length_b   5.64664503
_cell_length_c   5.25321916
_cell_angle_alpha   57.49003978
_cell_angle_beta   57.49004986
_cell_angle_gamma   59.99999996
_symmetry_Int_Tables_number   1
_chemical_formula_structural   TbYbNbIr3
_chemical_formula_sum   'Tb1 Yb1 Nb1 Ir3'
_cell_volume   113.74394501
_cell_formula_units_Z   1
loop_
 _symmetry_equiv_pos_site_id
 _symmetry_equiv_pos_as_xyz
  1  'x, y, z'
loop_
 _atom_site_type_symbol
 _atom_site_label
 _atom_site_symmetry_multiplicity
 _atom_site_fract_x
 _atom_site_fract_y
 _atom_site_fract_z
 _atom_site_occupancy
  Tb  Tb0  1  0.500720  0.500720  0.497842  1
  Yb  Yb1  1  0.750140  0.750140  0.749578  1
  Nb  Nb2  1  0.125633  0.125633  0.623102  1
  Ir  Ir3  1  0.626186  0.123661  0.126493  1
  Ir  Ir4  1  0.123661  0.123661  0.126493  1
  Ir  Ir5  1  0.123661  0.626186  0.126493  1
