# generated using pymatgen
data_Li2Ni5(PRu)7
_symmetry_space_group_name_H-M   'P 1'
_cell_length_a   9.29254659
_cell_length_b   9.27789587
_cell_length_c   3.66374800
_cell_angle_alpha   90.00000000
_cell_angle_beta   90.00000000
_cell_angle_gamma   120.77061490
_symmetry_Int_Tables_number   1
_chemical_formula_structural   Li2Ni5(PRu)7
_chemical_formula_sum   'Li2 Ni5 P7 Ru7'
_cell_volume   271.40348674
_cell_formula_units_Z   1
loop_
 _symmetry_equiv_pos_site_id
 _symmetry_equiv_pos_as_xyz
  1  'x, y, z'
loop_
 _atom_site_type_symbol
 _atom_site_label
 _atom_site_symmetry_multiplicity
 _atom_site_fract_x
 _atom_site_fract_y
 _atom_site_fract_z
 _atom_site_occupancy
  Li  Li0  1  0.999914  0.000035  0.000000  1
  Li  Li1  1  0.334371  0.668669  0.500000  1
  Ni  Ni2  1  0.301207  0.899518  0.000000  1
  Ni  Ni3  1  0.600706  0.700003  0.000000  1
  Ni  Ni4  1  0.826382  0.615881  0.000000  1
  Ni  Ni5  1  0.780538  0.170573  0.000000  1
  Ni  Ni6  1  0.390187  0.212822  0.000000  1
  P  P7  1  0.666953  0.334136  0.000000  1
  P  P8  1  0.078048  0.630524  0.000000  1
  P  P9  1  0.545870  0.916690  0.000000  1
  P  P10  1  0.374998  0.449553  0.000000  1
  P  P11  1  0.793501  0.746790  0.500000  1
  P  P12  1  0.953734  0.212887  0.500000  1
  P  P13  1  0.257677  0.047232  0.500000  1
  Ru  Ru14  1  0.102718  0.401654  0.000000  1
  Ru  Ru15  1  0.058578  0.772535  0.500000  1
  Ru  Ru16  1  0.711000  0.940452  0.500000  1
  Ru  Ru17  1  0.230952  0.280540  0.500000  1
  Ru  Ru18  1  0.869742  0.416191  0.500000  1
  Ru  Ru19  1  0.539379  0.120420  0.500000  1
  Ru  Ru20  1  0.583547  0.462892  0.500000  1
