# generated using pymatgen
data_Er2LuAuO6
_symmetry_space_group_name_H-M   'P 1'
_cell_length_a   3.52127979
_cell_length_b   5.51441361
_cell_length_c   7.05167688
_cell_angle_alpha   89.20207492
_cell_angle_beta   102.39066781
_cell_angle_gamma   91.05966235
_symmetry_Int_Tables_number   1
_chemical_formula_structural   Er2LuAuO6
_chemical_formula_sum   'Er2 Lu1 Au1 O6'
_cell_volume   133.70874833
_cell_formula_units_Z   1
loop_
 _symmetry_equiv_pos_site_id
 _symmetry_equiv_pos_as_xyz
  1  'x, y, z'
loop_
 _atom_site_type_symbol
 _atom_site_label
 _atom_site_symmetry_multiplicity
 _atom_site_fract_x
 _atom_site_fract_y
 _atom_site_fract_z
 _atom_site_occupancy
  Er  Er0  1  0.611476  0.530733  0.761777  1
  Er  Er1  1  0.388524  0.469267  0.238223  1
  Lu  Lu2  1  0.000000  0.000000  0.500000  1
  Au  Au3  1  0.000000  0.000000  0.000000  1
  O  O4  1  0.832109  0.677425  0.104150  1
  O  O5  1  0.167891  0.322575  0.895850  1
  O  O6  1  0.523794  0.252884  0.532420  1
  O  O7  1  0.476206  0.747116  0.467580  1
  O  O8  1  0.124387  0.802964  0.780914  1
  O  O9  1  0.875613  0.197036  0.219086  1
