# generated using pymatgen
data_SrZr8(In2Rh)7
_symmetry_space_group_name_H-M   'P 1'
_cell_length_a   9.65895542
_cell_length_b   9.65871860
_cell_length_c   9.65880700
_cell_angle_alpha   60.38310292
_cell_angle_beta   60.38206599
_cell_angle_gamma   60.38257936
_symmetry_Int_Tables_number   1
_chemical_formula_structural   SrZr8(In2Rh)7
_chemical_formula_sum   'Sr1 Zr8 In14 Rh7'
_cell_volume   642.68760123
_cell_formula_units_Z   1
loop_
 _symmetry_equiv_pos_site_id
 _symmetry_equiv_pos_as_xyz
  1  'x, y, z'
loop_
 _atom_site_type_symbol
 _atom_site_label
 _atom_site_symmetry_multiplicity
 _atom_site_fract_x
 _atom_site_fract_y
 _atom_site_fract_z
 _atom_site_occupancy
  Sr  Sr0  1  0.500000  0.500000  0.500000  1
  Zr  Zr1  1  0.123234  0.628823  0.123239  1
  Zr  Zr2  1  0.371184  0.876782  0.876766  1
  Zr  Zr3  1  0.876035  0.876045  0.876036  1
  Zr  Zr4  1  0.628816  0.123218  0.123234  1
  Zr  Zr5  1  0.876761  0.876775  0.371151  1
  Zr  Zr6  1  0.123965  0.123955  0.123964  1
  Zr  Zr7  1  0.876766  0.371177  0.876761  1
  Zr  Zr8  1  0.123239  0.123225  0.628849  1
  In  In9  1  0.500037  0.848690  0.151181  1
  In  In10  1  0.500384  0.848136  0.500530  1
  In  In11  1  0.499616  0.151864  0.499470  1
  In  In12  1  0.500480  0.500496  0.848068  1
  In  In13  1  0.151886  0.499519  0.499452  1
  In  In14  1  0.848748  0.151330  0.499880  1
  In  In15  1  0.151252  0.848670  0.500120  1
  In  In16  1  0.499963  0.151310  0.848819  1
  In  In17  1  0.151388  0.500056  0.848633  1
  In  In18  1  0.499520  0.499504  0.151932  1
  In  In19  1  0.848114  0.500481  0.500548  1
  In  In20  1  0.848612  0.499944  0.151367  1
  In  In21  1  0.251040  0.250927  0.250950  1
  In  In22  1  0.748960  0.749073  0.749050  1
  Rh  Rh23  1  0.779057  0.779089  0.221273  1
  Rh  Rh24  1  0.000000  0.000000  0.000000  1
  Rh  Rh25  1  0.220912  0.778798  0.220898  1
  Rh  Rh26  1  0.221358  0.779023  0.779045  1
  Rh  Rh27  1  0.220943  0.220911  0.778727  1
  Rh  Rh28  1  0.779088  0.221202  0.779102  1
  Rh  Rh29  1  0.778642  0.220977  0.220955  1
