# generated using pymatgen
data_Y7Ho9(TlRh)4
_symmetry_space_group_name_H-M   'P 1'
_cell_length_a   9.76201917
_cell_length_b   9.76120960
_cell_length_c   9.71923500
_cell_angle_alpha   60.14721176
_cell_angle_beta   60.13934104
_cell_angle_gamma   60.40142535
_symmetry_Int_Tables_number   1
_chemical_formula_structural   Y7Ho9(TlRh)4
_chemical_formula_sum   'Y7 Ho9 Tl4 Rh4'
_cell_volume   658.26911144
_cell_formula_units_Z   1
loop_
 _symmetry_equiv_pos_site_id
 _symmetry_equiv_pos_as_xyz
  1  'x, y, z'
loop_
 _atom_site_type_symbol
 _atom_site_label
 _atom_site_symmetry_multiplicity
 _atom_site_fract_x
 _atom_site_fract_y
 _atom_site_fract_z
 _atom_site_occupancy
  Y  Y0  1  0.061446  0.061438  0.437760  1
  Y  Y1  1  0.190333  0.810268  0.811085  1
  Y  Y2  1  0.809940  0.191117  0.190695  1
  Y  Y3  1  0.810350  0.190280  0.811139  1
  Y  Y4  1  0.191048  0.810009  0.190607  1
  Y  Y5  1  0.810106  0.810064  0.190821  1
  Y  Y6  1  0.191139  0.191133  0.810097  1
  Ho  Ho7  1  0.597506  0.597472  0.598661  1
  Ho  Ho8  1  0.600764  0.600822  0.201062  1
  Ho  Ho9  1  0.599968  0.202974  0.600775  1
  Ho  Ho10  1  0.202984  0.599962  0.600726  1
  Ho  Ho11  1  0.060309  0.438246  0.438199  1
  Ho  Ho12  1  0.437348  0.061563  0.062223  1
  Ho  Ho13  1  0.438218  0.060320  0.438189  1
  Ho  Ho14  1  0.061579  0.437327  0.062240  1
  Ho  Ho15  1  0.437942  0.437971  0.060799  1
  Tl  Tl16  1  0.836710  0.836696  0.834716  1
  Tl  Tl17  1  0.835963  0.835982  0.492316  1
  Tl  Tl18  1  0.836412  0.492125  0.834793  1
  Tl  Tl19  1  0.492126  0.836391  0.834761  1
  Rh  Rh20  1  0.391804  0.391744  0.392872  1
  Rh  Rh21  1  0.390927  0.391012  0.823254  1
  Rh  Rh22  1  0.393920  0.821161  0.391130  1
  Rh  Rh23  1  0.821160  0.393924  0.391080  1
