# generated using pymatgen
data_Ta3Co2(Ni3B)6
_symmetry_space_group_name_H-M   'P 1'
_cell_length_a   7.46265765
_cell_length_b   7.46485204
_cell_length_c   7.46485230
_cell_angle_alpha   60.03094423
_cell_angle_beta   60.00972402
_cell_angle_gamma   60.00973321
_symmetry_Int_Tables_number   1
_chemical_formula_structural   Ta3Co2(Ni3B)6
_chemical_formula_sum   'Ta3 Co2 Ni18 B6'
_cell_volume   294.16180511
_cell_formula_units_Z   1
loop_
 _symmetry_equiv_pos_site_id
 _symmetry_equiv_pos_as_xyz
  1  'x, y, z'
loop_
 _atom_site_type_symbol
 _atom_site_label
 _atom_site_symmetry_multiplicity
 _atom_site_fract_x
 _atom_site_fract_y
 _atom_site_fract_z
 _atom_site_occupancy
  Ta  Ta0  1  0.999968  0.000032  0.000032  1
  Ta  Ta1  1  0.745775  0.754225  0.754225  1
  Ta  Ta2  1  0.250049  0.249951  0.249951  1
  Co  Co3  1  0.616060  0.616126  0.151754  1
  Co  Co4  1  0.616060  0.151754  0.616126  1
  Ni  Ni5  1  0.153953  0.615146  0.615146  1
  Ni  Ni6  1  0.615754  0.615146  0.615146  1
  Ni  Ni7  1  0.384079  0.384770  0.847073  1
  Ni  Ni8  1  0.384079  0.847073  0.384770  1
  Ni  Ni9  1  0.847796  0.384262  0.384262  1
  Ni  Ni10  1  0.383680  0.384262  0.384262  1
  Ni  Ni11  1  0.000059  0.999676  0.342427  1
  Ni  Ni12  1  0.657837  0.999676  0.342427  1
  Ni  Ni13  1  0.999822  0.657285  0.343071  1
  Ni  Ni14  1  0.657837  0.342427  0.999676  1
  Ni  Ni15  1  0.000059  0.342427  0.999676  1
  Ni  Ni16  1  0.999822  0.343071  0.657285  1
  Ni  Ni17  1  0.342543  0.656186  0.000272  1
  Ni  Ni18  1  0.342543  0.000272  0.656186  1
  Ni  Ni19  1  0.341655  0.000624  0.000624  1
  Ni  Ni20  1  0.000999  0.000272  0.656186  1
  Ni  Ni21  1  0.000999  0.656186  0.000272  1
  Ni  Ni22  1  0.657098  0.000624  0.000624  1
  B  B23  1  0.730031  0.729817  0.267996  1
  B  B24  1  0.272156  0.729817  0.267996  1
  B  B25  1  0.728497  0.271503  0.271503  1
  B  B26  1  0.272156  0.267996  0.729817  1
  B  B27  1  0.730031  0.267996  0.729817  1
  B  B28  1  0.268604  0.731396  0.731396  1
