# generated using pymatgen
data_Er12TlInFe3
_symmetry_space_group_name_H-M   'P 1'
_cell_length_a   8.30282045
_cell_length_b   8.30282070
_cell_length_c   8.30282100
_cell_angle_alpha   108.69057903
_cell_angle_beta   108.59199192
_cell_angle_gamma   111.14417224
_symmetry_Int_Tables_number   1
_chemical_formula_structural   Er12TlInFe3
_chemical_formula_sum   'Er12 Tl1 In1 Fe3'
_cell_volume   440.32776195
_cell_formula_units_Z   1
loop_
 _symmetry_equiv_pos_site_id
 _symmetry_equiv_pos_as_xyz
  1  'x, y, z'
loop_
 _atom_site_type_symbol
 _atom_site_label
 _atom_site_symmetry_multiplicity
 _atom_site_fract_x
 _atom_site_fract_y
 _atom_site_fract_z
 _atom_site_occupancy
  Er  Er0  1  0.190285  0.426260  0.235975  1
  Er  Er1  1  0.809715  0.573740  0.764025  1
  Er  Er2  1  0.190285  0.954312  0.764025  1
  Er  Er3  1  0.953945  0.190371  0.763572  1
  Er  Er4  1  0.809715  0.045688  0.235975  1
  Er  Er5  1  0.046055  0.809629  0.236428  1
  Er  Er6  1  0.426799  0.190371  0.236428  1
  Er  Er7  1  0.573201  0.809629  0.763572  1
  Er  Er8  1  0.308828  0.307113  0.615941  1
  Er  Er9  1  0.691172  0.692887  0.384059  1
  Er  Er10  1  0.691172  0.307113  0.998285  1
  Er  Er11  1  0.308828  0.692887  0.001715  1
  Tl  Tl12  1  0.000000  0.500000  0.500000  1
  In  In13  1  0.500000  0.000000  0.500000  1
  Fe  Fe14  1  0.385850  0.385850  0.000000  1
  Fe  Fe15  1  0.614150  0.614150  0.000000  1
  Fe  Fe16  1  0.000000  0.000000  0.000000  1
