# generated using pymatgen
data_SrMn6Al2O16
_symmetry_space_group_name_H-M   'P 1'
_cell_length_a   5.79273626
_cell_length_b   7.04555912
_cell_length_c   7.11114847
_cell_angle_alpha   87.99604001
_cell_angle_beta   78.21860002
_cell_angle_gamma   78.14470370
_symmetry_Int_Tables_number   1
_chemical_formula_structural   SrMn6Al2O16
_chemical_formula_sum   'Sr1 Mn6 Al2 O16'
_cell_volume   278.04610868
_cell_formula_units_Z   1
loop_
 _symmetry_equiv_pos_site_id
 _symmetry_equiv_pos_as_xyz
  1  'x, y, z'
loop_
 _atom_site_type_symbol
 _atom_site_label
 _atom_site_symmetry_multiplicity
 _atom_site_fract_x
 _atom_site_fract_y
 _atom_site_fract_z
 _atom_site_occupancy
  Sr  Sr0  1  0.016414  0.969213  0.994977  1
  Mn  Mn1  1  0.172133  0.818019  0.511393  1
  Mn  Mn2  1  0.669559  0.818276  0.518940  1
  Mn  Mn3  1  0.338774  0.188745  0.473652  1
  Mn  Mn4  1  0.836902  0.189154  0.479402  1
  Mn  Mn5  1  0.426313  0.483534  0.825492  1
  Mn  Mn6  1  0.925993  0.489116  0.825241  1
  Al  Al7  1  0.579002  0.518415  0.184422  1
  Al  Al8  1  0.080167  0.507589  0.186451  1
  O  O9  1  0.834394  0.646177  0.051951  1
  O  O10  1  0.325671  0.643547  0.051352  1
  O  O11  1  0.981385  0.707524  0.375671  1
  O  O12  1  0.484868  0.705123  0.380499  1
  O  O13  1  0.857995  0.956310  0.647141  1
  O  O14  1  0.349073  0.957465  0.644387  1
  O  O15  1  0.338088  0.379565  0.290795  1
  O  O16  1  0.837002  0.374590  0.288159  1
  O  O17  1  0.166406  0.636860  0.719683  1
  O  O18  1  0.667731  0.626993  0.712988  1
  O  O19  1  0.152076  0.045789  0.346300  1
  O  O20  1  0.659541  0.044544  0.350350  1
  O  O21  1  0.027487  0.294246  0.619708  1
  O  O22  1  0.524015  0.294732  0.618167  1
  O  O23  1  0.174839  0.350115  0.950493  1
  O  O24  1  0.681269  0.354360  0.952381  1
