# generated using pymatgen
data_Al2Ni(SeO3)4
_symmetry_space_group_name_H-M   'P 1'
_cell_length_a   4.60303600
_cell_length_b   8.39857196
_cell_length_c   14.83461015
_cell_angle_alpha   71.46548655
_cell_angle_beta   90.00594317
_cell_angle_gamma   90.00160791
_symmetry_Int_Tables_number   1
_chemical_formula_structural   Al2Ni(SeO3)4
_chemical_formula_sum   'Al4 Ni2 Se8 O24'
_cell_volume   543.74455207
_cell_formula_units_Z   2
loop_
 _symmetry_equiv_pos_site_id
 _symmetry_equiv_pos_as_xyz
  1  'x, y, z'
loop_
 _atom_site_type_symbol
 _atom_site_label
 _atom_site_symmetry_multiplicity
 _atom_site_fract_x
 _atom_site_fract_y
 _atom_site_fract_z
 _atom_site_occupancy
  Al  Al0  1  0.526682  0.137153  0.791525  1
  Al  Al1  1  0.973362  0.137137  0.291525  1
  Al  Al2  1  0.473318  0.862847  0.208475  1
  Al  Al3  1  0.026638  0.862863  0.708475  1
  Ni  Ni4  1  0.000000  0.000000  0.000000  1
  Ni  Ni5  1  0.500000  0.000000  0.500000  1
  Se  Se6  1  0.564404  0.787320  0.879800  1
  Se  Se7  1  0.935579  0.787295  0.379798  1
  Se  Se8  1  0.435596  0.212680  0.120200  1
  Se  Se9  1  0.064421  0.212705  0.620202  1
  Se  Se10  1  0.015465  0.337840  0.868802  1
  Se  Se11  1  0.484574  0.337830  0.368784  1
  Se  Se12  1  0.984535  0.662160  0.131198  1
  Se  Se13  1  0.515426  0.662170  0.631216  1
  O  O14  1  0.740978  0.323880  0.792294  1
  O  O15  1  0.759000  0.323867  0.292289  1
  O  O16  1  0.259022  0.676120  0.207706  1
  O  O17  1  0.241000  0.676133  0.707711  1
  O  O18  1  0.832499  0.729351  0.816991  1
  O  O19  1  0.667425  0.729334  0.316975  1
  O  O20  1  0.167501  0.270649  0.183009  1
  O  O21  1  0.332575  0.270666  0.683025  1
  O  O22  1  0.232812  0.159788  0.877106  1
  O  O23  1  0.267208  0.159761  0.377104  1
  O  O24  1  0.767188  0.840212  0.122894  1
  O  O25  1  0.732792  0.840239  0.622896  1
  O  O26  1  0.700388  0.969165  0.898724  1
  O  O27  1  0.799608  0.969116  0.398726  1
  O  O28  1  0.299612  0.030835  0.101276  1
  O  O29  1  0.200392  0.030884  0.601274  1
  O  O30  1  0.341176  0.922028  0.790066  1
  O  O31  1  0.158788  0.921986  0.290082  1
  O  O32  1  0.658824  0.077972  0.209934  1
  O  O33  1  0.841212  0.078014  0.709918  1
  O  O34  1  0.871235  0.245597  0.979529  1
  O  O35  1  0.628840  0.245581  0.479520  1
  O  O36  1  0.128765  0.754403  0.020471  1
  O  O37  1  0.371160  0.754419  0.520480  1
