# generated using pymatgen
data_Sc4Re3B8Ru6W
_symmetry_space_group_name_H-M   'P 1'
_cell_length_a   3.04587600
_cell_length_b   8.57967179
_cell_length_c   10.02754331
_cell_angle_alpha   90.20537714
_cell_angle_beta   90.00000000
_cell_angle_gamma   90.00000000
_symmetry_Int_Tables_number   1
_chemical_formula_structural   Sc4Re3B8Ru6W
_chemical_formula_sum   'Sc4 Re3 B8 Ru6 W1'
_cell_volume   262.04425909
_cell_formula_units_Z   1
loop_
 _symmetry_equiv_pos_site_id
 _symmetry_equiv_pos_as_xyz
  1  'x, y, z'
loop_
 _atom_site_type_symbol
 _atom_site_label
 _atom_site_symmetry_multiplicity
 _atom_site_fract_x
 _atom_site_fract_y
 _atom_site_fract_z
 _atom_site_occupancy
  Sc  Sc0  1  0.500000  0.843069  0.181698  1
  Sc  Sc1  1  0.500000  0.158896  0.818666  1
  Sc  Sc2  1  0.500000  0.658129  0.680957  1
  Sc  Sc3  1  0.500000  0.343238  0.318196  1
  Re  Re4  1  0.000000  0.338568  0.048018  1
  Re  Re5  1  0.000000  0.840316  0.452885  1
  Re  Re6  1  0.000000  0.160102  0.546407  1
  B  B7  1  0.500000  0.965374  0.588283  1
  B  B8  1  0.500000  0.034833  0.410798  1
  B  B9  1  0.500000  0.851851  0.899666  1
  B  B10  1  0.500000  0.150330  0.099283  1
  B  B11  1  0.500000  0.651251  0.401546  1
  B  B12  1  0.500000  0.347688  0.598615  1
  B  B13  1  0.500000  0.460064  0.913357  1
  B  B14  1  0.500000  0.530929  0.089677  1
  Ru  Ru15  1  0.000000  0.001708  0.999684  1
  Ru  Ru16  1  0.000000  0.403866  0.759615  1
  Ru  Ru17  1  0.000000  0.596803  0.240353  1
  Ru  Ru18  1  0.000000  0.500230  0.500203  1
  Ru  Ru19  1  0.000000  0.905101  0.739029  1
  Ru  Ru20  1  0.000000  0.097100  0.260128  1
  W  W21  1  0.000000  0.660554  0.952940  1
