# generated using pymatgen
data_Ho4U(MnB3)2
_symmetry_space_group_name_H-M   'P 1'
_cell_length_a   5.41626995
_cell_length_b   5.41626971
_cell_length_c   7.99972300
_cell_angle_alpha   70.21273725
_cell_angle_beta   70.21273816
_cell_angle_gamma   60.00000512
_symmetry_Int_Tables_number   1
_chemical_formula_structural   Ho4U(MnB3)2
_chemical_formula_sum   'Ho4 U1 Mn2 B6'
_cell_volume   187.06760013
_cell_formula_units_Z   1
loop_
 _symmetry_equiv_pos_site_id
 _symmetry_equiv_pos_as_xyz
  1  'x, y, z'
loop_
 _atom_site_type_symbol
 _atom_site_label
 _atom_site_symmetry_multiplicity
 _atom_site_fract_x
 _atom_site_fract_y
 _atom_site_fract_z
 _atom_site_occupancy
  Ho  Ho0  1  0.253259  0.253259  0.240223  1
  Ho  Ho1  1  0.746741  0.746741  0.759777  1
  Ho  Ho2  1  0.413715  0.413715  0.758857  1
  Ho  Ho3  1  0.586285  0.586285  0.241143  1
  U  U4  1  0.000000  0.000000  0.000000  1
  Mn  Mn5  1  0.104888  0.104888  0.685333  1
  Mn  Mn6  1  0.895112  0.895112  0.314667  1
  B  B7  1  0.166362  0.833638  0.500000  1
  B  B8  1  0.833638  0.500000  0.500000  1
  B  B9  1  0.500000  0.166362  0.500000  1
  B  B10  1  0.166362  0.500000  0.500000  1
  B  B11  1  0.500000  0.833638  0.500000  1
  B  B12  1  0.833638  0.166362  0.500000  1
