# generated using pymatgen
data_La2Ce3P12Ru19
_symmetry_space_group_name_H-M   'P 1'
_cell_length_a   12.64407909
_cell_length_b   12.65150692
_cell_length_c   4.01563800
_cell_angle_alpha   90.00000000
_cell_angle_beta   90.00000000
_cell_angle_gamma   120.01943195
_symmetry_Int_Tables_number   1
_chemical_formula_structural   La2Ce3P12Ru19
_chemical_formula_sum   'La2 Ce3 P12 Ru19'
_cell_volume   556.19819621
_cell_formula_units_Z   1
loop_
 _symmetry_equiv_pos_site_id
 _symmetry_equiv_pos_as_xyz
  1  'x, y, z'
loop_
 _atom_site_type_symbol
 _atom_site_label
 _atom_site_symmetry_multiplicity
 _atom_site_fract_x
 _atom_site_fract_y
 _atom_site_fract_z
 _atom_site_occupancy
  La  La0  1  0.814851  0.000118  0.500000  1
  La  La1  1  0.185149  0.185268  0.500000  1
  Ce  Ce2  1  0.666426  0.333535  0.000000  1
  Ce  Ce3  1  0.333574  0.667110  0.000000  1
  Ce  Ce4  1  0.000000  0.816249  0.500000  1
  P  P5  1  0.624160  0.999845  0.000000  1
  P  P6  1  0.375840  0.375685  0.000000  1
  P  P7  1  0.000000  0.626149  0.000000  1
  P  P8  1  0.695939  0.523277  0.500000  1
  P  P9  1  0.826830  0.304105  0.500000  1
  P  P10  1  0.304061  0.827339  0.500000  1
  P  P11  1  0.524137  0.696211  0.500000  1
  P  P12  1  0.187707  0.998854  0.000000  1
  P  P13  1  0.812293  0.811147  0.000000  1
  P  P14  1  0.000000  0.189114  0.000000  1
  P  P15  1  0.475863  0.172073  0.500000  1
  P  P16  1  0.173170  0.477275  0.500000  1
  Ru  Ru17  1  0.619568  0.803703  0.000000  1
  Ru  Ru18  1  0.185464  0.381672  0.000000  1
  Ru  Ru19  1  0.380432  0.184136  0.000000  1
  Ru  Ru20  1  0.191903  0.814630  0.000000  1
  Ru  Ru21  1  0.808097  0.622727  0.000000  1
  Ru  Ru22  1  0.873926  0.506441  0.500000  1
  Ru  Ru23  1  0.494038  0.367648  0.500000  1
  Ru  Ru24  1  0.630851  0.125426  0.500000  1
  Ru  Ru25  1  0.126074  0.632514  0.500000  1
  Ru  Ru26  1  0.369149  0.494576  0.500000  1
  Ru  Ru27  1  0.505962  0.873610  0.500000  1
  Ru  Ru28  1  0.000000  0.996074  0.000000  1
  Ru  Ru29  1  0.715449  0.713706  0.500000  1
  Ru  Ru30  1  0.000000  0.286955  0.500000  1
  Ru  Ru31  1  0.443584  0.997683  0.000000  1
  Ru  Ru32  1  0.556416  0.554098  0.000000  1
  Ru  Ru33  1  0.000000  0.446581  0.000000  1
  Ru  Ru34  1  0.814536  0.196207  0.000000  1
  Ru  Ru35  1  0.284551  0.998257  0.500000  1
