# generated using pymatgen
data_Nd16Er4(Ir3Rh)3
_symmetry_space_group_name_H-M   'P 1'
_cell_length_a   11.15165500
_cell_length_b   11.15165500
_cell_length_c   6.53591500
_cell_angle_alpha   90.00000000
_cell_angle_beta   90.00000000
_cell_angle_gamma   90.00000000
_symmetry_Int_Tables_number   1
_chemical_formula_structural   Nd16Er4(Ir3Rh)3
_chemical_formula_sum   'Nd16 Er4 Ir9 Rh3'
_cell_volume   812.80252824
_cell_formula_units_Z   1
loop_
 _symmetry_equiv_pos_site_id
 _symmetry_equiv_pos_as_xyz
  1  'x, y, z'
loop_
 _atom_site_type_symbol
 _atom_site_label
 _atom_site_symmetry_multiplicity
 _atom_site_fract_x
 _atom_site_fract_y
 _atom_site_fract_z
 _atom_site_occupancy
  Nd  Nd0  1  0.288163  0.087748  0.381227  1
  Nd  Nd1  1  0.288102  0.911962  0.881250  1
  Nd  Nd2  1  0.711898  0.088038  0.881250  1
  Nd  Nd3  1  0.711837  0.912252  0.381227  1
  Nd  Nd4  1  0.588038  0.788102  0.881250  1
  Nd  Nd5  1  0.587748  0.211837  0.381227  1
  Nd  Nd6  1  0.412252  0.788163  0.381227  1
  Nd  Nd7  1  0.411962  0.211898  0.881250  1
  Nd  Nd8  1  0.211389  0.412256  0.618028  1
  Nd  Nd9  1  0.211704  0.587957  0.120130  1
  Nd  Nd10  1  0.788296  0.412043  0.120130  1
  Nd  Nd11  1  0.788611  0.587744  0.618028  1
  Nd  Nd12  1  0.912043  0.711704  0.120130  1
  Nd  Nd13  1  0.912256  0.288611  0.618028  1
  Nd  Nd14  1  0.087744  0.711389  0.618028  1
  Nd  Nd15  1  0.087957  0.288296  0.120130  1
  Er  Er16  1  0.000000  0.000000  0.500046  1
  Er  Er17  1  0.000000  0.000000  0.999894  1
  Er  Er18  1  0.500000  0.500000  0.999894  1
  Er  Er19  1  0.500000  0.500000  0.500046  1
  Ir  Ir20  1  0.850779  0.148211  0.249721  1
  Ir  Ir21  1  0.851042  0.851449  0.749556  1
  Ir  Ir22  1  0.148958  0.148551  0.749556  1
  Ir  Ir23  1  0.149221  0.851789  0.249721  1
  Ir  Ir24  1  0.648551  0.351042  0.749556  1
  Ir  Ir25  1  0.648211  0.649221  0.249721  1
  Ir  Ir26  1  0.351789  0.350779  0.249721  1
  Ir  Ir27  1  0.351449  0.648958  0.749556  1
  Ir  Ir28  1  0.000000  0.500000  0.380880  1
  Rh  Rh29  1  0.500000  0.000000  0.118849  1
  Rh  Rh30  1  0.500000  0.000000  0.618584  1
  Rh  Rh31  1  0.000000  0.500000  0.882158  1
