# generated using pymatgen
data_Y2Ho(ErRh6)3
_symmetry_space_group_name_H-M   'P 1'
_cell_length_a   5.25374500
_cell_length_b   5.25374507
_cell_length_c   17.55074800
_cell_angle_alpha   90.00000000
_cell_angle_beta   90.00000000
_cell_angle_gamma   119.99999329
_symmetry_Int_Tables_number   1
_chemical_formula_structural   Y2Ho(ErRh6)3
_chemical_formula_sum   'Y2 Ho1 Er3 Rh18'
_cell_volume   419.53121173
_cell_formula_units_Z   1
loop_
 _symmetry_equiv_pos_site_id
 _symmetry_equiv_pos_as_xyz
  1  'x, y, z'
loop_
 _atom_site_type_symbol
 _atom_site_label
 _atom_site_symmetry_multiplicity
 _atom_site_fract_x
 _atom_site_fract_y
 _atom_site_fract_z
 _atom_site_occupancy
  Y  Y0  1  0.333333  0.666667  0.749993  1
  Y  Y1  1  0.666667  0.333333  0.250002  1
  Ho  Ho2  1  0.333333  0.666667  0.958078  1
  Er  Er3  1  0.666667  0.333333  0.041955  1
  Er  Er4  1  0.666667  0.333333  0.458061  1
  Er  Er5  1  0.333333  0.666667  0.541937  1
  Rh  Rh6  1  0.167340  0.832660  0.374592  1
  Rh  Rh7  1  0.167340  0.334679  0.374592  1
  Rh  Rh8  1  0.665321  0.832660  0.374592  1
  Rh  Rh9  1  0.832692  0.167308  0.625411  1
  Rh  Rh10  1  0.832692  0.665385  0.625411  1
  Rh  Rh11  1  0.334615  0.167308  0.625411  1
  Rh  Rh12  1  0.832701  0.167299  0.874569  1
  Rh  Rh13  1  0.832701  0.665403  0.874569  1
  Rh  Rh14  1  0.334597  0.167299  0.874569  1
  Rh  Rh15  1  0.167327  0.832673  0.125417  1
  Rh  Rh16  1  0.167327  0.334654  0.125417  1
  Rh  Rh17  1  0.665346  0.832673  0.125417  1
  Rh  Rh18  1  0.333333  0.666667  0.249987  1
  Rh  Rh19  1  0.666667  0.333333  0.749991  1
  Rh  Rh20  1  0.000000  0.000000  0.249995  1
  Rh  Rh21  1  0.000000  0.000000  0.749991  1
  Rh  Rh22  1  0.000000  0.000000  0.500004  1
  Rh  Rh23  1  0.000000  0.000000  0.000038  1
