# generated using pymatgen
data_Pr18Nd2Si15Os
_symmetry_space_group_name_H-M   'P 1'
_cell_length_a   7.93043974
_cell_length_b   7.93558625
_cell_length_c   15.28339904
_cell_angle_alpha   90.19699242
_cell_angle_beta   89.90522011
_cell_angle_gamma   90.03347323
_symmetry_Int_Tables_number   1
_chemical_formula_structural   Pr18Nd2Si15Os
_chemical_formula_sum   'Pr18 Nd2 Si15 Os1'
_cell_volume   961.81823064
_cell_formula_units_Z   1
loop_
 _symmetry_equiv_pos_site_id
 _symmetry_equiv_pos_as_xyz
  1  'x, y, z'
loop_
 _atom_site_type_symbol
 _atom_site_label
 _atom_site_symmetry_multiplicity
 _atom_site_fract_x
 _atom_site_fract_y
 _atom_site_fract_z
 _atom_site_occupancy
  Pr  Pr0  1  0.824332  0.188722  0.749418  1
  Pr  Pr1  1  0.695102  0.688740  0.501910  1
  Pr  Pr2  1  0.371816  0.011740  0.450143  1
  Pr  Pr3  1  0.485254  0.880694  0.696793  1
  Pr  Pr4  1  0.510719  0.123711  0.198363  1
  Pr  Pr5  1  0.876065  0.488473  0.300460  1
  Pr  Pr6  1  0.126807  0.504387  0.798898  1
  Pr  Pr7  1  0.625523  0.988314  0.948524  1
  Pr  Pr8  1  0.008545  0.374616  0.552192  1
  Pr  Pr9  1  0.988229  0.624915  0.050861  1
  Pr  Pr10  1  0.133045  0.984562  0.872671  1
  Pr  Pr11  1  0.516638  0.630116  0.126053  1
  Pr  Pr12  1  0.472477  0.360282  0.628476  1
  Pr  Pr13  1  0.626842  0.515179  0.874007  1
  Pr  Pr14  1  0.374960  0.483835  0.373491  1
  Pr  Pr15  1  0.872853  0.020119  0.376225  1
  Pr  Pr16  1  0.982580  0.126984  0.124412  1
  Pr  Pr17  1  0.026177  0.881619  0.626424  1
  Nd  Nd18  1  0.306055  0.306552  0.998510  1
  Nd  Nd19  1  0.191315  0.809296  0.249605  1
  Si  Si20  1  0.333567  0.694880  0.950972  1
  Si  Si21  1  0.664801  0.302411  0.451522  1
  Si  Si22  1  0.696265  0.334305  0.049888  1
  Si  Si23  1  0.303994  0.668227  0.547298  1
  Si  Si24  1  0.805595  0.832328  0.202870  1
  Si  Si25  1  0.167992  0.197283  0.298420  1
  Si  Si26  1  0.832170  0.801678  0.800169  1
  Si  Si27  1  0.288128  0.922291  0.058689  1
  Si  Si28  1  0.579192  0.787637  0.310426  1
  Si  Si29  1  0.422817  0.208727  0.812138  1
  Si  Si30  1  0.779607  0.583439  0.691235  1
  Si  Si31  1  0.212106  0.422052  0.190242  1
  Si  Si32  1  0.704831  0.074241  0.558206  1
  Si  Si33  1  0.919898  0.288016  0.942003  1
  Si  Si34  1  0.079752  0.715258  0.440511  1
  Os  Os35  1  0.193949  0.174375  0.697975  1
