# generated using pymatgen
data_Tb2Ho3Co16(P4Ru)3
_symmetry_space_group_name_H-M   'P 1'
_cell_length_a   12.02735300
_cell_length_b   12.02735441
_cell_length_c   3.70898600
_cell_angle_alpha   90.00000000
_cell_angle_beta   90.00000000
_cell_angle_gamma   120.00000437
_symmetry_Int_Tables_number   1
_chemical_formula_structural   Tb2Ho3Co16(P4Ru)3
_chemical_formula_sum   'Tb2 Ho3 Co16 P12 Ru3'
_cell_volume   464.65003338
_cell_formula_units_Z   1
loop_
 _symmetry_equiv_pos_site_id
 _symmetry_equiv_pos_as_xyz
  1  'x, y, z'
loop_
 _atom_site_type_symbol
 _atom_site_label
 _atom_site_symmetry_multiplicity
 _atom_site_fract_x
 _atom_site_fract_y
 _atom_site_fract_z
 _atom_site_occupancy
  Tb  Tb0  1  0.666667  0.333333  0.000000  1
  Tb  Tb1  1  0.333333  0.666667  0.000000  1
  Ho  Ho2  1  0.815206  0.815206  0.500000  1
  Ho  Ho3  1  0.184794  0.000000  0.500000  1
  Ho  Ho4  1  0.000000  0.184794  0.500000  1
  Co  Co5  1  0.874422  0.357838  0.500000  1
  Co  Co6  1  0.642162  0.516584  0.500000  1
  Co  Co7  1  0.483416  0.125578  0.500000  1
  Co  Co8  1  0.357838  0.874422  0.500000  1
  Co  Co9  1  0.516584  0.642162  0.500000  1
  Co  Co10  1  0.125578  0.483416  0.500000  1
  Co  Co11  1  0.804169  0.179770  0.000000  1
  Co  Co12  1  0.820230  0.624398  0.000000  1
  Co  Co13  1  0.375602  0.195831  0.000000  1
  Co  Co14  1  0.179770  0.804169  0.000000  1
  Co  Co15  1  0.624398  0.820230  0.000000  1
  Co  Co16  1  0.195831  0.375602  0.000000  1
  Co  Co17  1  0.282593  0.282593  0.500000  1
  Co  Co18  1  0.717407  0.000000  0.500000  1
  Co  Co19  1  0.000000  0.717407  0.500000  1
  Co  Co20  1  0.000000  0.000000  0.000000  1
  P  P21  1  0.687323  0.165609  0.500000  1
  P  P22  1  0.834391  0.521714  0.500000  1
  P  P23  1  0.478286  0.312677  0.500000  1
  P  P24  1  0.165609  0.687323  0.500000  1
  P  P25  1  0.521714  0.834391  0.500000  1
  P  P26  1  0.312677  0.478286  0.500000  1
  P  P27  1  0.179835  0.179835  0.000000  1
  P  P28  1  0.820165  0.000000  0.000000  1
  P  P29  1  0.000000  0.820165  0.000000  1
  P  P30  1  0.636513  0.636513  0.000000  1
  P  P31  1  0.363487  0.000000  0.000000  1
  P  P32  1  0.000000  0.363487  0.000000  1
  Ru  Ru33  1  0.445987  0.445987  0.000000  1
  Ru  Ru34  1  0.554013  0.000000  0.000000  1
  Ru  Ru35  1  0.000000  0.554013  0.000000  1
