# generated using pymatgen
data_Nd8DyErSn6
_symmetry_space_group_name_H-M   'P 1'
_cell_length_a   9.21394300
_cell_length_b   9.21394400
_cell_length_c   6.75701000
_cell_angle_alpha   90.00000000
_cell_angle_beta   90.00000000
_cell_angle_gamma   120.00000717
_symmetry_Int_Tables_number   1
_chemical_formula_structural   Nd8DyErSn6
_chemical_formula_sum   'Nd8 Dy1 Er1 Sn6'
_cell_volume   496.79389680
_cell_formula_units_Z   1
loop_
 _symmetry_equiv_pos_site_id
 _symmetry_equiv_pos_as_xyz
  1  'x, y, z'
loop_
 _atom_site_type_symbol
 _atom_site_label
 _atom_site_symmetry_multiplicity
 _atom_site_fract_x
 _atom_site_fract_y
 _atom_site_fract_z
 _atom_site_occupancy
  Nd  Nd0  1  0.666667  0.333333  0.000000  1
  Nd  Nd1  1  0.333333  0.666667  0.000000  1
  Nd  Nd2  1  0.758364  0.758155  0.747522  1
  Nd  Nd3  1  0.241845  0.000207  0.747522  1
  Nd  Nd4  1  0.999793  0.241636  0.747522  1
  Nd  Nd5  1  0.241845  0.241636  0.252478  1
  Nd  Nd6  1  0.758364  0.000207  0.252478  1
  Nd  Nd7  1  0.999793  0.758155  0.252478  1
  Dy  Dy8  1  0.333333  0.666667  0.500000  1
  Er  Er9  1  0.666667  0.333333  0.500000  1
  Sn  Sn10  1  0.397534  0.396892  0.740973  1
  Sn  Sn11  1  0.603108  0.000642  0.740973  1
  Sn  Sn12  1  0.999358  0.602466  0.740973  1
  Sn  Sn13  1  0.603108  0.602466  0.259027  1
  Sn  Sn14  1  0.397534  0.000642  0.259027  1
  Sn  Sn15  1  0.999358  0.396892  0.259027  1
