# generated using pymatgen
data_TmCd3P7N12
_symmetry_space_group_name_H-M   'P 1'
_cell_length_a   7.41821472
_cell_length_b   7.44843731
_cell_length_c   7.44843866
_cell_angle_alpha   109.55326525
_cell_angle_beta   109.38904157
_cell_angle_gamma   109.38905534
_symmetry_Int_Tables_number   1
_chemical_formula_structural   TmCd3P7N12
_chemical_formula_sum   'Tm1 Cd3 P7 N12'
_cell_volume   317.13732221
_cell_formula_units_Z   1
loop_
 _symmetry_equiv_pos_site_id
 _symmetry_equiv_pos_as_xyz
  1  'x, y, z'
loop_
 _atom_site_type_symbol
 _atom_site_label
 _atom_site_symmetry_multiplicity
 _atom_site_fract_x
 _atom_site_fract_y
 _atom_site_fract_z
 _atom_site_occupancy
  Tm  Tm0  1  0.638226  0.000000  0.000000  1
  Cd  Cd1  1  0.998632  0.000000  0.672231  1
  Cd  Cd2  1  0.998632  0.672231  0.000000  1
  Cd  Cd3  1  0.326402  0.327769  0.327769  1
  P  P4  1  0.249917  0.749094  0.497319  1
  P  P5  1  0.752598  0.251775  0.502681  1
  P  P6  1  0.752598  0.502681  0.251775  1
  P  P7  1  0.249917  0.497319  0.749094  1
  P  P8  1  0.500823  0.748225  0.250906  1
  P  P9  1  0.500823  0.250906  0.748225  1
  P  P10  1  0.994773  0.000000  0.000000  1
  N  N11  1  0.713832  0.291358  0.291358  1
  N  N12  1  0.288446  0.709240  0.287127  1
  N  N13  1  0.308884  0.593360  0.593360  1
  N  N14  1  0.579207  0.577887  0.290760  1
  N  N15  1  0.422475  0.708642  0.000000  1
  N  N16  1  0.001319  0.712873  0.422113  1
  N  N17  1  0.579207  0.290760  0.577887  1
  N  N18  1  0.715524  0.000000  0.406640  1
  N  N19  1  0.422475  0.000000  0.708642  1
  N  N20  1  0.715524  0.406640  0.000000  1
  N  N21  1  0.288446  0.287127  0.709240  1
  N  N22  1  0.001319  0.422113  0.712873  1
