# generated using pymatgen
data_TbDyTm2MnRu7
_symmetry_space_group_name_H-M   'P 1'
_cell_length_a   5.31596947
_cell_length_b   5.31835649
_cell_length_c   8.65846930
_cell_angle_alpha   90.00000010
_cell_angle_beta   89.99334059
_cell_angle_gamma   59.98513608
_symmetry_Int_Tables_number   1
_chemical_formula_structural   TbDyTm2MnRu7
_chemical_formula_sum   'Tb1 Dy1 Tm2 Mn1 Ru7'
_cell_volume   211.96619541
_cell_formula_units_Z   1
loop_
 _symmetry_equiv_pos_site_id
 _symmetry_equiv_pos_as_xyz
  1  'x, y, z'
loop_
 _atom_site_type_symbol
 _atom_site_label
 _atom_site_symmetry_multiplicity
 _atom_site_fract_x
 _atom_site_fract_y
 _atom_site_fract_z
 _atom_site_occupancy
  Tb  Tb0  1  0.333387  0.333306  0.565225  1
  Dy  Dy1  1  0.666578  0.666711  0.434512  1
  Tm  Tm2  1  0.666543  0.666729  0.067641  1
  Tm  Tm3  1  0.333435  0.333283  0.932507  1
  Mn  Mn4  1  0.000042  0.999979  0.000006  1
  Ru  Ru5  1  0.999985  0.000007  0.499887  1
  Ru  Ru6  1  0.828828  0.342505  0.755688  1
  Ru  Ru7  1  0.342507  0.828746  0.755650  1
  Ru  Ru8  1  0.828828  0.828666  0.755688  1
  Ru  Ru9  1  0.171178  0.657567  0.244390  1
  Ru  Ru10  1  0.657511  0.171244  0.244418  1
  Ru  Ru11  1  0.171178  0.171257  0.244390  1
