# generated using pymatgen
data_Ho10TcIr3
_symmetry_space_group_name_H-M   'P 1'
_cell_length_a   6.43390898
_cell_length_b   7.26644916
_cell_length_c   8.42266928
_cell_angle_alpha   96.60423649
_cell_angle_beta   111.96783662
_cell_angle_gamma   90.03996672
_symmetry_Int_Tables_number   1
_chemical_formula_structural   Ho10TcIr3
_chemical_formula_sum   'Ho10 Tc1 Ir3'
_cell_volume   362.35149905
_cell_formula_units_Z   1
loop_
 _symmetry_equiv_pos_site_id
 _symmetry_equiv_pos_as_xyz
  1  'x, y, z'
loop_
 _atom_site_type_symbol
 _atom_site_label
 _atom_site_symmetry_multiplicity
 _atom_site_fract_x
 _atom_site_fract_y
 _atom_site_fract_z
 _atom_site_occupancy
  Ho  Ho0  1  0.972867  0.916891  0.184624  1
  Ho  Ho1  1  0.792460  0.582397  0.822150  1
  Ho  Ho2  1  0.026318  0.083346  0.817823  1
  Ho  Ho3  1  0.212617  0.418781  0.185217  1
  Ho  Ho4  1  0.654185  0.816821  0.438676  1
  Ho  Ho5  1  0.210350  0.682874  0.559396  1
  Ho  Ho6  1  0.346771  0.182605  0.560092  1
  Ho  Ho7  1  0.786775  0.317755  0.438340  1
  Ho  Ho8  1  0.424967  0.750522  0.999850  1
  Ho  Ho9  1  0.575572  0.250688  0.000519  1
  Tc  Tc10  1  0.825241  0.571725  0.214638  1
  Ir  Ir11  1  0.604130  0.926827  0.778072  1
  Ir  Ir12  1  0.174622  0.424256  0.779999  1
  Ir  Ir13  1  0.393125  0.074512  0.220604  1
