# generated using pymatgen
data_La7SI12
_symmetry_space_group_name_H-M   'P 1'
_cell_length_a   10.02723004
_cell_length_b   10.02722985
_cell_length_c   10.02723096
_cell_angle_alpha   107.66739705
_cell_angle_beta   107.66739978
_cell_angle_gamma   107.66740016
_symmetry_Int_Tables_number   1
_chemical_formula_structural   La7SI12
_chemical_formula_sum   'La7 S1 I12'
_cell_volume   823.86729147
_cell_formula_units_Z   1
loop_
 _symmetry_equiv_pos_site_id
 _symmetry_equiv_pos_as_xyz
  1  'x, y, z'
loop_
 _atom_site_type_symbol
 _atom_site_label
 _atom_site_symmetry_multiplicity
 _atom_site_fract_x
 _atom_site_fract_y
 _atom_site_fract_z
 _atom_site_occupancy
  La  La0  1  0.535015  0.605338  0.806984  1
  La  La1  1  0.806984  0.535015  0.605338  1
  La  La2  1  0.605338  0.806984  0.535015  1
  La  La3  1  0.465883  0.395067  0.191484  1
  La  La4  1  0.191484  0.465883  0.395067  1
  La  La5  1  0.395067  0.191484  0.465883  1
  La  La6  1  0.989556  0.989556  0.989556  1
  S  S7  1  0.498637  0.498637  0.498637  1
  I  I8  1  0.270927  0.815444  0.424532  1
  I  I9  1  0.424532  0.270927  0.815444  1
  I  I10  1  0.815444  0.424532  0.270927  1
  I  I11  1  0.729092  0.184227  0.575301  1
  I  I12  1  0.575301  0.729092  0.184227  1
  I  I13  1  0.184227  0.575301  0.729092  1
  I  I14  1  0.025854  0.107669  0.343564  1
  I  I15  1  0.343564  0.025854  0.107669  1
  I  I16  1  0.107669  0.343564  0.025854  1
  I  I17  1  0.974059  0.889857  0.646879  1
  I  I18  1  0.646879  0.974059  0.889857  1
  I  I19  1  0.889857  0.646879  0.974059  1
