# generated using pymatgen
data_SrTePdO6
_symmetry_space_group_name_H-M   'P 1'
_cell_length_a   5.27533000
_cell_length_b   5.27532931
_cell_length_c   5.45345000
_cell_angle_alpha   90.00000000
_cell_angle_beta   90.00000000
_cell_angle_gamma   120.00000431
_symmetry_Int_Tables_number   1
_chemical_formula_structural   SrTePdO6
_chemical_formula_sum   'Sr1 Te1 Pd1 O6'
_cell_volume   131.43201206
_cell_formula_units_Z   1
loop_
 _symmetry_equiv_pos_site_id
 _symmetry_equiv_pos_as_xyz
  1  'x, y, z'
loop_
 _atom_site_type_symbol
 _atom_site_label
 _atom_site_symmetry_multiplicity
 _atom_site_fract_x
 _atom_site_fract_y
 _atom_site_fract_z
 _atom_site_occupancy
  Sr  Sr0  1  0.333333  0.666667  0.000000  1
  Te  Te1  1  0.666667  0.333333  0.500000  1
  Pd  Pd2  1  0.000000  0.000000  0.500000  1
  O  O3  1  0.700887  0.044253  0.702950  1
  O  O4  1  0.955747  0.656634  0.702950  1
  O  O5  1  0.343366  0.299113  0.702950  1
  O  O6  1  0.700887  0.656634  0.297050  1
  O  O7  1  0.343366  0.044253  0.297050  1
  O  O8  1  0.955747  0.299113  0.297050  1
