# generated using pymatgen
data_CaNdNi7
_symmetry_space_group_name_H-M   'P 1'
_cell_length_a   4.99283897
_cell_length_b   4.99283859
_cell_length_c   12.47857318
_cell_angle_alpha   78.45974027
_cell_angle_beta   78.45974124
_cell_angle_gamma   59.99999693
_symmetry_Int_Tables_number   1
_chemical_formula_structural   CaNdNi7
_chemical_formula_sum   'Ca2 Nd2 Ni14'
_cell_volume   262.10920371
_cell_formula_units_Z   2
loop_
 _symmetry_equiv_pos_site_id
 _symmetry_equiv_pos_as_xyz
  1  'x, y, z'
loop_
 _atom_site_type_symbol
 _atom_site_label
 _atom_site_symmetry_multiplicity
 _atom_site_fract_x
 _atom_site_fract_y
 _atom_site_fract_z
 _atom_site_occupancy
  Ca  Ca0  1  0.850749  0.850749  0.447755  1
  Ca  Ca1  1  0.149251  0.149251  0.552245  1
  Nd  Nd2  1  0.947274  0.947274  0.158176  1
  Nd  Nd3  1  0.052726  0.052726  0.841824  1
  Ni  Ni4  1  0.500000  0.500000  0.500000  1
  Ni  Ni5  1  0.721679  0.721679  0.834961  1
  Ni  Ni6  1  0.278321  0.278321  0.165039  1
  Ni  Ni7  1  0.612049  0.612049  0.163852  1
  Ni  Ni8  1  0.387951  0.387951  0.836148  1
  Ni  Ni9  1  0.000000  0.500000  0.000000  1
  Ni  Ni10  1  0.500000  0.000000  0.000000  1
  Ni  Ni11  1  0.500000  0.500000  0.000000  1
  Ni  Ni12  1  0.391286  0.391286  0.327692  1
  Ni  Ni13  1  0.889738  0.391286  0.327692  1
  Ni  Ni14  1  0.391286  0.889738  0.327692  1
  Ni  Ni15  1  0.608714  0.608714  0.672308  1
  Ni  Ni16  1  0.110262  0.608714  0.672308  1
  Ni  Ni17  1  0.608714  0.110262  0.672308  1
