# generated using pymatgen
data_Nd3Zn3CuPdRh
_symmetry_space_group_name_H-M   'P 1'
_cell_length_a   7.34603300
_cell_length_b   7.34603258
_cell_length_c   4.01542700
_cell_angle_alpha   90.00000000
_cell_angle_beta   90.00000000
_cell_angle_gamma   119.99999738
_symmetry_Int_Tables_number   1
_chemical_formula_structural   Nd3Zn3CuPdRh
_chemical_formula_sum   'Nd3 Zn3 Cu1 Pd1 Rh1'
_cell_volume   187.65844063
_cell_formula_units_Z   1
loop_
 _symmetry_equiv_pos_site_id
 _symmetry_equiv_pos_as_xyz
  1  'x, y, z'
loop_
 _atom_site_type_symbol
 _atom_site_label
 _atom_site_symmetry_multiplicity
 _atom_site_fract_x
 _atom_site_fract_y
 _atom_site_fract_z
 _atom_site_occupancy
  Nd  Nd0  1  0.413477  0.405491  0.000000  1
  Nd  Nd1  1  0.594509  0.007986  0.000000  1
  Nd  Nd2  1  0.992014  0.586523  0.000000  1
  Zn  Zn3  1  0.763016  0.760719  0.500000  1
  Zn  Zn4  1  0.239281  0.002297  0.500000  1
  Zn  Zn5  1  0.997703  0.236984  0.500000  1
  Cu  Cu6  1  0.000000  0.000000  0.000000  1
  Pd  Pd7  1  0.333333  0.666667  0.500000  1
  Rh  Rh8  1  0.666667  0.333333  0.500000  1
