# generated using pymatgen
data_Lu3Si2SnRu2
_symmetry_space_group_name_H-M   'P 1'
_cell_length_a   5.70426474
_cell_length_b   5.70426674
_cell_length_c   13.95313100
_cell_angle_alpha   90.00000000
_cell_angle_beta   90.00000000
_cell_angle_gamma   136.23148076
_symmetry_Int_Tables_number   1
_chemical_formula_structural   Lu3Si2SnRu2
_chemical_formula_sum   'Lu6 Si4 Sn2 Ru4'
_cell_volume   314.06398931
_cell_formula_units_Z   2
loop_
 _symmetry_equiv_pos_site_id
 _symmetry_equiv_pos_as_xyz
  1  'x, y, z'
loop_
 _atom_site_type_symbol
 _atom_site_label
 _atom_site_symmetry_multiplicity
 _atom_site_fract_x
 _atom_site_fract_y
 _atom_site_fract_z
 _atom_site_occupancy
  Lu  Lu0  1  0.641731  0.358269  0.250000  1
  Lu  Lu1  1  0.358269  0.641731  0.750000  1
  Lu  Lu2  1  0.926719  0.073281  0.105934  1
  Lu  Lu3  1  0.073281  0.926719  0.894066  1
  Lu  Lu4  1  0.073281  0.926719  0.605934  1
  Lu  Lu5  1  0.926719  0.073281  0.394066  1
  Si  Si6  1  0.617247  0.382753  0.040564  1
  Si  Si7  1  0.382753  0.617247  0.959436  1
  Si  Si8  1  0.382753  0.617247  0.540564  1
  Si  Si9  1  0.617247  0.382753  0.459436  1
  Sn  Sn10  1  0.343906  0.656094  0.250000  1
  Sn  Sn11  1  0.656094  0.343906  0.750000  1
  Ru  Ru12  1  0.791163  0.208837  0.575832  1
  Ru  Ru13  1  0.208837  0.791163  0.424168  1
  Ru  Ru14  1  0.208837  0.791163  0.075832  1
  Ru  Ru15  1  0.791163  0.208837  0.924168  1
