# generated using pymatgen
data_CdHg4MoO6
_symmetry_space_group_name_H-M   'P 1'
_cell_length_a   8.46676840
_cell_length_b   8.46676788
_cell_length_c   6.90186969
_cell_angle_alpha   83.69213862
_cell_angle_beta   83.69213783
_cell_angle_gamma   85.89241229
_symmetry_Int_Tables_number   1
_chemical_formula_structural   CdHg4MoO6
_chemical_formula_sum   'Cd2 Hg8 Mo2 O12'
_cell_volume   487.90688063
_cell_formula_units_Z   2
loop_
 _symmetry_equiv_pos_site_id
 _symmetry_equiv_pos_as_xyz
  1  'x, y, z'
loop_
 _atom_site_type_symbol
 _atom_site_label
 _atom_site_symmetry_multiplicity
 _atom_site_fract_x
 _atom_site_fract_y
 _atom_site_fract_z
 _atom_site_occupancy
  Cd  Cd0  1  0.000000  0.000000  0.000000  1
  Cd  Cd1  1  0.000000  0.000000  0.500000  1
  Hg  Hg2  1  0.336102  0.178634  0.732981  1
  Hg  Hg3  1  0.821366  0.663898  0.767019  1
  Hg  Hg4  1  0.663898  0.821366  0.267019  1
  Hg  Hg5  1  0.178634  0.336102  0.232981  1
  Hg  Hg6  1  0.937474  0.376810  0.726002  1
  Hg  Hg7  1  0.376810  0.937474  0.226002  1
  Hg  Hg8  1  0.062526  0.623190  0.273998  1
  Hg  Hg9  1  0.623190  0.062526  0.773998  1
  Mo  Mo10  1  0.305588  0.694412  0.750000  1
  Mo  Mo11  1  0.694412  0.305588  0.250000  1
  O  O12  1  0.275123  0.486904  0.801087  1
  O  O13  1  0.513096  0.724877  0.698913  1
  O  O14  1  0.724877  0.513096  0.198913  1
  O  O15  1  0.486904  0.275123  0.301087  1
  O  O16  1  0.220774  0.798284  0.959573  1
  O  O17  1  0.201716  0.779226  0.540427  1
  O  O18  1  0.779226  0.201716  0.040427  1
  O  O19  1  0.798284  0.220774  0.459573  1
  O  O20  1  0.841327  0.914863  0.784862  1
  O  O21  1  0.085137  0.158673  0.715138  1
  O  O22  1  0.158673  0.085137  0.215138  1
  O  O23  1  0.914863  0.841327  0.284862  1
