# generated using pymatgen
data_Cs4InFe3I16
_symmetry_space_group_name_H-M   'P 1'
_cell_length_a   8.45792117
_cell_length_b   8.90381747
_cell_length_c   17.07366800
_cell_angle_alpha   85.36658795
_cell_angle_beta   90.20506949
_cell_angle_gamma   89.92969399
_symmetry_Int_Tables_number   1
_chemical_formula_structural   Cs4InFe3I16
_chemical_formula_sum   'Cs4 In1 Fe3 I16'
_cell_volume   1281.56844429
_cell_formula_units_Z   1
loop_
 _symmetry_equiv_pos_site_id
 _symmetry_equiv_pos_as_xyz
  1  'x, y, z'
loop_
 _atom_site_type_symbol
 _atom_site_label
 _atom_site_symmetry_multiplicity
 _atom_site_fract_x
 _atom_site_fract_y
 _atom_site_fract_z
 _atom_site_occupancy
  Cs  Cs0  1  0.504970  0.257652  0.639389  1
  Cs  Cs1  1  0.999493  0.742285  0.859300  1
  Cs  Cs2  1  0.497883  0.742329  0.358788  1
  Cs  Cs3  1  0.994513  0.257649  0.142952  1
  In  In4  1  0.144929  0.247618  0.861292  1
  Fe  Fe5  1  0.355966  0.250187  0.360480  1
  Fe  Fe6  1  0.855546  0.751072  0.139948  1
  Fe  Fe7  1  0.644693  0.750228  0.638760  1
  I  I8  1  0.851119  0.147168  0.911873  1
  I  I9  1  0.373635  0.845090  0.590201  1
  I  I10  1  0.126288  0.846618  0.091990  1
  I  I11  1  0.627068  0.154038  0.408804  1
  I  I12  1  0.398644  0.403971  0.228751  1
  I  I13  1  0.899103  0.596277  0.271506  1
  I  I14  1  0.601113  0.596914  0.770653  1
  I  I15  1  0.101324  0.415923  0.719482  1
  I  I16  1  0.656237  0.962197  0.157850  1
  I  I17  1  0.157820  0.038284  0.342103  1
  I  I18  1  0.357600  0.018754  0.840189  1
  I  I19  1  0.843443  0.961431  0.657444  1
  I  I20  1  0.235383  0.414977  0.461186  1
  I  I21  1  0.735856  0.586959  0.038454  1
  I  I22  1  0.765545  0.585405  0.538147  1
  I  I23  1  0.271829  0.426971  0.970457  1
