# generated using pymatgen
data_CaYbAl20FeIr3
_symmetry_space_group_name_H-M   'P 1'
_cell_length_a   6.85448630
_cell_length_b   6.86201551
_cell_length_c   9.12229711
_cell_angle_alpha   90.13026400
_cell_angle_beta   89.87285765
_cell_angle_gamma   96.67661872
_symmetry_Int_Tables_number   1
_chemical_formula_structural   CaYbAl20FeIr3
_chemical_formula_sum   'Ca1 Yb1 Al20 Fe1 Ir3'
_cell_volume   426.16081700
_cell_formula_units_Z   1
loop_
 _symmetry_equiv_pos_site_id
 _symmetry_equiv_pos_as_xyz
  1  'x, y, z'
loop_
 _atom_site_type_symbol
 _atom_site_label
 _atom_site_symmetry_multiplicity
 _atom_site_fract_x
 _atom_site_fract_y
 _atom_site_fract_z
 _atom_site_occupancy
  Ca  Ca0  1  0.874599  0.125294  0.248878  1
  Yb  Yb1  1  0.125482  0.874580  0.751114  1
  Al  Al2  1  0.224159  0.222849  0.498002  1
  Al  Al3  1  0.771174  0.780848  0.003028  1
  Al  Al4  1  0.775942  0.777075  0.502330  1
  Al  Al5  1  0.228951  0.219031  0.996694  1
  Al  Al6  1  0.379223  0.622386  0.553574  1
  Al  Al7  1  0.619360  0.372528  0.050464  1
  Al  Al8  1  0.582951  0.860309  0.755526  1
  Al  Al9  1  0.416929  0.139605  0.244461  1
  Al  Al10  1  0.856535  0.587262  0.249273  1
  Al  Al11  1  0.143559  0.412846  0.750716  1
  Al  Al12  1  0.479803  0.221819  0.755506  1
  Al  Al13  1  0.520126  0.778006  0.244489  1
  Al  Al14  1  0.225644  0.478817  0.248936  1
  Al  Al15  1  0.774516  0.521262  0.751063  1
  Al  Al16  1  0.157073  0.842512  0.397661  1
  Al  Al17  1  0.837123  0.153457  0.901332  1
  Al  Al18  1  0.843042  0.157376  0.602639  1
  Al  Al19  1  0.163015  0.846456  0.098369  1
  Al  Al20  1  0.380537  0.627599  0.949207  1
  Al  Al21  1  0.620662  0.377723  0.446778  1
  Fe  Fe22  1  0.499649  0.999856  0.999841  1
  Ir  Ir23  1  0.000123  0.500304  0.500122  1
  Ir  Ir24  1  0.000149  0.500343  0.999849  1
  Ir  Ir25  1  0.499676  0.999855  0.500148  1
