# generated using pymatgen
data_Dy5Re2BC6
_symmetry_space_group_name_H-M   'P 1'
_cell_length_a   8.34018601
_cell_length_b   8.34018583
_cell_length_c   3.42262800
_cell_angle_alpha   90.00000000
_cell_angle_beta   90.00000000
_cell_angle_gamma   122.55607775
_symmetry_Int_Tables_number   1
_chemical_formula_structural   Dy5Re2BC6
_chemical_formula_sum   'Dy5 Re2 B1 C6'
_cell_volume   200.66390884
_cell_formula_units_Z   1
loop_
 _symmetry_equiv_pos_site_id
 _symmetry_equiv_pos_as_xyz
  1  'x, y, z'
loop_
 _atom_site_type_symbol
 _atom_site_label
 _atom_site_symmetry_multiplicity
 _atom_site_fract_x
 _atom_site_fract_y
 _atom_site_fract_z
 _atom_site_occupancy
  Dy  Dy0  1  0.500000  0.500000  0.000000  1
  Dy  Dy1  1  0.077038  0.329294  0.500000  1
  Dy  Dy2  1  0.922962  0.670706  0.500000  1
  Dy  Dy3  1  0.670706  0.922962  0.500000  1
  Dy  Dy4  1  0.329294  0.077038  0.500000  1
  Re  Re5  1  0.714430  0.285570  0.000000  1
  Re  Re6  1  0.285570  0.714430  0.000000  1
  B  B7  1  0.000000  0.000000  0.000000  1
  C  C8  1  0.628414  0.371586  0.500000  1
  C  C9  1  0.371586  0.628414  0.500000  1
  C  C10  1  0.182851  0.182851  0.000000  1
  C  C11  1  0.817149  0.817149  0.000000  1
  C  C12  1  0.000000  0.500000  0.000000  1
  C  C13  1  0.500000  0.000000  0.000000  1
