# generated using pymatgen
data_Ho8TaTi9(Si8W)2
_symmetry_space_group_name_H-M   'P 1'
_cell_length_a   6.99945209
_cell_length_b   7.00188305
_cell_length_c   12.87847808
_cell_angle_alpha   90.06015780
_cell_angle_beta   89.99981207
_cell_angle_gamma   89.94728134
_symmetry_Int_Tables_number   1
_chemical_formula_structural   Ho8TaTi9(Si8W)2
_chemical_formula_sum   'Ho8 Ta1 Ti9 Si16 W2'
_cell_volume   631.16515931
_cell_formula_units_Z   1
loop_
 _symmetry_equiv_pos_site_id
 _symmetry_equiv_pos_as_xyz
  1  'x, y, z'
loop_
 _atom_site_type_symbol
 _atom_site_label
 _atom_site_symmetry_multiplicity
 _atom_site_fract_x
 _atom_site_fract_y
 _atom_site_fract_z
 _atom_site_occupancy
  Ho  Ho0  1  0.340537  0.002317  0.467422  1
  Ho  Ho1  1  0.498664  0.841247  0.718362  1
  Ho  Ho2  1  0.501282  0.159248  0.216314  1
  Ho  Ho3  1  0.840319  0.497468  0.281984  1
  Ho  Ho4  1  0.159017  0.500142  0.783343  1
  Ho  Ho5  1  0.659862  0.000232  0.966415  1
  Ho  Ho6  1  0.001485  0.340177  0.534224  1
  Ho  Ho7  1  0.999236  0.659171  0.031854  1
  Ta  Ta8  1  0.173076  0.827247  0.249272  1
  Ti  Ti9  1  0.672966  0.672348  0.500810  1
  Ti  Ti10  1  0.153178  0.009185  0.875131  1
  Ti  Ti11  1  0.490851  0.652986  0.124542  1
  Ti  Ti12  1  0.508503  0.345810  0.627716  1
  Ti  Ti13  1  0.653519  0.490511  0.874567  1
  Ti  Ti14  1  0.346693  0.507840  0.373225  1
  Ti  Ti15  1  0.848395  0.992571  0.375137  1
  Ti  Ti16  1  0.008454  0.152851  0.123389  1
  Ti  Ti17  1  0.991936  0.847978  0.626307  1
  Si  Si18  1  0.201396  0.129919  0.684213  1
  Si  Si19  1  0.370255  0.700970  0.933583  1
  Si  Si20  1  0.630173  0.297658  0.434421  1
  Si  Si21  1  0.700828  0.370030  0.065789  1
  Si  Si22  1  0.297761  0.630240  0.566375  1
  Si  Si23  1  0.796921  0.869364  0.183826  1
  Si  Si24  1  0.130447  0.203547  0.315847  1
  Si  Si25  1  0.870271  0.799126  0.815878  1
  Si  Si26  1  0.292452  0.955382  0.063318  1
  Si  Si27  1  0.546903  0.791929  0.315012  1
  Si  Si28  1  0.453409  0.208316  0.815425  1
  Si  Si29  1  0.791163  0.545676  0.685643  1
  Si  Si30  1  0.207579  0.452126  0.183667  1
  Si  Si31  1  0.708031  0.047290  0.566319  1
  Si  Si32  1  0.954044  0.291782  0.934957  1
  Si  Si33  1  0.045832  0.706888  0.435736  1
  W  W34  1  0.327397  0.326644  0.999180  1
  W  W35  1  0.827165  0.173782  0.750796  1
