# generated using pymatgen
data_SrPr5YOsBr12
_symmetry_space_group_name_H-M   'P 1'
_cell_length_a   9.60537070
_cell_length_b   9.67222608
_cell_length_c   9.58116229
_cell_angle_alpha   106.56907151
_cell_angle_beta   106.48800173
_cell_angle_gamma   105.78819754
_symmetry_Int_Tables_number   1
_chemical_formula_structural   SrPr5YOsBr12
_chemical_formula_sum   'Sr1 Pr5 Y1 Os1 Br12'
_cell_volume   755.33891904
_cell_formula_units_Z   1
loop_
 _symmetry_equiv_pos_site_id
 _symmetry_equiv_pos_as_xyz
  1  'x, y, z'
loop_
 _atom_site_type_symbol
 _atom_site_label
 _atom_site_symmetry_multiplicity
 _atom_site_fract_x
 _atom_site_fract_y
 _atom_site_fract_z
 _atom_site_occupancy
  Sr  Sr0  1  0.499495  0.500542  0.498861  1
  Pr  Pr1  1  0.307169  0.018180  0.103110  1
  Pr  Pr2  1  0.020571  0.105765  0.309609  1
  Pr  Pr3  1  0.980805  0.898608  0.692111  1
  Pr  Pr4  1  0.693550  0.981835  0.896976  1
  Pr  Pr5  1  0.893509  0.681264  0.980417  1
  Y  Y6  1  0.104428  0.310330  0.020996  1
  Os  Os7  1  0.000683  0.000521  0.001203  1
  Br  Br8  1  0.215008  0.671485  0.070673  1
  Br  Br9  1  0.438894  0.366219  0.145670  1
  Br  Br10  1  0.680449  0.073503  0.218346  1
  Br  Br11  1  0.928162  0.784475  0.321060  1
  Br  Br12  1  0.150473  0.449775  0.357168  1
  Br  Br13  1  0.368172  0.154107  0.452187  1
  Br  Br14  1  0.632166  0.846960  0.548164  1
  Br  Br15  1  0.847820  0.550078  0.632306  1
  Br  Br16  1  0.074826  0.223902  0.691209  1
  Br  Br17  1  0.319554  0.927022  0.781757  1
  Br  Br18  1  0.549728  0.634026  0.847890  1
  Br  Br19  1  0.794537  0.321405  0.930287  1
