# generated using pymatgen
data_TbYb3(FeB4)4
_symmetry_space_group_name_H-M   'P 1'
_cell_length_a   3.34671200
_cell_length_b   5.88674302
_cell_length_c   11.38872204
_cell_angle_alpha   90.00919728
_cell_angle_beta   90.00000000
_cell_angle_gamma   90.00000000
_symmetry_Int_Tables_number   1
_chemical_formula_structural   TbYb3(FeB4)4
_chemical_formula_sum   'Tb1 Yb3 Fe4 B16'
_cell_volume   224.37186925
_cell_formula_units_Z   1
loop_
 _symmetry_equiv_pos_site_id
 _symmetry_equiv_pos_as_xyz
  1  'x, y, z'
loop_
 _atom_site_type_symbol
 _atom_site_label
 _atom_site_symmetry_multiplicity
 _atom_site_fract_x
 _atom_site_fract_y
 _atom_site_fract_z
 _atom_site_occupancy
  Tb  Tb0  1  0.500000  0.873748  0.348592  1
  Yb  Yb1  1  0.500000  0.374044  0.149428  1
  Yb  Yb2  1  0.500000  0.626387  0.849441  1
  Yb  Yb3  1  0.500000  0.126705  0.652106  1
  Fe  Fe4  1  0.500000  0.371131  0.415263  1
  Fe  Fe5  1  0.500000  0.629165  0.584098  1
  Fe  Fe6  1  0.500000  0.128525  0.916631  1
  Fe  Fe7  1  0.500000  0.872200  0.083847  1
  B  B8  1  0.000000  0.112384  0.046004  1
  B  B9  1  0.000000  0.887795  0.953780  1
  B  B10  1  0.000000  0.387348  0.547157  1
  B  B11  1  0.000000  0.610404  0.453982  1
  B  B12  1  0.000000  0.139808  0.468470  1
  B  B13  1  0.000000  0.860437  0.532884  1
  B  B14  1  0.000000  0.361218  0.967697  1
  B  B15  1  0.000000  0.638747  0.031814  1
  B  B16  1  0.000000  0.024709  0.189147  1
  B  B17  1  0.000000  0.975777  0.810115  1
  B  B18  1  0.000000  0.476066  0.690517  1
  B  B19  1  0.000000  0.523549  0.309308  1
  B  B20  1  0.000000  0.221457  0.317075  1
  B  B21  1  0.000000  0.779225  0.683296  1
  B  B22  1  0.000000  0.279359  0.817791  1
  B  B23  1  0.000000  0.719812  0.181559  1
