# generated using pymatgen
data_Tm6Fe2Co2Si5Ge
_symmetry_space_group_name_H-M   'P 1'
_cell_length_a   5.54103818
_cell_length_b   5.54103918
_cell_length_c   13.45151641
_cell_angle_alpha   90.30997516
_cell_angle_beta   89.69002548
_cell_angle_gamma   137.03258345
_symmetry_Int_Tables_number   1
_chemical_formula_structural   Tm6Fe2Co2Si5Ge
_chemical_formula_sum   'Tm6 Fe2 Co2 Si5 Ge1'
_cell_volume   281.49105374
_cell_formula_units_Z   1
loop_
 _symmetry_equiv_pos_site_id
 _symmetry_equiv_pos_as_xyz
  1  'x, y, z'
loop_
 _atom_site_type_symbol
 _atom_site_label
 _atom_site_symmetry_multiplicity
 _atom_site_fract_x
 _atom_site_fract_y
 _atom_site_fract_z
 _atom_site_occupancy
  Tm  Tm0  1  0.638650  0.361350  0.249650  1
  Tm  Tm1  1  0.362372  0.637628  0.750153  1
  Tm  Tm2  1  0.921099  0.078901  0.109641  1
  Tm  Tm3  1  0.079675  0.920325  0.887577  1
  Tm  Tm4  1  0.081403  0.918597  0.613359  1
  Tm  Tm5  1  0.919173  0.080827  0.389330  1
  Fe  Fe6  1  0.211127  0.788873  0.079100  1
  Fe  Fe7  1  0.786384  0.213616  0.917498  1
  Co  Co8  1  0.785004  0.214996  0.579895  1
  Co  Co9  1  0.212691  0.787309  0.423609  1
  Si  Si10  1  0.670980  0.329020  0.750614  1
  Si  Si11  1  0.621768  0.378232  0.038907  1
  Si  Si12  1  0.376780  0.623220  0.959699  1
  Si  Si13  1  0.381852  0.618148  0.540658  1
  Si  Si14  1  0.617114  0.382886  0.460600  1
  Ge  Ge15  1  0.333927  0.666073  0.249710  1
