# generated using pymatgen
data_LaSmTcC2
_symmetry_space_group_name_H-M   'P 1'
_cell_length_a   5.38003200
_cell_length_b   6.73010600
_cell_length_c   10.21482700
_cell_angle_alpha   90.00000000
_cell_angle_beta   90.00000000
_cell_angle_gamma   90.00000000
_symmetry_Int_Tables_number   1
_chemical_formula_structural   LaSmTcC2
_chemical_formula_sum   'La4 Sm4 Tc4 C8'
_cell_volume   369.86035233
_cell_formula_units_Z   4
loop_
 _symmetry_equiv_pos_site_id
 _symmetry_equiv_pos_as_xyz
  1  'x, y, z'
loop_
 _atom_site_type_symbol
 _atom_site_label
 _atom_site_symmetry_multiplicity
 _atom_site_fract_x
 _atom_site_fract_y
 _atom_site_fract_z
 _atom_site_occupancy
  La  La0  1  0.750000  0.472630  0.789005  1
  La  La1  1  0.250000  0.027370  0.289005  1
  La  La2  1  0.750000  0.972630  0.710995  1
  La  La3  1  0.250000  0.527370  0.210995  1
  Sm  Sm4  1  0.750000  0.820060  0.054049  1
  Sm  Sm5  1  0.250000  0.179940  0.945951  1
  Sm  Sm6  1  0.750000  0.320060  0.445951  1
  Sm  Sm7  1  0.250000  0.679940  0.554049  1
  Tc  Tc8  1  0.750000  0.771685  0.357825  1
  Tc  Tc9  1  0.250000  0.728315  0.857825  1
  Tc  Tc10  1  0.250000  0.228315  0.642175  1
  Tc  Tc11  1  0.750000  0.271685  0.142175  1
  C  C12  1  0.250000  0.962085  0.741317  1
  C  C13  1  0.750000  0.537915  0.241317  1
  C  C14  1  0.250000  0.462085  0.758683  1
  C  C15  1  0.750000  0.037915  0.258683  1
  C  C16  1  0.250000  0.317067  0.464234  1
  C  C17  1  0.750000  0.182933  0.964234  1
  C  C18  1  0.250000  0.817067  0.035766  1
  C  C19  1  0.750000  0.682933  0.535766  1
