# generated using pymatgen
data_Hf6Al16Co2Pd5
_symmetry_space_group_name_H-M   'P 1'
_cell_length_a   8.67593760
_cell_length_b   8.67589082
_cell_length_c   8.66405444
_cell_angle_alpha   60.23158738
_cell_angle_beta   60.23158147
_cell_angle_gamma   59.84392044
_symmetry_Int_Tables_number   1
_chemical_formula_structural   Hf6Al16Co2Pd5
_chemical_formula_sum   'Hf6 Al16 Co2 Pd5'
_cell_volume   462.19963371
_cell_formula_units_Z   1
loop_
 _symmetry_equiv_pos_site_id
 _symmetry_equiv_pos_as_xyz
  1  'x, y, z'
loop_
 _atom_site_type_symbol
 _atom_site_label
 _atom_site_symmetry_multiplicity
 _atom_site_fract_x
 _atom_site_fract_y
 _atom_site_fract_z
 _atom_site_occupancy
  Hf  Hf0  1  0.683099  0.683102  0.319219  1
  Hf  Hf1  1  0.315067  0.682766  0.317396  1
  Hf  Hf2  1  0.682766  0.315066  0.317398  1
  Hf  Hf3  1  0.316901  0.316898  0.680781  1
  Hf  Hf4  1  0.684933  0.317234  0.682604  1
  Hf  Hf5  1  0.317234  0.684934  0.682602  1
  Al  Al6  1  0.873906  0.873909  0.363375  1
  Al  Al7  1  0.883690  0.363415  0.866583  1
  Al  Al8  1  0.363417  0.883691  0.866581  1
  Al  Al9  1  0.879769  0.879770  0.877512  1
  Al  Al10  1  0.126094  0.126091  0.636625  1
  Al  Al11  1  0.116310  0.636585  0.133417  1
  Al  Al12  1  0.636583  0.116309  0.133419  1
  Al  Al13  1  0.120231  0.120230  0.122488  1
  Al  Al14  1  0.663305  0.663306  0.008620  1
  Al  Al15  1  0.659942  0.007662  0.658331  1
  Al  Al16  1  0.007662  0.659945  0.658332  1
  Al  Al17  1  0.668408  0.668414  0.655834  1
  Al  Al18  1  0.336695  0.336694  0.991380  1
  Al  Al19  1  0.340058  0.992338  0.341669  1
  Al  Al20  1  0.992338  0.340055  0.341668  1
  Al  Al21  1  0.331592  0.331586  0.344166  1
  Co  Co22  1  0.500000  0.000000  0.500000  1
  Co  Co23  1  0.000000  0.500000  0.500000  1
  Pd  Pd24  1  0.000000  0.000000  0.000000  1
  Pd  Pd25  1  0.000000  0.000000  0.500000  1
  Pd  Pd26  1  0.500000  0.500000  0.000000  1
  Pd  Pd27  1  0.000000  0.500000  0.000000  1
  Pd  Pd28  1  0.500000  0.000000  0.000000  1
