# generated using pymatgen
data_Zr8Co2MoIr
_symmetry_space_group_name_H-M   'P 1'
_cell_length_a   8.70073602
_cell_length_b   8.70073597
_cell_length_c   8.69424500
_cell_angle_alpha   60.02467145
_cell_angle_beta   60.02467164
_cell_angle_gamma   60.05678677
_symmetry_Int_Tables_number   1
_chemical_formula_structural   Zr8Co2MoIr
_chemical_formula_sum   'Zr16 Co4 Mo2 Ir2'
_cell_volume   465.77576489
_cell_formula_units_Z   2
loop_
 _symmetry_equiv_pos_site_id
 _symmetry_equiv_pos_as_xyz
  1  'x, y, z'
loop_
 _atom_site_type_symbol
 _atom_site_label
 _atom_site_symmetry_multiplicity
 _atom_site_fract_x
 _atom_site_fract_y
 _atom_site_fract_z
 _atom_site_occupancy
  Zr  Zr0  1  0.049382  0.649780  0.650420  1
  Zr  Zr1  1  0.649780  0.049382  0.650420  1
  Zr  Zr2  1  0.649602  0.649602  0.051764  1
  Zr  Zr3  1  0.649602  0.649602  0.649034  1
  Zr  Zr4  1  0.796814  0.796814  0.203186  1
  Zr  Zr5  1  0.201276  0.201276  0.798724  1
  Zr  Zr6  1  0.799213  0.201151  0.798674  1
  Zr  Zr7  1  0.201151  0.799213  0.200961  1
  Zr  Zr8  1  0.201151  0.799213  0.798674  1
  Zr  Zr9  1  0.799213  0.201151  0.200961  1
  Zr  Zr10  1  0.435766  0.435766  0.064234  1
  Zr  Zr11  1  0.063865  0.063865  0.436135  1
  Zr  Zr12  1  0.435624  0.067320  0.434885  1
  Zr  Zr13  1  0.067320  0.435624  0.062172  1
  Zr  Zr14  1  0.067320  0.435624  0.434885  1
  Zr  Zr15  1  0.435624  0.067320  0.062172  1
  Co  Co16  1  0.420552  0.858158  0.860645  1
  Co  Co17  1  0.858158  0.420552  0.860645  1
  Co  Co18  1  0.859227  0.859227  0.420405  1
  Co  Co19  1  0.859227  0.859227  0.861140  1
  Mo  Mo20  1  0.417939  0.417939  0.744849  1
  Mo  Mo21  1  0.417939  0.417939  0.419273  1
  Ir  Ir22  1  0.748606  0.415653  0.417870  1
  Ir  Ir23  1  0.415653  0.748606  0.417870  1
