# generated using pymatgen
data_PrSmY(Si3Pd10)2
_symmetry_space_group_name_H-M   'P 1'
_cell_length_a   8.76192024
_cell_length_b   8.76192502
_cell_length_c   8.76192000
_cell_angle_alpha   59.99993591
_cell_angle_beta   59.99999334
_cell_angle_gamma   59.99999114
_symmetry_Int_Tables_number   1
_chemical_formula_structural   PrSmY(Si3Pd10)2
_chemical_formula_sum   'Pr1 Sm1 Y1 Si6 Pd20'
_cell_volume   475.64490848
_cell_formula_units_Z   1
loop_
 _symmetry_equiv_pos_site_id
 _symmetry_equiv_pos_as_xyz
  1  'x, y, z'
loop_
 _atom_site_type_symbol
 _atom_site_label
 _atom_site_symmetry_multiplicity
 _atom_site_fract_x
 _atom_site_fract_y
 _atom_site_fract_z
 _atom_site_occupancy
  Pr  Pr0  1  0.750000  0.750000  0.750000  1
  Sm  Sm1  1  0.250000  0.250000  0.250000  1
  Y  Y2  1  0.000000  0.000000  0.000000  1
  Si  Si3  1  0.733612  0.266388  0.266388  1
  Si  Si4  1  0.266388  0.733612  0.733612  1
  Si  Si5  1  0.266388  0.733612  0.266388  1
  Si  Si6  1  0.733612  0.266388  0.733612  1
  Si  Si7  1  0.266388  0.266388  0.733612  1
  Si  Si8  1  0.733612  0.733612  0.266388  1
  Pd  Pd9  1  0.385026  0.385026  0.385026  1
  Pd  Pd10  1  0.614382  0.614382  0.614382  1
  Pd  Pd11  1  0.385026  0.385026  0.844923  1
  Pd  Pd12  1  0.385026  0.844923  0.385026  1
  Pd  Pd13  1  0.614382  0.614382  0.156854  1
  Pd  Pd14  1  0.614382  0.156854  0.614382  1
  Pd  Pd15  1  0.844923  0.385026  0.385026  1
  Pd  Pd16  1  0.156854  0.614382  0.614382  1
  Pd  Pd17  1  0.345464  0.000244  0.000244  1
  Pd  Pd18  1  0.654047  0.000244  0.000244  1
  Pd  Pd19  1  0.000244  0.345464  0.654047  1
  Pd  Pd20  1  0.000244  0.654047  0.345464  1
  Pd  Pd21  1  0.000244  0.345464  0.000244  1
  Pd  Pd22  1  0.654047  0.000244  0.345464  1
  Pd  Pd23  1  0.000244  0.654047  0.000244  1
  Pd  Pd24  1  0.345464  0.000244  0.654047  1
  Pd  Pd25  1  0.000244  0.000244  0.345463  1
  Pd  Pd26  1  0.000244  0.000244  0.654048  1
  Pd  Pd27  1  0.654047  0.345464  0.000244  1
  Pd  Pd28  1  0.345464  0.654047  0.000244  1
