# generated using pymatgen
data_Hf7Zr3(ZnPb3)2
_symmetry_space_group_name_H-M   'P 1'
_cell_length_a   8.77500100
_cell_length_b   8.77604019
_cell_length_c   5.91071900
_cell_angle_alpha   90.00000000
_cell_angle_beta   90.00000000
_cell_angle_gamma   119.99607927
_symmetry_Int_Tables_number   1
_chemical_formula_structural   Hf7Zr3(ZnPb3)2
_chemical_formula_sum   'Hf7 Zr3 Zn2 Pb6'
_cell_volume   394.21566644
_cell_formula_units_Z   1
loop_
 _symmetry_equiv_pos_site_id
 _symmetry_equiv_pos_as_xyz
  1  'x, y, z'
loop_
 _atom_site_type_symbol
 _atom_site_label
 _atom_site_symmetry_multiplicity
 _atom_site_fract_x
 _atom_site_fract_y
 _atom_site_fract_z
 _atom_site_occupancy
  Hf  Hf0  1  0.333554  0.666649  0.000203  1
  Hf  Hf1  1  0.666907  0.333351  0.499797  1
  Hf  Hf2  1  0.666907  0.333351  0.000203  1
  Hf  Hf3  1  0.333554  0.666649  0.499797  1
  Hf  Hf4  1  0.999818  0.263657  0.250000  1
  Hf  Hf5  1  0.736161  0.736343  0.250000  1
  Hf  Hf6  1  0.736566  0.000000  0.750000  1
  Zr  Zr7  1  0.264263  0.000000  0.250000  1
  Zr  Zr8  1  0.263809  0.263995  0.750000  1
  Zr  Zr9  1  0.999814  0.736005  0.750000  1
  Zn  Zn10  1  0.999085  0.000000  0.000339  1
  Zn  Zn11  1  0.999085  0.000000  0.499661  1
  Pb  Pb12  1  0.614763  0.000000  0.250000  1
  Pb  Pb13  1  0.614303  0.614623  0.750000  1
  Pb  Pb14  1  0.999680  0.385377  0.750000  1
  Pb  Pb15  1  0.999655  0.613817  0.250000  1
  Pb  Pb16  1  0.385838  0.386183  0.250000  1
  Pb  Pb17  1  0.386237  0.000000  0.750000  1
