# generated using pymatgen
data_Tb8CdHgRu2
_symmetry_space_group_name_H-M   'P 1'
_cell_length_a   9.62724664
_cell_length_b   9.62724648
_cell_length_c   9.63810000
_cell_angle_alpha   59.96269283
_cell_angle_beta   59.96269339
_cell_angle_gamma   59.97508179
_symmetry_Int_Tables_number   1
_chemical_formula_structural   Tb8CdHgRu2
_chemical_formula_sum   'Tb16 Cd2 Hg2 Ru4'
_cell_volume   631.18073177
_cell_formula_units_Z   2
loop_
 _symmetry_equiv_pos_site_id
 _symmetry_equiv_pos_as_xyz
  1  'x, y, z'
loop_
 _atom_site_type_symbol
 _atom_site_label
 _atom_site_symmetry_multiplicity
 _atom_site_fract_x
 _atom_site_fract_y
 _atom_site_fract_z
 _atom_site_occupancy
  Tb  Tb0  1  0.596603  0.596603  0.598254  1
  Tb  Tb1  1  0.596603  0.596603  0.208540  1
  Tb  Tb2  1  0.596104  0.208199  0.597849  1
  Tb  Tb3  1  0.208199  0.596104  0.597849  1
  Tb  Tb4  1  0.060041  0.439758  0.439290  1
  Tb  Tb5  1  0.439758  0.060041  0.060911  1
  Tb  Tb6  1  0.439758  0.060041  0.439290  1
  Tb  Tb7  1  0.060041  0.439758  0.060911  1
  Tb  Tb8  1  0.438609  0.438609  0.061391  1
  Tb  Tb9  1  0.059267  0.059267  0.440733  1
  Tb  Tb10  1  0.188190  0.812082  0.810852  1
  Tb  Tb11  1  0.812082  0.188190  0.188875  1
  Tb  Tb12  1  0.812082  0.188190  0.810852  1
  Tb  Tb13  1  0.188190  0.812082  0.188875  1
  Tb  Tb14  1  0.812345  0.812345  0.187655  1
  Tb  Tb15  1  0.189285  0.189285  0.810715  1
  Cd  Cd16  1  0.828946  0.511411  0.829822  1
  Cd  Cd17  1  0.511411  0.828946  0.829822  1
  Hg  Hg18  1  0.832897  0.832897  0.835862  1
  Hg  Hg19  1  0.832897  0.832897  0.498343  1
  Ru  Ru20  1  0.388629  0.388629  0.389829  1
  Ru  Ru21  1  0.388629  0.388629  0.832911  1
  Ru  Ru22  1  0.388790  0.830641  0.390284  1
  Ru  Ru23  1  0.830641  0.388790  0.390284  1
