# generated using pymatgen
data_Nb6SnCl18
_symmetry_space_group_name_H-M   'P 1'
_cell_length_a   10.33852599
_cell_length_b   10.33852600
_cell_length_c   10.33852644
_cell_angle_alpha   55.79721594
_cell_angle_beta   55.79721640
_cell_angle_gamma   55.79721635
_symmetry_Int_Tables_number   1
_chemical_formula_structural   Nb6SnCl18
_chemical_formula_sum   'Nb6 Sn1 Cl18'
_cell_volume   705.22871447
_cell_formula_units_Z   1
loop_
 _symmetry_equiv_pos_site_id
 _symmetry_equiv_pos_as_xyz
  1  'x, y, z'
loop_
 _atom_site_type_symbol
 _atom_site_label
 _atom_site_symmetry_multiplicity
 _atom_site_fract_x
 _atom_site_fract_y
 _atom_site_fract_z
 _atom_site_occupancy
  Nb  Nb0  1  0.409901  0.296700  0.650809  1
  Nb  Nb1  1  0.349191  0.590099  0.703300  1
  Nb  Nb2  1  0.703300  0.349191  0.590099  1
  Nb  Nb3  1  0.296700  0.650809  0.409901  1
  Nb  Nb4  1  0.650809  0.409901  0.296700  1
  Nb  Nb5  1  0.590099  0.703300  0.349191  1
  Sn  Sn6  1  0.000000  0.000000  0.000000  1
  Cl  Cl7  1  0.569442  0.167234  0.440270  1
  Cl  Cl8  1  0.227926  0.370355  0.902318  1
  Cl  Cl9  1  0.902318  0.227926  0.370355  1
  Cl  Cl10  1  0.370355  0.902318  0.227926  1
  Cl  Cl11  1  0.772074  0.629645  0.097682  1
  Cl  Cl12  1  0.097682  0.772074  0.629645  1
  Cl  Cl13  1  0.688147  0.953009  0.169465  1
  Cl  Cl14  1  0.953009  0.169465  0.688147  1
  Cl  Cl15  1  0.169465  0.688147  0.953009  1
  Cl  Cl16  1  0.311853  0.046991  0.830535  1
  Cl  Cl17  1  0.046991  0.830535  0.311853  1
  Cl  Cl18  1  0.830535  0.311853  0.046991  1
  Cl  Cl19  1  0.559730  0.430558  0.832766  1
  Cl  Cl20  1  0.167234  0.440270  0.569442  1
  Cl  Cl21  1  0.440270  0.569442  0.167234  1
  Cl  Cl22  1  0.430558  0.832766  0.559730  1
  Cl  Cl23  1  0.832766  0.559730  0.430558  1
  Cl  Cl24  1  0.629645  0.097682  0.772074  1
