# generated using pymatgen
data_Tc7P4Ru
_symmetry_space_group_name_H-M   'P 1'
_cell_length_a   3.97606500
_cell_length_b   5.95059202
_cell_length_c   6.91782201
_cell_angle_alpha   89.99229116
_cell_angle_beta   90.00000000
_cell_angle_gamma   90.00000000
_symmetry_Int_Tables_number   1
_chemical_formula_structural   Tc7P4Ru
_chemical_formula_sum   'Tc7 P4 Ru1'
_cell_volume   163.67525673
_cell_formula_units_Z   1
loop_
 _symmetry_equiv_pos_site_id
 _symmetry_equiv_pos_as_xyz
  1  'x, y, z'
loop_
 _atom_site_type_symbol
 _atom_site_label
 _atom_site_symmetry_multiplicity
 _atom_site_fract_x
 _atom_site_fract_y
 _atom_site_fract_z
 _atom_site_occupancy
  Tc  Tc0  1  0.750000  0.010660  0.663491  1
  Tc  Tc1  1  0.250000  0.980027  0.335718  1
  Tc  Tc2  1  0.750000  0.515284  0.832266  1
  Tc  Tc3  1  0.250000  0.490497  0.166675  1
  Tc  Tc4  1  0.250000  0.356563  0.571980  1
  Tc  Tc5  1  0.750000  0.638148  0.425897  1
  Tc  Tc6  1  0.250000  0.864574  0.926032  1
  P  P7  1  0.250000  0.749653  0.608239  1
  P  P8  1  0.750000  0.243168  0.393036  1
  P  P9  1  0.250000  0.258347  0.895829  1
  P  P10  1  0.750000  0.750138  0.105029  1
  Ru  Ru11  1  0.750000  0.142940  0.075807  1
