# generated using pymatgen
data_Tb3DyC7
_symmetry_space_group_name_H-M   'P 1'
_cell_length_a   13.79775851
_cell_length_b   3.73554485
_cell_length_c   6.50314788
_cell_angle_alpha   75.35980659
_cell_angle_beta   90.00820256
_cell_angle_gamma   90.09124902
_symmetry_Int_Tables_number   1
_chemical_formula_structural   Tb3DyC7
_chemical_formula_sum   'Tb6 Dy2 C14'
_cell_volume   324.30298239
_cell_formula_units_Z   2
loop_
 _symmetry_equiv_pos_site_id
 _symmetry_equiv_pos_as_xyz
  1  'x, y, z'
loop_
 _atom_site_type_symbol
 _atom_site_label
 _atom_site_symmetry_multiplicity
 _atom_site_fract_x
 _atom_site_fract_y
 _atom_site_fract_z
 _atom_site_occupancy
  Tb  Tb0  1  0.836143  0.051948  0.838840  1
  Tb  Tb1  1  0.163857  0.948052  0.161160  1
  Tb  Tb2  1  0.055438  0.631115  0.739469  1
  Tb  Tb3  1  0.944562  0.368885  0.260531  1
  Tb  Tb4  1  0.555401  0.369305  0.760271  1
  Tb  Tb5  1  0.444599  0.630695  0.239729  1
  Dy  Dy6  1  0.336857  0.947664  0.660767  1
  Dy  Dy7  1  0.663143  0.052336  0.339233  1
  C  C8  1  0.895481  0.737542  0.548709  1
  C  C9  1  0.104519  0.262458  0.451291  1
  C  C10  1  0.395327  0.261592  0.950488  1
  C  C11  1  0.604673  0.738408  0.049512  1
  C  C12  1  0.217278  0.535349  0.924794  1
  C  C13  1  0.782722  0.464651  0.075206  1
  C  C14  1  0.716825  0.467745  0.572980  1
  C  C15  1  0.283175  0.532255  0.427020  1
  C  C16  1  0.804139  0.621899  0.545090  1
  C  C17  1  0.195861  0.378101  0.454910  1
  C  C18  1  0.304271  0.380141  0.953028  1
  C  C19  1  0.695729  0.619859  0.046972  1
  C  C20  1  0.500000  0.000000  0.500000  1
  C  C21  1  0.000000  0.000000  0.000000  1
