# generated using pymatgen
data_Sc8Ta3Ti4Si16Mo5
_symmetry_space_group_name_H-M   'P 1'
_cell_length_a   6.61025688
_cell_length_b   6.80562762
_cell_length_c   12.95688001
_cell_angle_alpha   89.96201218
_cell_angle_beta   90.04340581
_cell_angle_gamma   89.97795202
_symmetry_Int_Tables_number   1
_chemical_formula_structural   Sc8Ta3Ti4Si16Mo5
_chemical_formula_sum   'Sc8 Ta3 Ti4 Si16 Mo5'
_cell_volume   582.89013361
_cell_formula_units_Z   1
loop_
 _symmetry_equiv_pos_site_id
 _symmetry_equiv_pos_as_xyz
  1  'x, y, z'
loop_
 _atom_site_type_symbol
 _atom_site_label
 _atom_site_symmetry_multiplicity
 _atom_site_fract_x
 _atom_site_fract_y
 _atom_site_fract_z
 _atom_site_occupancy
  Sc  Sc0  1  0.498206  0.672766  0.593745  1
  Sc  Sc1  1  0.999114  0.827278  0.905577  1
  Sc  Sc2  1  0.501202  0.326521  0.094322  1
  Sc  Sc3  1  0.000783  0.173479  0.406690  1
  Sc  Sc4  1  0.500809  0.325194  0.406014  1
  Sc  Sc5  1  0.999225  0.173924  0.093640  1
  Sc  Sc6  1  0.499735  0.673800  0.906214  1
  Sc  Sc7  1  0.000970  0.823920  0.593276  1
  Ta  Ta8  1  0.332092  0.829615  0.375554  1
  Ta  Ta9  1  0.833965  0.670528  0.126277  1
  Ta  Ta10  1  0.666370  0.171074  0.872371  1
  Ti  Ti11  1  0.664757  0.171005  0.625367  1
  Ti  Ti12  1  0.166776  0.328448  0.873117  1
  Ti  Ti13  1  0.333110  0.828638  0.125995  1
  Ti  Ti14  1  0.834354  0.669675  0.374866  1
  Si  Si15  1  0.670328  0.964565  0.460122  1
  Si  Si16  1  0.170949  0.534863  0.039836  1
  Si  Si17  1  0.329065  0.035353  0.960021  1
  Si  Si18  1  0.833549  0.463670  0.541648  1
  Si  Si19  1  0.330911  0.039709  0.542820  1
  Si  Si20  1  0.833697  0.464852  0.958821  1
  Si  Si21  1  0.666025  0.965251  0.040952  1
  Si  Si22  1  0.167845  0.534123  0.460846  1
  Si  Si23  1  0.462638  0.387498  0.748476  1
  Si  Si24  1  0.968495  0.115502  0.747182  1
  Si  Si25  1  0.534228  0.612570  0.250329  1
  Si  Si26  1  0.033893  0.888212  0.250719  1
  Si  Si27  1  0.704750  0.858572  0.748260  1
  Si  Si28  1  0.201714  0.640199  0.750730  1
  Si  Si29  1  0.295916  0.141173  0.249308  1
  Si  Si30  1  0.796425  0.357874  0.251105  1
  Mo  Mo31  1  0.169149  0.332241  0.625415  1
  Mo  Mo32  1  0.837870  0.492531  0.748978  1
  Mo  Mo33  1  0.340728  0.006648  0.750060  1
  Mo  Mo34  1  0.160263  0.506207  0.250467  1
  Mo  Mo35  1  0.660101  0.992525  0.250878  1
