# generated using pymatgen
data_NaTbEr(B3Rh4)2
_symmetry_space_group_name_H-M   'P 1'
_cell_length_a   9.85104248
_cell_length_b   9.00052991
_cell_length_c   5.59063100
_cell_angle_alpha   81.30046069
_cell_angle_beta   64.57542278
_cell_angle_gamma   34.12412155
_symmetry_Int_Tables_number   1
_chemical_formula_structural   NaTbEr(B3Rh4)2
_chemical_formula_sum   'Na1 Tb1 Er1 B6 Rh8'
_cell_volume   229.85498822
_cell_formula_units_Z   1
loop_
 _symmetry_equiv_pos_site_id
 _symmetry_equiv_pos_as_xyz
  1  'x, y, z'
loop_
 _atom_site_type_symbol
 _atom_site_label
 _atom_site_symmetry_multiplicity
 _atom_site_fract_x
 _atom_site_fract_y
 _atom_site_fract_z
 _atom_site_occupancy
  Na  Na0  1  0.313980  0.313980  0.686020  1
  Tb  Tb1  1  0.684330  0.684330  0.315670  1
  Er  Er2  1  0.492547  0.492547  0.507453  1
  B  B3  1  0.670256  0.987010  0.012990  1
  B  B4  1  0.987010  0.670256  0.329744  1
  B  B5  1  0.330996  0.016848  0.983152  1
  B  B6  1  0.016848  0.330996  0.669004  1
  B  B7  1  0.168234  0.832656  0.167344  1
  B  B8  1  0.832656  0.168234  0.831766  1
  Rh  Rh9  1  0.585163  0.585163  0.914837  1
  Rh  Rh10  1  0.913562  0.913562  0.086438  1
  Rh  Rh11  1  0.415112  0.415112  0.084888  1
  Rh  Rh12  1  0.085163  0.085163  0.414837  1
  Rh  Rh13  1  0.915112  0.915112  0.584888  1
  Rh  Rh14  1  0.251323  0.251323  0.248677  1
  Rh  Rh15  1  0.086386  0.086386  0.913614  1
  Rh  Rh16  1  0.751323  0.751323  0.748677  1
