# generated using pymatgen
data_Dy3Si5N9O
_symmetry_space_group_name_H-M   'P 1'
_cell_length_a   5.01467400
_cell_length_b   10.72286300
_cell_length_c   16.26924600
_cell_angle_alpha   90.00000000
_cell_angle_beta   90.00000000
_cell_angle_gamma   90.00000000
_symmetry_Int_Tables_number   1
_chemical_formula_structural   Dy3Si5N9O
_chemical_formula_sum   'Dy12 Si20 N36 O4'
_cell_volume   874.82440165
_cell_formula_units_Z   4
loop_
 _symmetry_equiv_pos_site_id
 _symmetry_equiv_pos_as_xyz
  1  'x, y, z'
loop_
 _atom_site_type_symbol
 _atom_site_label
 _atom_site_symmetry_multiplicity
 _atom_site_fract_x
 _atom_site_fract_y
 _atom_site_fract_z
 _atom_site_occupancy
  Dy  Dy0  1  0.662045  0.929180  0.599702  1
  Dy  Dy1  1  0.337955  0.070820  0.400298  1
  Dy  Dy2  1  0.337955  0.429180  0.400298  1
  Dy  Dy3  1  0.337955  0.570820  0.099702  1
  Dy  Dy4  1  0.662045  0.570820  0.599702  1
  Dy  Dy5  1  0.662045  0.429180  0.900298  1
  Dy  Dy6  1  0.662045  0.070820  0.900298  1
  Dy  Dy7  1  0.337955  0.929180  0.099702  1
  Dy  Dy8  1  0.704004  0.750000  0.795579  1
  Dy  Dy9  1  0.295996  0.250000  0.204421  1
  Dy  Dy10  1  0.295996  0.750000  0.295579  1
  Dy  Dy11  1  0.704004  0.250000  0.704421  1
  Si  Si12  1  0.251434  0.750000  0.669841  1
  Si  Si13  1  0.748566  0.250000  0.330159  1
  Si  Si14  1  0.748566  0.750000  0.169841  1
  Si  Si15  1  0.251434  0.250000  0.830159  1
  Si  Si16  1  0.896059  0.896478  0.423627  1
  Si  Si17  1  0.103941  0.103522  0.576373  1
  Si  Si18  1  0.103941  0.396478  0.576373  1
  Si  Si19  1  0.103941  0.603522  0.923627  1
  Si  Si20  1  0.896059  0.603522  0.423627  1
  Si  Si21  1  0.896059  0.396478  0.076373  1
  Si  Si22  1  0.896059  0.103522  0.076373  1
  Si  Si23  1  0.103941  0.896478  0.923627  1
  Si  Si24  1  0.609704  0.750000  0.972795  1
  Si  Si25  1  0.390296  0.250000  0.027205  1
  Si  Si26  1  0.390296  0.750000  0.472795  1
  Si  Si27  1  0.609704  0.250000  0.527205  1
  Si  Si28  1  0.182353  0.000000  0.750000  1
  Si  Si29  1  0.817647  0.000000  0.250000  1
  Si  Si30  1  0.817647  0.500000  0.250000  1
  Si  Si31  1  0.182353  0.500000  0.750000  1
  N  N32  1  0.975983  0.943905  0.829332  1
  N  N33  1  0.024017  0.056095  0.170668  1
  N  N34  1  0.024017  0.443905  0.170668  1
  N  N35  1  0.024017  0.556095  0.329332  1
  N  N36  1  0.975983  0.556095  0.829332  1
  N  N37  1  0.975983  0.443905  0.670668  1
  N  N38  1  0.975983  0.056095  0.670668  1
  N  N39  1  0.024017  0.943905  0.329332  1
  N  N40  1  0.940659  0.750000  0.936908  1
  N  N41  1  0.059341  0.250000  0.063092  1
  N  N42  1  0.059341  0.750000  0.436908  1
  N  N43  1  0.940659  0.250000  0.563092  1
  N  N44  1  0.405082  0.750000  0.575640  1
  N  N45  1  0.594918  0.250000  0.424360  1
  N  N46  1  0.594918  0.750000  0.075640  1
  N  N47  1  0.405082  0.250000  0.924360  1
  N  N48  1  0.447178  0.880174  0.932240  1
  N  N49  1  0.552822  0.119826  0.067760  1
  N  N50  1  0.552822  0.380174  0.067760  1
  N  N51  1  0.552822  0.619826  0.432240  1
  N  N52  1  0.447178  0.619826  0.932240  1
  N  N53  1  0.447178  0.380174  0.567760  1
  N  N54  1  0.447178  0.119826  0.567760  1
  N  N55  1  0.552822  0.880174  0.432240  1
  N  N56  1  0.000000  0.000000  0.000000  1
  N  N57  1  0.000000  0.500000  0.000000  1
  N  N58  1  0.000000  0.500000  0.500000  1
  N  N59  1  0.000000  0.000000  0.500000  1
  N  N60  1  0.390071  0.879165  0.717281  1
  N  N61  1  0.609929  0.120835  0.282719  1
  N  N62  1  0.609929  0.379165  0.282719  1
  N  N63  1  0.609929  0.620835  0.217281  1
  N  N64  1  0.390071  0.620835  0.717281  1
  N  N65  1  0.390071  0.379165  0.782719  1
  N  N66  1  0.390071  0.120835  0.782719  1
  N  N67  1  0.609929  0.879165  0.217281  1
  O  O68  1  0.917475  0.750000  0.667331  1
  O  O69  1  0.082525  0.250000  0.332669  1
  O  O70  1  0.082525  0.750000  0.167331  1
  O  O71  1  0.917475  0.250000  0.832669  1
