# generated using pymatgen
data_CrFeCo4(P2Ru)2
_symmetry_space_group_name_H-M   'P 1'
_cell_length_a   3.61653100
_cell_length_b   5.75437482
_cell_length_c   6.65163217
_cell_angle_alpha   90.09180624
_cell_angle_beta   90.00000000
_cell_angle_gamma   90.00000000
_symmetry_Int_Tables_number   1
_chemical_formula_structural   CrFeCo4(P2Ru)2
_chemical_formula_sum   'Cr1 Fe1 Co4 P4 Ru2'
_cell_volume   138.42610733
_cell_formula_units_Z   1
loop_
 _symmetry_equiv_pos_site_id
 _symmetry_equiv_pos_as_xyz
  1  'x, y, z'
loop_
 _atom_site_type_symbol
 _atom_site_label
 _atom_site_symmetry_multiplicity
 _atom_site_fract_x
 _atom_site_fract_y
 _atom_site_fract_z
 _atom_site_occupancy
  Cr  Cr0  1  0.750000  0.971168  0.826795  1
  Fe  Fe1  1  0.750000  0.469696  0.663875  1
  Co  Co2  1  0.250000  0.142481  0.569068  1
  Co  Co3  1  0.250000  0.641781  0.932383  1
  Co  Co4  1  0.750000  0.857694  0.438869  1
  Co  Co5  1  0.750000  0.359617  0.061281  1
  P  P6  1  0.250000  0.761799  0.622715  1
  P  P7  1  0.250000  0.266067  0.876954  1
  P  P8  1  0.750000  0.239427  0.383040  1
  P  P9  1  0.750000  0.736100  0.124403  1
  Ru  Ru10  1  0.250000  0.027083  0.165133  1
  Ru  Ru11  1  0.250000  0.527083  0.335484  1
