# generated using pymatgen
data_Cs3KAlGaSe5
_symmetry_space_group_name_H-M   'P 1'
_cell_length_a   8.40575247
_cell_length_b   9.01464099
_cell_length_c   11.42067778
_cell_angle_alpha   77.01915116
_cell_angle_beta   84.14611454
_cell_angle_gamma   81.08528559
_symmetry_Int_Tables_number   1
_chemical_formula_structural   Cs3KAlGaSe5
_chemical_formula_sum   'Cs6 K2 Al2 Ga2 Se10'
_cell_volume   831.06689974
_cell_formula_units_Z   2
loop_
 _symmetry_equiv_pos_site_id
 _symmetry_equiv_pos_as_xyz
  1  'x, y, z'
loop_
 _atom_site_type_symbol
 _atom_site_label
 _atom_site_symmetry_multiplicity
 _atom_site_fract_x
 _atom_site_fract_y
 _atom_site_fract_z
 _atom_site_occupancy
  Cs  Cs0  1  0.187915  0.087378  0.871309  1
  Cs  Cs1  1  0.051981  0.605006  0.762269  1
  Cs  Cs2  1  0.812085  0.912622  0.128691  1
  Cs  Cs3  1  0.948019  0.394994  0.237731  1
  Cs  Cs4  1  0.573083  0.711513  0.506029  1
  Cs  Cs5  1  0.426917  0.288487  0.493971  1
  K  K6  1  0.433905  0.337464  0.084246  1
  K  K7  1  0.566095  0.662536  0.915754  1
  Al  Al8  1  0.901758  0.082022  0.599724  1
  Al  Al9  1  0.098242  0.917978  0.400276  1
  Ga  Ga10  1  0.290495  0.727941  0.207245  1
  Ga  Ga11  1  0.709505  0.272059  0.792755  1
  Se  Se12  1  0.883305  0.348037  0.604300  1
  Se  Se13  1  0.183081  0.963663  0.584430  1
  Se  Se14  1  0.440707  0.405225  0.775347  1
  Se  Se15  1  0.181054  0.688410  0.032624  1
  Se  Se16  1  0.818946  0.311590  0.967376  1
  Se  Se17  1  0.559293  0.594775  0.224653  1
  Se  Se18  1  0.116695  0.651963  0.395700  1
  Se  Se19  1  0.262477  0.012819  0.221032  1
  Se  Se20  1  0.737523  0.987181  0.778968  1
  Se  Se21  1  0.816919  0.036337  0.415570  1
