# generated using pymatgen
data_LiSm2PaIn3Rh2
_symmetry_space_group_name_H-M   'P 1'
_cell_length_a   7.67422062
_cell_length_b   7.96208968
_cell_length_c   3.82716100
_cell_angle_alpha   90.00000000
_cell_angle_beta   90.00000000
_cell_angle_gamma   121.24879791
_symmetry_Int_Tables_number   1
_chemical_formula_structural   LiSm2PaIn3Rh2
_chemical_formula_sum   'Li1 Sm2 Pa1 In3 Rh2'
_cell_volume   199.92401014
_cell_formula_units_Z   1
loop_
 _symmetry_equiv_pos_site_id
 _symmetry_equiv_pos_as_xyz
  1  'x, y, z'
loop_
 _atom_site_type_symbol
 _atom_site_label
 _atom_site_symmetry_multiplicity
 _atom_site_fract_x
 _atom_site_fract_y
 _atom_site_fract_z
 _atom_site_occupancy
  Li  Li0  1  0.000000  0.011024  0.500000  1
  Sm  Sm1  1  0.585985  0.584184  0.500000  1
  Sm  Sm2  1  0.414015  0.998199  0.500000  1
  Pa  Pa3  1  0.000000  0.430053  0.500000  1
  In  In4  1  0.257782  0.251214  0.000000  1
  In  In5  1  0.000000  0.762176  0.000000  1
  In  In6  1  0.742218  0.993432  0.000000  1
  Rh  Rh7  1  0.290013  0.629865  0.000000  1
  Rh  Rh8  1  0.709987  0.339852  0.000000  1
