# generated using pymatgen
data_NaDy(PtRh)2
_symmetry_space_group_name_H-M   'P 1'
_cell_length_a   5.30011865
_cell_length_b   5.34432283
_cell_length_c   5.34432267
_cell_angle_alpha   60.40018456
_cell_angle_beta   60.27321710
_cell_angle_gamma   60.27323813
_symmetry_Int_Tables_number   1
_chemical_formula_structural   NaDy(PtRh)2
_chemical_formula_sum   'Na1 Dy1 Pt2 Rh2'
_cell_volume   107.80634558
_cell_formula_units_Z   1
loop_
 _symmetry_equiv_pos_site_id
 _symmetry_equiv_pos_as_xyz
  1  'x, y, z'
loop_
 _atom_site_type_symbol
 _atom_site_label
 _atom_site_symmetry_multiplicity
 _atom_site_fract_x
 _atom_site_fract_y
 _atom_site_fract_z
 _atom_site_occupancy
  Na  Na0  1  0.749619  0.750381  0.750381  1
  Dy  Dy1  1  0.500877  0.499123  0.499123  1
  Pt  Pt2  1  0.124746  0.625845  0.124665  1
  Pt  Pt3  1  0.124746  0.124665  0.625845  1
  Rh  Rh4  1  0.125570  0.124994  0.124994  1
  Rh  Rh5  1  0.624443  0.124994  0.124994  1
