# generated using pymatgen
data_YHoHfIr3
_symmetry_space_group_name_H-M   'P 1'
_cell_length_a   5.30493279
_cell_length_b   5.30493272
_cell_length_c   5.30493386
_cell_angle_alpha   64.91565157
_cell_angle_beta   64.91564622
_cell_angle_gamma   64.91566012
_symmetry_Int_Tables_number   1
_chemical_formula_structural   YHoHfIr3
_chemical_formula_sum   'Y1 Ho1 Hf1 Ir3'
_cell_volume   116.90635199
_cell_formula_units_Z   1
loop_
 _symmetry_equiv_pos_site_id
 _symmetry_equiv_pos_as_xyz
  1  'x, y, z'
loop_
 _atom_site_type_symbol
 _atom_site_label
 _atom_site_symmetry_multiplicity
 _atom_site_fract_x
 _atom_site_fract_y
 _atom_site_fract_z
 _atom_site_occupancy
  Y  Y0  1  0.999196  0.999196  0.999196  1
  Ho  Ho1  1  0.251555  0.251555  0.251555  1
  Hf  Hf2  1  0.624979  0.624979  0.624979  1
  Ir  Ir3  1  0.624540  0.624540  0.125190  1
  Ir  Ir4  1  0.624540  0.125190  0.624540  1
  Ir  Ir5  1  0.125190  0.624540  0.624540  1
