# generated using pymatgen
data_Tb12NdSm7Sn16
_symmetry_space_group_name_H-M   'P 1'
_cell_length_a   8.12575523
_cell_length_b   8.27102356
_cell_length_c   15.61271400
_cell_angle_alpha   89.95137735
_cell_angle_beta   89.96850964
_cell_angle_gamma   90.04520155
_symmetry_Int_Tables_number   1
_chemical_formula_structural   Tb12NdSm7Sn16
_chemical_formula_sum   'Tb12 Nd1 Sm7 Sn16'
_cell_volume   1049.30330431
_cell_formula_units_Z   1
loop_
 _symmetry_equiv_pos_site_id
 _symmetry_equiv_pos_as_xyz
  1  'x, y, z'
loop_
 _atom_site_type_symbol
 _atom_site_label
 _atom_site_symmetry_multiplicity
 _atom_site_fract_x
 _atom_site_fract_y
 _atom_site_fract_z
 _atom_site_occupancy
  Tb  Tb0  1  0.365726  0.835824  0.878108  1
  Tb  Tb1  1  0.865921  0.664198  0.621935  1
  Tb  Tb2  1  0.634200  0.164081  0.378015  1
  Tb  Tb3  1  0.134216  0.335932  0.122058  1
  Tb  Tb4  1  0.634234  0.164028  0.122172  1
  Tb  Tb5  1  0.133979  0.335854  0.378020  1
  Tb  Tb6  1  0.365919  0.835657  0.621824  1
  Tb  Tb7  1  0.865897  0.664572  0.878060  1
  Tb  Tb8  1  0.197730  0.502546  0.749648  1
  Tb  Tb9  1  0.698051  0.997818  0.749789  1
  Tb  Tb10  1  0.802032  0.497705  0.249926  1
  Tb  Tb11  1  0.301950  0.002350  0.250141  1
  Nd  Nd12  1  0.517614  0.320226  0.902387  1
  Sm  Sm13  1  0.018331  0.179156  0.597787  1
  Sm  Sm14  1  0.481770  0.679567  0.402027  1
  Sm  Sm15  1  0.981847  0.820616  0.098023  1
  Sm  Sm16  1  0.481794  0.679390  0.098131  1
  Sm  Sm17  1  0.981644  0.820585  0.402017  1
  Sm  Sm18  1  0.518561  0.320438  0.598173  1
  Sm  Sm19  1  0.018758  0.179335  0.902081  1
  Sn  Sn20  1  0.295931  0.037640  0.041783  1
  Sn  Sn21  1  0.795961  0.462623  0.458110  1
  Sn  Sn22  1  0.704067  0.962573  0.541846  1
  Sn  Sn23  1  0.203139  0.537899  0.958356  1
  Sn  Sn24  1  0.704444  0.962554  0.958112  1
  Sn  Sn25  1  0.204170  0.537043  0.541849  1
  Sn  Sn26  1  0.295909  0.037375  0.458071  1
  Sn  Sn27  1  0.796517  0.462944  0.042085  1
  Sn  Sn28  1  0.564637  0.620645  0.750205  1
  Sn  Sn29  1  0.064518  0.879770  0.749939  1
  Sn  Sn30  1  0.435409  0.379545  0.250052  1
  Sn  Sn31  1  0.935457  0.120336  0.250015  1
  Sn  Sn32  1  0.325444  0.143283  0.749410  1
  Sn  Sn33  1  0.826908  0.355915  0.749842  1
  Sn  Sn34  1  0.673688  0.855834  0.250000  1
  Sn  Sn35  1  0.173627  0.644141  0.250004  1
