# generated using pymatgen
data_SrLiAsS3
_symmetry_space_group_name_H-M   'P 1'
_cell_length_a   12.18808900
_cell_length_b   5.90023899
_cell_length_c   7.65937200
_cell_angle_alpha   87.94436498
_cell_angle_beta   90.00000000
_cell_angle_gamma   90.00000000
_symmetry_Int_Tables_number   1
_chemical_formula_structural   SrLiAsS3
_chemical_formula_sum   'Sr4 Li4 As4 S12'
_cell_volume   550.45118460
_cell_formula_units_Z   4
loop_
 _symmetry_equiv_pos_site_id
 _symmetry_equiv_pos_as_xyz
  1  'x, y, z'
loop_
 _atom_site_type_symbol
 _atom_site_label
 _atom_site_symmetry_multiplicity
 _atom_site_fract_x
 _atom_site_fract_y
 _atom_site_fract_z
 _atom_site_occupancy
  Sr  Sr0  1  0.572879  0.746161  0.668772  1
  Sr  Sr1  1  0.072879  0.253839  0.831228  1
  Sr  Sr2  1  0.427121  0.253839  0.331228  1
  Sr  Sr3  1  0.927121  0.746161  0.168772  1
  Li  Li4  1  0.772378  0.248938  0.364429  1
  Li  Li5  1  0.727622  0.248938  0.864429  1
  Li  Li6  1  0.272378  0.751062  0.135571  1
  Li  Li7  1  0.227622  0.751062  0.635571  1
  As  As8  1  0.900123  0.771648  0.663693  1
  As  As9  1  0.099877  0.228352  0.336307  1
  As  As10  1  0.599877  0.771648  0.163693  1
  As  As11  1  0.400123  0.228352  0.836307  1
  S  S12  1  0.442405  0.757621  0.335161  1
  S  S13  1  0.942405  0.242379  0.164839  1
  S  S14  1  0.557595  0.242379  0.664839  1
  S  S15  1  0.057595  0.757621  0.835161  1
  S  S16  1  0.132711  0.849854  0.355936  1
  S  S17  1  0.632711  0.150146  0.144064  1
  S  S18  1  0.867289  0.150146  0.644064  1
  S  S19  1  0.774789  0.665336  0.873265  1
  S  S20  1  0.725211  0.665336  0.373265  1
  S  S21  1  0.225211  0.334664  0.126735  1
  S  S22  1  0.274789  0.334664  0.626735  1
  S  S23  1  0.367289  0.849854  0.855936  1
