# generated using pymatgen
data_Tb2EuTaO7
_symmetry_space_group_name_H-M   'P 1'
_cell_length_a   6.51495183
_cell_length_b   6.51495100
_cell_length_c   7.58171800
_cell_angle_alpha   90.00000000
_cell_angle_beta   90.00000000
_cell_angle_gamma   108.81783341
_symmetry_Int_Tables_number   1
_chemical_formula_structural   Tb2EuTaO7
_chemical_formula_sum   'Tb4 Eu2 Ta2 O14'
_cell_volume   304.60220885
_cell_formula_units_Z   2
loop_
 _symmetry_equiv_pos_site_id
 _symmetry_equiv_pos_as_xyz
  1  'x, y, z'
loop_
 _atom_site_type_symbol
 _atom_site_label
 _atom_site_symmetry_multiplicity
 _atom_site_fract_x
 _atom_site_fract_y
 _atom_site_fract_z
 _atom_site_occupancy
  Tb  Tb0  1  0.000201  0.465093  0.747837  1
  Tb  Tb1  1  0.999799  0.534907  0.247837  1
  Tb  Tb2  1  0.534907  0.999799  0.752163  1
  Tb  Tb3  1  0.465093  0.000201  0.252163  1
  Eu  Eu4  1  0.506111  0.506111  0.500000  1
  Eu  Eu5  1  0.493889  0.493889  0.000000  1
  Ta  Ta6  1  0.999757  0.999757  0.500000  1
  Ta  Ta7  1  0.000243  0.000243  0.000000  1
  O  O8  1  0.639430  0.360570  0.750000  1
  O  O9  1  0.360570  0.639430  0.250000  1
  O  O10  1  0.935753  0.064247  0.750000  1
  O  O11  1  0.064247  0.935753  0.250000  1
  O  O12  1  0.930331  0.679102  0.529965  1
  O  O13  1  0.069669  0.320898  0.029965  1
  O  O14  1  0.320898  0.069669  0.970035  1
  O  O15  1  0.679102  0.930331  0.470035  1
  O  O16  1  0.367396  0.632604  0.750000  1
  O  O17  1  0.632604  0.367396  0.250000  1
  O  O18  1  0.937938  0.684427  0.965017  1
  O  O19  1  0.062062  0.315573  0.465017  1
  O  O20  1  0.315573  0.062062  0.534983  1
  O  O21  1  0.684427  0.937938  0.034983  1
