# generated using pymatgen
data_Zr2NbP6WO24
_symmetry_space_group_name_H-M   'P 1'
_cell_length_a   8.88881546
_cell_length_b   8.88857172
_cell_length_c   9.15545291
_cell_angle_alpha   90.12060134
_cell_angle_beta   118.89901835
_cell_angle_gamma   119.99252551
_symmetry_Int_Tables_number   1
_chemical_formula_structural   Zr2NbP6WO24
_chemical_formula_sum   'Zr2 Nb1 P6 W1 O24'
_cell_volume   519.38409737
_cell_formula_units_Z   1
loop_
 _symmetry_equiv_pos_site_id
 _symmetry_equiv_pos_as_xyz
  1  'x, y, z'
loop_
 _atom_site_type_symbol
 _atom_site_label
 _atom_site_symmetry_multiplicity
 _atom_site_fract_x
 _atom_site_fract_y
 _atom_site_fract_z
 _atom_site_occupancy
  Zr  Zr0  1  0.215182  0.858866  0.073701  1
  Zr  Zr1  1  0.783928  0.640748  0.425608  1
  Nb  Nb2  1  0.783951  0.141112  0.925141  1
  P  P3  1  0.998353  0.969377  0.248771  1
  P  P4  1  0.279264  0.529817  0.251208  1
  P  P5  1  0.284722  0.748677  0.746519  1
  P  P6  1  0.720499  0.249013  0.252218  1
  P  P7  1  0.712043  0.463978  0.747854  1
  P  P8  1  0.002978  0.038288  0.750516  1
  W  W9  1  0.209970  0.356385  0.565729  1
  O  O10  1  0.285427  0.701388  0.224089  1
  O  O11  1  0.868634  0.001967  0.080777  1
  O  O12  1  0.856124  0.864098  0.592971  1
  O  O13  1  0.846799  0.806559  0.274942  1
  O  O14  1  0.143270  0.938126  0.230865  1
  O  O15  1  0.469883  0.543669  0.278561  1
  O  O16  1  0.102248  0.734001  0.582980  1
  O  O17  1  0.897805  0.632949  0.910376  1
  O  O18  1  0.279749  0.772127  0.908958  1
  O  O19  1  0.494321  0.916501  0.780615  1
  O  O20  1  0.725214  0.482909  0.587878  1
  O  O21  1  0.727869  0.423778  0.270885  1
  O  O22  1  0.285350  0.575798  0.717478  1
  O  O23  1  0.275199  0.507207  0.418303  1
  O  O24  1  0.525162  0.083696  0.230268  1
  O  O25  1  0.724971  0.211421  0.089440  1
  O  O26  1  0.079865  0.360784  0.087893  1
  O  O27  1  0.913855  0.276559  0.422510  1
  O  O28  1  0.505801  0.431055  0.710745  1
  O  O29  1  0.866810  0.080429  0.780460  1
  O  O30  1  0.141764  0.206970  0.714247  1
  O  O31  1  0.139808  0.142328  0.412878  1
  O  O32  1  0.146426  0.019024  0.917761  1
  O  O33  1  0.706754  0.290398  0.786855  1
