# generated using pymatgen
data_Nd3BeSi7Rh2
_symmetry_space_group_name_H-M   'P 1'
_cell_length_a   13.46572700
_cell_length_b   13.46572659
_cell_length_c   4.14458600
_cell_angle_alpha   90.00000000
_cell_angle_beta   90.00000000
_cell_angle_gamma   161.61212314
_symmetry_Int_Tables_number   1
_chemical_formula_structural   Nd3BeSi7Rh2
_chemical_formula_sum   'Nd3 Be1 Si7 Rh2'
_cell_volume   237.06579003
_cell_formula_units_Z   1
loop_
 _symmetry_equiv_pos_site_id
 _symmetry_equiv_pos_as_xyz
  1  'x, y, z'
loop_
 _atom_site_type_symbol
 _atom_site_label
 _atom_site_symmetry_multiplicity
 _atom_site_fract_x
 _atom_site_fract_y
 _atom_site_fract_z
 _atom_site_occupancy
  Nd  Nd0  1  0.004678  0.995322  0.000000  1
  Nd  Nd1  1  0.688144  0.311856  0.500000  1
  Nd  Nd2  1  0.320285  0.679715  0.500000  1
  Be  Be3  1  0.859861  0.140139  0.000000  1
  Si  Si4  1  0.593719  0.406281  0.000000  1
  Si  Si5  1  0.405001  0.594999  0.000000  1
  Si  Si6  1  0.771516  0.228484  0.000000  1
  Si  Si7  1  0.230033  0.769967  0.000000  1
  Si  Si8  1  0.907785  0.092215  0.500000  1
  Si  Si9  1  0.092467  0.907533  0.500000  1
  Si  Si10  1  0.540546  0.459454  0.500000  1
  Rh  Rh11  1  0.135550  0.864450  0.000000  1
  Rh  Rh12  1  0.450417  0.549583  0.500000  1
