# generated using pymatgen
data_Nd16TcAg4Pt3
_symmetry_space_group_name_H-M   'P 1'
_cell_length_a   9.96616386
_cell_length_b   9.96616291
_cell_length_c   9.96616238
_cell_angle_alpha   59.50572440
_cell_angle_beta   59.50572117
_cell_angle_gamma   59.50573404
_symmetry_Int_Tables_number   1
_chemical_formula_structural   Nd16TcAg4Pt3
_chemical_formula_sum   'Nd16 Tc1 Ag4 Pt3'
_cell_volume   692.08516777
_cell_formula_units_Z   1
loop_
 _symmetry_equiv_pos_site_id
 _symmetry_equiv_pos_as_xyz
  1  'x, y, z'
loop_
 _atom_site_type_symbol
 _atom_site_label
 _atom_site_symmetry_multiplicity
 _atom_site_fract_x
 _atom_site_fract_y
 _atom_site_fract_z
 _atom_site_occupancy
  Nd  Nd0  1  0.354945  0.354945  0.354945  1
  Nd  Nd1  1  0.349682  0.349682  0.946350  1
  Nd  Nd2  1  0.349682  0.946350  0.349682  1
  Nd  Nd3  1  0.946350  0.349682  0.349682  1
  Nd  Nd4  1  0.815457  0.188482  0.188482  1
  Nd  Nd5  1  0.192370  0.807245  0.807245  1
  Nd  Nd6  1  0.188482  0.815457  0.188482  1
  Nd  Nd7  1  0.807245  0.192370  0.807245  1
  Nd  Nd8  1  0.188482  0.188482  0.815457  1
  Nd  Nd9  1  0.807245  0.807245  0.192370  1
  Nd  Nd10  1  0.934434  0.563137  0.563137  1
  Nd  Nd11  1  0.558565  0.937047  0.937047  1
  Nd  Nd12  1  0.563137  0.934434  0.563137  1
  Nd  Nd13  1  0.937047  0.558565  0.937047  1
  Nd  Nd14  1  0.563137  0.563137  0.934434  1
  Nd  Nd15  1  0.937047  0.937047  0.558565  1
  Tc  Tc16  1  0.140548  0.140548  0.140548  1
  Ag  Ag17  1  0.582550  0.582550  0.582550  1
  Ag  Ag18  1  0.582766  0.582766  0.255148  1
  Ag  Ag19  1  0.582766  0.255148  0.582766  1
  Ag  Ag20  1  0.255148  0.582766  0.582766  1
  Pt  Pt21  1  0.146292  0.146292  0.570334  1
  Pt  Pt22  1  0.146292  0.570334  0.146292  1
  Pt  Pt23  1  0.570334  0.146292  0.146292  1
