# generated using pymatgen
data_PuUPN2
_symmetry_space_group_name_H-M   'P 1'
_cell_length_a   3.74698300
_cell_length_b   3.74698371
_cell_length_c   6.44823100
_cell_angle_alpha   90.00000000
_cell_angle_beta   90.00000000
_cell_angle_gamma   120.00000254
_symmetry_Int_Tables_number   1
_chemical_formula_structural   PuUPN2
_chemical_formula_sum   'Pu1 U1 P1 N2'
_cell_volume   78.40337099
_cell_formula_units_Z   1
loop_
 _symmetry_equiv_pos_site_id
 _symmetry_equiv_pos_as_xyz
  1  'x, y, z'
loop_
 _atom_site_type_symbol
 _atom_site_label
 _atom_site_symmetry_multiplicity
 _atom_site_fract_x
 _atom_site_fract_y
 _atom_site_fract_z
 _atom_site_occupancy
  Pu  Pu0  1  0.666667  0.333333  0.723666  1
  U  U1  1  0.333333  0.666667  0.282405  1
  P  P2  1  0.000000  0.000000  0.997686  1
  N  N3  1  0.333333  0.666667  0.627664  1
  N  N4  1  0.666667  0.333333  0.368579  1
