# generated using pymatgen
data_Hf3Zr3Al8Si8Rh7
_symmetry_space_group_name_H-M   'P 1'
_cell_length_a   8.57218362
_cell_length_b   8.56699537
_cell_length_c   8.56329950
_cell_angle_alpha   60.05324073
_cell_angle_beta   59.99508987
_cell_angle_gamma   59.95161541
_symmetry_Int_Tables_number   1
_chemical_formula_structural   Hf3Zr3Al8Si8Rh7
_chemical_formula_sum   'Hf3 Zr3 Al8 Si8 Rh7'
_cell_volume   444.67761503
_cell_formula_units_Z   1
loop_
 _symmetry_equiv_pos_site_id
 _symmetry_equiv_pos_as_xyz
  1  'x, y, z'
loop_
 _atom_site_type_symbol
 _atom_site_label
 _atom_site_symmetry_multiplicity
 _atom_site_fract_x
 _atom_site_fract_y
 _atom_site_fract_z
 _atom_site_occupancy
  Hf  Hf0  1  0.308865  0.308302  0.691699  1
  Hf  Hf1  1  0.690425  0.309577  0.690421  1
  Hf  Hf2  1  0.691701  0.691133  0.308866  1
  Zr  Zr3  1  0.692937  0.307066  0.307586  1
  Zr  Zr4  1  0.307586  0.692412  0.692934  1
  Zr  Zr5  1  0.306327  0.693669  0.306333  1
  Al  Al6  1  0.120816  0.120960  0.120162  1
  Al  Al7  1  0.120102  0.120888  0.638808  1
  Al  Al8  1  0.638806  0.120202  0.120100  1
  Al  Al9  1  0.120158  0.638066  0.120815  1
  Al  Al10  1  0.879111  0.879900  0.879799  1
  Al  Al11  1  0.879041  0.879182  0.361937  1
  Al  Al12  1  0.879799  0.361191  0.879111  1
  Al  Al13  1  0.361937  0.879839  0.879039  1
  Si  Si14  1  0.340659  0.340286  0.340865  1
  Si  Si15  1  0.341165  0.340573  0.977538  1
  Si  Si16  1  0.977541  0.340721  0.341164  1
  Si  Si17  1  0.340864  0.978188  0.340659  1
  Si  Si18  1  0.659433  0.658836  0.659274  1
  Si  Si19  1  0.659714  0.659338  0.021812  1
  Si  Si20  1  0.659273  0.022463  0.659428  1
  Si  Si21  1  0.021809  0.659134  0.659715  1
  Rh  Rh22  1  0.000581  0.999418  0.000584  1
  Rh  Rh23  1  0.500951  0.000801  0.999198  1
  Rh  Rh24  1  0.999198  0.499050  0.500950  1
  Rh  Rh25  1  0.000439  0.499563  0.000438  1
  Rh  Rh26  1  0.999181  0.000818  0.501138  1
  Rh  Rh27  1  0.500441  0.999559  0.500439  1
  Rh  Rh28  1  0.501135  0.498862  0.999182  1
