# generated using pymatgen
data_CoBi3PtRh3O14
_symmetry_space_group_name_H-M   'P 1'
_cell_length_a   7.32118384
_cell_length_b   7.18443838
_cell_length_c   7.33984700
_cell_angle_alpha   59.28183012
_cell_angle_beta   59.91564177
_cell_angle_gamma   59.26602044
_symmetry_Int_Tables_number   1
_chemical_formula_structural   CoBi3PtRh3O14
_chemical_formula_sum   'Co1 Bi3 Pt1 Rh3 O14'
_cell_volume   269.78655324
_cell_formula_units_Z   1
loop_
 _symmetry_equiv_pos_site_id
 _symmetry_equiv_pos_as_xyz
  1  'x, y, z'
loop_
 _atom_site_type_symbol
 _atom_site_label
 _atom_site_symmetry_multiplicity
 _atom_site_fract_x
 _atom_site_fract_y
 _atom_site_fract_z
 _atom_site_occupancy
  Co  Co0  1  0.125000  0.625000  0.125000  1
  Bi  Bi1  1  0.125000  0.125000  0.125000  1
  Bi  Bi2  1  0.625000  0.125000  0.125000  1
  Bi  Bi3  1  0.125000  0.125000  0.625000  1
  Pt  Pt4  1  0.125000  0.625000  0.625000  1
  Rh  Rh5  1  0.625000  0.625000  0.625000  1
  Rh  Rh6  1  0.625000  0.625000  0.125000  1
  Rh  Rh7  1  0.625000  0.125000  0.625000  1
  O  O8  1  0.238890  0.279061  0.241025  1
  O  O9  1  0.291144  0.704823  0.290455  1
  O  O10  1  0.959133  0.963514  0.538677  1
  O  O11  1  0.539987  0.961031  0.540400  1
  O  O12  1  0.712000  0.704917  0.291542  1
  O  O13  1  0.958856  0.545177  0.536422  1
  O  O14  1  0.710013  0.288969  0.709600  1
  O  O15  1  0.290867  0.286486  0.711323  1
  O  O16  1  0.710013  0.288969  0.291418  1
  O  O17  1  0.291144  0.704823  0.713578  1
  O  O18  1  0.958856  0.545177  0.959545  1
  O  O19  1  0.538000  0.545083  0.958458  1
  O  O20  1  0.011110  0.970939  0.008975  1
  O  O21  1  0.539987  0.961031  0.958582  1
