# generated using pymatgen
data_Lu8Nb12Si15Ge
_symmetry_space_group_name_H-M   'P 1'
_cell_length_a   6.81516795
_cell_length_b   7.01569701
_cell_length_c   13.33711317
_cell_angle_alpha   90.05647101
_cell_angle_beta   89.90959093
_cell_angle_gamma   90.03001236
_symmetry_Int_Tables_number   1
_chemical_formula_structural   Lu8Nb12Si15Ge
_chemical_formula_sum   'Lu8 Nb12 Si15 Ge1'
_cell_volume   637.68824787
_cell_formula_units_Z   1
loop_
 _symmetry_equiv_pos_site_id
 _symmetry_equiv_pos_as_xyz
  1  'x, y, z'
loop_
 _atom_site_type_symbol
 _atom_site_label
 _atom_site_symmetry_multiplicity
 _atom_site_fract_x
 _atom_site_fract_y
 _atom_site_fract_z
 _atom_site_occupancy
  Lu  Lu0  1  0.503412  0.327736  0.095527  1
  Lu  Lu1  1  0.002427  0.171909  0.403954  1
  Lu  Lu2  1  0.500150  0.674744  0.596422  1
  Lu  Lu3  1  0.996315  0.827283  0.904948  1
  Lu  Lu4  1  0.496224  0.672097  0.904756  1
  Lu  Lu5  1  0.996208  0.828448  0.595880  1
  Lu  Lu6  1  0.504203  0.326090  0.403430  1
  Lu  Lu7  1  0.003438  0.172841  0.095280  1
  Nb  Nb8  1  0.663245  0.006664  0.750235  1
  Nb  Nb9  1  0.163151  0.492057  0.751904  1
  Nb  Nb10  1  0.336417  0.993357  0.249751  1
  Nb  Nb11  1  0.836683  0.507263  0.249851  1
  Nb  Nb12  1  0.834913  0.324293  0.625314  1
  Nb  Nb13  1  0.336174  0.175221  0.875362  1
  Nb  Nb14  1  0.163679  0.675500  0.124694  1
  Nb  Nb15  1  0.663422  0.825173  0.374637  1
  Nb  Nb16  1  0.161750  0.678140  0.373341  1
  Nb  Nb17  1  0.662745  0.824329  0.124648  1
  Nb  Nb18  1  0.836124  0.324298  0.875366  1
  Nb  Nb19  1  0.338760  0.171504  0.626192  1
  Si  Si20  1  0.795068  0.629281  0.750340  1
  Si  Si21  1  0.293885  0.869300  0.750685  1
  Si  Si22  1  0.205312  0.370769  0.249623  1
  Si  Si23  1  0.705550  0.129576  0.249463  1
  Si  Si24  1  0.540514  0.378662  0.750367  1
  Si  Si25  1  0.040423  0.121162  0.750149  1
  Si  Si26  1  0.459004  0.621406  0.249922  1
  Si  Si27  1  0.958424  0.879491  0.248842  1
  Si  Si28  1  0.665107  0.035450  0.539735  1
  Si  Si29  1  0.163963  0.465029  0.959919  1
  Si  Si30  1  0.335300  0.965350  0.040176  1
  Si  Si31  1  0.831642  0.535629  0.459239  1
  Si  Si32  1  0.335217  0.964714  0.459920  1
  Si  Si33  1  0.835827  0.534759  0.040416  1
  Si  Si34  1  0.664087  0.034695  0.959864  1
  Ge  Ge35  1  0.171239  0.465784  0.539851  1
