# generated using pymatgen
data_K2NdTh(SbSe3)4
_symmetry_space_group_name_H-M   'P 1'
_cell_length_a   4.26335810
_cell_length_b   15.55633621
_cell_length_c   16.97779250
_cell_angle_alpha   90.11833476
_cell_angle_beta   91.83470442
_cell_angle_gamma   89.79563529
_symmetry_Int_Tables_number   1
_chemical_formula_structural   K2NdTh(SbSe3)4
_chemical_formula_sum   'K4 Nd2 Th2 Sb8 Se24'
_cell_volume   1125.41854439
_cell_formula_units_Z   2
loop_
 _symmetry_equiv_pos_site_id
 _symmetry_equiv_pos_as_xyz
  1  'x, y, z'
loop_
 _atom_site_type_symbol
 _atom_site_label
 _atom_site_symmetry_multiplicity
 _atom_site_fract_x
 _atom_site_fract_y
 _atom_site_fract_z
 _atom_site_occupancy
  K  K0  1  0.271116  0.716509  0.672256  1
  K  K1  1  0.270980  0.786408  0.169914  1
  K  K2  1  0.728884  0.283491  0.327744  1
  K  K3  1  0.729020  0.213592  0.830086  1
  Nd  Nd4  1  0.714580  0.133807  0.091699  1
  Nd  Nd5  1  0.285420  0.866193  0.908301  1
  Th  Th6  1  0.706976  0.366437  0.591116  1
  Th  Th7  1  0.293024  0.633563  0.408884  1
  Sb  Sb8  1  0.263858  0.125083  0.525962  1
  Sb  Sb9  1  0.254139  0.373177  0.025088  1
  Sb  Sb10  1  0.745861  0.626823  0.974912  1
  Sb  Sb11  1  0.242576  0.028556  0.291408  1
  Sb  Sb12  1  0.756861  0.524288  0.201810  1
  Sb  Sb13  1  0.757424  0.971444  0.708592  1
  Sb  Sb14  1  0.736142  0.874917  0.474038  1
  Sb  Sb15  1  0.243139  0.475712  0.798190  1
  Se  Se16  1  0.330142  0.471084  0.305856  1
  Se  Se17  1  0.680400  0.969828  0.192599  1
  Se  Se18  1  0.319600  0.030172  0.807401  1
  Se  Se19  1  0.264882  0.829340  0.373406  1
  Se  Se20  1  0.735118  0.170660  0.626594  1
  Se  Se21  1  0.698921  0.071400  0.409055  1
  Se  Se22  1  0.301079  0.928600  0.590945  1
  Se  Se23  1  0.220127  0.210030  0.983360  1
  Se  Se24  1  0.265362  0.658814  0.871669  1
  Se  Se25  1  0.215161  0.293479  0.482498  1
  Se  Se26  1  0.734638  0.341186  0.128331  1
  Se  Se27  1  0.300509  0.574385  0.093443  1
  Se  Se28  1  0.193259  0.987976  0.054486  1
  Se  Se29  1  0.779372  0.823777  0.784760  1
  Se  Se30  1  0.669858  0.528916  0.694144  1
  Se  Se31  1  0.784996  0.673207  0.288300  1
  Se  Se32  1  0.699491  0.425615  0.906557  1
  Se  Se33  1  0.220628  0.176223  0.215240  1
  Se  Se34  1  0.215004  0.326793  0.711700  1
  Se  Se35  1  0.779873  0.789970  0.016640  1
  Se  Se36  1  0.806741  0.012024  0.945514  1
  Se  Se37  1  0.188428  0.511486  0.558115  1
  Se  Se38  1  0.811572  0.488514  0.441885  1
  Se  Se39  1  0.784839  0.706521  0.517502  1
