# generated using pymatgen
data_Ta4Nb12Ni8CN3
_symmetry_space_group_name_H-M   'P 1'
_cell_length_a   8.24657660
_cell_length_b   8.26113298
_cell_length_c   8.24657800
_cell_angle_alpha   60.05827284
_cell_angle_beta   60.00000240
_cell_angle_gamma   60.05827667
_symmetry_Int_Tables_number   1
_chemical_formula_structural   Ta4Nb12Ni8CN3
_chemical_formula_sum   'Ta4 Nb12 Ni8 C1 N3'
_cell_volume   397.60704123
_cell_formula_units_Z   1
loop_
 _symmetry_equiv_pos_site_id
 _symmetry_equiv_pos_as_xyz
  1  'x, y, z'
loop_
 _atom_site_type_symbol
 _atom_site_label
 _atom_site_symmetry_multiplicity
 _atom_site_fract_x
 _atom_site_fract_y
 _atom_site_fract_z
 _atom_site_occupancy
  Ta  Ta0  1  0.125000  0.625000  0.625000  1
  Ta  Ta1  1  0.625000  0.125000  0.625000  1
  Ta  Ta2  1  0.625000  0.625000  0.125000  1
  Ta  Ta3  1  0.625000  0.625000  0.625000  1
  Nb  Nb4  1  0.815886  0.816687  0.183713  1
  Nb  Nb5  1  0.182954  0.181314  0.817866  1
  Nb  Nb6  1  0.817866  0.181314  0.817866  1
  Nb  Nb7  1  0.183713  0.816687  0.183713  1
  Nb  Nb8  1  0.183713  0.816687  0.815886  1
  Nb  Nb9  1  0.817866  0.181314  0.182954  1
  Nb  Nb10  1  0.434114  0.433313  0.066287  1
  Nb  Nb11  1  0.067046  0.068686  0.432134  1
  Nb  Nb12  1  0.432134  0.068686  0.432134  1
  Nb  Nb13  1  0.066287  0.433313  0.066287  1
  Nb  Nb14  1  0.066287  0.433313  0.434114  1
  Nb  Nb15  1  0.432134  0.068686  0.067046  1
  Ni  Ni16  1  0.738521  0.420155  0.420662  1
  Ni  Ni17  1  0.419832  0.740506  0.419832  1
  Ni  Ni18  1  0.420662  0.420155  0.738521  1
  Ni  Ni19  1  0.420662  0.420155  0.420662  1
  Ni  Ni20  1  0.511479  0.829845  0.829338  1
  Ni  Ni21  1  0.830168  0.509494  0.830168  1
  Ni  Ni22  1  0.829338  0.829845  0.511479  1
  Ni  Ni23  1  0.829338  0.829845  0.829338  1
  C  C24  1  0.125000  0.625000  0.125000  1
  N  N25  1  0.625000  0.125000  0.125000  1
  N  N26  1  0.125000  0.125000  0.625000  1
  N  N27  1  0.125000  0.125000  0.125000  1
