# generated using pymatgen
data_Y3PaNiB14
_symmetry_space_group_name_H-M   'P 1'
_cell_length_a   7.23447002
_cell_length_b   7.23672636
_cell_length_c   7.52160400
_cell_angle_alpha   90.00000000
_cell_angle_beta   90.00000000
_cell_angle_gamma   90.01373526
_symmetry_Int_Tables_number   1
_chemical_formula_structural   Y3PaNiB14
_chemical_formula_sum   'Y6 Pa2 Ni2 B28'
_cell_volume   393.78514123
_cell_formula_units_Z   2
loop_
 _symmetry_equiv_pos_site_id
 _symmetry_equiv_pos_as_xyz
  1  'x, y, z'
loop_
 _atom_site_type_symbol
 _atom_site_label
 _atom_site_symmetry_multiplicity
 _atom_site_fract_x
 _atom_site_fract_y
 _atom_site_fract_z
 _atom_site_occupancy
  Y  Y0  1  0.334255  0.807603  0.000000  1
  Y  Y1  1  0.693961  0.167794  0.500000  1
  Y  Y2  1  0.306551  0.833673  0.500000  1
  Y  Y3  1  0.808175  0.665397  0.000000  1
  Y  Y4  1  0.833317  0.693710  0.500000  1
  Y  Y5  1  0.166817  0.306523  0.500000  1
  Pa  Pa6  1  0.194037  0.328913  0.000000  1
  Pa  Pa7  1  0.670769  0.193705  0.000000  1
  Ni  Ni8  1  0.998915  0.998184  0.000000  1
  Ni  Ni9  1  0.499493  0.501456  0.500000  1
  B  B10  1  0.173612  0.039509  0.231790  1
  B  B11  1  0.960720  0.172702  0.232772  1
  B  B12  1  0.040105  0.824360  0.231330  1
  B  B13  1  0.674665  0.461351  0.268091  1
  B  B14  1  0.325387  0.540737  0.268594  1
  B  B15  1  0.824882  0.960384  0.232331  1
  B  B16  1  0.539918  0.675321  0.270567  1
  B  B17  1  0.460209  0.326602  0.266979  1
  B  B18  1  0.824882  0.960384  0.767669  1
  B  B19  1  0.040105  0.824360  0.768670  1
  B  B20  1  0.960720  0.172702  0.767228  1
  B  B21  1  0.325387  0.540737  0.731406  1
  B  B22  1  0.674665  0.461351  0.731909  1
  B  B23  1  0.173612  0.039509  0.768210  1
  B  B24  1  0.460209  0.326602  0.733021  1
  B  B25  1  0.539918  0.675321  0.729433  1
  B  B26  1  0.088962  0.588693  0.245663  1
  B  B27  1  0.409964  0.090832  0.242685  1
  B  B28  1  0.588374  0.912207  0.247189  1
  B  B29  1  0.910138  0.409781  0.243767  1
  B  B30  1  0.910138  0.409781  0.756233  1
  B  B31  1  0.588374  0.912207  0.752811  1
  B  B32  1  0.409964  0.090832  0.757315  1
  B  B33  1  0.088962  0.588693  0.754337  1
  B  B34  1  0.000224  0.997409  0.390575  1
  B  B35  1  0.499695  0.501636  0.110540  1
  B  B36  1  0.000224  0.997409  0.609425  1
  B  B37  1  0.499695  0.501636  0.889460  1
