# generated using pymatgen
data_Tb7Th(InRu)2
_symmetry_space_group_name_H-M   'P 1'
_cell_length_a   9.73295160
_cell_length_b   9.74580613
_cell_length_c   9.65307700
_cell_angle_alpha   60.31424678
_cell_angle_beta   60.27110002
_cell_angle_gamma   60.03468283
_symmetry_Int_Tables_number   1
_chemical_formula_structural   Tb7Th(InRu)2
_chemical_formula_sum   'Tb14 Th2 In4 Ru4'
_cell_volume   650.48127295
_cell_formula_units_Z   2
loop_
 _symmetry_equiv_pos_site_id
 _symmetry_equiv_pos_as_xyz
  1  'x, y, z'
loop_
 _atom_site_type_symbol
 _atom_site_label
 _atom_site_symmetry_multiplicity
 _atom_site_fract_x
 _atom_site_fract_y
 _atom_site_fract_z
 _atom_site_occupancy
  Tb  Tb0  1  0.938290  0.554035  0.946059  1
  Tb  Tb1  1  0.310340  0.689059  0.309237  1
  Tb  Tb2  1  0.938290  0.554035  0.561616  1
  Tb  Tb3  1  0.314031  0.314909  0.685530  1
  Tb  Tb4  1  0.101435  0.102832  0.093446  1
  Tb  Tb5  1  0.559814  0.556302  0.941942  1
  Tb  Tb6  1  0.101435  0.102832  0.702288  1
  Tb  Tb7  1  0.691579  0.306728  0.692518  1
  Tb  Tb8  1  0.689946  0.685932  0.312061  1
  Tb  Tb9  1  0.691579  0.306728  0.309175  1
  Tb  Tb10  1  0.310340  0.689059  0.691364  1
  Tb  Tb11  1  0.553557  0.939377  0.560100  1
  Tb  Tb12  1  0.704516  0.100116  0.097684  1
  Tb  Tb13  1  0.553557  0.939377  0.946966  1
  Th  Th14  1  0.095615  0.717744  0.093321  1
  Th  Th15  1  0.936921  0.935705  0.563687  1
  In  In16  1  0.332588  0.331361  0.332698  1
  In  In17  1  0.002557  0.335814  0.330813  1
  In  In18  1  0.335150  0.001471  0.331688  1
  In  In19  1  0.332588  0.331361  0.003352  1
  Ru  Ru20  1  0.896931  0.895956  0.870485  1
  Ru  Ru21  1  0.896931  0.895956  0.336628  1
  Ru  Ru22  1  0.324917  0.882925  0.896079  1
  Ru  Ru23  1  0.887093  0.330384  0.891262  1
