# generated using pymatgen
data_Gd8ErLuSn6
_symmetry_space_group_name_H-M   'P 1'
_cell_length_a   9.04424900
_cell_length_b   9.04424804
_cell_length_c   6.64184900
_cell_angle_alpha   90.00000000
_cell_angle_beta   90.00000000
_cell_angle_gamma   120.00000715
_symmetry_Int_Tables_number   1
_chemical_formula_structural   Gd8ErLuSn6
_chemical_formula_sum   'Gd8 Er1 Lu1 Sn6'
_cell_volume   470.50535799
_cell_formula_units_Z   1
loop_
 _symmetry_equiv_pos_site_id
 _symmetry_equiv_pos_as_xyz
  1  'x, y, z'
loop_
 _atom_site_type_symbol
 _atom_site_label
 _atom_site_symmetry_multiplicity
 _atom_site_fract_x
 _atom_site_fract_y
 _atom_site_fract_z
 _atom_site_occupancy
  Gd  Gd0  1  0.666667  0.333333  0.000000  1
  Gd  Gd1  1  0.333333  0.666667  0.000000  1
  Gd  Gd2  1  0.757447  0.757224  0.748134  1
  Gd  Gd3  1  0.242776  0.000222  0.748134  1
  Gd  Gd4  1  0.999778  0.242553  0.748134  1
  Gd  Gd5  1  0.242776  0.242553  0.251866  1
  Gd  Gd6  1  0.757447  0.000222  0.251866  1
  Gd  Gd7  1  0.999778  0.757224  0.251866  1
  Er  Er8  1  0.333333  0.666667  0.500000  1
  Lu  Lu9  1  0.666667  0.333333  0.500000  1
  Sn  Sn10  1  0.397036  0.396287  0.740338  1
  Sn  Sn11  1  0.603713  0.000748  0.740338  1
  Sn  Sn12  1  0.999252  0.602964  0.740338  1
  Sn  Sn13  1  0.603713  0.602964  0.259662  1
  Sn  Sn14  1  0.397036  0.000748  0.259662  1
  Sn  Sn15  1  0.999252  0.396287  0.259662  1
