# generated using pymatgen
data_CsRb11Na8(SiP3)4
_symmetry_space_group_name_H-M   'P 1'
_cell_length_a   10.48518918
_cell_length_b   10.48342165
_cell_length_c   15.37995292
_cell_angle_alpha   90.14791172
_cell_angle_beta   89.95017749
_cell_angle_gamma   142.48678432
_symmetry_Int_Tables_number   1
_chemical_formula_structural   CsRb11Na8(SiP3)4
_chemical_formula_sum   'Cs1 Rb11 Na8 Si4 P12'
_cell_volume   1029.46056550
_cell_formula_units_Z   1
loop_
 _symmetry_equiv_pos_site_id
 _symmetry_equiv_pos_as_xyz
  1  'x, y, z'
loop_
 _atom_site_type_symbol
 _atom_site_label
 _atom_site_symmetry_multiplicity
 _atom_site_fract_x
 _atom_site_fract_y
 _atom_site_fract_z
 _atom_site_occupancy
  Cs  Cs0  1  0.944063  0.612547  0.824330  1
  Rb  Rb1  1  0.562907  0.891728  0.327635  1
  Rb  Rb2  1  0.391459  0.062639  0.172558  1
  Rb  Rb3  1  0.063176  0.391975  0.172404  1
  Rb  Rb4  1  0.891852  0.562888  0.327662  1
  Rb  Rb5  1  0.436241  0.107759  0.671533  1
  Rb  Rb6  1  0.608369  0.936423  0.827843  1
  Rb  Rb7  1  0.264474  0.264271  0.318817  1
  Rb  Rb8  1  0.764474  0.764728  0.181396  1
  Rb  Rb9  1  0.234890  0.235229  0.819157  1
  Rb  Rb10  1  0.735530  0.736083  0.680641  1
  Rb  Rb11  1  0.109072  0.436640  0.671781  1
  Na  Na12  1  0.922017  0.078467  0.000075  1
  Na  Na13  1  0.577797  0.421718  0.499504  1
  Na  Na14  1  0.076445  0.920903  0.001482  1
  Na  Na15  1  0.421736  0.578190  0.499887  1
  Na  Na16  1  0.754102  0.243390  0.000791  1
  Na  Na17  1  0.744684  0.255529  0.499667  1
  Na  Na18  1  0.244988  0.755342  0.001335  1
  Na  Na19  1  0.255564  0.744736  0.499499  1
  Si  Si20  1  0.583177  0.415662  0.001007  1
  Si  Si21  1  0.916487  0.083888  0.499960  1
  Si  Si22  1  0.416617  0.583528  0.000418  1
  Si  Si23  1  0.083727  0.916737  0.498683  1
  P  P24  1  0.845844  0.545808  0.090729  1
  P  P25  1  0.448657  0.149642  0.912494  1
  P  P26  1  0.654158  0.954597  0.589895  1
  P  P27  1  0.953952  0.654980  0.587237  1
  P  P28  1  0.154553  0.454305  0.910795  1
  P  P29  1  0.547031  0.846989  0.090079  1
  P  P30  1  0.346987  0.046738  0.409751  1
  P  P31  1  0.178062  0.178017  0.577344  1
  P  P32  1  0.677110  0.677188  0.922996  1
  P  P33  1  0.322398  0.322658  0.077905  1
  P  P34  1  0.046023  0.345950  0.410536  1
  P  P35  1  0.821376  0.822129  0.422174  1
