# generated using pymatgen
data_Tb9MgCd3Co
_symmetry_space_group_name_H-M   'P 1'
_cell_length_a   9.58201900
_cell_length_b   9.58202023
_cell_length_c   9.55938100
_cell_angle_alpha   90.00000000
_cell_angle_beta   90.00000000
_cell_angle_gamma   119.99999922
_symmetry_Int_Tables_number   1
_chemical_formula_structural   Tb9MgCd3Co
_chemical_formula_sum   'Tb18 Mg2 Cd6 Co2'
_cell_volume   760.10662403
_cell_formula_units_Z   2
loop_
 _symmetry_equiv_pos_site_id
 _symmetry_equiv_pos_as_xyz
  1  'x, y, z'
loop_
 _atom_site_type_symbol
 _atom_site_label
 _atom_site_symmetry_multiplicity
 _atom_site_fract_x
 _atom_site_fract_y
 _atom_site_fract_z
 _atom_site_occupancy
  Tb  Tb0  1  0.542466  0.457534  0.250000  1
  Tb  Tb1  1  0.542466  0.084932  0.250000  1
  Tb  Tb2  1  0.915068  0.457534  0.250000  1
  Tb  Tb3  1  0.457534  0.542466  0.750000  1
  Tb  Tb4  1  0.457534  0.915068  0.750000  1
  Tb  Tb5  1  0.084932  0.542466  0.750000  1
  Tb  Tb6  1  0.209196  0.790804  0.437043  1
  Tb  Tb7  1  0.209196  0.418393  0.437043  1
  Tb  Tb8  1  0.581607  0.790804  0.437043  1
  Tb  Tb9  1  0.790804  0.209196  0.562957  1
  Tb  Tb10  1  0.790804  0.581607  0.562957  1
  Tb  Tb11  1  0.418393  0.209196  0.562957  1
  Tb  Tb12  1  0.790804  0.209196  0.937043  1
  Tb  Tb13  1  0.790804  0.581607  0.937043  1
  Tb  Tb14  1  0.418393  0.209196  0.937043  1
  Tb  Tb15  1  0.209196  0.790804  0.062957  1
  Tb  Tb16  1  0.209196  0.418393  0.062957  1
  Tb  Tb17  1  0.581607  0.790804  0.062957  1
  Mg  Mg18  1  0.000000  0.000000  0.500000  1
  Mg  Mg19  1  0.000000  0.000000  0.000000  1
  Cd  Cd20  1  0.889017  0.110983  0.250000  1
  Cd  Cd21  1  0.889017  0.778034  0.250000  1
  Cd  Cd22  1  0.221966  0.110983  0.250000  1
  Cd  Cd23  1  0.110983  0.889017  0.750000  1
  Cd  Cd24  1  0.110983  0.221966  0.750000  1
  Cd  Cd25  1  0.778034  0.889017  0.750000  1
  Co  Co26  1  0.333333  0.666667  0.250000  1
  Co  Co27  1  0.666667  0.333333  0.750000  1
