# generated using pymatgen
data_Er5V3(Co4P3)4
_symmetry_space_group_name_H-M   'P 1'
_cell_length_a   12.01643400
_cell_length_b   12.01643427
_cell_length_c   3.65423800
_cell_angle_alpha   90.00000000
_cell_angle_beta   90.00000000
_cell_angle_gamma   119.99999374
_symmetry_Int_Tables_number   1
_chemical_formula_structural   Er5V3(Co4P3)4
_chemical_formula_sum   'Er5 V3 Co16 P12'
_cell_volume   456.96055090
_cell_formula_units_Z   1
loop_
 _symmetry_equiv_pos_site_id
 _symmetry_equiv_pos_as_xyz
  1  'x, y, z'
loop_
 _atom_site_type_symbol
 _atom_site_label
 _atom_site_symmetry_multiplicity
 _atom_site_fract_x
 _atom_site_fract_y
 _atom_site_fract_z
 _atom_site_occupancy
  Er  Er0  1  0.666667  0.333333  0.000000  1
  Er  Er1  1  0.333333  0.666667  0.000000  1
  Er  Er2  1  0.186462  0.186462  0.500000  1
  Er  Er3  1  0.813538  0.000000  0.500000  1
  Er  Er4  1  0.000000  0.813538  0.500000  1
  V  V5  1  0.556267  0.556267  0.000000  1
  V  V6  1  0.443733  0.000000  0.000000  1
  V  V7  1  0.000000  0.443733  0.000000  1
  Co  Co8  1  0.823256  0.199499  0.000000  1
  Co  Co9  1  0.800501  0.623757  0.000000  1
  Co  Co10  1  0.376243  0.176744  0.000000  1
  Co  Co11  1  0.199499  0.823256  0.000000  1
  Co  Co12  1  0.623757  0.800501  0.000000  1
  Co  Co13  1  0.176744  0.376243  0.000000  1
  Co  Co14  1  0.645234  0.126711  0.500000  1
  Co  Co15  1  0.873289  0.518523  0.500000  1
  Co  Co16  1  0.481477  0.354766  0.500000  1
  Co  Co17  1  0.126711  0.645234  0.500000  1
  Co  Co18  1  0.518523  0.873289  0.500000  1
  Co  Co19  1  0.354766  0.481477  0.500000  1
  Co  Co20  1  0.718451  0.718451  0.500000  1
  Co  Co21  1  0.281549  0.000000  0.500000  1
  Co  Co22  1  0.000000  0.281549  0.500000  1
  Co  Co23  1  0.000000  0.000000  0.000000  1
  P  P24  1  0.363160  0.363160  0.000000  1
  P  P25  1  0.636840  0.000000  0.000000  1
  P  P26  1  0.000000  0.636840  0.000000  1
  P  P27  1  0.835632  0.316397  0.500000  1
  P  P28  1  0.683603  0.519234  0.500000  1
  P  P29  1  0.480766  0.164368  0.500000  1
  P  P30  1  0.316397  0.835632  0.500000  1
  P  P31  1  0.519234  0.683603  0.500000  1
  P  P32  1  0.164368  0.480766  0.500000  1
  P  P33  1  0.820879  0.820879  0.000000  1
  P  P34  1  0.179121  0.000000  0.000000  1
  P  P35  1  0.000000  0.179121  0.000000  1
