# generated using pymatgen
data_Er15LuMgIn3Rh4
_symmetry_space_group_name_H-M   'P 1'
_cell_length_a   9.58055153
_cell_length_b   9.58556081
_cell_length_c   9.57825580
_cell_angle_alpha   60.09287555
_cell_angle_beta   59.87960963
_cell_angle_gamma   60.00823868
_symmetry_Int_Tables_number   1
_chemical_formula_structural   Er15LuMgIn3Rh4
_chemical_formula_sum   'Er15 Lu1 Mg1 In3 Rh4'
_cell_volume   621.88938757
_cell_formula_units_Z   1
loop_
 _symmetry_equiv_pos_site_id
 _symmetry_equiv_pos_as_xyz
  1  'x, y, z'
loop_
 _atom_site_type_symbol
 _atom_site_label
 _atom_site_symmetry_multiplicity
 _atom_site_fract_x
 _atom_site_fract_y
 _atom_site_fract_z
 _atom_site_occupancy
  Er  Er0  1  0.436940  0.060818  0.061269  1
  Er  Er1  1  0.433578  0.064170  0.434909  1
  Er  Er2  1  0.062398  0.436639  0.062295  1
  Er  Er3  1  0.646779  0.053409  0.647218  1
  Er  Er4  1  0.189005  0.813242  0.812092  1
  Er  Er5  1  0.061379  0.060150  0.437897  1
  Er  Er6  1  0.810983  0.190673  0.189428  1
  Er  Er7  1  0.811737  0.811610  0.189816  1
  Er  Er8  1  0.650788  0.647918  0.045652  1
  Er  Er9  1  0.653010  0.653706  0.654566  1
  Er  Er10  1  0.064090  0.433633  0.438098  1
  Er  Er11  1  0.047578  0.647587  0.650970  1
  Er  Er12  1  0.810295  0.190992  0.809732  1
  Er  Er13  1  0.436091  0.433729  0.064797  1
  Er  Er14  1  0.187474  0.814623  0.187180  1
  Lu  Lu15  1  0.190576  0.191284  0.810009  1
  Mg  Mg16  1  0.424217  0.731096  0.424481  1
  In  In17  1  0.416778  0.419784  0.748726  1
  In  In18  1  0.748589  0.419467  0.416785  1
  In  In19  1  0.416618  0.418335  0.415219  1
  Rh  Rh20  1  0.861118  0.423723  0.857711  1
  Rh  Rh21  1  0.858943  0.860578  0.426387  1
  Rh  Rh22  1  0.425048  0.863080  0.858333  1
  Rh  Rh23  1  0.855989  0.859756  0.856428  1
