# generated using pymatgen
data_Tb12In2CoSiTc2
_symmetry_space_group_name_H-M   'P 1'
_cell_length_a   8.53237054
_cell_length_b   8.53236934
_cell_length_c   8.53236916
_cell_angle_alpha   113.56011895
_cell_angle_beta   111.52961075
_cell_angle_gamma   103.49184386
_symmetry_Int_Tables_number   1
_chemical_formula_structural   Tb12In2CoSiTc2
_chemical_formula_sum   'Tb12 In2 Co1 Si1 Tc2'
_cell_volume   474.15783824
_cell_formula_units_Z   1
loop_
 _symmetry_equiv_pos_site_id
 _symmetry_equiv_pos_as_xyz
  1  'x, y, z'
loop_
 _atom_site_type_symbol
 _atom_site_label
 _atom_site_symmetry_multiplicity
 _atom_site_fract_x
 _atom_site_fract_y
 _atom_site_fract_z
 _atom_site_occupancy
  Tb  Tb0  1  0.433495  0.237929  0.195566  1
  Tb  Tb1  1  0.551593  0.755564  0.796029  1
  Tb  Tb2  1  0.042362  0.237929  0.804434  1
  Tb  Tb3  1  0.959537  0.755564  0.203971  1
  Tb  Tb4  1  0.176559  0.280804  0.468519  1
  Tb  Tb5  1  0.812286  0.708041  0.531481  1
  Tb  Tb6  1  0.176559  0.708041  0.895756  1
  Tb  Tb7  1  0.812286  0.280804  0.104244  1
  Tb  Tb8  1  0.342188  0.657219  0.315031  1
  Tb  Tb9  1  0.671919  0.353422  0.681504  1
  Tb  Tb10  1  0.342188  0.027158  0.684969  1
  Tb  Tb11  1  0.671919  0.990414  0.318496  1
  In  In12  1  0.499729  0.499729  0.000000  1
  In  In13  1  0.996325  0.996325  0.000000  1
  Co  Co14  1  0.892512  0.392512  0.500000  1
  Si  Si15  1  0.120599  0.620599  0.500000  1
  Tc  Tc16  1  0.322774  0.998973  0.323802  1
  Tc  Tc17  1  0.675171  0.998973  0.676198  1
