# generated using pymatgen
data_Rb5Sb2Au
_symmetry_space_group_name_H-M   'P 1'
_cell_length_a   10.66044543
_cell_length_b   10.66044579
_cell_length_c   10.66044493
_cell_angle_alpha   34.28048713
_cell_angle_beta   34.28048653
_cell_angle_gamma   34.28047975
_symmetry_Int_Tables_number   1
_chemical_formula_structural   Rb5Sb2Au
_chemical_formula_sum   'Rb5 Sb2 Au1'
_cell_volume   342.75568912
_cell_formula_units_Z   1
loop_
 _symmetry_equiv_pos_site_id
 _symmetry_equiv_pos_as_xyz
  1  'x, y, z'
loop_
 _atom_site_type_symbol
 _atom_site_label
 _atom_site_symmetry_multiplicity
 _atom_site_fract_x
 _atom_site_fract_y
 _atom_site_fract_z
 _atom_site_occupancy
  Rb  Rb0  1  0.500000  0.500000  0.500000  1
  Rb  Rb1  1  0.365045  0.365045  0.365045  1
  Rb  Rb2  1  0.634955  0.634955  0.634955  1
  Rb  Rb3  1  0.216791  0.216791  0.216791  1
  Rb  Rb4  1  0.783209  0.783209  0.783209  1
  Sb  Sb5  1  0.089380  0.089380  0.089380  1
  Sb  Sb6  1  0.910620  0.910620  0.910620  1
  Au  Au7  1  0.000000  0.000000  0.000000  1
