# generated using pymatgen
data_ErMgB6Rh
_symmetry_space_group_name_H-M   'P 1'
_cell_length_a   3.54107600
_cell_length_b   8.89674700
_cell_length_c   11.29111100
_cell_angle_alpha   90.00000000
_cell_angle_beta   90.00000000
_cell_angle_gamma   90.00000000
_symmetry_Int_Tables_number   1
_chemical_formula_structural   ErMgB6Rh
_chemical_formula_sum   'Er4 Mg4 B24 Rh4'
_cell_volume   355.71580770
_cell_formula_units_Z   4
loop_
 _symmetry_equiv_pos_site_id
 _symmetry_equiv_pos_as_xyz
  1  'x, y, z'
loop_
 _atom_site_type_symbol
 _atom_site_label
 _atom_site_symmetry_multiplicity
 _atom_site_fract_x
 _atom_site_fract_y
 _atom_site_fract_z
 _atom_site_occupancy
  Er  Er0  1  0.500000  0.320077  0.413866  1
  Er  Er1  1  0.500000  0.679923  0.586134  1
  Er  Er2  1  0.500000  0.179923  0.913866  1
  Er  Er3  1  0.500000  0.820077  0.086134  1
  Mg  Mg4  1  0.500000  0.447215  0.121211  1
  Mg  Mg5  1  0.500000  0.552785  0.878789  1
  Mg  Mg6  1  0.500000  0.052785  0.621211  1
  Mg  Mg7  1  0.500000  0.947215  0.378789  1
  B  B8  1  0.000000  0.099569  0.473076  1
  B  B9  1  0.000000  0.900431  0.526924  1
  B  B10  1  0.000000  0.400431  0.973076  1
  B  B11  1  0.000000  0.599569  0.026924  1
  B  B12  1  0.000000  0.128433  0.318990  1
  B  B13  1  0.000000  0.871567  0.681010  1
  B  B14  1  0.000000  0.371567  0.818990  1
  B  B15  1  0.000000  0.628433  0.181010  1
  B  B16  1  0.000000  0.055618  0.066463  1
  B  B17  1  0.000000  0.944382  0.933537  1
  B  B18  1  0.000000  0.444382  0.566463  1
  B  B19  1  0.000000  0.555618  0.433537  1
  B  B20  1  0.000000  0.481850  0.285103  1
  B  B21  1  0.000000  0.518150  0.714897  1
  B  B22  1  0.000000  0.018150  0.785103  1
  B  B23  1  0.000000  0.981850  0.214897  1
  B  B24  1  0.000000  0.255297  0.079605  1
  B  B25  1  0.000000  0.744703  0.920395  1
  B  B26  1  0.000000  0.244703  0.579605  1
  B  B27  1  0.000000  0.755297  0.420395  1
  B  B28  1  0.000000  0.294406  0.235025  1
  B  B29  1  0.000000  0.705594  0.764975  1
  B  B30  1  0.000000  0.205594  0.735025  1
  B  B31  1  0.000000  0.794406  0.264975  1
  Rh  Rh32  1  0.500000  0.141251  0.181794  1
  Rh  Rh33  1  0.500000  0.858749  0.818206  1
  Rh  Rh34  1  0.500000  0.358749  0.681794  1
  Rh  Rh35  1  0.500000  0.641251  0.318206  1
