# generated using pymatgen
data_Er7Zr(Ta3Ge4)4
_symmetry_space_group_name_H-M   'P 1'
_cell_length_a   6.96366494
_cell_length_b   7.11283841
_cell_length_c   13.47572955
_cell_angle_alpha   90.02300156
_cell_angle_beta   90.05033531
_cell_angle_gamma   90.03136772
_symmetry_Int_Tables_number   1
_chemical_formula_structural   Er7Zr(Ta3Ge4)4
_chemical_formula_sum   'Er7 Zr1 Ta12 Ge16'
_cell_volume   667.47165565
_cell_formula_units_Z   1
loop_
 _symmetry_equiv_pos_site_id
 _symmetry_equiv_pos_as_xyz
  1  'x, y, z'
loop_
 _atom_site_type_symbol
 _atom_site_label
 _atom_site_symmetry_multiplicity
 _atom_site_fract_x
 _atom_site_fract_y
 _atom_site_fract_z
 _atom_site_occupancy
  Er  Er0  1  0.994189  0.174571  0.405222  1
  Er  Er1  1  0.505317  0.674779  0.594261  1
  Er  Er2  1  0.005114  0.825992  0.906805  1
  Er  Er3  1  0.505859  0.673041  0.906945  1
  Er  Er4  1  0.005652  0.826224  0.594269  1
  Er  Er5  1  0.494724  0.326103  0.406116  1
  Er  Er6  1  0.993156  0.175027  0.093692  1
  Zr  Zr7  1  0.490632  0.323543  0.095636  1
  Ta  Ta8  1  0.664550  0.013871  0.750692  1
  Ta  Ta9  1  0.165255  0.487502  0.751000  1
  Ta  Ta10  1  0.336343  0.988104  0.248127  1
  Ta  Ta11  1  0.833994  0.512507  0.248720  1
  Ta  Ta12  1  0.841067  0.331449  0.626009  1
  Ta  Ta13  1  0.342507  0.171164  0.875543  1
  Ta  Ta14  1  0.161564  0.666008  0.125366  1
  Ta  Ta15  1  0.659367  0.831193  0.372323  1
  Ta  Ta16  1  0.161511  0.667965  0.373281  1
  Ta  Ta17  1  0.659398  0.830737  0.124977  1
  Ta  Ta18  1  0.840837  0.331290  0.873890  1
  Ta  Ta19  1  0.340654  0.168430  0.626458  1
  Ge  Ge20  1  0.805993  0.643954  0.750159  1
  Ge  Ge21  1  0.305829  0.857537  0.750863  1
  Ge  Ge22  1  0.194630  0.355674  0.249756  1
  Ge  Ge23  1  0.693226  0.144573  0.248752  1
  Ge  Ge24  1  0.540652  0.381285  0.749910  1
  Ge  Ge25  1  0.041115  0.120062  0.750418  1
  Ge  Ge26  1  0.460166  0.617620  0.248819  1
  Ge  Ge27  1  0.960740  0.879717  0.249172  1
  Ge  Ge28  1  0.677471  0.038106  0.541472  1
  Ge  Ge29  1  0.179600  0.461109  0.959771  1
  Ge  Ge30  1  0.323473  0.962871  0.041850  1
  Ge  Ge31  1  0.823504  0.539109  0.458065  1
  Ge  Ge32  1  0.321932  0.961252  0.458321  1
  Ge  Ge33  1  0.815801  0.535180  0.041692  1
  Ge  Ge34  1  0.676863  0.040772  0.959796  1
  Ge  Ge35  1  0.177317  0.461679  0.541852  1
