# generated using pymatgen
data_Hf4Re(SiIr)6
_symmetry_space_group_name_H-M   'P 1'
_cell_length_a   7.00074824
_cell_length_b   7.00074910
_cell_length_c   7.00074800
_cell_angle_alpha   109.47121165
_cell_angle_beta   109.47121416
_cell_angle_gamma   109.47122870
_symmetry_Int_Tables_number   1
_chemical_formula_structural   Hf4Re(SiIr)6
_chemical_formula_sum   'Hf4 Re1 Si6 Ir6'
_cell_volume   264.12625102
_cell_formula_units_Z   1
loop_
 _symmetry_equiv_pos_site_id
 _symmetry_equiv_pos_as_xyz
  1  'x, y, z'
loop_
 _atom_site_type_symbol
 _atom_site_label
 _atom_site_symmetry_multiplicity
 _atom_site_fract_x
 _atom_site_fract_y
 _atom_site_fract_z
 _atom_site_occupancy
  Hf  Hf0  1  0.500000  0.500000  0.500000  1
  Hf  Hf1  1  0.000000  0.000000  0.500000  1
  Hf  Hf2  1  0.000000  0.500000  0.000000  1
  Hf  Hf3  1  0.500000  0.000000  0.000000  1
  Re  Re4  1  0.000000  0.000000  0.000000  1
  Si  Si5  1  0.000000  0.317000  0.317000  1
  Si  Si6  1  0.317000  0.000000  0.317000  1
  Si  Si7  1  0.317000  0.317000  0.000000  1
  Si  Si8  1  0.000000  0.683000  0.683000  1
  Si  Si9  1  0.683000  0.000000  0.683000  1
  Si  Si10  1  0.683000  0.683000  0.000000  1
  Ir  Ir11  1  0.500000  0.750000  0.250000  1
  Ir  Ir12  1  0.250000  0.500000  0.750000  1
  Ir  Ir13  1  0.750000  0.250000  0.500000  1
  Ir  Ir14  1  0.750000  0.500000  0.250000  1
  Ir  Ir15  1  0.500000  0.250000  0.750000  1
  Ir  Ir16  1  0.250000  0.750000  0.500000  1
