# generated using pymatgen
data_Ce6Si3IrRu2
_symmetry_space_group_name_H-M   'P 1'
_cell_length_a   7.58502765
_cell_length_b   7.58502827
_cell_length_c   9.85073711
_cell_angle_alpha   89.77391372
_cell_angle_beta   89.77390159
_cell_angle_gamma   120.18156352
_symmetry_Int_Tables_number   1
_chemical_formula_structural   Ce6Si3IrRu2
_chemical_formula_sum   'Ce12 Si6 Ir2 Ru4'
_cell_volume   489.89460453
_cell_formula_units_Z   2
loop_
 _symmetry_equiv_pos_site_id
 _symmetry_equiv_pos_as_xyz
  1  'x, y, z'
loop_
 _atom_site_type_symbol
 _atom_site_label
 _atom_site_symmetry_multiplicity
 _atom_site_fract_x
 _atom_site_fract_y
 _atom_site_fract_z
 _atom_site_occupancy
  Ce  Ce0  1  0.999750  0.606214  0.511677  1
  Ce  Ce1  1  0.606214  0.999750  0.511677  1
  Ce  Ce2  1  0.404489  0.404489  0.505603  1
  Ce  Ce3  1  0.998988  0.403456  0.003043  1
  Ce  Ce4  1  0.403456  0.998988  0.003043  1
  Ce  Ce5  1  0.594670  0.594670  0.001906  1
  Ce  Ce6  1  0.993815  0.728025  0.166639  1
  Ce  Ce7  1  0.728025  0.993815  0.166639  1
  Ce  Ce8  1  0.271114  0.271114  0.163674  1
  Ce  Ce9  1  0.002418  0.265710  0.668867  1
  Ce  Ce10  1  0.265710  0.002418  0.668867  1
  Ce  Ce11  1  0.737681  0.737681  0.669912  1
  Si  Si12  1  0.666989  0.330134  0.284458  1
  Si  Si13  1  0.330134  0.666989  0.284458  1
  Si  Si14  1  0.334103  0.667737  0.777220  1
  Si  Si15  1  0.667737  0.334103  0.777220  1
  Si  Si16  1  0.000458  0.000458  0.411458  1
  Si  Si17  1  0.000260  0.000260  0.916728  1
  Ir  Ir18  1  0.999919  0.333739  0.338908  1
  Ir  Ir19  1  0.333739  0.999919  0.338908  1
  Ru  Ru20  1  0.659658  0.659658  0.339696  1
  Ru  Ru21  1  0.000244  0.661169  0.840014  1
  Ru  Ru22  1  0.661169  0.000244  0.840014  1
  Ru  Ru23  1  0.339259  0.339259  0.838617  1
