# generated using pymatgen
data_CaDyGa2NiB2Rh5
_symmetry_space_group_name_H-M   'P 1'
_cell_length_a   5.44637500
_cell_length_b   5.44637602
_cell_length_c   7.09266900
_cell_angle_alpha   90.00000000
_cell_angle_beta   90.00000000
_cell_angle_gamma   119.99999987
_symmetry_Int_Tables_number   1
_chemical_formula_structural   CaDyGa2NiB2Rh5
_chemical_formula_sum   'Ca1 Dy1 Ga2 Ni1 B2 Rh5'
_cell_volume   182.20298498
_cell_formula_units_Z   1
loop_
 _symmetry_equiv_pos_site_id
 _symmetry_equiv_pos_as_xyz
  1  'x, y, z'
loop_
 _atom_site_type_symbol
 _atom_site_label
 _atom_site_symmetry_multiplicity
 _atom_site_fract_x
 _atom_site_fract_y
 _atom_site_fract_z
 _atom_site_occupancy
  Ca  Ca0  1  0.000000  0.000000  0.502768  1
  Dy  Dy1  1  0.000000  0.000000  0.998442  1
  Ga  Ga2  1  0.334033  0.668068  0.497935  1
  Ga  Ga3  1  0.665967  0.331932  0.497935  1
  Ni  Ni4  1  0.500000  0.000000  0.200247  1
  B  B5  1  0.665678  0.331354  0.001988  1
  B  B6  1  0.334322  0.668646  0.001988  1
  Rh  Rh7  1  0.500000  0.500000  0.793321  1
  Rh  Rh8  1  0.000000  0.500000  0.793321  1
  Rh  Rh9  1  0.500000  0.000000  0.795101  1
  Rh  Rh10  1  0.000000  0.500000  0.208477  1
  Rh  Rh11  1  0.500000  0.500000  0.208477  1
