# generated using pymatgen
data_Sr5Si5I3
_symmetry_space_group_name_H-M   'P 1'
_cell_length_a   12.52616791
_cell_length_b   12.52616690
_cell_length_c   15.95875689
_cell_angle_alpha   69.72654002
_cell_angle_beta   69.72654217
_cell_angle_gamma   21.04758444
_symmetry_Int_Tables_number   1
_chemical_formula_structural   Sr5Si5I3
_chemical_formula_sum   'Sr10 Si10 I6'
_cell_volume   841.59659591
_cell_formula_units_Z   2
loop_
 _symmetry_equiv_pos_site_id
 _symmetry_equiv_pos_as_xyz
  1  'x, y, z'
loop_
 _atom_site_type_symbol
 _atom_site_label
 _atom_site_symmetry_multiplicity
 _atom_site_fract_x
 _atom_site_fract_y
 _atom_site_fract_z
 _atom_site_occupancy
  Sr  Sr0  1  0.346078  0.346078  0.058343  1
  Sr  Sr1  1  0.912212  0.912212  0.558735  1
  Sr  Sr2  1  0.087788  0.087788  0.441265  1
  Sr  Sr3  1  0.019285  0.019285  0.715124  1
  Sr  Sr4  1  0.980715  0.980715  0.284876  1
  Sr  Sr5  1  0.838791  0.838791  0.829942  1
  Sr  Sr6  1  0.734733  0.734733  0.666871  1
  Sr  Sr7  1  0.653922  0.653922  0.941657  1
  Sr  Sr8  1  0.161209  0.161209  0.170058  1
  Sr  Sr9  1  0.265267  0.265267  0.333129  1
  Si  Si10  1  0.505475  0.505475  0.571256  1
  Si  Si11  1  0.422026  0.422026  0.701831  1
  Si  Si12  1  0.494525  0.494525  0.428744  1
  Si  Si13  1  0.748337  0.748337  0.029401  1
  Si  Si14  1  0.672186  0.672186  0.311422  1
  Si  Si15  1  0.245077  0.245077  0.821311  1
  Si  Si16  1  0.754923  0.754923  0.178689  1
  Si  Si17  1  0.327814  0.327814  0.688578  1
  Si  Si18  1  0.577974  0.577974  0.298169  1
  Si  Si19  1  0.251663  0.251663  0.970599  1
  I  I20  1  0.590064  0.590064  0.791990  1
  I  I21  1  0.063364  0.063364  0.063485  1
  I  I22  1  0.936636  0.936636  0.936515  1
  I  I23  1  0.825504  0.825504  0.436429  1
  I  I24  1  0.409936  0.409936  0.208010  1
  I  I25  1  0.174496  0.174496  0.563571  1
