# generated using pymatgen
data_LaEu2WO7
_symmetry_space_group_name_H-M   'P 1'
_cell_length_a   6.74593404
_cell_length_b   6.74593639
_cell_length_c   7.72179500
_cell_angle_alpha   90.00000000
_cell_angle_beta   90.00000000
_cell_angle_gamma   111.43395258
_symmetry_Int_Tables_number   1
_chemical_formula_structural   LaEu2WO7
_chemical_formula_sum   'La2 Eu4 W2 O14'
_cell_volume   327.09761144
_cell_formula_units_Z   2
loop_
 _symmetry_equiv_pos_site_id
 _symmetry_equiv_pos_as_xyz
  1  'x, y, z'
loop_
 _atom_site_type_symbol
 _atom_site_label
 _atom_site_symmetry_multiplicity
 _atom_site_fract_x
 _atom_site_fract_y
 _atom_site_fract_z
 _atom_site_occupancy
  La  La0  1  0.000000  0.000000  0.000000  1
  La  La1  1  0.000000  0.000000  0.500000  1
  Eu  Eu2  1  0.054512  0.520680  0.250000  1
  Eu  Eu3  1  0.945488  0.479320  0.750000  1
  Eu  Eu4  1  0.520680  0.054512  0.250000  1
  Eu  Eu5  1  0.479320  0.945488  0.750000  1
  W  W6  1  0.500000  0.500000  0.000000  1
  W  W7  1  0.500000  0.500000  0.500000  1
  O  O8  1  0.443006  0.443006  0.250000  1
  O  O9  1  0.556994  0.556994  0.750000  1
  O  O10  1  0.889399  0.153970  0.250000  1
  O  O11  1  0.110601  0.846030  0.750000  1
  O  O12  1  0.153970  0.889399  0.250000  1
  O  O13  1  0.846030  0.110601  0.750000  1
  O  O14  1  0.802364  0.558528  0.031024  1
  O  O15  1  0.197636  0.441472  0.968976  1
  O  O16  1  0.197636  0.441472  0.531024  1
  O  O17  1  0.558528  0.802364  0.468976  1
  O  O18  1  0.802364  0.558528  0.468976  1
  O  O19  1  0.441472  0.197636  0.531024  1
  O  O20  1  0.441472  0.197636  0.968976  1
  O  O21  1  0.558528  0.802364  0.031024  1
