# generated using pymatgen
data_Dy3Y3Al24Ir5Ru3
_symmetry_space_group_name_H-M   'P 1'
_cell_length_a   8.82241123
_cell_length_b   8.78590621
_cell_length_c   9.53346503
_cell_angle_alpha   90.00000027
_cell_angle_beta   90.09995367
_cell_angle_gamma   119.86321714
_symmetry_Int_Tables_number   1
_chemical_formula_structural   Dy3Y3Al24Ir5Ru3
_chemical_formula_sum   'Dy3 Y3 Al24 Ir5 Ru3'
_cell_volume   640.84254506
_cell_formula_units_Z   1
loop_
 _symmetry_equiv_pos_site_id
 _symmetry_equiv_pos_as_xyz
  1  'x, y, z'
loop_
 _atom_site_type_symbol
 _atom_site_label
 _atom_site_symmetry_multiplicity
 _atom_site_fract_x
 _atom_site_fract_y
 _atom_site_fract_z
 _atom_site_occupancy
  Dy  Dy0  1  0.808554  0.194294  0.750295  1
  Dy  Dy1  1  0.808554  0.614260  0.750295  1
  Dy  Dy2  1  0.385567  0.192784  0.750060  1
  Y  Y3  1  0.191278  0.806115  0.249789  1
  Y  Y4  1  0.191278  0.385164  0.249789  1
  Y  Y5  1  0.615006  0.807502  0.249940  1
  Al  Al6  1  0.561763  0.436798  0.250231  1
  Al  Al7  1  0.561763  0.124965  0.250231  1
  Al  Al8  1  0.875748  0.437874  0.248702  1
  Al  Al9  1  0.438297  0.563182  0.749726  1
  Al  Al10  1  0.438297  0.875115  0.749726  1
  Al  Al11  1  0.124314  0.562157  0.751295  1
  Al  Al12  1  0.325922  0.162961  0.423777  1
  Al  Al13  1  0.835429  0.162679  0.423627  1
  Al  Al14  1  0.835429  0.672749  0.423627  1
  Al  Al15  1  0.674345  0.837173  0.576846  1
  Al  Al16  1  0.164423  0.837465  0.576973  1
  Al  Al17  1  0.164423  0.326959  0.576973  1
  Al  Al18  1  0.673539  0.836770  0.923990  1
  Al  Al19  1  0.162436  0.835377  0.923103  1
  Al  Al20  1  0.162436  0.327058  0.923103  1
  Al  Al21  1  0.326701  0.163351  0.075377  1
  Al  Al22  1  0.837416  0.164759  0.076303  1
  Al  Al23  1  0.837416  0.672657  0.076303  1
  Al  Al24  1  0.667224  0.333611  0.528740  1
  Al  Al25  1  0.332708  0.666355  0.471807  1
  Al  Al26  1  0.330508  0.665254  0.027467  1
  Al  Al27  1  0.669462  0.334731  0.972053  1
  Al  Al28  1  0.998262  0.999131  0.250026  1
  Al  Al29  1  0.001756  0.000879  0.749972  1
  Ir  Ir30  1  0.500015  0.499937  0.500150  1
  Ir  Ir31  1  0.500015  0.000078  0.500150  1
  Ir  Ir32  1  0.999866  0.499933  0.500217  1
  Ir  Ir33  1  0.500034  0.499933  0.999803  1
  Ir  Ir34  1  0.500034  0.000101  0.999803  1
  Ru  Ru35  1  0.999956  0.999978  0.499918  1
  Ru  Ru36  1  0.999971  0.999986  0.000106  1
  Ru  Ru37  1  0.999854  0.499927  0.999708  1
