# generated using pymatgen
data_Sc6Ti4Sn5Sb
_symmetry_space_group_name_H-M   'P 1'
_cell_length_a   8.34294300
_cell_length_b   8.34107170
_cell_length_c   5.71880700
_cell_angle_alpha   90.00000000
_cell_angle_beta   90.00000000
_cell_angle_gamma   120.00741766
_symmetry_Int_Tables_number   1
_chemical_formula_structural   Sc6Ti4Sn5Sb
_chemical_formula_sum   'Sc6 Ti4 Sn5 Sb1'
_cell_volume   344.62337910
_cell_formula_units_Z   1
loop_
 _symmetry_equiv_pos_site_id
 _symmetry_equiv_pos_as_xyz
  1  'x, y, z'
loop_
 _atom_site_type_symbol
 _atom_site_label
 _atom_site_symmetry_multiplicity
 _atom_site_fract_x
 _atom_site_fract_y
 _atom_site_fract_z
 _atom_site_occupancy
  Sc  Sc0  1  0.238453  0.000000  0.250000  1
  Sc  Sc1  1  0.237704  0.238162  0.750000  1
  Sc  Sc2  1  0.999542  0.761838  0.750000  1
  Sc  Sc3  1  0.000495  0.238494  0.250000  1
  Sc  Sc4  1  0.762001  0.761506  0.250000  1
  Sc  Sc5  1  0.760848  0.000000  0.750000  1
  Ti  Ti6  1  0.333770  0.667271  0.000048  1
  Ti  Ti7  1  0.666500  0.332729  0.499952  1
  Ti  Ti8  1  0.666500  0.332729  0.000048  1
  Ti  Ti9  1  0.333770  0.667271  0.499952  1
  Sn  Sn10  1  0.600707  0.600712  0.750000  1
  Sn  Sn11  1  0.999994  0.399288  0.750000  1
  Sn  Sn12  1  0.999968  0.600698  0.250000  1
  Sn  Sn13  1  0.399270  0.399302  0.250000  1
  Sn  Sn14  1  0.397935  0.000000  0.750000  1
  Sb  Sb15  1  0.602544  0.000000  0.250000  1
