# generated using pymatgen
data_Nb12Ga8CoNi3C4
_symmetry_space_group_name_H-M   'P 1'
_cell_length_a   8.25900241
_cell_length_b   8.24796929
_cell_length_c   8.24796900
_cell_angle_alpha   60.00000519
_cell_angle_beta   60.04418621
_cell_angle_gamma   60.04418455
_symmetry_Int_Tables_number   1
_chemical_formula_structural   Nb12Ga8CoNi3C4
_chemical_formula_sum   'Nb12 Ga8 Co1 Ni3 C4'
_cell_volume   397.55424347
_cell_formula_units_Z   1
loop_
 _symmetry_equiv_pos_site_id
 _symmetry_equiv_pos_as_xyz
  1  'x, y, z'
loop_
 _atom_site_type_symbol
 _atom_site_label
 _atom_site_symmetry_multiplicity
 _atom_site_fract_x
 _atom_site_fract_y
 _atom_site_fract_z
 _atom_site_occupancy
  Nb  Nb0  1  0.686628  0.311972  0.689427  1
  Nb  Nb1  1  0.936118  0.563568  0.563568  1
  Nb  Nb2  1  0.563372  0.938028  0.938028  1
  Nb  Nb3  1  0.936118  0.563568  0.936747  1
  Nb  Nb4  1  0.563372  0.560573  0.938028  1
  Nb  Nb5  1  0.936118  0.936747  0.563568  1
  Nb  Nb6  1  0.686628  0.689427  0.311972  1
  Nb  Nb7  1  0.313882  0.686432  0.686432  1
  Nb  Nb8  1  0.686628  0.311972  0.311972  1
  Nb  Nb9  1  0.313882  0.313253  0.686432  1
  Nb  Nb10  1  0.563372  0.938028  0.560573  1
  Nb  Nb11  1  0.313882  0.686432  0.313253  1
  Ga  Ga12  1  0.334301  0.332877  0.332877  1
  Ga  Ga13  1  0.252912  0.915696  0.915696  1
  Ga  Ga14  1  0.915699  0.250054  0.917123  1
  Ga  Ga15  1  0.915699  0.917123  0.250054  1
  Ga  Ga16  1  0.334301  0.999946  0.332877  1
  Ga  Ga17  1  0.334301  0.332877  0.999946  1
  Ga  Ga18  1  0.997088  0.334304  0.334304  1
  Ga  Ga19  1  0.915699  0.917123  0.917123  1
  Co  Co20  1  0.625000  0.125000  0.125000  1
  Ni  Ni21  1  0.125000  0.125000  0.125000  1
  Ni  Ni22  1  0.125000  0.625000  0.125000  1
  Ni  Ni23  1  0.125000  0.125000  0.625000  1
  C  C24  1  0.625000  0.625000  0.625000  1
  C  C25  1  0.125000  0.625000  0.625000  1
  C  C26  1  0.625000  0.125000  0.625000  1
  C  C27  1  0.625000  0.625000  0.125000  1
