# generated using pymatgen
data_Ta3CrReSi3W
_symmetry_space_group_name_H-M   'P 1'
_cell_length_a   6.83469269
_cell_length_b   6.82199216
_cell_length_c   3.32587800
_cell_angle_alpha   90.00000000
_cell_angle_beta   90.00000000
_cell_angle_gamma   120.48420684
_symmetry_Int_Tables_number   1
_chemical_formula_structural   Ta3CrReSi3W
_chemical_formula_sum   'Ta3 Cr1 Re1 Si3 W1'
_cell_volume   133.63721098
_cell_formula_units_Z   1
loop_
 _symmetry_equiv_pos_site_id
 _symmetry_equiv_pos_as_xyz
  1  'x, y, z'
loop_
 _atom_site_type_symbol
 _atom_site_label
 _atom_site_symmetry_multiplicity
 _atom_site_fract_x
 _atom_site_fract_y
 _atom_site_fract_z
 _atom_site_occupancy
  Ta  Ta0  1  0.412575  0.404999  0.500000  1
  Ta  Ta1  1  0.594068  0.994971  0.500000  1
  Ta  Ta2  1  0.001370  0.606664  0.500000  1
  Cr  Cr3  1  0.741324  0.741804  0.000000  1
  Re  Re4  1  0.000846  0.257663  0.000000  1
  Si  Si5  1  0.673274  0.338656  0.000000  1
  Si  Si6  1  0.337002  0.664039  0.000000  1
  Si  Si7  1  0.983975  0.990020  0.500000  1
  W  W8  1  0.255568  0.001186  0.000000  1
