# generated using pymatgen
data_Li3Pr3ZnPt2
_symmetry_space_group_name_H-M   'P 1'
_cell_length_a   7.65587800
_cell_length_b   7.65587778
_cell_length_c   3.98933300
_cell_angle_alpha   90.00000000
_cell_angle_beta   90.00000000
_cell_angle_gamma   120.00000961
_symmetry_Int_Tables_number   1
_chemical_formula_structural   Li3Pr3ZnPt2
_chemical_formula_sum   'Li3 Pr3 Zn1 Pt2'
_cell_volume   202.49806365
_cell_formula_units_Z   1
loop_
 _symmetry_equiv_pos_site_id
 _symmetry_equiv_pos_as_xyz
  1  'x, y, z'
loop_
 _atom_site_type_symbol
 _atom_site_label
 _atom_site_symmetry_multiplicity
 _atom_site_fract_x
 _atom_site_fract_y
 _atom_site_fract_z
 _atom_site_occupancy
  Li  Li0  1  0.247667  0.000000  0.500000  1
  Li  Li1  1  0.000000  0.247667  0.500000  1
  Li  Li2  1  0.752333  0.752333  0.500000  1
  Pr  Pr3  1  0.584250  0.000000  0.000000  1
  Pr  Pr4  1  0.000000  0.584250  0.000000  1
  Pr  Pr5  1  0.415750  0.415750  0.000000  1
  Zn  Zn6  1  0.000000  0.000000  0.000000  1
  Pt  Pt7  1  0.333333  0.666667  0.500000  1
  Pt  Pt8  1  0.666667  0.333333  0.500000  1
