# generated using pymatgen
data_Sc8TiSi16Tc11
_symmetry_space_group_name_H-M   'P 1'
_cell_length_a   6.65961845
_cell_length_b   6.68036530
_cell_length_c   12.33261797
_cell_angle_alpha   90.10003083
_cell_angle_beta   90.26282804
_cell_angle_gamma   90.07980507
_symmetry_Int_Tables_number   1
_chemical_formula_structural   Sc8TiSi16Tc11
_chemical_formula_sum   'Sc8 Ti1 Si16 Tc11'
_cell_volume   548.65479734
_cell_formula_units_Z   1
loop_
 _symmetry_equiv_pos_site_id
 _symmetry_equiv_pos_as_xyz
  1  'x, y, z'
loop_
 _atom_site_type_symbol
 _atom_site_label
 _atom_site_symmetry_multiplicity
 _atom_site_fract_x
 _atom_site_fract_y
 _atom_site_fract_z
 _atom_site_occupancy
  Sc  Sc0  1  0.335117  0.995166  0.469141  1
  Sc  Sc1  1  0.499516  0.837757  0.720190  1
  Sc  Sc2  1  0.494574  0.157979  0.218824  1
  Sc  Sc3  1  0.839131  0.500552  0.279073  1
  Sc  Sc4  1  0.158129  0.494006  0.781378  1
  Sc  Sc5  1  0.659106  0.001076  0.970286  1
  Sc  Sc6  1  0.998122  0.339789  0.530067  1
  Sc  Sc7  1  0.002213  0.657540  0.030725  1
  Ti  Ti8  1  0.999617  0.835594  0.623333  1
  Si  Si9  1  0.202394  0.127819  0.681640  1
  Si  Si10  1  0.377492  0.691625  0.934472  1
  Si  Si11  1  0.624288  0.308051  0.434361  1
  Si  Si12  1  0.692076  0.376632  0.066675  1
  Si  Si13  1  0.303234  0.626758  0.566346  1
  Si  Si14  1  0.807616  0.877331  0.184902  1
  Si  Si15  1  0.125034  0.195785  0.317117  1
  Si  Si16  1  0.877479  0.800435  0.818249  1
  Si  Si17  1  0.277013  0.972950  0.063727  1
  Si  Si18  1  0.532357  0.785599  0.315722  1
  Si  Si19  1  0.471093  0.213289  0.815679  1
  Si  Si20  1  0.788117  0.529880  0.686639  1
  Si  Si21  1  0.218531  0.471584  0.184945  1
  Si  Si22  1  0.702776  0.040498  0.564310  1
  Si  Si23  1  0.972871  0.274674  0.936144  1
  Si  Si24  1  0.034529  0.715703  0.429875  1
  Tc  Tc25  1  0.328298  0.331024  0.001301  1
  Tc  Tc26  1  0.170874  0.830581  0.248236  1
  Tc  Tc27  1  0.834406  0.163523  0.749511  1
  Tc  Tc28  1  0.673767  0.669042  0.500251  1
  Tc  Tc29  1  0.184287  0.973384  0.868409  1
  Tc  Tc30  1  0.523101  0.678645  0.121268  1
  Tc  Tc31  1  0.490440  0.330590  0.623629  1
  Tc  Tc32  1  0.673457  0.511376  0.879533  1
  Tc  Tc33  1  0.326379  0.478512  0.377470  1
  Tc  Tc34  1  0.827985  0.024647  0.374002  1
  Tc  Tc35  1  0.974582  0.180604  0.132571  1
