# generated using pymatgen
data_Ce2Ga5Rh3
_symmetry_space_group_name_H-M   'P 1'
_cell_length_a   8.66625211
_cell_length_b   8.66625188
_cell_length_c   8.66625084
_cell_angle_alpha   141.29432396
_cell_angle_beta   108.59099514
_cell_angle_gamma   84.30811050
_symmetry_Int_Tables_number   1
_chemical_formula_structural   Ce2Ga5Rh3
_chemical_formula_sum   'Ce4 Ga10 Rh6'
_cell_volume   373.27116324
_cell_formula_units_Z   2
loop_
 _symmetry_equiv_pos_site_id
 _symmetry_equiv_pos_as_xyz
  1  'x, y, z'
loop_
 _atom_site_type_symbol
 _atom_site_label
 _atom_site_symmetry_multiplicity
 _atom_site_fract_x
 _atom_site_fract_y
 _atom_site_fract_z
 _atom_site_occupancy
  Ce  Ce0  1  0.864306  0.140677  0.723629  1
  Ce  Ce1  1  0.135694  0.859323  0.276371  1
  Ce  Ce2  1  0.417048  0.640677  0.776371  1
  Ce  Ce3  1  0.582952  0.359323  0.223629  1
  Ga  Ga4  1  0.500000  0.250000  0.750000  1
  Ga  Ga5  1  0.500000  0.750000  0.250000  1
  Ga  Ga6  1  0.203857  0.453857  0.250000  1
  Ga  Ga7  1  0.796143  0.046143  0.250000  1
  Ga  Ga8  1  0.796143  0.546143  0.750000  1
  Ga  Ga9  1  0.203857  0.953857  0.750000  1
  Ga  Ga10  1  0.083679  0.411700  0.671979  1
  Ga  Ga11  1  0.916321  0.588300  0.328021  1
  Ga  Ga12  1  0.739721  0.911700  0.828021  1
  Ga  Ga13  1  0.260279  0.088300  0.171979  1
  Rh  Rh14  1  0.000000  0.250000  0.250000  1
  Rh  Rh15  1  0.000000  0.750000  0.750000  1
  Rh  Rh16  1  0.257298  0.350911  0.906387  1
  Rh  Rh17  1  0.742702  0.649089  0.093613  1
  Rh  Rh18  1  0.444525  0.850911  0.593613  1
  Rh  Rh19  1  0.555475  0.149089  0.406387  1
