# generated using pymatgen
data_DyEr(FeOs)2
_symmetry_space_group_name_H-M   'P 1'
_cell_length_a   5.21795969
_cell_length_b   5.26815564
_cell_length_c   5.26815625
_cell_angle_alpha   59.62730456
_cell_angle_beta   60.31470079
_cell_angle_gamma   60.31468965
_symmetry_Int_Tables_number   1
_chemical_formula_structural   DyEr(FeOs)2
_chemical_formula_sum   'Dy1 Er1 Fe2 Os2'
_cell_volume   102.58948221
_cell_formula_units_Z   1
loop_
 _symmetry_equiv_pos_site_id
 _symmetry_equiv_pos_as_xyz
  1  'x, y, z'
loop_
 _atom_site_type_symbol
 _atom_site_label
 _atom_site_symmetry_multiplicity
 _atom_site_fract_x
 _atom_site_fract_y
 _atom_site_fract_z
 _atom_site_occupancy
  Dy  Dy0  1  0.252344  0.247656  0.247656  1
  Er  Er1  1  0.997863  0.002137  0.002137  1
  Fe  Fe2  1  0.124963  0.625061  0.625061  1
  Fe  Fe3  1  0.624914  0.625061  0.625061  1
  Os  Os4  1  0.624957  0.625009  0.125075  1
  Os  Os5  1  0.624957  0.125075  0.625009  1
