# generated using pymatgen
data_HfZr2AuC
_symmetry_space_group_name_H-M   'P 1'
_cell_length_a   5.99058300
_cell_length_b   5.99058397
_cell_length_c   9.10982900
_cell_angle_alpha   90.00000000
_cell_angle_beta   90.00000000
_cell_angle_gamma   147.43671502
_symmetry_Int_Tables_number   1
_chemical_formula_structural   HfZr2AuC
_chemical_formula_sum   'Hf2 Zr4 Au2 C2'
_cell_volume   175.96125375
_cell_formula_units_Z   2
loop_
 _symmetry_equiv_pos_site_id
 _symmetry_equiv_pos_as_xyz
  1  'x, y, z'
loop_
 _atom_site_type_symbol
 _atom_site_label
 _atom_site_symmetry_multiplicity
 _atom_site_fract_x
 _atom_site_fract_y
 _atom_site_fract_z
 _atom_site_occupancy
  Hf  Hf0  1  0.371971  0.628027  0.548730  1
  Hf  Hf1  1  0.371971  0.628027  0.951270  1
  Zr  Zr2  1  0.628739  0.371259  0.047533  1
  Zr  Zr3  1  0.952899  0.047100  0.250000  1
  Zr  Zr4  1  0.628739  0.371259  0.452468  1
  Zr  Zr5  1  0.046706  0.953293  0.750000  1
  Au  Au6  1  0.250981  0.749017  0.250000  1
  Au  Au7  1  0.752637  0.247361  0.750000  1
  C  C8  1  0.997675  0.002325  0.999513  1
  C  C9  1  0.997675  0.002325  0.500487  1
