# generated using pymatgen
data_La8GePbI12
_symmetry_space_group_name_H-M   'P 1'
_cell_length_a   4.51831200
_cell_length_b   14.80879011
_cell_length_c   15.65008600
_cell_angle_alpha   89.93645490
_cell_angle_beta   90.00000000
_cell_angle_gamma   90.00000000
_symmetry_Int_Tables_number   1
_chemical_formula_structural   La8GePbI12
_chemical_formula_sum   'La8 Ge1 Pb1 I12'
_cell_volume   1047.15809817
_cell_formula_units_Z   1
loop_
 _symmetry_equiv_pos_site_id
 _symmetry_equiv_pos_as_xyz
  1  'x, y, z'
loop_
 _atom_site_type_symbol
 _atom_site_label
 _atom_site_symmetry_multiplicity
 _atom_site_fract_x
 _atom_site_fract_y
 _atom_site_fract_z
 _atom_site_occupancy
  La  La0  1  0.500000  0.122331  0.335950  1
  La  La1  1  0.500000  0.877669  0.664050  1
  La  La2  1  0.500000  0.614729  0.154033  1
  La  La3  1  0.500000  0.385271  0.845967  1
  La  La4  1  0.000000  0.123290  0.582321  1
  La  La5  1  0.000000  0.876710  0.417679  1
  La  La6  1  0.000000  0.612014  0.925303  1
  La  La7  1  0.000000  0.387986  0.074697  1
  Ge  Ge8  1  0.500000  0.500000  0.000000  1
  Pb  Pb9  1  0.500000  0.000000  0.500000  1
  I  I10  1  0.500000  0.246659  0.160806  1
  I  I11  1  0.500000  0.753341  0.839194  1
  I  I12  1  0.500000  0.741341  0.335445  1
  I  I13  1  0.500000  0.258659  0.664555  1
  I  I14  1  0.000000  0.258485  0.413529  1
  I  I15  1  0.000000  0.741515  0.586471  1
  I  I16  1  0.000000  0.756070  0.086030  1
  I  I17  1  0.000000  0.243930  0.913970  1
  I  I18  1  0.000000  0.999526  0.240478  1
  I  I19  1  0.000000  0.000474  0.759522  1
  I  I20  1  0.000000  0.499484  0.257212  1
  I  I21  1  0.000000  0.500516  0.742788  1
