# generated using pymatgen
data_AcYZn4Ru
_symmetry_space_group_name_H-M   'P 1'
_cell_length_a   7.14586600
_cell_length_b   7.14586600
_cell_length_c   5.50753600
_cell_angle_alpha   90.00000000
_cell_angle_beta   90.00000000
_cell_angle_gamma   90.00000000
_symmetry_Int_Tables_number   1
_chemical_formula_structural   AcYZn4Ru
_chemical_formula_sum   'Ac2 Y2 Zn8 Ru2'
_cell_volume   281.23351868
_cell_formula_units_Z   2
loop_
 _symmetry_equiv_pos_site_id
 _symmetry_equiv_pos_as_xyz
  1  'x, y, z'
loop_
 _atom_site_type_symbol
 _atom_site_label
 _atom_site_symmetry_multiplicity
 _atom_site_fract_x
 _atom_site_fract_y
 _atom_site_fract_z
 _atom_site_occupancy
  Ac  Ac0  1  0.000000  0.500000  0.782041  1
  Ac  Ac1  1  0.500000  0.000000  0.217959  1
  Y  Y2  1  0.000000  0.000000  0.000000  1
  Y  Y3  1  0.500000  0.500000  0.000000  1
  Zn  Zn4  1  0.186050  0.686050  0.298994  1
  Zn  Zn5  1  0.813950  0.686050  0.298994  1
  Zn  Zn6  1  0.813950  0.313950  0.298994  1
  Zn  Zn7  1  0.313950  0.186050  0.701006  1
  Zn  Zn8  1  0.186050  0.313950  0.298994  1
  Zn  Zn9  1  0.686050  0.186050  0.701006  1
  Zn  Zn10  1  0.686050  0.813950  0.701006  1
  Zn  Zn11  1  0.313950  0.813950  0.701006  1
  Ru  Ru12  1  0.500000  0.500000  0.500000  1
  Ru  Ru13  1  0.000000  0.000000  0.500000  1
