# generated using pymatgen
data_GdHoReB6
_symmetry_space_group_name_H-M   'P 1'
_cell_length_a   3.68998000
_cell_length_b   9.18746300
_cell_length_c   11.59012900
_cell_angle_alpha   90.00000000
_cell_angle_beta   90.00000000
_cell_angle_gamma   90.00000000
_symmetry_Int_Tables_number   1
_chemical_formula_structural   GdHoReB6
_chemical_formula_sum   'Gd4 Ho4 Re4 B24'
_cell_volume   392.92339251
_cell_formula_units_Z   4
loop_
 _symmetry_equiv_pos_site_id
 _symmetry_equiv_pos_as_xyz
  1  'x, y, z'
loop_
 _atom_site_type_symbol
 _atom_site_label
 _atom_site_symmetry_multiplicity
 _atom_site_fract_x
 _atom_site_fract_y
 _atom_site_fract_z
 _atom_site_occupancy
  Gd  Gd0  1  0.000000  0.323352  0.413743  1
  Gd  Gd1  1  0.000000  0.676648  0.586257  1
  Gd  Gd2  1  0.000000  0.823352  0.086257  1
  Gd  Gd3  1  0.000000  0.176648  0.913743  1
  Ho  Ho4  1  0.000000  0.943239  0.369919  1
  Ho  Ho5  1  0.000000  0.056761  0.630081  1
  Ho  Ho6  1  0.000000  0.443239  0.130081  1
  Ho  Ho7  1  0.000000  0.556761  0.869919  1
  Re  Re8  1  0.000000  0.639317  0.320121  1
  Re  Re9  1  0.000000  0.360683  0.679879  1
  Re  Re10  1  0.000000  0.139317  0.179879  1
  Re  Re11  1  0.000000  0.860683  0.820121  1
  B  B12  1  0.500000  0.553786  0.432267  1
  B  B13  1  0.500000  0.446214  0.567733  1
  B  B14  1  0.500000  0.053786  0.067733  1
  B  B15  1  0.500000  0.946214  0.932267  1
  B  B16  1  0.500000  0.749319  0.418037  1
  B  B17  1  0.500000  0.250681  0.581963  1
  B  B18  1  0.500000  0.249319  0.081963  1
  B  B19  1  0.500000  0.750681  0.918037  1
  B  B20  1  0.500000  0.792184  0.265743  1
  B  B21  1  0.500000  0.207816  0.734257  1
  B  B22  1  0.500000  0.292184  0.234257  1
  B  B23  1  0.500000  0.707816  0.765743  1
  B  B24  1  0.500000  0.630674  0.185786  1
  B  B25  1  0.500000  0.369326  0.814214  1
  B  B26  1  0.500000  0.130674  0.314214  1
  B  B27  1  0.500000  0.869326  0.685786  1
  B  B28  1  0.500000  0.982937  0.212239  1
  B  B29  1  0.500000  0.017063  0.787761  1
  B  B30  1  0.500000  0.482937  0.287761  1
  B  B31  1  0.500000  0.517063  0.712239  1
  B  B32  1  0.500000  0.598920  0.027603  1
  B  B33  1  0.500000  0.401080  0.972397  1
  B  B34  1  0.500000  0.098920  0.472397  1
  B  B35  1  0.500000  0.901080  0.527603  1
