# generated using pymatgen
data_La5Nd(Sb3Au2)2
_symmetry_space_group_name_H-M   'P 1'
_cell_length_a   4.68486400
_cell_length_b   4.68486516
_cell_length_c   24.32800800
_cell_angle_alpha   90.00000000
_cell_angle_beta   90.00000000
_cell_angle_gamma   120.00000593
_symmetry_Int_Tables_number   1
_chemical_formula_structural   La5Nd(Sb3Au2)2
_chemical_formula_sum   'La5 Nd1 Sb6 Au4'
_cell_volume   462.41428215
_cell_formula_units_Z   1
loop_
 _symmetry_equiv_pos_site_id
 _symmetry_equiv_pos_as_xyz
  1  'x, y, z'
loop_
 _atom_site_type_symbol
 _atom_site_label
 _atom_site_symmetry_multiplicity
 _atom_site_fract_x
 _atom_site_fract_y
 _atom_site_fract_z
 _atom_site_occupancy
  La  La0  1  0.666667  0.333333  0.924343  1
  La  La1  1  0.333333  0.666667  0.075346  1
  La  La2  1  0.333333  0.666667  0.424654  1
  La  La3  1  0.666667  0.333333  0.575657  1
  La  La4  1  0.333333  0.666667  0.250000  1
  Nd  Nd5  1  0.666667  0.333333  0.750000  1
  Sb  Sb6  1  0.333333  0.666667  0.653108  1
  Sb  Sb7  1  0.000000  0.000000  0.499975  1
  Sb  Sb8  1  0.666667  0.333333  0.347180  1
  Sb  Sb9  1  0.333333  0.666667  0.846892  1
  Sb  Sb10  1  0.666667  0.333333  0.152820  1
  Sb  Sb11  1  0.000000  0.000000  0.000025  1
  Au  Au12  1  0.000000  0.000000  0.812657  1
  Au  Au13  1  0.000000  0.000000  0.186549  1
  Au  Au14  1  0.000000  0.000000  0.313451  1
  Au  Au15  1  0.000000  0.000000  0.687343  1
