# generated using pymatgen
data_Er16AlCo4Ag3
_symmetry_space_group_name_H-M   'P 1'
_cell_length_a   9.32975955
_cell_length_b   9.33950136
_cell_length_c   9.33950000
_cell_angle_alpha   60.00000482
_cell_angle_beta   59.96545811
_cell_angle_gamma   59.96546536
_symmetry_Int_Tables_number   1
_chemical_formula_structural   Er16AlCo4Ag3
_chemical_formula_sum   'Er16 Al1 Co4 Ag3'
_cell_volume   575.14303701
_cell_formula_units_Z   1
loop_
 _symmetry_equiv_pos_site_id
 _symmetry_equiv_pos_as_xyz
  1  'x, y, z'
loop_
 _atom_site_type_symbol
 _atom_site_label
 _atom_site_symmetry_multiplicity
 _atom_site_fract_x
 _atom_site_fract_y
 _atom_site_fract_z
 _atom_site_occupancy
  Er  Er0  1  0.346248  0.348656  0.348656  1
  Er  Er1  1  0.346248  0.348656  0.956441  1
  Er  Er2  1  0.346248  0.956441  0.348656  1
  Er  Er3  1  0.956442  0.347853  0.347853  1
  Er  Er4  1  0.811483  0.188617  0.188617  1
  Er  Er5  1  0.188526  0.810120  0.810120  1
  Er  Er6  1  0.188526  0.810120  0.191235  1
  Er  Er7  1  0.811483  0.188617  0.811282  1
  Er  Er8  1  0.188526  0.191235  0.810120  1
  Er  Er9  1  0.811483  0.811282  0.188617  1
  Er  Er10  1  0.936868  0.563456  0.563456  1
  Er  Er11  1  0.561519  0.938046  0.938046  1
  Er  Er12  1  0.561519  0.938046  0.562387  1
  Er  Er13  1  0.936868  0.563456  0.936220  1
  Er  Er14  1  0.561519  0.562387  0.938046  1
  Er  Er15  1  0.936868  0.936220  0.563456  1
  Al  Al16  1  0.271094  0.576302  0.576302  1
  Co  Co17  1  0.140958  0.141206  0.141206  1
  Co  Co18  1  0.140958  0.141206  0.576632  1
  Co  Co19  1  0.140958  0.576632  0.141206  1
  Co  Co20  1  0.575789  0.141404  0.141404  1
  Ag  Ag21  1  0.579959  0.582001  0.582001  1
  Ag  Ag22  1  0.579959  0.582001  0.256041  1
  Ag  Ag23  1  0.579959  0.256041  0.582001  1
