# generated using pymatgen
data_Sc4MnZn(SeO3)8
_symmetry_space_group_name_H-M   'P 1'
_cell_length_a   8.42505682
_cell_length_b   8.48601966
_cell_length_c   8.54277300
_cell_angle_alpha   86.94680920
_cell_angle_beta   89.83526787
_cell_angle_gamma   89.96474549
_symmetry_Int_Tables_number   1
_chemical_formula_structural   Sc4MnZn(SeO3)8
_chemical_formula_sum   'Sc4 Mn1 Zn1 Se8 O24'
_cell_volume   609.89768638
_cell_formula_units_Z   1
loop_
 _symmetry_equiv_pos_site_id
 _symmetry_equiv_pos_as_xyz
  1  'x, y, z'
loop_
 _atom_site_type_symbol
 _atom_site_label
 _atom_site_symmetry_multiplicity
 _atom_site_fract_x
 _atom_site_fract_y
 _atom_site_fract_z
 _atom_site_occupancy
  Sc  Sc0  1  0.762766  0.749403  0.002576  1
  Sc  Sc1  1  0.737558  0.244861  0.509794  1
  Sc  Sc2  1  0.236199  0.249239  0.002092  1
  Sc  Sc3  1  0.264365  0.745372  0.509066  1
  Mn  Mn4  1  0.600887  0.342546  0.158351  1
  Zn  Zn5  1  0.398012  0.840562  0.158124  1
  Se  Se6  1  0.101017  0.551375  0.198585  1
  Se  Se7  1  0.901625  0.048488  0.199519  1
  Se  Se8  1  0.564773  0.456956  0.820194  1
  Se  Se9  1  0.326801  0.152849  0.407614  1
  Se  Se10  1  0.054332  0.422688  0.678864  1
  Se  Se11  1  0.433534  0.954506  0.824849  1
  Se  Se12  1  0.672407  0.658500  0.407819  1
  Se  Se13  1  0.946406  0.923172  0.680405  1
  O  O14  1  0.959535  0.681385  0.126840  1
  O  O15  1  0.314734  0.007306  0.984773  1
  O  O16  1  0.158131  0.270786  0.777121  1
  O  O17  1  0.663899  0.459052  0.362929  1
  O  O18  1  0.760214  0.181244  0.267436  1
  O  O19  1  0.190217  0.490533  0.032216  1
  O  O20  1  0.208271  0.517358  0.578397  1
  O  O21  1  0.618382  0.747224  0.225236  1
  O  O22  1  0.700297  0.359733  0.714832  1
  O  O23  1  0.341292  0.954492  0.358102  1
  O  O24  1  0.970231  0.321862  0.529563  1
  O  O25  1  0.478984  0.302987  0.935457  1
  O  O26  1  0.841877  0.770915  0.777569  1
  O  O27  1  0.507033  0.680373  0.516910  1
  O  O28  1  0.298706  0.860110  0.716647  1
  O  O29  1  0.244148  0.684634  0.263350  1
  O  O30  1  0.373406  0.248061  0.226681  1
  O  O31  1  0.039301  0.181160  0.125288  1
  O  O32  1  0.032096  0.823609  0.530278  1
  O  O33  1  0.517677  0.800461  0.940306  1
  O  O34  1  0.685913  0.510589  0.977079  1
  O  O35  1  0.792262  0.017227  0.580938  1
  O  O36  1  0.493900  0.179921  0.511655  1
  O  O37  1  0.808813  0.989858  0.034350  1
