# generated using pymatgen
data_NdThNb3Si4
_symmetry_space_group_name_H-M   'P 1'
_cell_length_a   7.19767549
_cell_length_b   7.19045655
_cell_length_c   13.36304524
_cell_angle_alpha   90.03654839
_cell_angle_beta   90.03334274
_cell_angle_gamma   89.97395138
_symmetry_Int_Tables_number   1
_chemical_formula_structural   NdThNb3Si4
_chemical_formula_sum   'Nd4 Th4 Nb12 Si16'
_cell_volume   691.59836993
_cell_formula_units_Z   4
loop_
 _symmetry_equiv_pos_site_id
 _symmetry_equiv_pos_as_xyz
  1  'x, y, z'
loop_
 _atom_site_type_symbol
 _atom_site_label
 _atom_site_symmetry_multiplicity
 _atom_site_fract_x
 _atom_site_fract_y
 _atom_site_fract_z
 _atom_site_occupancy
  Nd  Nd0  1  0.839649  0.502782  0.967546  1
  Nd  Nd1  1  0.496793  0.160025  0.532842  1
  Nd  Nd2  1  0.340150  0.997388  0.782846  1
  Nd  Nd3  1  0.660069  0.002200  0.282761  1
  Th  Th4  1  0.997201  0.339004  0.217437  1
  Th  Th5  1  0.003415  0.660459  0.717266  1
  Th  Th6  1  0.160738  0.497562  0.467418  1
  Th  Th7  1  0.502434  0.839603  0.032795  1
  Nb  Nb8  1  0.172112  0.168386  0.001347  1
  Nb  Nb9  1  0.831971  0.827425  0.500640  1
  Nb  Nb10  1  0.328674  0.668228  0.249328  1
  Nb  Nb11  1  0.671957  0.331243  0.749388  1
  Nb  Nb12  1  0.155439  0.994055  0.374480  1
  Nb  Nb13  1  0.842876  0.007032  0.874273  1
  Nb  Nb14  1  0.506239  0.654839  0.624398  1
  Nb  Nb15  1  0.343913  0.493601  0.875090  1
  Nb  Nb16  1  0.491842  0.344153  0.124555  1
  Nb  Nb17  1  0.657131  0.508407  0.375170  1
  Nb  Nb18  1  0.991406  0.157075  0.625248  1
  Nb  Nb19  1  0.007502  0.844544  0.125185  1
  Si  Si20  1  0.291026  0.042733  0.187449  1
  Si  Si21  1  0.708981  0.957424  0.686354  1
  Si  Si22  1  0.457934  0.790575  0.436303  1
  Si  Si23  1  0.209815  0.543252  0.062694  1
  Si  Si24  1  0.543574  0.211826  0.935530  1
  Si  Si25  1  0.787570  0.455337  0.563305  1
  Si  Si26  1  0.044067  0.287045  0.814577  1
  Si  Si27  1  0.955583  0.713182  0.313530  1
  Si  Si28  1  0.374468  0.296875  0.314704  1
  Si  Si29  1  0.627070  0.701442  0.814697  1
  Si  Si30  1  0.202144  0.874790  0.564083  1
  Si  Si31  1  0.126948  0.798905  0.935094  1
  Si  Si32  1  0.797345  0.128482  0.063601  1
  Si  Si33  1  0.870042  0.201323  0.435683  1
  Si  Si34  1  0.299721  0.370227  0.686082  1
  Si  Si35  1  0.702200  0.628572  0.186302  1
