# generated using pymatgen
data_Nd7Ho13Si15Ge
_symmetry_space_group_name_H-M   'P 1'
_cell_length_a   7.75698468
_cell_length_b   7.74533981
_cell_length_c   14.33281500
_cell_angle_alpha   90.20203963
_cell_angle_beta   89.89238086
_cell_angle_gamma   90.12612866
_symmetry_Int_Tables_number   1
_chemical_formula_structural   Nd7Ho13Si15Ge
_chemical_formula_sum   'Nd7 Ho13 Si15 Ge1'
_cell_volume   861.11349063
_cell_formula_units_Z   1
loop_
 _symmetry_equiv_pos_site_id
 _symmetry_equiv_pos_as_xyz
  1  'x, y, z'
loop_
 _atom_site_type_symbol
 _atom_site_label
 _atom_site_symmetry_multiplicity
 _atom_site_fract_x
 _atom_site_fract_y
 _atom_site_fract_z
 _atom_site_occupancy
  Nd  Nd0  1  0.007225  0.356327  0.542211  1
  Nd  Nd1  1  0.644965  0.993265  0.960029  1
  Nd  Nd2  1  0.140986  0.509487  0.792466  1
  Nd  Nd3  1  0.854811  0.488787  0.288659  1
  Nd  Nd4  1  0.507943  0.140140  0.206536  1
  Nd  Nd5  1  0.491204  0.858710  0.709584  1
  Nd  Nd6  1  0.357839  0.007397  0.457399  1
  Ho  Ho7  1  0.360158  0.491046  0.375005  1
  Ho  Ho8  1  0.857953  0.008378  0.372460  1
  Ho  Ho9  1  0.993915  0.138062  0.124111  1
  Ho  Ho10  1  0.008372  0.860688  0.625560  1
  Ho  Ho11  1  0.641274  0.511562  0.877198  1
  Ho  Ho12  1  0.492035  0.359003  0.625522  1
  Ho  Ho13  1  0.510029  0.640799  0.123722  1
  Ho  Ho14  1  0.137259  0.992419  0.876540  1
  Ho  Ho15  1  0.997336  0.637332  0.043297  1
  Ho  Ho16  1  0.677851  0.681900  0.500414  1
  Ho  Ho17  1  0.817231  0.183307  0.751279  1
  Ho  Ho18  1  0.181854  0.815941  0.248178  1
  Ho  Ho19  1  0.318115  0.319634  0.999889  1
  Si  Si20  1  0.939699  0.295502  0.939617  1
  Si  Si21  1  0.709172  0.062955  0.561426  1
  Si  Si22  1  0.208419  0.438539  0.187367  1
  Si  Si23  1  0.790827  0.563432  0.688498  1
  Si  Si24  1  0.437230  0.210957  0.812701  1
  Si  Si25  1  0.563080  0.789727  0.310998  1
  Si  Si26  1  0.290136  0.934879  0.061470  1
  Si  Si27  1  0.845844  0.798863  0.809866  1
  Si  Si28  1  0.152102  0.203475  0.309903  1
  Si  Si29  1  0.800869  0.844046  0.185165  1
  Si  Si30  1  0.298598  0.651470  0.563103  1
  Si  Si31  1  0.708855  0.351960  0.062514  1
  Si  Si32  1  0.652296  0.295890  0.439348  1
  Si  Si33  1  0.344195  0.703029  0.940767  1
  Si  Si34  1  0.202787  0.153196  0.691135  1
  Ge  Ge35  1  0.057533  0.707897  0.436067  1
