# generated using pymatgen
data_Tb6CrFe(Co4P3)4
_symmetry_space_group_name_H-M   'P 1'
_cell_length_a   3.70526700
_cell_length_b   10.57145300
_cell_length_c   12.23619200
_cell_angle_alpha   90.00000000
_cell_angle_beta   90.00000000
_cell_angle_gamma   90.00000000
_symmetry_Int_Tables_number   1
_chemical_formula_structural   Tb6CrFe(Co4P3)4
_chemical_formula_sum   'Tb6 Cr1 Fe1 Co16 P12'
_cell_volume   479.29232517
_cell_formula_units_Z   1
loop_
 _symmetry_equiv_pos_site_id
 _symmetry_equiv_pos_as_xyz
  1  'x, y, z'
loop_
 _atom_site_type_symbol
 _atom_site_label
 _atom_site_symmetry_multiplicity
 _atom_site_fract_x
 _atom_site_fract_y
 _atom_site_fract_z
 _atom_site_occupancy
  Tb  Tb0  1  0.000000  0.500000  0.522719  1
  Tb  Tb1  1  0.500000  0.000000  0.478525  1
  Tb  Tb2  1  0.500000  0.817905  0.205775  1
  Tb  Tb3  1  0.500000  0.182095  0.205775  1
  Tb  Tb4  1  0.000000  0.681869  0.795291  1
  Tb  Tb5  1  0.000000  0.318131  0.795291  1
  Cr  Cr6  1  0.500000  0.500000  0.154503  1
  Fe  Fe7  1  0.000000  0.000000  0.843241  1
  Co  Co8  1  0.500000  0.500000  0.702672  1
  Co  Co9  1  0.000000  0.000000  0.296819  1
  Co  Co10  1  0.000000  0.500000  0.987877  1
  Co  Co11  1  0.500000  0.000000  0.013264  1
  Co  Co12  1  0.500000  0.332968  0.993672  1
  Co  Co13  1  0.500000  0.667032  0.993672  1
  Co  Co14  1  0.000000  0.167194  0.005564  1
  Co  Co15  1  0.000000  0.832806  0.005564  1
  Co  Co16  1  0.500000  0.296566  0.429991  1
  Co  Co17  1  0.500000  0.703434  0.429991  1
  Co  Co18  1  0.000000  0.203608  0.568899  1
  Co  Co19  1  0.000000  0.796392  0.568899  1
  Co  Co20  1  0.500000  0.879042  0.709115  1
  Co  Co21  1  0.500000  0.120958  0.709115  1
  Co  Co22  1  0.000000  0.619905  0.290633  1
  Co  Co23  1  0.000000  0.380095  0.290633  1
  P  P24  1  0.500000  0.500000  0.882809  1
  P  P25  1  0.000000  0.000000  0.116638  1
  P  P26  1  0.500000  0.500000  0.346267  1
  P  P27  1  0.000000  0.000000  0.657943  1
  P  P28  1  0.500000  0.310008  0.615782  1
  P  P29  1  0.500000  0.689992  0.615782  1
  P  P30  1  0.000000  0.189211  0.384510  1
  P  P31  1  0.000000  0.810789  0.384510  1
  P  P32  1  0.500000  0.848316  0.892513  1
  P  P33  1  0.500000  0.151684  0.892513  1
  P  P34  1  0.000000  0.653910  0.106617  1
  P  P35  1  0.000000  0.346090  0.106617  1
