# generated using pymatgen
data_Sc4Al4CuRe3
_symmetry_space_group_name_H-M   'P 1'
_cell_length_a   5.27169055
_cell_length_b   5.27169200
_cell_length_c   8.58536700
_cell_angle_alpha   90.00000000
_cell_angle_beta   90.00000000
_cell_angle_gamma   119.21151604
_symmetry_Int_Tables_number   1
_chemical_formula_structural   Sc4Al4CuRe3
_chemical_formula_sum   'Sc4 Al4 Cu1 Re3'
_cell_volume   208.25022687
_cell_formula_units_Z   1
loop_
 _symmetry_equiv_pos_site_id
 _symmetry_equiv_pos_as_xyz
  1  'x, y, z'
loop_
 _atom_site_type_symbol
 _atom_site_label
 _atom_site_symmetry_multiplicity
 _atom_site_fract_x
 _atom_site_fract_y
 _atom_site_fract_z
 _atom_site_occupancy
  Sc  Sc0  1  0.333240  0.666760  0.192508  1
  Sc  Sc1  1  0.666386  0.333614  0.323163  1
  Sc  Sc2  1  0.666386  0.333614  0.676837  1
  Sc  Sc3  1  0.333240  0.666760  0.807492  1
  Al  Al4  1  0.995625  0.004375  0.246742  1
  Al  Al5  1  0.995625  0.004375  0.753258  1
  Al  Al6  1  0.833671  0.649230  0.000000  1
  Al  Al7  1  0.350770  0.166329  0.000000  1
  Cu  Cu8  1  0.832374  0.167626  0.000000  1
  Re  Re9  1  0.167858  0.344373  0.500000  1
  Re  Re10  1  0.655627  0.832142  0.500000  1
  Re  Re11  1  0.169287  0.830713  0.500000  1
