# generated using pymatgen
data_TmRhF7
_symmetry_space_group_name_H-M   'P 1'
_cell_length_a   5.53622800
_cell_length_b   5.88042205
_cell_length_c   8.09256625
_cell_angle_alpha   102.28888574
_cell_angle_beta   90.00000000
_cell_angle_gamma   90.00000000
_symmetry_Int_Tables_number   1
_chemical_formula_structural   TmRhF7
_chemical_formula_sum   'Tm2 Rh2 F14'
_cell_volume   257.41977731
_cell_formula_units_Z   2
loop_
 _symmetry_equiv_pos_site_id
 _symmetry_equiv_pos_as_xyz
  1  'x, y, z'
loop_
 _atom_site_type_symbol
 _atom_site_label
 _atom_site_symmetry_multiplicity
 _atom_site_fract_x
 _atom_site_fract_y
 _atom_site_fract_z
 _atom_site_occupancy
  Tm  Tm0  1  0.698719  0.653966  0.685398  1
  Tm  Tm1  1  0.198719  0.346034  0.314602  1
  Rh  Rh2  1  0.709805  0.813400  0.224527  1
  Rh  Rh3  1  0.209805  0.186600  0.775473  1
  F  F4  1  0.891836  0.452918  0.478741  1
  F  F5  1  0.391836  0.547082  0.521259  1
  F  F6  1  0.425055  0.925406  0.770128  1
  F  F7  1  0.925055  0.074594  0.229872  1
  F  F8  1  0.939147  0.966047  0.761806  1
  F  F9  1  0.439147  0.033953  0.238194  1
  F  F10  1  0.998124  0.454889  0.790331  1
  F  F11  1  0.498124  0.545111  0.209669  1
  F  F12  1  0.704278  0.760222  0.981103  1
  F  F13  1  0.204278  0.239778  0.018897  1
  F  F14  1  0.711487  0.872016  0.469083  1
  F  F15  1  0.211487  0.127984  0.530917  1
  F  F16  1  0.497910  0.384999  0.788584  1
  F  F17  1  0.997910  0.615001  0.211416  1
