# generated using pymatgen
data_AlGa3Pd20
_symmetry_space_group_name_H-M   'P 1'
_cell_length_a   4.02663300
_cell_length_b   8.25388229
_cell_length_c   10.98447867
_cell_angle_alpha   90.11663946
_cell_angle_beta   90.00000000
_cell_angle_gamma   90.00000000
_symmetry_Int_Tables_number   1
_chemical_formula_structural   AlGa3Pd20
_chemical_formula_sum   'Al1 Ga3 Pd20'
_cell_volume   365.07228954
_cell_formula_units_Z   1
loop_
 _symmetry_equiv_pos_site_id
 _symmetry_equiv_pos_as_xyz
  1  'x, y, z'
loop_
 _atom_site_type_symbol
 _atom_site_label
 _atom_site_symmetry_multiplicity
 _atom_site_fract_x
 _atom_site_fract_y
 _atom_site_fract_z
 _atom_site_occupancy
  Al  Al0  1  0.750000  0.383745  0.418596  1
  Ga  Ga1  1  0.750000  0.116540  0.918687  1
  Ga  Ga2  1  0.250000  0.614746  0.580208  1
  Ga  Ga3  1  0.250000  0.883509  0.081490  1
  Pd  Pd4  1  0.250000  0.219829  0.043214  1
  Pd  Pd5  1  0.750000  0.713800  0.204659  1
  Pd  Pd6  1  0.250000  0.543322  0.335566  1
  Pd  Pd7  1  0.750000  0.454952  0.663683  1
  Pd  Pd8  1  0.250000  0.955591  0.834948  1
  Pd  Pd9  1  0.250000  0.286331  0.795121  1
  Pd  Pd10  1  0.750000  0.717640  0.456864  1
  Pd  Pd11  1  0.250000  0.569468  0.069816  1
  Pd  Pd12  1  0.250000  0.930148  0.569263  1
  Pd  Pd13  1  0.750000  0.785781  0.704066  1
  Pd  Pd14  1  0.750000  0.385480  0.184635  1
  Pd  Pd15  1  0.750000  0.072093  0.430980  1
  Pd  Pd16  1  0.250000  0.281673  0.541862  1
  Pd  Pd17  1  0.750000  0.780668  0.957196  1
  Pd  Pd18  1  0.250000  0.214688  0.296484  1
  Pd  Pd19  1  0.750000  0.044850  0.165614  1
  Pd  Pd20  1  0.250000  0.614744  0.816744  1
  Pd  Pd21  1  0.750000  0.430283  0.930381  1
  Pd  Pd22  1  0.250000  0.885494  0.317269  1
  Pd  Pd23  1  0.750000  0.114623  0.682652  1
