# generated using pymatgen
data_Ba2In13Rh4
_symmetry_space_group_name_H-M   'P 1'
_cell_length_a   15.06712777
_cell_length_b   15.06712879
_cell_length_c   14.13245800
_cell_angle_alpha   90.00000000
_cell_angle_beta   90.00000000
_cell_angle_gamma   163.18044422
_symmetry_Int_Tables_number   1
_chemical_formula_structural   Ba2In13Rh4
_chemical_formula_sum   'Ba4 In26 Rh8'
_cell_volume   928.35687467
_cell_formula_units_Z   2
loop_
 _symmetry_equiv_pos_site_id
 _symmetry_equiv_pos_as_xyz
  1  'x, y, z'
loop_
 _atom_site_type_symbol
 _atom_site_label
 _atom_site_symmetry_multiplicity
 _atom_site_fract_x
 _atom_site_fract_y
 _atom_site_fract_z
 _atom_site_occupancy
  Ba  Ba0  1  0.747873  0.252127  0.572332  1
  Ba  Ba1  1  0.540214  0.459786  0.893888  1
  Ba  Ba2  1  0.252127  0.747873  0.072332  1
  Ba  Ba3  1  0.459786  0.540214  0.393888  1
  In  In4  1  0.655871  0.344129  0.073941  1
  In  In5  1  0.502590  0.497410  0.640473  1
  In  In6  1  0.214648  0.785352  0.376276  1
  In  In7  1  0.849349  0.150651  0.056284  1
  In  In8  1  0.137176  0.862824  0.907637  1
  In  In9  1  0.860710  0.139290  0.728685  1
  In  In10  1  0.647779  0.352221  0.729131  1
  In  In11  1  0.962661  0.037339  0.787035  1
  In  In12  1  0.344129  0.655871  0.573941  1
  In  In13  1  0.224979  0.775021  0.787781  1
  In  In14  1  0.785352  0.214648  0.876276  1
  In  In15  1  0.775021  0.224979  0.287781  1
  In  In16  1  0.384672  0.615328  0.894197  1
  In  In17  1  0.931336  0.068664  0.572213  1
  In  In18  1  0.068664  0.931336  0.072213  1
  In  In19  1  0.045211  0.954789  0.496679  1
  In  In20  1  0.497410  0.502590  0.140473  1
  In  In21  1  0.150651  0.849349  0.556284  1
  In  In22  1  0.615328  0.384672  0.394197  1
  In  In23  1  0.139290  0.860710  0.228685  1
  In  In24  1  0.352221  0.647779  0.229131  1
  In  In25  1  0.928162  0.071838  0.214423  1
  In  In26  1  0.037339  0.962661  0.287035  1
  In  In27  1  0.862824  0.137176  0.407637  1
  In  In28  1  0.954789  0.045211  0.996679  1
  In  In29  1  0.071838  0.928162  0.714423  1
  Rh  Rh30  1  0.690525  0.309475  0.894035  1
  Rh  Rh31  1  0.418490  0.581510  0.702135  1
  Rh  Rh32  1  0.685157  0.314843  0.264396  1
  Rh  Rh33  1  0.588504  0.411496  0.583867  1
  Rh  Rh34  1  0.309475  0.690525  0.394035  1
  Rh  Rh35  1  0.581510  0.418490  0.202135  1
  Rh  Rh36  1  0.314843  0.685157  0.764396  1
  Rh  Rh37  1  0.411496  0.588504  0.083867  1
