# generated using pymatgen
data_Er10Si5As
_symmetry_space_group_name_H-M   'P 1'
_cell_length_a   8.35889000
_cell_length_b   8.37387532
_cell_length_c   6.24821700
_cell_angle_alpha   89.99984985
_cell_angle_beta   89.99999083
_cell_angle_gamma   119.94107383
_symmetry_Int_Tables_number   1
_chemical_formula_structural   Er10Si5As
_chemical_formula_sum   'Er10 Si5 As1'
_cell_volume   378.98271719
_cell_formula_units_Z   1
loop_
 _symmetry_equiv_pos_site_id
 _symmetry_equiv_pos_as_xyz
  1  'x, y, z'
loop_
 _atom_site_type_symbol
 _atom_site_label
 _atom_site_symmetry_multiplicity
 _atom_site_fract_x
 _atom_site_fract_y
 _atom_site_fract_z
 _atom_site_occupancy
  Er  Er0  1  0.666991  0.335994  0.998818  1
  Er  Er1  1  0.330999  0.663991  0.998813  1
  Er  Er2  1  0.757783  0.754331  0.250002  1
  Er  Er3  1  0.241125  0.999996  0.249999  1
  Er  Er4  1  0.003452  0.245674  0.250002  1
  Er  Er5  1  0.666987  0.335982  0.501191  1
  Er  Er6  1  0.331016  0.664033  0.501178  1
  Er  Er7  1  0.243274  0.243567  0.749987  1
  Er  Er8  1  0.757445  0.000004  0.750015  1
  Er  Er9  1  0.999706  0.756424  0.750005  1
  Si  Si10  1  0.000179  0.605938  0.249998  1
  Si  Si11  1  0.394241  0.394061  0.250013  1
  Si  Si12  1  0.393149  0.999999  0.750000  1
  Si  Si13  1  0.998906  0.393067  0.749998  1
  Si  Si14  1  0.605843  0.606937  0.749997  1
  As  As15  1  0.608906  0.000003  0.249984  1
