# generated using pymatgen
data_Lu2Fe2P6Ir7Rh
_symmetry_space_group_name_H-M   'P 1'
_cell_length_a   3.89526000
_cell_length_b   10.71063300
_cell_length_c   12.38270400
_cell_angle_alpha   90.00000000
_cell_angle_beta   90.00000000
_cell_angle_gamma   90.00000000
_symmetry_Int_Tables_number   1
_chemical_formula_structural   Lu2Fe2P6Ir7Rh
_chemical_formula_sum   'Lu4 Fe4 P12 Ir14 Rh2'
_cell_volume   516.61508248
_cell_formula_units_Z   2
loop_
 _symmetry_equiv_pos_site_id
 _symmetry_equiv_pos_as_xyz
  1  'x, y, z'
loop_
 _atom_site_type_symbol
 _atom_site_label
 _atom_site_symmetry_multiplicity
 _atom_site_fract_x
 _atom_site_fract_y
 _atom_site_fract_z
 _atom_site_occupancy
  Lu  Lu0  1  0.250000  0.582141  0.711475  1
  Lu  Lu1  1  0.250000  0.917859  0.211475  1
  Lu  Lu2  1  0.750000  0.419431  0.289970  1
  Lu  Lu3  1  0.750000  0.080569  0.789970  1
  Fe  Fe4  1  0.250000  0.456164  0.932947  1
  Fe  Fe5  1  0.250000  0.043836  0.432947  1
  Fe  Fe6  1  0.750000  0.537679  0.068865  1
  Fe  Fe7  1  0.750000  0.962321  0.568865  1
  P  P8  1  0.250000  0.433284  0.106285  1
  P  P9  1  0.250000  0.066716  0.606285  1
  P  P10  1  0.750000  0.568252  0.895282  1
  P  P11  1  0.750000  0.931748  0.395282  1
  P  P12  1  0.250000  0.267635  0.867312  1
  P  P13  1  0.250000  0.232365  0.367312  1
  P  P14  1  0.750000  0.731212  0.130424  1
  P  P15  1  0.750000  0.768788  0.630424  1
  P  P16  1  0.250000  0.598755  0.386963  1
  P  P17  1  0.250000  0.901245  0.886963  1
  P  P18  1  0.750000  0.403576  0.614053  1
  P  P19  1  0.750000  0.096424  0.114053  1
  Ir  Ir20  1  0.750000  0.278358  0.012511  1
  Ir  Ir21  1  0.750000  0.221642  0.512511  1
  Ir  Ir22  1  0.250000  0.408106  0.475551  1
  Ir  Ir23  1  0.250000  0.091894  0.975551  1
  Ir  Ir24  1  0.750000  0.590859  0.523403  1
  Ir  Ir25  1  0.750000  0.909141  0.023403  1
  Ir  Ir26  1  0.250000  0.237650  0.176476  1
  Ir  Ir27  1  0.250000  0.262350  0.676476  1
  Ir  Ir28  1  0.750000  0.763204  0.822573  1
  Ir  Ir29  1  0.750000  0.736796  0.322573  1
  Ir  Ir30  1  0.250000  0.882203  0.701488  1
  Ir  Ir31  1  0.250000  0.617797  0.201488  1
  Ir  Ir32  1  0.750000  0.116951  0.298199  1
  Ir  Ir33  1  0.750000  0.383049  0.798199  1
  Rh  Rh34  1  0.250000  0.720239  0.986223  1
  Rh  Rh35  1  0.250000  0.779761  0.486223  1
