# generated using pymatgen
data_TaVSiB2W3
_symmetry_space_group_name_H-M   'P 1'
_cell_length_a   7.00364152
_cell_length_b   7.03354289
_cell_length_c   7.03354227
_cell_angle_alpha   129.24000463
_cell_angle_beta   129.11017706
_cell_angle_gamma   74.82220321
_symmetry_Int_Tables_number   1
_chemical_formula_structural   TaVSiB2W3
_chemical_formula_sum   'Ta2 V2 Si2 B4 W6'
_cell_volume   202.71853598
_cell_formula_units_Z   2
loop_
 _symmetry_equiv_pos_site_id
 _symmetry_equiv_pos_as_xyz
  1  'x, y, z'
loop_
 _atom_site_type_symbol
 _atom_site_label
 _atom_site_symmetry_multiplicity
 _atom_site_fract_x
 _atom_site_fract_y
 _atom_site_fract_z
 _atom_site_occupancy
  Ta  Ta0  1  0.525117  0.694852  0.500404  1
  Ta  Ta1  1  0.025117  0.524713  0.830264  1
  V  V2  1  0.001673  0.001450  0.000540  1
  V  V3  1  0.501673  0.501133  0.000223  1
  Si  Si4  1  0.250300  0.244011  0.997639  1
  Si  Si5  1  0.750300  0.752661  0.006289  1
  B  B6  1  0.625364  0.127591  0.751397  1
  B  B7  1  0.125364  0.373967  0.497773  1
  B  B8  1  0.876161  0.625978  0.498735  1
  B  B9  1  0.376161  0.877426  0.250183  1
  W  W10  1  0.694572  0.194528  0.162432  1
  W  W11  1  0.972060  0.471465  0.168743  1
  W  W12  1  0.194572  0.032141  0.500044  1
  W  W13  1  0.472060  0.303318  0.500595  1
  W  W14  1  0.804753  0.971913  0.501900  1
  W  W15  1  0.304753  0.802854  0.832839  1
