# generated using pymatgen
data_Mn3Nb4NiPt8
_symmetry_space_group_name_H-M   'P 1'
_cell_length_a   4.58717800
_cell_length_b   4.89832000
_cell_length_c   11.01365600
_cell_angle_alpha   90.00000000
_cell_angle_beta   90.00000000
_cell_angle_gamma   90.00000000
_symmetry_Int_Tables_number   1
_chemical_formula_structural   Mn3Nb4NiPt8
_chemical_formula_sum   'Mn3 Nb4 Ni1 Pt8'
_cell_volume   247.47096617
_cell_formula_units_Z   1
loop_
 _symmetry_equiv_pos_site_id
 _symmetry_equiv_pos_as_xyz
  1  'x, y, z'
loop_
 _atom_site_type_symbol
 _atom_site_label
 _atom_site_symmetry_multiplicity
 _atom_site_fract_x
 _atom_site_fract_y
 _atom_site_fract_z
 _atom_site_occupancy
  Mn  Mn0  1  0.000000  0.316776  0.247594  1
  Mn  Mn1  1  0.000000  0.316776  0.752406  1
  Mn  Mn2  1  0.500000  0.681148  0.000000  1
  Nb  Nb3  1  0.500000  0.668837  0.252959  1
  Nb  Nb4  1  0.500000  0.668837  0.747041  1
  Nb  Nb5  1  0.000000  0.330542  0.000000  1
  Nb  Nb6  1  0.000000  0.348111  0.500000  1
  Ni  Ni7  1  0.500000  0.668448  0.500000  1
  Pt  Pt8  1  0.500000  0.176451  0.376261  1
  Pt  Pt9  1  0.500000  0.177797  0.874747  1
  Pt  Pt10  1  0.500000  0.177797  0.125253  1
  Pt  Pt11  1  0.500000  0.176451  0.623739  1
  Pt  Pt12  1  0.000000  0.826333  0.376282  1
  Pt  Pt13  1  0.000000  0.819681  0.874112  1
  Pt  Pt14  1  0.000000  0.819681  0.125888  1
  Pt  Pt15  1  0.000000  0.826333  0.623718  1
