# generated using pymatgen
data_Ce2HfPaSb5
_symmetry_space_group_name_H-M   'P 1'
_cell_length_a   9.33261200
_cell_length_b   9.35506952
_cell_length_c   6.30699400
_cell_angle_alpha   90.00000000
_cell_angle_beta   90.00000000
_cell_angle_gamma   119.92061435
_symmetry_Int_Tables_number   1
_chemical_formula_structural   Ce2HfPaSb5
_chemical_formula_sum   'Ce4 Hf2 Pa2 Sb10'
_cell_volume   477.25461272
_cell_formula_units_Z   2
loop_
 _symmetry_equiv_pos_site_id
 _symmetry_equiv_pos_as_xyz
  1  'x, y, z'
loop_
 _atom_site_type_symbol
 _atom_site_label
 _atom_site_symmetry_multiplicity
 _atom_site_fract_x
 _atom_site_fract_y
 _atom_site_fract_z
 _atom_site_occupancy
  Ce  Ce0  1  0.995866  0.612660  0.250000  1
  Ce  Ce1  1  0.004134  0.387340  0.750000  1
  Ce  Ce2  1  0.383207  0.387340  0.250000  1
  Ce  Ce3  1  0.616793  0.612660  0.750000  1
  Hf  Hf4  1  0.000000  0.000000  0.000000  1
  Hf  Hf5  1  0.000000  0.000000  0.500000  1
  Pa  Pa6  1  0.612833  0.000000  0.250000  1
  Pa  Pa7  1  0.387167  0.000000  0.750000  1
  Sb  Sb8  1  0.268830  0.000000  0.250000  1
  Sb  Sb9  1  0.731170  0.000000  0.750000  1
  Sb  Sb10  1  0.996399  0.263735  0.250000  1
  Sb  Sb11  1  0.003601  0.736265  0.750000  1
  Sb  Sb12  1  0.732664  0.736265  0.250000  1
  Sb  Sb13  1  0.267336  0.263735  0.750000  1
  Sb  Sb14  1  0.337523  0.675046  0.000000  1
  Sb  Sb15  1  0.662477  0.324954  0.000000  1
  Sb  Sb16  1  0.662477  0.324954  0.500000  1
  Sb  Sb17  1  0.337523  0.675046  0.500000  1
