# generated using pymatgen
data_Tb12GaCo4Pb
_symmetry_space_group_name_H-M   'P 1'
_cell_length_a   8.38918725
_cell_length_b   8.38918808
_cell_length_c   8.38918714
_cell_angle_alpha   112.07605525
_cell_angle_beta   108.96771564
_cell_angle_gamma   107.40521653
_symmetry_Int_Tables_number   1
_chemical_formula_structural   Tb12GaCo4Pb
_chemical_formula_sum   'Tb12 Ga1 Co4 Pb1'
_cell_volume   453.71556626
_cell_formula_units_Z   1
loop_
 _symmetry_equiv_pos_site_id
 _symmetry_equiv_pos_as_xyz
  1  'x, y, z'
loop_
 _atom_site_type_symbol
 _atom_site_label
 _atom_site_symmetry_multiplicity
 _atom_site_fract_x
 _atom_site_fract_y
 _atom_site_fract_z
 _atom_site_occupancy
  Tb  Tb0  1  0.030106  0.731468  0.298638  1
  Tb  Tb1  1  0.969894  0.268532  0.701362  1
  Tb  Tb2  1  0.567169  0.268532  0.298638  1
  Tb  Tb3  1  0.432831  0.731468  0.701362  1
  Tb  Tb4  1  0.675412  0.860659  0.185247  1
  Tb  Tb5  1  0.324588  0.509836  0.185247  1
  Tb  Tb6  1  0.324588  0.139341  0.814753  1
  Tb  Tb7  1  0.675412  0.490164  0.814753  1
  Tb  Tb8  1  0.179123  0.219233  0.398356  1
  Tb  Tb9  1  0.820877  0.219233  0.040110  1
  Tb  Tb10  1  0.179123  0.780767  0.959890  1
  Tb  Tb11  1  0.820877  0.780767  0.601644  1
  Ga  Ga12  1  0.000000  0.500000  0.500000  1
  Co  Co13  1  0.660235  0.500000  0.160235  1
  Co  Co14  1  0.339765  0.500000  0.839765  1
  Co  Co15  1  0.886841  0.886841  0.000000  1
  Co  Co16  1  0.113159  0.113159  0.000000  1
  Pb  Pb17  1  0.500000  0.000000  0.500000  1
