# generated using pymatgen
data_Er4Al18CuOs5
_symmetry_space_group_name_H-M   'P 1'
_cell_length_a   7.54487699
_cell_length_b   7.54487703
_cell_length_c   9.52292916
_cell_angle_alpha   90.32209354
_cell_angle_beta   90.32208826
_cell_angle_gamma   119.47503190
_symmetry_Int_Tables_number   1
_chemical_formula_structural   Er4Al18CuOs5
_chemical_formula_sum   'Er4 Al18 Cu1 Os5'
_cell_volume   471.90182776
_cell_formula_units_Z   1
loop_
 _symmetry_equiv_pos_site_id
 _symmetry_equiv_pos_as_xyz
  1  'x, y, z'
loop_
 _atom_site_type_symbol
 _atom_site_label
 _atom_site_symmetry_multiplicity
 _atom_site_fract_x
 _atom_site_fract_y
 _atom_site_fract_z
 _atom_site_occupancy
  Er  Er0  1  0.996560  0.671370  0.751930  1
  Er  Er1  1  0.003440  0.328630  0.248070  1
  Er  Er2  1  0.671370  0.996560  0.751930  1
  Er  Er3  1  0.328630  0.003440  0.248070  1
  Al  Al4  1  0.129582  0.129582  0.750641  1
  Al  Al5  1  0.870418  0.870418  0.249359  1
  Al  Al6  1  0.002356  0.338719  0.573624  1
  Al  Al7  1  0.997644  0.661281  0.426376  1
  Al  Al8  1  0.996350  0.663870  0.072188  1
  Al  Al9  1  0.336130  0.003650  0.927812  1
  Al  Al10  1  0.003650  0.336130  0.927812  1
  Al  Al11  1  0.663870  0.996350  0.072188  1
  Al  Al12  1  0.661281  0.997644  0.426376  1
  Al  Al13  1  0.338719  0.002356  0.573624  1
  Al  Al14  1  0.335613  0.335613  0.046639  1
  Al  Al15  1  0.664387  0.664387  0.953361  1
  Al  Al16  1  0.662505  0.662505  0.547192  1
  Al  Al17  1  0.337495  0.337495  0.452808  1
  Al  Al18  1  0.336737  0.549441  0.749172  1
  Al  Al19  1  0.663263  0.450559  0.250828  1
  Al  Al20  1  0.549441  0.336737  0.749172  1
  Al  Al21  1  0.450559  0.663263  0.250828  1
  Cu  Cu22  1  0.000000  0.000000  0.500000  1
  Os  Os23  1  0.672615  0.327385  0.500000  1
  Os  Os24  1  0.327385  0.672615  0.500000  1
  Os  Os25  1  0.327005  0.672995  0.000000  1
  Os  Os26  1  0.672995  0.327005  0.000000  1
  Os  Os27  1  0.000000  0.000000  0.000000  1
