# generated using pymatgen
data_Tb3Sm4Y(ReB6)4
_symmetry_space_group_name_H-M   'P 1'
_cell_length_a   3.72378000
_cell_length_b   9.24176400
_cell_length_c   11.66397400
_cell_angle_alpha   89.99792818
_cell_angle_beta   90.00015061
_cell_angle_gamma   89.99981469
_symmetry_Int_Tables_number   1
_chemical_formula_structural   Tb3Sm4Y(ReB6)4
_chemical_formula_sum   'Tb3 Sm4 Y1 Re4 B24'
_cell_volume   401.40745303
_cell_formula_units_Z   1
loop_
 _symmetry_equiv_pos_site_id
 _symmetry_equiv_pos_as_xyz
  1  'x, y, z'
loop_
 _atom_site_type_symbol
 _atom_site_label
 _atom_site_symmetry_multiplicity
 _atom_site_fract_x
 _atom_site_fract_y
 _atom_site_fract_z
 _atom_site_occupancy
  Tb  Tb0  1  0.999998  0.442563  0.130455  1
  Tb  Tb1  1  0.000002  0.557467  0.869534  1
  Tb  Tb2  1  0.999996  0.942607  0.369699  1
  Sm  Sm3  1  0.000000  0.823291  0.085928  1
  Sm  Sm4  1  0.999999  0.176703  0.914009  1
  Sm  Sm5  1  0.999999  0.323271  0.414042  1
  Sm  Sm6  1  0.000004  0.676679  0.585975  1
  Y  Y7  1  0.999997  0.057393  0.630386  1
  Re  Re8  1  0.000006  0.138499  0.179790  1
  Re  Re9  1  0.999993  0.861574  0.820218  1
  Re  Re10  1  0.000002  0.638576  0.320278  1
  Re  Re11  1  0.999999  0.361354  0.679730  1
  B  B12  1  0.500000  0.053891  0.068340  1
  B  B13  1  0.499998  0.946144  0.931580  1
  B  B14  1  0.500001  0.553875  0.431674  1
  B  B15  1  0.500001  0.445993  0.568355  1
  B  B16  1  0.500004  0.248326  0.083137  1
  B  B17  1  0.499998  0.751709  0.916812  1
  B  B18  1  0.500002  0.748338  0.416847  1
  B  B19  1  0.500002  0.251310  0.583042  1
  B  B20  1  0.500002  0.290798  0.233984  1
  B  B21  1  0.499999  0.709320  0.765978  1
  B  B22  1  0.500000  0.790813  0.266030  1
  B  B23  1  0.500002  0.208918  0.734017  1
  B  B24  1  0.499997  0.130138  0.313537  1
  B  B25  1  0.499998  0.870013  0.686255  1
  B  B26  1  0.500001  0.630159  0.186466  1
  B  B27  1  0.500002  0.369756  0.813480  1
  B  B28  1  0.500000  0.483339  0.287706  1
  B  B29  1  0.500003  0.516637  0.712272  1
  B  B30  1  0.499997  0.983320  0.212313  1
  B  B31  1  0.499998  0.016935  0.787598  1
  B  B32  1  0.500001  0.098506  0.472731  1
  B  B33  1  0.500001  0.901778  0.527806  1
  B  B34  1  0.499998  0.598472  0.027580  1
  B  B35  1  0.500002  0.401534  0.972416  1
