# generated using pymatgen
data_Eu2Cu3P4
_symmetry_space_group_name_H-M   'P 1'
_cell_length_a   8.01072203
_cell_length_b   8.01072210
_cell_length_c   8.01072209
_cell_angle_alpha   137.49076735
_cell_angle_beta   108.05282004
_cell_angle_gamma   87.30254886
_symmetry_Int_Tables_number   1
_chemical_formula_structural   Eu2Cu3P4
_chemical_formula_sum   'Eu4 Cu6 P8'
_cell_volume   316.82026327
_cell_formula_units_Z   2
loop_
 _symmetry_equiv_pos_site_id
 _symmetry_equiv_pos_as_xyz
  1  'x, y, z'
loop_
 _atom_site_type_symbol
 _atom_site_label
 _atom_site_symmetry_multiplicity
 _atom_site_fract_x
 _atom_site_fract_y
 _atom_site_fract_z
 _atom_site_occupancy
  Eu  Eu0  1  0.101974  0.884370  0.217604  1
  Eu  Eu1  1  0.898026  0.115630  0.782396  1
  Eu  Eu2  1  0.333235  0.615630  0.717604  1
  Eu  Eu3  1  0.666765  0.384370  0.282396  1
  Cu  Cu4  1  0.500000  0.750000  0.250000  1
  Cu  Cu5  1  0.500000  0.250000  0.750000  1
  Cu  Cu6  1  0.267764  0.017764  0.750000  1
  Cu  Cu7  1  0.732236  0.482236  0.750000  1
  Cu  Cu8  1  0.267764  0.517764  0.250000  1
  Cu  Cu9  1  0.732236  0.982236  0.250000  1
  P  P10  1  0.482903  0.120447  0.362456  1
  P  P11  1  0.517097  0.879553  0.637544  1
  P  P12  1  0.242008  0.379553  0.862456  1
  P  P13  1  0.757992  0.620447  0.137544  1
  P  P14  1  0.988082  0.362209  0.625873  1
  P  P15  1  0.011918  0.637791  0.374127  1
  P  P16  1  0.736336  0.862209  0.874127  1
  P  P17  1  0.263664  0.137791  0.125873  1
