# generated using pymatgen
data_HoNp3O10
_symmetry_space_group_name_H-M   'P 1'
_cell_length_a   5.69499177
_cell_length_b   5.75873018
_cell_length_c   7.83331323
_cell_angle_alpha   69.35243599
_cell_angle_beta   71.20705412
_cell_angle_gamma   72.98712135
_symmetry_Int_Tables_number   1
_chemical_formula_structural   HoNp3O10
_chemical_formula_sum   'Ho1 Np3 O10'
_cell_volume   222.88951821
_cell_formula_units_Z   1
loop_
 _symmetry_equiv_pos_site_id
 _symmetry_equiv_pos_as_xyz
  1  'x, y, z'
loop_
 _atom_site_type_symbol
 _atom_site_label
 _atom_site_symmetry_multiplicity
 _atom_site_fract_x
 _atom_site_fract_y
 _atom_site_fract_z
 _atom_site_occupancy
  Ho  Ho0  1  0.500000  0.500000  0.500000  1
  Np  Np1  1  0.967263  0.029095  0.262286  1
  Np  Np2  1  0.500000  0.500000  0.000000  1
  Np  Np3  1  0.032737  0.970905  0.737714  1
  O  O4  1  0.396327  0.601619  0.764003  1
  O  O5  1  0.259027  0.192761  0.637564  1
  O  O6  1  0.740973  0.807239  0.362436  1
  O  O7  1  0.194374  0.255394  0.143779  1
  O  O8  1  0.603673  0.398381  0.235997  1
  O  O9  1  0.805626  0.744606  0.856221  1
  O  O10  1  0.217209  0.797982  0.046516  1
  O  O11  1  0.826472  0.189080  0.534970  1
  O  O12  1  0.782791  0.202018  0.953484  1
  O  O13  1  0.173528  0.810920  0.465030  1
