# generated using pymatgen
data_Ca2GaFeF10
_symmetry_space_group_name_H-M   'P 1'
_cell_length_a   10.19188400
_cell_length_b   5.55524274
_cell_length_c   7.69914001
_cell_angle_alpha   70.00859963
_cell_angle_beta   90.00000000
_cell_angle_gamma   90.00000000
_symmetry_Int_Tables_number   1
_chemical_formula_structural   Ca2GaFeF10
_chemical_formula_sum   'Ca4 Ga2 Fe2 F20'
_cell_volume   409.64651673
_cell_formula_units_Z   2
loop_
 _symmetry_equiv_pos_site_id
 _symmetry_equiv_pos_as_xyz
  1  'x, y, z'
loop_
 _atom_site_type_symbol
 _atom_site_label
 _atom_site_symmetry_multiplicity
 _atom_site_fract_x
 _atom_site_fract_y
 _atom_site_fract_z
 _atom_site_occupancy
  Ca  Ca0  1  0.019535  0.528962  0.745564  1
  Ca  Ca1  1  0.519535  0.471038  0.754436  1
  Ca  Ca2  1  0.980488  0.470608  0.254942  1
  Ca  Ca3  1  0.480488  0.529392  0.245058  1
  Ga  Ga4  1  0.753655  0.105887  0.599854  1
  Ga  Ga5  1  0.253655  0.894113  0.900146  1
  Fe  Fe6  1  0.246494  0.894161  0.400153  1
  Fe  Fe7  1  0.746494  0.105839  0.099847  1
  F  F8  1  0.879753  0.384839  0.557397  1
  F  F9  1  0.379753  0.615161  0.942603  1
  F  F10  1  0.117452  0.610472  0.444291  1
  F  F11  1  0.617452  0.389528  0.055709  1
  F  F12  1  0.614812  0.353223  0.505933  1
  F  F13  1  0.114812  0.646777  0.994067  1
  F  F14  1  0.388246  0.641982  0.495122  1
  F  F15  1  0.888246  0.358018  0.004878  1
  F  F16  1  0.394101  0.118148  0.811731  1
  F  F17  1  0.894101  0.881852  0.688269  1
  F  F18  1  0.603706  0.878994  0.189742  1
  F  F19  1  0.103706  0.121006  0.310258  1
  F  F20  1  0.137777  0.166824  0.860620  1
  F  F21  1  0.637777  0.833176  0.639380  1
  F  F22  1  0.863752  0.828704  0.140115  1
  F  F23  1  0.363752  0.171296  0.359885  1
  F  F24  1  0.703507  0.153039  0.835345  1
  F  F25  1  0.203507  0.846961  0.664655  1
  F  F26  1  0.296721  0.847006  0.161207  1
  F  F27  1  0.796721  0.152994  0.338793  1
