# generated using pymatgen
data_Ti4AlSnRh10
_symmetry_space_group_name_H-M   'P 1'
_cell_length_a   4.03976200
_cell_length_b   5.45352813
_cell_length_c   10.77287100
_cell_angle_alpha   89.21728035
_cell_angle_beta   90.00000000
_cell_angle_gamma   90.00000000
_symmetry_Int_Tables_number   1
_chemical_formula_structural   Ti4AlSnRh10
_chemical_formula_sum   'Ti4 Al1 Sn1 Rh10'
_cell_volume   237.31449760
_cell_formula_units_Z   1
loop_
 _symmetry_equiv_pos_site_id
 _symmetry_equiv_pos_as_xyz
  1  'x, y, z'
loop_
 _atom_site_type_symbol
 _atom_site_label
 _atom_site_symmetry_multiplicity
 _atom_site_fract_x
 _atom_site_fract_y
 _atom_site_fract_z
 _atom_site_occupancy
  Ti  Ti0  1  0.500000  0.321751  0.136325  1
  Ti  Ti1  1  0.500000  0.678249  0.863675  1
  Ti  Ti2  1  0.500000  0.824205  0.353097  1
  Ti  Ti3  1  0.500000  0.175795  0.646903  1
  Al  Al4  1  0.000000  0.000000  0.000000  1
  Sn  Sn5  1  0.000000  0.500000  0.500000  1
  Rh  Rh6  1  0.000000  0.000000  0.500000  1
  Rh  Rh7  1  0.000000  0.500000  0.000000  1
  Rh  Rh8  1  0.000000  0.065505  0.242053  1
  Rh  Rh9  1  0.000000  0.934495  0.757947  1
  Rh  Rh10  1  0.000000  0.567907  0.248613  1
  Rh  Rh11  1  0.000000  0.432093  0.751387  1
  Rh  Rh12  1  0.500000  0.291743  0.378673  1
  Rh  Rh13  1  0.500000  0.708257  0.621327  1
  Rh  Rh14  1  0.500000  0.808283  0.107996  1
  Rh  Rh15  1  0.500000  0.191717  0.892004  1
