# generated using pymatgen
data_Y4NbMoOs6
_symmetry_space_group_name_H-M   'P 1'
_cell_length_a   5.51833100
_cell_length_b   5.51833003
_cell_length_c   8.60393200
_cell_angle_alpha   90.00000000
_cell_angle_beta   90.00000000
_cell_angle_gamma   119.99999983
_symmetry_Int_Tables_number   1
_chemical_formula_structural   Y4NbMoOs6
_chemical_formula_sum   'Y4 Nb1 Mo1 Os6'
_cell_volume   226.90445292
_cell_formula_units_Z   1
loop_
 _symmetry_equiv_pos_site_id
 _symmetry_equiv_pos_as_xyz
  1  'x, y, z'
loop_
 _atom_site_type_symbol
 _atom_site_label
 _atom_site_symmetry_multiplicity
 _atom_site_fract_x
 _atom_site_fract_y
 _atom_site_fract_z
 _atom_site_occupancy
  Y  Y0  1  0.333333  0.666667  0.433392  1
  Y  Y1  1  0.666667  0.333333  0.566608  1
  Y  Y2  1  0.666667  0.333333  0.935829  1
  Y  Y3  1  0.333333  0.666667  0.064171  1
  Nb  Nb4  1  0.000000  0.000000  0.500000  1
  Mo  Mo5  1  0.000000  0.000000  0.000000  1
  Os  Os6  1  0.826908  0.173092  0.247548  1
  Os  Os7  1  0.826908  0.653816  0.247548  1
  Os  Os8  1  0.346184  0.173092  0.247548  1
  Os  Os9  1  0.173092  0.826908  0.752452  1
  Os  Os10  1  0.173092  0.346184  0.752452  1
  Os  Os11  1  0.653816  0.826908  0.752452  1
