# generated using pymatgen
data_Ac7Er13Si15Au
_symmetry_space_group_name_H-M   'P 1'
_cell_length_a   7.92487326
_cell_length_b   7.93885816
_cell_length_c   14.63384300
_cell_angle_alpha   89.74542208
_cell_angle_beta   89.64717303
_cell_angle_gamma   90.14729743
_symmetry_Int_Tables_number   1
_chemical_formula_structural   Ac7Er13Si15Au
_chemical_formula_sum   'Ac7 Er13 Si15 Au1'
_cell_volume   920.65045494
_cell_formula_units_Z   1
loop_
 _symmetry_equiv_pos_site_id
 _symmetry_equiv_pos_as_xyz
  1  'x, y, z'
loop_
 _atom_site_type_symbol
 _atom_site_label
 _atom_site_symmetry_multiplicity
 _atom_site_fract_x
 _atom_site_fract_y
 _atom_site_fract_z
 _atom_site_occupancy
  Ac  Ac0  1  0.355794  0.008935  0.960544  1
  Ac  Ac1  1  0.986743  0.645565  0.535996  1
  Ac  Ac2  1  0.489630  0.850988  0.212712  1
  Ac  Ac3  1  0.514247  0.149183  0.710233  1
  Ac  Ac4  1  0.855647  0.492963  0.790788  1
  Ac  Ac5  1  0.143403  0.506140  0.291496  1
  Ac  Ac6  1  0.009331  0.353221  0.041042  1
  Er  Er7  1  0.494294  0.357084  0.126373  1
  Er  Er8  1  0.988501  0.143203  0.626285  1
  Er  Er9  1  0.858223  0.005003  0.875525  1
  Er  Er10  1  0.138359  0.991860  0.375136  1
  Er  Er11  1  0.508972  0.640321  0.621694  1
  Er  Er12  1  0.360476  0.495682  0.875710  1
  Er  Er13  1  0.643222  0.504270  0.373808  1
  Er  Er14  1  0.002270  0.859710  0.125910  1
  Er  Er15  1  0.640801  0.000010  0.455210  1
  Er  Er16  1  0.318605  0.311470  0.500969  1
  Er  Er17  1  0.186994  0.824314  0.748057  1
  Er  Er18  1  0.815908  0.177696  0.252411  1
  Er  Er19  1  0.680882  0.680422  0.000092  1
  Si  Si20  1  0.712816  0.062129  0.063804  1
  Si  Si21  1  0.928934  0.280267  0.436175  1
  Si  Si22  1  0.442575  0.210425  0.315654  1
  Si  Si23  1  0.563588  0.786003  0.812246  1
  Si  Si24  1  0.214928  0.438931  0.688133  1
  Si  Si25  1  0.784714  0.564178  0.186300  1
  Si  Si26  1  0.063830  0.713958  0.936965  1
  Si  Si27  1  0.796410  0.851313  0.691766  1
  Si  Si28  1  0.203416  0.145065  0.192560  1
  Si  Si29  1  0.846030  0.803029  0.314535  1
  Si  Si30  1  0.367128  0.709596  0.436858  1
  Si  Si31  1  0.647950  0.295981  0.943811  1
  Si  Si32  1  0.701476  0.343688  0.552566  1
  Si  Si33  1  0.295264  0.647761  0.057911  1
  Si  Si34  1  0.147359  0.208248  0.808123  1
  Au  Au35  1  0.291275  0.941391  0.562601  1
