# generated using pymatgen
data_Sm5Dy11CdHg3Rh4
_symmetry_space_group_name_H-M   'P 1'
_cell_length_a   9.68234994
_cell_length_b   9.65203548
_cell_length_c   9.66523806
_cell_angle_alpha   59.92034017
_cell_angle_beta   59.94141907
_cell_angle_gamma   59.89604701
_symmetry_Int_Tables_number   1
_chemical_formula_structural   Sm5Dy11CdHg3Rh4
_chemical_formula_sum   'Sm5 Dy11 Cd1 Hg3 Rh4'
_cell_volume   637.53062208
_cell_formula_units_Z   1
loop_
 _symmetry_equiv_pos_site_id
 _symmetry_equiv_pos_as_xyz
  1  'x, y, z'
loop_
 _atom_site_type_symbol
 _atom_site_label
 _atom_site_symmetry_multiplicity
 _atom_site_fract_x
 _atom_site_fract_y
 _atom_site_fract_z
 _atom_site_occupancy
  Sm  Sm0  1  0.561325  0.565091  0.936611  1
  Sm  Sm1  1  0.149086  0.555705  0.146126  1
  Sm  Sm2  1  0.688546  0.310461  0.312446  1
  Sm  Sm3  1  0.937503  0.564043  0.560951  1
  Sm  Sm4  1  0.936973  0.565091  0.936611  1
  Dy  Dy5  1  0.687711  0.691173  0.312295  1
  Dy  Dy6  1  0.561800  0.940495  0.935903  1
  Dy  Dy7  1  0.152493  0.148014  0.149917  1
  Dy  Dy8  1  0.308821  0.691173  0.312295  1
  Dy  Dy9  1  0.549576  0.148014  0.149917  1
  Dy  Dy10  1  0.310372  0.310942  0.689994  1
  Dy  Dy11  1  0.311407  0.689462  0.687724  1
  Dy  Dy12  1  0.150693  0.146003  0.552612  1
  Dy  Dy13  1  0.688692  0.310942  0.689994  1
  Dy  Dy14  1  0.936845  0.940100  0.561577  1
  Dy  Dy15  1  0.561477  0.940100  0.561577  1
  Cd  Cd16  1  0.920817  0.237949  0.920416  1
  Hg  Hg17  1  0.912070  0.919492  0.912357  1
  Hg  Hg18  1  0.256080  0.919492  0.912357  1
  Hg  Hg19  1  0.912543  0.918299  0.256614  1
  Rh  Rh20  1  0.360838  0.352623  0.925701  1
  Rh  Rh21  1  0.358360  0.354041  0.360098  1
  Rh  Rh22  1  0.927500  0.354041  0.360098  1
  Rh  Rh23  1  0.358472  0.927250  0.355805  1
