# generated using pymatgen
data_Nd4Tc3PtF28
_symmetry_space_group_name_H-M   'P 1'
_cell_length_a   5.70736277
_cell_length_b   9.19509744
_cell_length_c   12.34005451
_cell_angle_alpha   61.99288190
_cell_angle_beta   89.97121873
_cell_angle_gamma   89.95207980
_symmetry_Int_Tables_number   1
_chemical_formula_structural   Nd4Tc3PtF28
_chemical_formula_sum   'Nd4 Tc3 Pt1 F28'
_cell_volume   571.76158253
_cell_formula_units_Z   1
loop_
 _symmetry_equiv_pos_site_id
 _symmetry_equiv_pos_as_xyz
  1  'x, y, z'
loop_
 _atom_site_type_symbol
 _atom_site_label
 _atom_site_symmetry_multiplicity
 _atom_site_fract_x
 _atom_site_fract_y
 _atom_site_fract_z
 _atom_site_occupancy
  Nd  Nd0  1  0.759493  0.811899  0.764343  1
  Nd  Nd1  1  0.259174  0.188282  0.734920  1
  Nd  Nd2  1  0.239714  0.187975  0.237105  1
  Nd  Nd3  1  0.740807  0.810994  0.264944  1
  Tc  Tc4  1  0.755967  0.273461  0.957760  1
  Tc  Tc5  1  0.256140  0.725889  0.542891  1
  Tc  Tc6  1  0.244116  0.726119  0.042663  1
  Pt  Pt7  1  0.742724  0.273075  0.457570  1
  F  F8  1  0.442393  0.709898  0.918963  1
  F  F9  1  0.931440  0.293239  0.583472  1
  F  F10  1  0.556043  0.289869  0.080791  1
  F  F11  1  0.058367  0.710145  0.419084  1
  F  F12  1  0.450462  0.281965  0.539790  1
  F  F13  1  0.957837  0.718308  0.956131  1
  F  F14  1  0.542531  0.717888  0.456635  1
  F  F15  1  0.041312  0.281383  0.044966  1
  F  F16  1  0.766431  0.514805  0.861804  1
  F  F17  1  0.265926  0.484441  0.638337  1
  F  F18  1  0.233419  0.484830  0.138854  1
  F  F19  1  0.734306  0.514966  0.361126  1
  F  F20  1  0.759238  0.032640  0.052290  1
  F  F21  1  0.259609  0.966614  0.448596  1
  F  F22  1  0.240895  0.966899  0.947464  1
  F  F23  1  0.741825  0.030959  0.549357  1
  F  F24  1  0.976991  0.730251  0.634420  1
  F  F25  1  0.478372  0.269067  0.865326  1
  F  F26  1  0.029955  0.271559  0.369748  1
  F  F27  1  0.522805  0.730703  0.134164  1
  F  F28  1  0.049913  0.743236  0.168200  1
  F  F29  1  0.557939  0.258357  0.328117  1
  F  F30  1  0.952262  0.256755  0.832559  1
  F  F31  1  0.450696  0.742342  0.668587  1
  F  F32  1  0.408482  0.968144  0.230642  1
  F  F33  1  0.908508  0.031982  0.270109  1
  F  F34  1  0.591757  0.033350  0.768632  1
  F  F35  1  0.092151  0.967713  0.729637  1
