# generated using pymatgen
data_Y2B4IrRu3
_symmetry_space_group_name_H-M   'P 1'
_cell_length_a   6.70154869
_cell_length_b   5.93356016
_cell_length_c   5.54069823
_cell_angle_alpha   71.37842298
_cell_angle_beta   57.03983287
_cell_angle_gamma   51.99681403
_symmetry_Int_Tables_number   1
_chemical_formula_structural   Y2B4IrRu3
_chemical_formula_sum   'Y2 B4 Ir1 Ru3'
_cell_volume   145.62426266
_cell_formula_units_Z   1
loop_
 _symmetry_equiv_pos_site_id
 _symmetry_equiv_pos_as_xyz
  1  'x, y, z'
loop_
 _atom_site_type_symbol
 _atom_site_label
 _atom_site_symmetry_multiplicity
 _atom_site_fract_x
 _atom_site_fract_y
 _atom_site_fract_z
 _atom_site_occupancy
  Y  Y0  1  0.749256  0.749256  0.750744  1
  Y  Y1  1  0.498766  0.498766  0.501234  1
  B  B2  1  0.063358  0.439748  0.058783  1
  B  B3  1  0.813491  0.184995  0.815647  1
  B  B4  1  0.439748  0.063358  0.438112  1
  B  B5  1  0.184995  0.813491  0.185867  1
  Ir  Ir6  1  0.113628  0.113628  0.386372  1
  Ru  Ru7  1  0.386740  0.386740  0.113260  1
  Ru  Ru8  1  0.137002  0.137002  0.862998  1
  Ru  Ru9  1  0.863016  0.863016  0.136984  1
