# generated using pymatgen
data_CaDy3Er4(B6Ru)4
_symmetry_space_group_name_H-M   'P 1'
_cell_length_a   3.64772900
_cell_length_b   9.12427319
_cell_length_c   11.51758100
_cell_angle_alpha   89.90280381
_cell_angle_beta   90.00000000
_cell_angle_gamma   90.00000000
_symmetry_Int_Tables_number   1
_chemical_formula_structural   CaDy3Er4(B6Ru)4
_chemical_formula_sum   'Ca1 Dy3 Er4 B24 Ru4'
_cell_volume   383.33766771
_cell_formula_units_Z   1
loop_
 _symmetry_equiv_pos_site_id
 _symmetry_equiv_pos_as_xyz
  1  'x, y, z'
loop_
 _atom_site_type_symbol
 _atom_site_label
 _atom_site_symmetry_multiplicity
 _atom_site_fract_x
 _atom_site_fract_y
 _atom_site_fract_z
 _atom_site_occupancy
  Ca  Ca0  1  0.000000  0.322481  0.413962  1
  Dy  Dy1  1  0.000000  0.675970  0.584997  1
  Dy  Dy2  1  0.000000  0.822636  0.086295  1
  Dy  Dy3  1  0.000000  0.177867  0.914547  1
  Er  Er4  1  0.000000  0.944084  0.371142  1
  Er  Er5  1  0.000000  0.057784  0.628108  1
  Er  Er6  1  0.000000  0.443042  0.129586  1
  Er  Er7  1  0.000000  0.556130  0.872196  1
  B  B8  1  0.500000  0.554786  0.432381  1
  B  B9  1  0.500000  0.445858  0.568012  1
  B  B10  1  0.500000  0.053566  0.066666  1
  B  B11  1  0.500000  0.945539  0.932271  1
  B  B12  1  0.500000  0.749029  0.418873  1
  B  B13  1  0.500000  0.251591  0.581627  1
  B  B14  1  0.500000  0.248191  0.080632  1
  B  B15  1  0.500000  0.751198  0.919268  1
  B  B16  1  0.500000  0.791841  0.265954  1
  B  B17  1  0.500000  0.209289  0.734362  1
  B  B18  1  0.500000  0.290087  0.233283  1
  B  B19  1  0.500000  0.709041  0.766281  1
  B  B20  1  0.500000  0.631780  0.185520  1
  B  B21  1  0.500000  0.368822  0.815538  1
  B  B22  1  0.500000  0.130679  0.313908  1
  B  B23  1  0.500000  0.868796  0.684964  1
  B  B24  1  0.500000  0.983338  0.211985  1
  B  B25  1  0.500000  0.016424  0.787037  1
  B  B26  1  0.500000  0.484131  0.287295  1
  B  B27  1  0.500000  0.516444  0.713180  1
  B  B28  1  0.500000  0.606452  0.029547  1
  B  B29  1  0.500000  0.393772  0.971137  1
  B  B30  1  0.500000  0.103011  0.471500  1
  B  B31  1  0.500000  0.895743  0.528726  1
  Ru  Ru32  1  0.000000  0.640394  0.319913  1
  Ru  Ru33  1  0.000000  0.361603  0.681088  1
  Ru  Ru34  1  0.000000  0.136788  0.177561  1
  Ru  Ru35  1  0.000000  0.861812  0.820657  1
