# generated using pymatgen
data_Y10SnBi5P2
_symmetry_space_group_name_H-M   'P 1'
_cell_length_a   9.20238799
_cell_length_b   9.21523285
_cell_length_c   6.70318500
_cell_angle_alpha   90.00000000
_cell_angle_beta   90.00000000
_cell_angle_gamma   120.04617656
_symmetry_Int_Tables_number   1
_chemical_formula_structural   Y10SnBi5P2
_chemical_formula_sum   'Y10 Sn1 Bi5 P2'
_cell_volume   492.05814272
_cell_formula_units_Z   1
loop_
 _symmetry_equiv_pos_site_id
 _symmetry_equiv_pos_as_xyz
  1  'x, y, z'
loop_
 _atom_site_type_symbol
 _atom_site_label
 _atom_site_symmetry_multiplicity
 _atom_site_fract_x
 _atom_site_fract_y
 _atom_site_fract_z
 _atom_site_occupancy
  Y  Y0  1  0.670236  0.334029  0.001851  1
  Y  Y1  1  0.329764  0.663795  0.001851  1
  Y  Y2  1  0.329764  0.663795  0.498149  1
  Y  Y3  1  0.670236  0.334029  0.498149  1
  Y  Y4  1  0.762358  0.762501  0.750000  1
  Y  Y5  1  0.237642  0.000143  0.750000  1
  Y  Y6  1  0.000000  0.238197  0.750000  1
  Y  Y7  1  0.234369  0.240038  0.250000  1
  Y  Y8  1  0.765631  0.005669  0.250000  1
  Y  Y9  1  0.000000  0.760192  0.250000  1
  Sn  Sn10  1  0.000000  0.400974  0.250000  1
  Bi  Bi11  1  0.400380  0.399336  0.750000  1
  Bi  Bi12  1  0.599620  0.998956  0.750000  1
  Bi  Bi13  1  0.000000  0.599182  0.750000  1
  Bi  Bi14  1  0.600920  0.601092  0.250000  1
  Bi  Bi15  1  0.399080  0.000172  0.250000  1
  P  P16  1  0.000000  0.998950  0.999801  1
  P  P17  1  0.000000  0.998950  0.500199  1
