# generated using pymatgen
data_LaY3(Zn5Sn)2
_symmetry_space_group_name_H-M   'P 1'
_cell_length_a   8.45479276
_cell_length_b   8.45479316
_cell_length_c   9.05289700
_cell_angle_alpha   90.95459926
_cell_angle_beta   89.04540053
_cell_angle_gamma   149.63261519
_symmetry_Int_Tables_number   1
_chemical_formula_structural   LaY3(Zn5Sn)2
_chemical_formula_sum   'La1 Y3 Zn10 Sn2'
_cell_volume   327.10460613
_cell_formula_units_Z   1
loop_
 _symmetry_equiv_pos_site_id
 _symmetry_equiv_pos_as_xyz
  1  'x, y, z'
loop_
 _atom_site_type_symbol
 _atom_site_label
 _atom_site_symmetry_multiplicity
 _atom_site_fract_x
 _atom_site_fract_y
 _atom_site_fract_z
 _atom_site_occupancy
  La  La0  1  0.000000  0.000000  0.000000  1
  Y  Y1  1  0.203979  0.796021  0.252728  1
  Y  Y2  1  0.796021  0.203979  0.747272  1
  Y  Y3  1  0.000000  0.000000  0.500000  1
  Zn  Zn4  1  0.814801  0.185199  0.387367  1
  Zn  Zn5  1  0.185199  0.814801  0.612633  1
  Zn  Zn6  1  0.810702  0.189298  0.106533  1
  Zn  Zn7  1  0.189298  0.810702  0.893467  1
  Zn  Zn8  1  0.658252  0.341748  0.485375  1
  Zn  Zn9  1  0.341748  0.658252  0.514625  1
  Zn  Zn10  1  0.657198  0.342802  0.019240  1
  Zn  Zn11  1  0.342802  0.657198  0.980760  1
  Zn  Zn12  1  0.393768  0.606232  0.247704  1
  Zn  Zn13  1  0.606232  0.393768  0.752296  1
  Sn  Sn14  1  0.556223  0.443777  0.257429  1
  Sn  Sn15  1  0.443777  0.556223  0.742571  1
