# generated using pymatgen
data_Tb6Ti(Fe3Co8)2
_symmetry_space_group_name_H-M   'P 1'
_cell_length_a   8.38191727
_cell_length_b   8.38375404
_cell_length_c   8.38259000
_cell_angle_alpha   59.99985813
_cell_angle_beta   60.00009182
_cell_angle_gamma   59.99380414
_symmetry_Int_Tables_number   1
_chemical_formula_structural   Tb6Ti(Fe3Co8)2
_chemical_formula_sum   'Tb6 Ti1 Fe6 Co16'
_cell_volume   416.50922177
_cell_formula_units_Z   1
loop_
 _symmetry_equiv_pos_site_id
 _symmetry_equiv_pos_as_xyz
  1  'x, y, z'
loop_
 _atom_site_type_symbol
 _atom_site_label
 _atom_site_symmetry_multiplicity
 _atom_site_fract_x
 _atom_site_fract_y
 _atom_site_fract_z
 _atom_site_occupancy
  Tb  Tb0  1  0.712872  0.712863  0.287163  1
  Tb  Tb1  1  0.287118  0.712845  0.287149  1
  Tb  Tb2  1  0.712855  0.287119  0.287139  1
  Tb  Tb3  1  0.287128  0.287137  0.712837  1
  Tb  Tb4  1  0.712882  0.287155  0.712851  1
  Tb  Tb5  1  0.287145  0.712881  0.712861  1
  Ti  Ti6  1  0.000000  0.000000  0.000000  1
  Fe  Fe7  1  0.000000  0.000000  0.500000  1
  Fe  Fe8  1  0.500000  0.000000  0.500000  1
  Fe  Fe9  1  0.000000  0.500000  0.500000  1
  Fe  Fe10  1  0.500000  0.500000  0.000000  1
  Fe  Fe11  1  0.000000  0.500000  0.000000  1
  Fe  Fe12  1  0.500000  0.000000  0.000000  1
  Co  Co13  1  0.875520  0.875533  0.373411  1
  Co  Co14  1  0.875538  0.373394  0.875549  1
  Co  Co15  1  0.373464  0.875506  0.875507  1
  Co  Co16  1  0.875534  0.875501  0.875533  1
  Co  Co17  1  0.124480  0.124467  0.626589  1
  Co  Co18  1  0.124462  0.626606  0.124451  1
  Co  Co19  1  0.626536  0.124494  0.124493  1
  Co  Co20  1  0.124466  0.124499  0.124467  1
  Co  Co21  1  0.676791  0.676741  0.969686  1
  Co  Co22  1  0.676783  0.969705  0.676731  1
  Co  Co23  1  0.969616  0.676795  0.676793  1
  Co  Co24  1  0.676788  0.676786  0.676776  1
  Co  Co25  1  0.323209  0.323259  0.030314  1
  Co  Co26  1  0.323217  0.030295  0.323269  1
  Co  Co27  1  0.030384  0.323205  0.323207  1
  Co  Co28  1  0.323212  0.323214  0.323224  1
