# generated using pymatgen
data_Ac5SiSe4
_symmetry_space_group_name_H-M   'P 1'
_cell_length_a   7.80991200
_cell_length_b   7.80991156
_cell_length_c   7.80991118
_cell_angle_alpha   99.54692560
_cell_angle_beta   99.54692935
_cell_angle_gamma   131.93517078
_symmetry_Int_Tables_number   1
_chemical_formula_structural   Ac5SiSe4
_chemical_formula_sum   'Ac5 Si1 Se4'
_cell_volume   323.64912706
_cell_formula_units_Z   1
loop_
 _symmetry_equiv_pos_site_id
 _symmetry_equiv_pos_as_xyz
  1  'x, y, z'
loop_
 _atom_site_type_symbol
 _atom_site_label
 _atom_site_symmetry_multiplicity
 _atom_site_fract_x
 _atom_site_fract_y
 _atom_site_fract_z
 _atom_site_occupancy
  Ac  Ac0  1  0.403659  0.791631  0.195290  1
  Ac  Ac1  1  0.000000  0.000000  0.000000  1
  Ac  Ac2  1  0.596341  0.208369  0.804710  1
  Ac  Ac3  1  0.208369  0.403659  0.612028  1
  Ac  Ac4  1  0.791631  0.596341  0.387972  1
  Si  Si5  1  0.500000  0.500000  0.000000  1
  Se  Se6  1  0.098873  0.698663  0.797535  1
  Se  Se7  1  0.698663  0.901127  0.599790  1
  Se  Se8  1  0.301337  0.098873  0.400210  1
  Se  Se9  1  0.901127  0.301337  0.202465  1
