# generated using pymatgen
data_Tb12Dy4In4Ru3Rh
_symmetry_space_group_name_H-M   'P 1'
_cell_length_a   9.68525306
_cell_length_b   9.70923259
_cell_length_c   9.70149045
_cell_angle_alpha   59.84824942
_cell_angle_beta   59.73189466
_cell_angle_gamma   59.73811798
_symmetry_Int_Tables_number   1
_chemical_formula_structural   Tb12Dy4In4Ru3Rh
_chemical_formula_sum   'Tb12 Dy4 In4 Ru3 Rh1'
_cell_volume   641.75850531
_cell_formula_units_Z   1
loop_
 _symmetry_equiv_pos_site_id
 _symmetry_equiv_pos_as_xyz
  1  'x, y, z'
loop_
 _atom_site_type_symbol
 _atom_site_label
 _atom_site_symmetry_multiplicity
 _atom_site_fract_x
 _atom_site_fract_y
 _atom_site_fract_z
 _atom_site_occupancy
  Tb  Tb0  1  0.058199  0.057218  0.442838  1
  Tb  Tb1  1  0.441893  0.436926  0.061304  1
  Tb  Tb2  1  0.652794  0.650836  0.650653  1
  Tb  Tb3  1  0.810687  0.191873  0.191825  1
  Tb  Tb4  1  0.189977  0.808768  0.809042  1
  Tb  Tb5  1  0.042423  0.652142  0.652381  1
  Tb  Tb6  1  0.443154  0.059346  0.059309  1
  Tb  Tb7  1  0.441859  0.061027  0.437390  1
  Tb  Tb8  1  0.058406  0.442213  0.057469  1
  Tb  Tb9  1  0.652462  0.651360  0.043886  1
  Tb  Tb10  1  0.190346  0.809144  0.194443  1
  Tb  Tb11  1  0.060520  0.440150  0.441081  1
  Dy  Dy12  1  0.808782  0.808011  0.191890  1
  Dy  Dy13  1  0.808739  0.191743  0.808257  1
  Dy  Dy14  1  0.190588  0.194531  0.809146  1
  Dy  Dy15  1  0.652120  0.044803  0.650964  1
  In  In16  1  0.418625  0.418262  0.419016  1
  In  In17  1  0.417301  0.417270  0.746894  1
  In  In18  1  0.418205  0.746030  0.418520  1
  In  In19  1  0.748745  0.417021  0.417141  1
  Ru  Ru20  1  0.858533  0.417503  0.859442  1
  Ru  Ru21  1  0.858191  0.862755  0.861009  1
  Ru  Ru22  1  0.857554  0.860363  0.418153  1
  Rh  Rh23  1  0.419896  0.860706  0.857946  1
