# generated using pymatgen
data_Sn(BrF5)2
_symmetry_space_group_name_H-M   'P 1'
_cell_length_a   14.54054300
_cell_length_b   5.26045253
_cell_length_c   6.81711900
_cell_angle_alpha   64.31814235
_cell_angle_beta   90.00000000
_cell_angle_gamma   90.00000000
_symmetry_Int_Tables_number   1
_chemical_formula_structural   Sn(BrF5)2
_chemical_formula_sum   'Sn2 Br4 F20'
_cell_volume   469.92946474
_cell_formula_units_Z   2
loop_
 _symmetry_equiv_pos_site_id
 _symmetry_equiv_pos_as_xyz
  1  'x, y, z'
loop_
 _atom_site_type_symbol
 _atom_site_label
 _atom_site_symmetry_multiplicity
 _atom_site_fract_x
 _atom_site_fract_y
 _atom_site_fract_z
 _atom_site_occupancy
  Sn  Sn0  1  0.000000  0.000000  0.000000  1
  Sn  Sn1  1  0.500000  0.000000  0.500000  1
  Br  Br2  1  0.361422  0.686165  0.161961  1
  Br  Br3  1  0.861422  0.313835  0.338039  1
  Br  Br4  1  0.138578  0.686165  0.661961  1
  Br  Br5  1  0.638578  0.313835  0.838039  1
  F  F6  1  0.677015  0.000968  0.063882  1
  F  F7  1  0.177015  0.999032  0.436118  1
  F  F8  1  0.322985  0.999032  0.936118  1
  F  F9  1  0.822985  0.000968  0.563882  1
  F  F10  1  0.718117  0.527671  0.900174  1
  F  F11  1  0.218117  0.472329  0.599826  1
  F  F12  1  0.958691  0.042126  0.272922  1
  F  F13  1  0.458691  0.957874  0.227078  1
  F  F14  1  0.041309  0.957874  0.727078  1
  F  F15  1  0.541309  0.042126  0.772922  1
  F  F16  1  0.901542  0.694308  0.060205  1
  F  F17  1  0.401542  0.305692  0.439795  1
  F  F18  1  0.098458  0.305692  0.939795  1
  F  F19  1  0.598458  0.694308  0.560205  1
  F  F20  1  0.914611  0.290439  0.821655  1
  F  F21  1  0.414611  0.709561  0.678345  1
  F  F22  1  0.085389  0.709561  0.178345  1
  F  F23  1  0.585389  0.290439  0.321655  1
  F  F24  1  0.781883  0.527671  0.400174  1
  F  F25  1  0.281883  0.472329  0.099826  1
