# generated using pymatgen
data_NaSr3(W2O7)2
_symmetry_space_group_name_H-M   'P 1'
_cell_length_a   7.54918186
_cell_length_b   7.53298839
_cell_length_c   7.56124008
_cell_angle_alpha   119.64834136
_cell_angle_beta   119.36593379
_cell_angle_gamma   90.94880692
_symmetry_Int_Tables_number   1
_chemical_formula_structural   NaSr3(W2O7)2
_chemical_formula_sum   'Na1 Sr3 W4 O14'
_cell_volume   306.02317066
_cell_formula_units_Z   1
loop_
 _symmetry_equiv_pos_site_id
 _symmetry_equiv_pos_as_xyz
  1  'x, y, z'
loop_
 _atom_site_type_symbol
 _atom_site_label
 _atom_site_symmetry_multiplicity
 _atom_site_fract_x
 _atom_site_fract_y
 _atom_site_fract_z
 _atom_site_occupancy
  Na  Na0  1  0.500000  0.500000  0.000000  1
  Sr  Sr1  1  0.000000  0.000000  0.500000  1
  Sr  Sr2  1  0.000000  0.500000  0.000000  1
  Sr  Sr3  1  0.000000  0.000000  0.000000  1
  W  W4  1  0.500000  0.000000  0.000000  1
  W  W5  1  0.500000  0.500000  0.500000  1
  W  W6  1  0.500000  0.000000  0.500000  1
  W  W7  1  0.000000  0.500000  0.500000  1
  O  O8  1  0.460060  0.079051  0.777447  1
  O  O9  1  0.540015  0.318914  0.621557  1
  O  O10  1  0.194028  0.422726  0.370047  1
  O  O11  1  0.821508  0.171069  0.229828  1
  O  O12  1  0.539940  0.920950  0.222553  1
  O  O13  1  0.459985  0.681086  0.378443  1
  O  O14  1  0.805972  0.577274  0.629953  1
  O  O15  1  0.178492  0.828931  0.770172  1
  O  O16  1  0.587266  0.746573  0.825583  1
  O  O17  1  0.412734  0.253427  0.174417  1
  O  O18  1  0.188939  0.903901  0.283498  1
  O  O19  1  0.811061  0.096099  0.716502  1
  O  O20  1  0.863128  0.582738  0.274076  1
  O  O21  1  0.136872  0.417262  0.725924  1
