# generated using pymatgen
data_Nd3In2HgRh3
_symmetry_space_group_name_H-M   'P 1'
_cell_length_a   7.70834300
_cell_length_b   7.61154505
_cell_length_c   4.05624600
_cell_angle_alpha   90.00000000
_cell_angle_beta   90.00000000
_cell_angle_gamma   120.42158701
_symmetry_Int_Tables_number   1
_chemical_formula_structural   Nd3In2HgRh3
_chemical_formula_sum   'Nd3 In2 Hg1 Rh3'
_cell_volume   205.22397026
_cell_formula_units_Z   1
loop_
 _symmetry_equiv_pos_site_id
 _symmetry_equiv_pos_as_xyz
  1  'x, y, z'
loop_
 _atom_site_type_symbol
 _atom_site_label
 _atom_site_symmetry_multiplicity
 _atom_site_fract_x
 _atom_site_fract_y
 _atom_site_fract_z
 _atom_site_occupancy
  Nd  Nd0  1  0.590375  0.000000  0.500000  1
  Nd  Nd1  1  0.404907  0.402805  0.500000  1
  Nd  Nd2  1  0.002101  0.597195  0.500000  1
  In  In3  1  0.745227  0.745282  0.000000  1
  In  In4  1  0.999945  0.254718  0.000000  1
  Hg  Hg5  1  0.255277  0.000000  0.000000  1
  Rh  Rh6  1  0.983893  0.000000  0.500000  1
  Rh  Rh7  1  0.338499  0.658723  0.000000  1
  Rh  Rh8  1  0.679777  0.341277  0.000000  1
