# generated using pymatgen
data_Dy7Ho4Lu5(CdPt)4
_symmetry_space_group_name_H-M   'P 1'
_cell_length_a   9.60546943
_cell_length_b   9.60547019
_cell_length_c   9.60165300
_cell_angle_alpha   60.01314836
_cell_angle_beta   60.01314576
_cell_angle_gamma   60.16000804
_symmetry_Int_Tables_number   1
_chemical_formula_structural   Dy7Ho4Lu5(CdPt)4
_chemical_formula_sum   'Dy7 Ho4 Lu5 Cd4 Pt4'
_cell_volume   627.30267357
_cell_formula_units_Z   1
loop_
 _symmetry_equiv_pos_site_id
 _symmetry_equiv_pos_as_xyz
  1  'x, y, z'
loop_
 _atom_site_type_symbol
 _atom_site_label
 _atom_site_symmetry_multiplicity
 _atom_site_fract_x
 _atom_site_fract_y
 _atom_site_fract_z
 _atom_site_occupancy
  Dy  Dy0  1  0.813332  0.813332  0.186668  1
  Dy  Dy1  1  0.936900  0.563239  0.564481  1
  Dy  Dy2  1  0.563239  0.936900  0.935379  1
  Dy  Dy3  1  0.563239  0.936900  0.564481  1
  Dy  Dy4  1  0.936900  0.563238  0.935379  1
  Dy  Dy5  1  0.565109  0.565109  0.934891  1
  Dy  Dy6  1  0.937356  0.937356  0.562643  1
  Ho  Ho7  1  0.352133  0.352133  0.351631  1
  Ho  Ho8  1  0.352133  0.352133  0.944103  1
  Ho  Ho9  1  0.353228  0.940412  0.353181  1
  Ho  Ho10  1  0.940412  0.353228  0.353181  1
  Lu  Lu11  1  0.812287  0.189159  0.187335  1
  Lu  Lu12  1  0.189159  0.812287  0.811219  1
  Lu  Lu13  1  0.189159  0.812287  0.187335  1
  Lu  Lu14  1  0.812287  0.189159  0.811219  1
  Lu  Lu15  1  0.187932  0.187932  0.812068  1
  Cd  Cd16  1  0.580788  0.580788  0.582879  1
  Cd  Cd17  1  0.580788  0.580788  0.255544  1
  Cd  Cd18  1  0.580736  0.254634  0.582314  1
  Cd  Cd19  1  0.254634  0.580736  0.582314  1
  Pt  Pt20  1  0.141266  0.141266  0.144313  1
  Pt  Pt21  1  0.141266  0.141266  0.573156  1
  Pt  Pt22  1  0.143640  0.572079  0.142141  1
  Pt  Pt23  1  0.572079  0.143640  0.142141  1
