# generated using pymatgen
data_Yb2Sc2B12IrRu
_symmetry_space_group_name_H-M   'P 1'
_cell_length_a   3.53522600
_cell_length_b   8.97727820
_cell_length_c   11.35763026
_cell_angle_alpha   90.02434258
_cell_angle_beta   90.00000000
_cell_angle_gamma   90.00000000
_symmetry_Int_Tables_number   1
_chemical_formula_structural   Yb2Sc2B12IrRu
_chemical_formula_sum   'Yb4 Sc4 B24 Ir2 Ru2'
_cell_volume   360.45375466
_cell_formula_units_Z   2
loop_
 _symmetry_equiv_pos_site_id
 _symmetry_equiv_pos_as_xyz
  1  'x, y, z'
loop_
 _atom_site_type_symbol
 _atom_site_label
 _atom_site_symmetry_multiplicity
 _atom_site_fract_x
 _atom_site_fract_y
 _atom_site_fract_z
 _atom_site_occupancy
  Yb  Yb0  1  0.500000  0.320738  0.413089  1
  Yb  Yb1  1  0.500000  0.679262  0.586911  1
  Yb  Yb2  1  0.500000  0.175126  0.915865  1
  Yb  Yb3  1  0.500000  0.824874  0.084135  1
  Sc  Sc4  1  0.500000  0.440761  0.127679  1
  Sc  Sc5  1  0.500000  0.559239  0.872321  1
  Sc  Sc6  1  0.500000  0.052518  0.629851  1
  Sc  Sc7  1  0.500000  0.947482  0.370149  1
  B  B8  1  0.000000  0.096858  0.474131  1
  B  B9  1  0.000000  0.903142  0.525869  1
  B  B10  1  0.000000  0.403048  0.973708  1
  B  B11  1  0.000000  0.596952  0.026292  1
  B  B12  1  0.000000  0.130398  0.316934  1
  B  B13  1  0.000000  0.869602  0.683066  1
  B  B14  1  0.000000  0.369650  0.817526  1
  B  B15  1  0.000000  0.630350  0.182474  1
  B  B16  1  0.000000  0.054881  0.067684  1
  B  B17  1  0.000000  0.945119  0.932316  1
  B  B18  1  0.000000  0.444736  0.567029  1
  B  B19  1  0.000000  0.555264  0.432971  1
  B  B20  1  0.000000  0.482487  0.286462  1
  B  B21  1  0.000000  0.517513  0.713538  1
  B  B22  1  0.000000  0.016723  0.786208  1
  B  B23  1  0.000000  0.983277  0.213792  1
  B  B24  1  0.000000  0.251815  0.082122  1
  B  B25  1  0.000000  0.748185  0.917878  1
  B  B26  1  0.000000  0.247324  0.581507  1
  B  B27  1  0.000000  0.752676  0.418493  1
  B  B28  1  0.000000  0.294183  0.235235  1
  B  B29  1  0.000000  0.705817  0.764765  1
  B  B30  1  0.000000  0.205774  0.735880  1
  B  B31  1  0.000000  0.794226  0.264120  1
  Ir  Ir32  1  0.500000  0.359047  0.681578  1
  Ir  Ir33  1  0.500000  0.640953  0.318422  1
  Ru  Ru34  1  0.500000  0.141499  0.182886  1
  Ru  Ru35  1  0.500000  0.858501  0.817114  1
