# generated using pymatgen
data_HfNb2B2Ru5
_symmetry_space_group_name_H-M   'P 1'
_cell_length_a   9.46988737
_cell_length_b   9.46988770
_cell_length_c   3.07050600
_cell_angle_alpha   90.00000000
_cell_angle_beta   90.00000000
_cell_angle_gamma   90.05029020
_symmetry_Int_Tables_number   1
_chemical_formula_structural   HfNb2B2Ru5
_chemical_formula_sum   'Hf2 Nb4 B4 Ru10'
_cell_volume   275.35909498
_cell_formula_units_Z   2
loop_
 _symmetry_equiv_pos_site_id
 _symmetry_equiv_pos_as_xyz
  1  'x, y, z'
loop_
 _atom_site_type_symbol
 _atom_site_label
 _atom_site_symmetry_multiplicity
 _atom_site_fract_x
 _atom_site_fract_y
 _atom_site_fract_z
 _atom_site_occupancy
  Hf  Hf0  1  0.176140  0.176140  0.000000  1
  Hf  Hf1  1  0.823860  0.823860  0.000000  1
  Nb  Nb2  1  0.500000  0.000000  0.000000  1
  Nb  Nb3  1  0.000000  0.500000  0.000000  1
  Nb  Nb4  1  0.676391  0.323609  0.000000  1
  Nb  Nb5  1  0.323609  0.676391  0.000000  1
  B  B6  1  0.378635  0.378635  0.000000  1
  B  B7  1  0.621365  0.621365  0.000000  1
  B  B8  1  0.878676  0.121324  0.000000  1
  B  B9  1  0.121324  0.878676  0.000000  1
  Ru  Ru10  1  0.500000  0.500000  0.500000  1
  Ru  Ru11  1  0.000000  0.000000  0.500000  1
  Ru  Ru12  1  0.431161  0.219461  0.500000  1
  Ru  Ru13  1  0.568839  0.780539  0.500000  1
  Ru  Ru14  1  0.926547  0.282544  0.500000  1
  Ru  Ru15  1  0.073453  0.717456  0.500000  1
  Ru  Ru16  1  0.717456  0.073453  0.500000  1
  Ru  Ru17  1  0.282544  0.926547  0.500000  1
  Ru  Ru18  1  0.780539  0.568839  0.500000  1
  Ru  Ru19  1  0.219461  0.431161  0.500000  1
