# generated using pymatgen
data_Al(V5Ga2)2
_symmetry_space_group_name_H-M   'P 1'
_cell_length_a   9.33604700
_cell_length_b   9.33604700
_cell_length_c   4.75205200
_cell_angle_alpha   90.00000000
_cell_angle_beta   90.00000000
_cell_angle_gamma   90.00000000
_symmetry_Int_Tables_number   1
_chemical_formula_structural   Al(V5Ga2)2
_chemical_formula_sum   'Al2 V20 Ga8'
_cell_volume   414.19728049
_cell_formula_units_Z   2
loop_
 _symmetry_equiv_pos_site_id
 _symmetry_equiv_pos_as_xyz
  1  'x, y, z'
loop_
 _atom_site_type_symbol
 _atom_site_label
 _atom_site_symmetry_multiplicity
 _atom_site_fract_x
 _atom_site_fract_y
 _atom_site_fract_z
 _atom_site_occupancy
  Al  Al0  1  0.000000  0.000000  0.000000  1
  Al  Al1  1  0.500000  0.500000  0.500000  1
  V  V2  1  0.397660  0.397660  0.000000  1
  V  V3  1  0.897660  0.102340  0.500000  1
  V  V4  1  0.102340  0.897660  0.500000  1
  V  V5  1  0.602340  0.602340  0.000000  1
  V  V6  1  0.127295  0.466462  0.000000  1
  V  V7  1  0.966462  0.372705  0.500000  1
  V  V8  1  0.033538  0.627295  0.500000  1
  V  V9  1  0.872705  0.533538  0.000000  1
  V  V10  1  0.372705  0.966462  0.500000  1
  V  V11  1  0.627295  0.033538  0.500000  1
  V  V12  1  0.466462  0.127295  0.000000  1
  V  V13  1  0.533538  0.872705  0.000000  1
  V  V14  1  0.182032  0.182032  0.254545  1
  V  V15  1  0.682032  0.317968  0.754545  1
  V  V16  1  0.317968  0.682032  0.754545  1
  V  V17  1  0.817968  0.817968  0.254545  1
  V  V18  1  0.317968  0.682032  0.245455  1
  V  V19  1  0.682032  0.317968  0.245455  1
  V  V20  1  0.182032  0.182032  0.745455  1
  V  V21  1  0.817968  0.817968  0.745455  1
  Ga  Ga22  1  0.265467  0.935580  0.000000  1
  Ga  Ga23  1  0.435580  0.234533  0.500000  1
  Ga  Ga24  1  0.564420  0.765467  0.500000  1
  Ga  Ga25  1  0.734533  0.064420  0.000000  1
  Ga  Ga26  1  0.234533  0.435580  0.500000  1
  Ga  Ga27  1  0.765467  0.564420  0.500000  1
  Ga  Ga28  1  0.935580  0.265467  0.000000  1
  Ga  Ga29  1  0.064420  0.734533  0.000000  1
