# generated using pymatgen
data_Er8Ge(Pd5Pt7)2
_symmetry_space_group_name_H-M   'P 1'
_cell_length_a   8.31956708
_cell_length_b   8.32788900
_cell_length_c   8.31919308
_cell_angle_alpha   90.00000000
_cell_angle_beta   90.01621206
_cell_angle_gamma   90.00000000
_symmetry_Int_Tables_number   1
_chemical_formula_structural   Er8Ge(Pd5Pt7)2
_chemical_formula_sum   'Er8 Ge1 Pd10 Pt14'
_cell_volume   576.39053772
_cell_formula_units_Z   1
loop_
 _symmetry_equiv_pos_site_id
 _symmetry_equiv_pos_as_xyz
  1  'x, y, z'
loop_
 _atom_site_type_symbol
 _atom_site_label
 _atom_site_symmetry_multiplicity
 _atom_site_fract_x
 _atom_site_fract_y
 _atom_site_fract_z
 _atom_site_occupancy
  Er  Er0  1  0.253282  0.253197  0.253059  1
  Er  Er1  1  0.746718  0.746289  0.746698  1
  Er  Er2  1  0.746639  0.746587  0.253314  1
  Er  Er3  1  0.746718  0.253711  0.746698  1
  Er  Er4  1  0.253241  0.253382  0.746992  1
  Er  Er5  1  0.253282  0.746803  0.253059  1
  Er  Er6  1  0.253241  0.746618  0.746992  1
  Er  Er7  1  0.746639  0.253413  0.253314  1
  Ge  Ge8  1  0.000470  0.000000  0.000110  1
  Pd  Pd9  1  0.259274  0.000000  0.500093  1
  Pd  Pd10  1  0.500021  0.000000  0.740132  1
  Pd  Pd11  1  0.740469  0.000000  0.500056  1
  Pd  Pd12  1  0.999964  0.500000  0.259328  1
  Pd  Pd13  1  0.999952  0.500000  0.740769  1
  Pd  Pd14  1  0.712007  0.000000  0.999756  1
  Pd  Pd15  1  0.999793  0.289337  0.999979  1
  Pd  Pd16  1  0.999793  0.710663  0.999979  1
  Pd  Pd17  1  0.999757  0.000000  0.289509  1
  Pd  Pd18  1  0.999762  0.000000  0.710499  1
  Pt  Pt19  1  0.258731  0.500000  0.999959  1
  Pt  Pt20  1  0.740863  0.500000  0.999951  1
  Pt  Pt21  1  0.999973  0.259567  0.500036  1
  Pt  Pt22  1  0.499880  0.259048  0.000102  1
  Pt  Pt23  1  0.999973  0.740433  0.500036  1
  Pt  Pt24  1  0.499880  0.740952  0.000102  1
  Pt  Pt25  1  0.499976  0.000000  0.259925  1
  Pt  Pt26  1  0.252335  0.500000  0.500076  1
  Pt  Pt27  1  0.747788  0.500000  0.500079  1
  Pt  Pt28  1  0.500060  0.252553  0.499831  1
  Pt  Pt29  1  0.500060  0.747447  0.499831  1
  Pt  Pt30  1  0.500046  0.500000  0.252737  1
  Pt  Pt31  1  0.500060  0.500000  0.747164  1
  Pt  Pt32  1  0.289355  0.000000  0.999835  1
