# generated using pymatgen
data_Y4GeB4Ir9
_symmetry_space_group_name_H-M   'P 1'
_cell_length_a   10.79437408
_cell_length_b   10.79437435
_cell_length_c   10.79437579
_cell_angle_alpha   29.67543558
_cell_angle_beta   29.67543271
_cell_angle_gamma   29.67544033
_symmetry_Int_Tables_number   1
_chemical_formula_structural   Y4GeB4Ir9
_chemical_formula_sum   'Y4 Ge1 B4 Ir9'
_cell_volume   272.94371253
_cell_formula_units_Z   1
loop_
 _symmetry_equiv_pos_site_id
 _symmetry_equiv_pos_as_xyz
  1  'x, y, z'
loop_
 _atom_site_type_symbol
 _atom_site_label
 _atom_site_symmetry_multiplicity
 _atom_site_fract_x
 _atom_site_fract_y
 _atom_site_fract_z
 _atom_site_occupancy
  Y  Y0  1  0.149742  0.149742  0.149742  1
  Y  Y1  1  0.950332  0.950332  0.950332  1
  Y  Y2  1  0.850258  0.850258  0.850258  1
  Y  Y3  1  0.049668  0.049668  0.049668  1
  Ge  Ge4  1  0.500000  0.500000  0.500000  1
  B  B5  1  0.616039  0.616039  0.616039  1
  B  B6  1  0.717894  0.717894  0.717894  1
  B  B7  1  0.383961  0.383961  0.383961  1
  B  B8  1  0.282106  0.282106  0.282106  1
  Ir  Ir9  1  0.402456  0.901671  0.402456  1
  Ir  Ir10  1  0.901671  0.402456  0.402456  1
  Ir  Ir11  1  0.500000  0.500000  0.000000  1
  Ir  Ir12  1  0.500000  0.000000  0.500000  1
  Ir  Ir13  1  0.000000  0.500000  0.500000  1
  Ir  Ir14  1  0.597544  0.098329  0.597544  1
  Ir  Ir15  1  0.597544  0.597544  0.098329  1
  Ir  Ir16  1  0.098329  0.597544  0.597544  1
  Ir  Ir17  1  0.402456  0.402456  0.901671  1
