# generated using pymatgen
data_Dy2Ho6Ti3Si16Tc9
_symmetry_space_group_name_H-M   'P 1'
_cell_length_a   6.77984138
_cell_length_b   6.77982044
_cell_length_c   12.92705342
_cell_angle_alpha   90.07806089
_cell_angle_beta   89.89754877
_cell_angle_gamma   89.39886703
_symmetry_Int_Tables_number   1
_chemical_formula_structural   Dy2Ho6Ti3Si16Tc9
_chemical_formula_sum   'Dy2 Ho6 Ti3 Si16 Tc9'
_cell_volume   594.17210240
_cell_formula_units_Z   1
loop_
 _symmetry_equiv_pos_site_id
 _symmetry_equiv_pos_as_xyz
  1  'x, y, z'
loop_
 _atom_site_type_symbol
 _atom_site_label
 _atom_site_symmetry_multiplicity
 _atom_site_fract_x
 _atom_site_fract_y
 _atom_site_fract_z
 _atom_site_occupancy
  Dy  Dy0  1  0.511648  0.822802  0.716934  1
  Dy  Dy1  1  0.337979  0.000898  0.471206  1
  Ho  Ho2  1  0.998633  0.662308  0.029130  1
  Ho  Ho3  1  0.000407  0.338452  0.528717  1
  Ho  Ho4  1  0.662316  0.998665  0.970931  1
  Ho  Ho5  1  0.174184  0.490604  0.782899  1
  Ho  Ho6  1  0.823133  0.511839  0.283082  1
  Ho  Ho7  1  0.490667  0.174226  0.217099  1
  Ti  Ti8  1  0.843740  0.155838  0.749021  1
  Ti  Ti9  1  0.155758  0.843720  0.250910  1
  Ti  Ti10  1  0.335071  0.335073  0.000016  1
  Si  Si11  1  0.014452  0.736026  0.444710  1
  Si  Si12  1  0.977289  0.270311  0.942685  1
  Si  Si13  1  0.736641  0.014691  0.555176  1
  Si  Si14  1  0.199022  0.474876  0.186183  1
  Si  Si15  1  0.799616  0.527728  0.685282  1
  Si  Si16  1  0.474822  0.199352  0.813899  1
  Si  Si17  1  0.528085  0.799195  0.314592  1
  Si  Si18  1  0.270278  0.977288  0.057361  1
  Si  Si19  1  0.789389  0.881375  0.180569  1
  Si  Si20  1  0.316696  0.603874  0.560639  1
  Si  Si21  1  0.693583  0.386325  0.063250  1
  Si  Si22  1  0.604545  0.317020  0.439226  1
  Si  Si23  1  0.386296  0.693591  0.936863  1
  Si  Si24  1  0.116731  0.212335  0.317848  1
  Si  Si25  1  0.211966  0.117135  0.682142  1
  Si  Si26  1  0.881726  0.789312  0.819525  1
  Tc  Tc27  1  0.306868  0.523080  0.369091  1
  Tc  Tc28  1  0.818171  0.017003  0.364336  1
  Tc  Tc29  1  0.989749  0.180685  0.135987  1
  Tc  Tc30  1  0.016743  0.818017  0.635686  1
  Tc  Tc31  1  0.523445  0.307185  0.630946  1
  Tc  Tc32  1  0.180484  0.989954  0.864126  1
  Tc  Tc33  1  0.665281  0.664921  0.499832  1
  Tc  Tc34  1  0.480171  0.684201  0.130546  1
  Tc  Tc35  1  0.684413  0.480095  0.869554  1
