# generated using pymatgen
data_Er2AlSi4Ir3
_symmetry_space_group_name_H-M   'P 1'
_cell_length_a   8.17750280
_cell_length_b   8.17750281
_cell_length_c   5.73816900
_cell_angle_alpha   71.65988787
_cell_angle_beta   71.65988786
_cell_angle_gamma   94.24640118
_symmetry_Int_Tables_number   1
_chemical_formula_structural   Er2AlSi4Ir3
_chemical_formula_sum   'Er4 Al2 Si8 Ir6'
_cell_volume   339.29132295
_cell_formula_units_Z   2
loop_
 _symmetry_equiv_pos_site_id
 _symmetry_equiv_pos_as_xyz
  1  'x, y, z'
loop_
 _atom_site_type_symbol
 _atom_site_label
 _atom_site_symmetry_multiplicity
 _atom_site_fract_x
 _atom_site_fract_y
 _atom_site_fract_z
 _atom_site_occupancy
  Er  Er0  1  0.867155  0.597911  0.758269  1
  Er  Er1  1  0.132845  0.402089  0.241731  1
  Er  Er2  1  0.402089  0.132845  0.741731  1
  Er  Er3  1  0.597911  0.867155  0.258269  1
  Al  Al4  1  0.772678  0.227322  0.750000  1
  Al  Al5  1  0.227322  0.772678  0.250000  1
  Si  Si6  1  0.518453  0.481547  0.750000  1
  Si  Si7  1  0.481547  0.518453  0.250000  1
  Si  Si8  1  0.211555  0.788445  0.750000  1
  Si  Si9  1  0.788445  0.211555  0.250000  1
  Si  Si10  1  0.264715  0.062136  0.337782  1
  Si  Si11  1  0.735285  0.937864  0.662218  1
  Si  Si12  1  0.937864  0.735285  0.162218  1
  Si  Si13  1  0.062136  0.264715  0.837782  1
  Ir  Ir14  1  0.534700  0.259741  0.139826  1
  Ir  Ir15  1  0.740259  0.465300  0.360174  1
  Ir  Ir16  1  0.465300  0.740259  0.860174  1
  Ir  Ir17  1  0.259741  0.534700  0.639826  1
  Ir  Ir18  1  0.994076  0.005924  0.250000  1
  Ir  Ir19  1  0.005924  0.994076  0.750000  1
