# generated using pymatgen
data_Sc6SnSb5Ru12
_symmetry_space_group_name_H-M   'P 1'
_cell_length_a   4.53090901
_cell_length_b   6.39039702
_cell_length_c   13.57572600
_cell_angle_alpha   90.00017413
_cell_angle_beta   90.00164491
_cell_angle_gamma   89.99133204
_symmetry_Int_Tables_number   1
_chemical_formula_structural   Sc6SnSb5Ru12
_chemical_formula_sum   'Sc6 Sn1 Sb5 Ru12'
_cell_volume   393.07573983
_cell_formula_units_Z   1
loop_
 _symmetry_equiv_pos_site_id
 _symmetry_equiv_pos_as_xyz
  1  'x, y, z'
loop_
 _atom_site_type_symbol
 _atom_site_label
 _atom_site_symmetry_multiplicity
 _atom_site_fract_x
 _atom_site_fract_y
 _atom_site_fract_z
 _atom_site_occupancy
  Sc  Sc0  1  0.000000  0.000000  0.000001  1
  Sc  Sc1  1  0.499827  0.500001  0.165391  1
  Sc  Sc2  1  0.999813  0.999994  0.332890  1
  Sc  Sc3  1  0.499998  0.500001  0.500000  1
  Sc  Sc4  1  0.000190  0.000000  0.667110  1
  Sc  Sc5  1  0.500179  0.500000  0.834614  1
  Sn  Sn6  1  0.000003  0.499999  0.000001  1
  Sb  Sb7  1  0.499863  0.000001  0.165771  1
  Sb  Sb8  1  0.999868  0.500001  0.332736  1
  Sb  Sb9  1  0.500001  0.999999  0.500000  1
  Sb  Sb10  1  0.000135  0.500001  0.667264  1
  Sb  Sb11  1  0.500137  0.000000  0.834230  1
  Ru  Ru12  1  0.500060  0.247894  0.000001  1
  Ru  Ru13  1  0.499939  0.752107  0.000001  1
  Ru  Ru14  1  0.999775  0.248631  0.168281  1
  Ru  Ru15  1  0.999873  0.751371  0.168281  1
  Ru  Ru16  1  0.499887  0.249836  0.333917  1
  Ru  Ru17  1  0.499801  0.750165  0.333919  1
  Ru  Ru18  1  0.999953  0.250236  0.499999  1
  Ru  Ru19  1  0.000046  0.749764  0.499999  1
  Ru  Ru20  1  0.500204  0.249835  0.666081  1
  Ru  Ru21  1  0.500119  0.750167  0.666081  1
  Ru  Ru22  1  0.000120  0.248633  0.831719  1
  Ru  Ru23  1  0.000216  0.751367  0.831719  1
