# generated using pymatgen
data_Ba2TbGaO5
_symmetry_space_group_name_H-M   'P 1'
_cell_length_a   6.15780300
_cell_length_b   7.86851738
_cell_length_c   12.77186727
_cell_angle_alpha   91.88677345
_cell_angle_beta   90.00000000
_cell_angle_gamma   90.00000000
_symmetry_Int_Tables_number   1
_chemical_formula_structural   Ba2TbGaO5
_chemical_formula_sum   'Ba8 Tb4 Ga4 O20'
_cell_volume   618.49697003
_cell_formula_units_Z   4
loop_
 _symmetry_equiv_pos_site_id
 _symmetry_equiv_pos_as_xyz
  1  'x, y, z'
loop_
 _atom_site_type_symbol
 _atom_site_label
 _atom_site_symmetry_multiplicity
 _atom_site_fract_x
 _atom_site_fract_y
 _atom_site_fract_z
 _atom_site_occupancy
  Ba  Ba0  1  0.762631  0.482121  0.346443  1
  Ba  Ba1  1  0.737369  0.982121  0.846443  1
  Ba  Ba2  1  0.237369  0.517879  0.653557  1
  Ba  Ba3  1  0.262631  0.017879  0.153557  1
  Ba  Ba4  1  0.754981  0.992973  0.380584  1
  Ba  Ba5  1  0.745019  0.492973  0.880584  1
  Ba  Ba6  1  0.245019  0.007027  0.619416  1
  Ba  Ba7  1  0.254981  0.507027  0.119416  1
  Tb  Tb8  1  0.749952  0.267202  0.628034  1
  Tb  Tb9  1  0.750048  0.767202  0.128034  1
  Tb  Tb10  1  0.250048  0.732798  0.371966  1
  Tb  Tb11  1  0.249952  0.232798  0.871966  1
  Ga  Ga12  1  0.734556  0.741970  0.582409  1
  Ga  Ga13  1  0.765444  0.241970  0.082409  1
  Ga  Ga14  1  0.265444  0.258030  0.417591  1
  Ga  Ga15  1  0.234556  0.758030  0.917591  1
  O  O16  1  0.758727  0.970922  0.629440  1
  O  O17  1  0.741273  0.470922  0.129440  1
  O  O18  1  0.241273  0.029078  0.370560  1
  O  O19  1  0.258727  0.529078  0.870560  1
  O  O20  1  0.728304  0.068134  0.176313  1
  O  O21  1  0.771696  0.568134  0.676313  1
  O  O22  1  0.271696  0.931866  0.823687  1
  O  O23  1  0.228304  0.431866  0.323687  1
  O  O24  1  0.543982  0.744648  0.272111  1
  O  O25  1  0.956018  0.244648  0.772111  1
  O  O26  1  0.456018  0.255352  0.727889  1
  O  O27  1  0.043982  0.755352  0.227889  1
  O  O28  1  0.551421  0.222284  0.976829  1
  O  O29  1  0.948579  0.722284  0.476829  1
  O  O30  1  0.448579  0.777716  0.023171  1
  O  O31  1  0.051421  0.277716  0.523171  1
  O  O32  1  0.043249  0.228384  0.021330  1
  O  O33  1  0.456751  0.728384  0.521330  1
  O  O34  1  0.956751  0.771616  0.978670  1
  O  O35  1  0.543249  0.271616  0.478670  1
