# generated using pymatgen
data_CaPrZn21Pd
_symmetry_space_group_name_H-M   'P 1'
_cell_length_a   8.29702632
_cell_length_b   8.32155709
_cell_length_c   8.32155648
_cell_angle_alpha   99.66138751
_cell_angle_beta   100.13481060
_cell_angle_gamma   131.19855921
_symmetry_Int_Tables_number   1
_chemical_formula_structural   CaPrZn21Pd
_chemical_formula_sum   'Ca1 Pr1 Zn21 Pd1'
_cell_volume   393.10710662
_cell_formula_units_Z   1
loop_
 _symmetry_equiv_pos_site_id
 _symmetry_equiv_pos_as_xyz
  1  'x, y, z'
loop_
 _atom_site_type_symbol
 _atom_site_label
 _atom_site_symmetry_multiplicity
 _atom_site_fract_x
 _atom_site_fract_y
 _atom_site_fract_z
 _atom_site_occupancy
  Ca  Ca0  1  0.748384  0.247265  0.501118  1
  Pr  Pr1  1  0.496509  0.500707  0.995803  1
  Zn  Zn2  1  0.924112  0.598255  0.916792  1
  Zn  Zn3  1  0.843962  0.430976  0.170640  1
  Zn  Zn4  1  0.257003  0.673460  0.826613  1
  Zn  Zn5  1  0.683291  0.010458  0.084698  1
  Zn  Zn6  1  0.404380  0.076660  0.086988  1
  Zn  Zn7  1  0.991601  0.317438  0.916014  1
  Zn  Zn8  1  0.569144  0.153841  0.829390  1
  Zn  Zn9  1  0.327313  0.742904  0.172827  1
  Zn  Zn10  1  0.327313  0.154487  0.584410  1
  Zn  Zn11  1  0.404380  0.317392  0.327720  1
  Zn  Zn12  1  0.991601  0.075587  0.674163  1
  Zn  Zn13  1  0.569144  0.739752  0.415302  1
  Zn  Zn14  1  0.843962  0.673323  0.412986  1
  Zn  Zn15  1  0.257003  0.430390  0.583542  1
  Zn  Zn16  1  0.683291  0.598595  0.672834  1
  Zn  Zn17  1  0.924112  0.007319  0.325857  1
  Zn  Zn18  1  0.127002  0.377386  0.250741  1
  Zn  Zn19  1  0.127002  0.876261  0.749617  1
  Zn  Zn20  1  0.622195  0.873150  0.749045  1
  Zn  Zn21  1  0.248379  0.753764  0.494615  1
  Zn  Zn22  1  0.001918  0.996290  0.005628  1
  Pd  Pd23  1  0.126997  0.874340  0.252657  1
