# generated using pymatgen
data_Lu3In3RhAu
_symmetry_space_group_name_H-M   'P 1'
_cell_length_a   7.74560000
_cell_length_b   7.74560032
_cell_length_c   3.50331700
_cell_angle_alpha   90.00000000
_cell_angle_beta   90.00000000
_cell_angle_gamma   120.00000208
_symmetry_Int_Tables_number   1
_chemical_formula_structural   Lu3In3RhAu
_chemical_formula_sum   'Lu3 In3 Rh1 Au1'
_cell_volume   182.02045992
_cell_formula_units_Z   1
loop_
 _symmetry_equiv_pos_site_id
 _symmetry_equiv_pos_as_xyz
  1  'x, y, z'
loop_
 _atom_site_type_symbol
 _atom_site_label
 _atom_site_symmetry_multiplicity
 _atom_site_fract_x
 _atom_site_fract_y
 _atom_site_fract_z
 _atom_site_occupancy
  Lu  Lu0  1  0.587846  0.017529  0.500001  1
  Lu  Lu1  1  0.429683  0.412154  0.500001  1
  Lu  Lu2  1  0.982471  0.570317  0.500001  1
  In  In3  1  0.230581  0.001699  0.000000  1
  In  In4  1  0.998301  0.228883  0.000000  1
  In  In5  1  0.771118  0.769419  0.000000  1
  Rh  Rh6  1  0.666667  0.333334  0.000000  1
  Au  Au7  1  0.333334  0.666667  0.000000  1
