# generated using pymatgen
data_Th10SnBi5Se2
_symmetry_space_group_name_H-M   'P 1'
_cell_length_a   9.57129821
_cell_length_b   9.58858768
_cell_length_c   6.71531600
_cell_angle_alpha   90.00000000
_cell_angle_beta   90.00000000
_cell_angle_gamma   120.05977249
_symmetry_Int_Tables_number   1
_chemical_formula_structural   Th10SnBi5Se2
_chemical_formula_sum   'Th10 Sn1 Bi5 Se2'
_cell_volume   533.40942244
_cell_formula_units_Z   1
loop_
 _symmetry_equiv_pos_site_id
 _symmetry_equiv_pos_as_xyz
  1  'x, y, z'
loop_
 _atom_site_type_symbol
 _atom_site_label
 _atom_site_symmetry_multiplicity
 _atom_site_fract_x
 _atom_site_fract_y
 _atom_site_fract_z
 _atom_site_occupancy
  Th  Th0  1  0.000000  0.736114  0.750000  1
  Th  Th1  1  0.260548  0.260238  0.750000  1
  Th  Th2  1  0.330926  0.666446  0.498325  1
  Th  Th3  1  0.669074  0.335519  0.498325  1
  Th  Th4  1  0.742415  0.738415  0.250000  1
  Th  Th5  1  0.739452  0.999691  0.750000  1
  Th  Th6  1  0.000000  0.264778  0.250000  1
  Th  Th7  1  0.257585  0.996000  0.250000  1
  Th  Th8  1  0.330926  0.666446  0.001675  1
  Th  Th9  1  0.669074  0.335519  0.001675  1
  Sn  Sn10  1  0.000000  0.611905  0.250000  1
  Bi  Bi11  1  0.611092  0.611078  0.750000  1
  Bi  Bi12  1  0.000000  0.388052  0.750000  1
  Bi  Bi13  1  0.388908  0.999986  0.750000  1
  Bi  Bi14  1  0.611434  0.999716  0.250000  1
  Bi  Bi15  1  0.388566  0.388282  0.250000  1
  Se  Se16  1  0.000000  0.000907  0.999789  1
  Se  Se17  1  0.000000  0.000907  0.500211  1
