# generated using pymatgen
data_DyHfFeB6
_symmetry_space_group_name_H-M   'P 1'
_cell_length_a   3.42984700
_cell_length_b   8.93924400
_cell_length_c   11.30277100
_cell_angle_alpha   90.00000000
_cell_angle_beta   90.00000000
_cell_angle_gamma   90.00000000
_symmetry_Int_Tables_number   1
_chemical_formula_structural   DyHfFeB6
_chemical_formula_sum   'Dy4 Hf4 Fe4 B24'
_cell_volume   346.54566266
_cell_formula_units_Z   4
loop_
 _symmetry_equiv_pos_site_id
 _symmetry_equiv_pos_as_xyz
  1  'x, y, z'
loop_
 _atom_site_type_symbol
 _atom_site_label
 _atom_site_symmetry_multiplicity
 _atom_site_fract_x
 _atom_site_fract_y
 _atom_site_fract_z
 _atom_site_occupancy
  Dy  Dy0  1  0.000000  0.822946  0.085387  1
  Dy  Dy1  1  0.000000  0.177054  0.914613  1
  Dy  Dy2  1  0.000000  0.322946  0.414613  1
  Dy  Dy3  1  0.000000  0.677054  0.585387  1
  Hf  Hf4  1  0.000000  0.443925  0.128347  1
  Hf  Hf5  1  0.000000  0.556075  0.871653  1
  Hf  Hf6  1  0.000000  0.943925  0.371653  1
  Hf  Hf7  1  0.000000  0.056075  0.628347  1
  Fe  Fe8  1  0.000000  0.143297  0.183277  1
  Fe  Fe9  1  0.000000  0.856703  0.816723  1
  Fe  Fe10  1  0.000000  0.643297  0.316723  1
  Fe  Fe11  1  0.000000  0.356703  0.683277  1
  B  B12  1  0.500000  0.055173  0.067996  1
  B  B13  1  0.500000  0.944827  0.932004  1
  B  B14  1  0.500000  0.555173  0.432004  1
  B  B15  1  0.500000  0.444827  0.567996  1
  B  B16  1  0.500000  0.250792  0.083477  1
  B  B17  1  0.500000  0.749208  0.916523  1
  B  B18  1  0.500000  0.750792  0.416523  1
  B  B19  1  0.500000  0.249208  0.583477  1
  B  B20  1  0.500000  0.294190  0.235897  1
  B  B21  1  0.500000  0.705810  0.764103  1
  B  B22  1  0.500000  0.794190  0.264103  1
  B  B23  1  0.500000  0.205810  0.735897  1
  B  B24  1  0.500000  0.130889  0.316085  1
  B  B25  1  0.500000  0.869111  0.683915  1
  B  B26  1  0.500000  0.630889  0.183915  1
  B  B27  1  0.500000  0.369111  0.816085  1
  B  B28  1  0.500000  0.484705  0.287554  1
  B  B29  1  0.500000  0.515295  0.712446  1
  B  B30  1  0.500000  0.984705  0.212446  1
  B  B31  1  0.500000  0.015295  0.787554  1
  B  B32  1  0.500000  0.100730  0.473166  1
  B  B33  1  0.500000  0.899270  0.526834  1
  B  B34  1  0.500000  0.600730  0.026834  1
  B  B35  1  0.500000  0.399270  0.973166  1
