# generated using pymatgen
data_Er20Ir6PdRh5
_symmetry_space_group_name_H-M   'P 1'
_cell_length_a   10.81873446
_cell_length_b   10.81083020
_cell_length_c   6.31887248
_cell_angle_alpha   89.97186648
_cell_angle_beta   89.94275569
_cell_angle_gamma   89.70901268
_symmetry_Int_Tables_number   1
_chemical_formula_structural   Er20Ir6PdRh5
_chemical_formula_sum   'Er20 Ir6 Pd1 Rh5'
_cell_volume   739.04218658
_cell_formula_units_Z   1
loop_
 _symmetry_equiv_pos_site_id
 _symmetry_equiv_pos_as_xyz
  1  'x, y, z'
loop_
 _atom_site_type_symbol
 _atom_site_label
 _atom_site_symmetry_multiplicity
 _atom_site_fract_x
 _atom_site_fract_y
 _atom_site_fract_z
 _atom_site_occupancy
  Er  Er0  1  0.288807  0.088261  0.380424  1
  Er  Er1  1  0.290781  0.910429  0.880023  1
  Er  Er2  1  0.704884  0.088287  0.872019  1
  Er  Er3  1  0.705783  0.905564  0.380746  1
  Er  Er4  1  0.586852  0.789268  0.880930  1
  Er  Er5  1  0.581841  0.210614  0.379897  1
  Er  Er6  1  0.409556  0.790328  0.380588  1
  Er  Er7  1  0.408916  0.208592  0.879985  1
  Er  Er8  1  0.210676  0.410914  0.618617  1
  Er  Er9  1  0.210424  0.589741  0.118613  1
  Er  Er10  1  0.790013  0.417961  0.120555  1
  Er  Er11  1  0.791326  0.588437  0.620608  1
  Er  Er12  1  0.912379  0.710501  0.120128  1
  Er  Er13  1  0.914410  0.293599  0.627341  1
  Er  Er14  1  0.091986  0.708048  0.620403  1
  Er  Er15  1  0.094628  0.293245  0.118552  1
  Er  Er16  1  0.000217  0.997558  0.500130  1
  Er  Er17  1  0.001358  0.999789  0.999199  1
  Er  Er18  1  0.500184  0.498131  0.000016  1
  Er  Er19  1  0.501608  0.501072  0.500864  1
  Ir  Ir20  1  0.151328  0.154056  0.749815  1
  Ir  Ir21  1  0.153385  0.845204  0.249448  1
  Ir  Ir22  1  0.656955  0.344473  0.749351  1
  Ir  Ir23  1  0.656231  0.652940  0.248208  1
  Ir  Ir24  1  0.347779  0.344852  0.252138  1
  Ir  Ir25  1  0.347040  0.654331  0.750915  1
  Pd  Pd26  1  0.843659  0.155823  0.249765  1
  Rh  Rh27  1  0.845276  0.848095  0.749765  1
  Rh  Rh28  1  0.500881  0.999753  0.127998  1
  Rh  Rh29  1  0.500579  0.999910  0.625517  1
  Rh  Rh30  1  0.000032  0.500392  0.874948  1
  Rh  Rh31  1  0.000226  0.499834  0.372494  1
