# generated using pymatgen
data_Y16MgCd3CoNi3
_symmetry_space_group_name_H-M   'P 1'
_cell_length_a   9.60975943
_cell_length_b   9.60975826
_cell_length_c   9.60975895
_cell_angle_alpha   59.89338243
_cell_angle_beta   59.89338556
_cell_angle_gamma   59.89338623
_symmetry_Int_Tables_number   1
_chemical_formula_structural   Y16MgCd3CoNi3
_chemical_formula_sum   'Y16 Mg1 Cd3 Co1 Ni3'
_cell_volume   625.99477530
_cell_formula_units_Z   1
loop_
 _symmetry_equiv_pos_site_id
 _symmetry_equiv_pos_as_xyz
  1  'x, y, z'
loop_
 _atom_site_type_symbol
 _atom_site_label
 _atom_site_symmetry_multiplicity
 _atom_site_fract_x
 _atom_site_fract_y
 _atom_site_fract_z
 _atom_site_occupancy
  Y  Y0  1  0.598174  0.598174  0.598174  1
  Y  Y1  1  0.597148  0.597148  0.206924  1
  Y  Y2  1  0.597148  0.206924  0.597148  1
  Y  Y3  1  0.206924  0.597148  0.597148  1
  Y  Y4  1  0.063780  0.439760  0.439760  1
  Y  Y5  1  0.436638  0.062639  0.062639  1
  Y  Y6  1  0.439760  0.063780  0.439760  1
  Y  Y7  1  0.062639  0.436638  0.062639  1
  Y  Y8  1  0.439760  0.439760  0.063780  1
  Y  Y9  1  0.062639  0.062639  0.436638  1
  Y  Y10  1  0.186260  0.814940  0.814940  1
  Y  Y11  1  0.812059  0.187343  0.187343  1
  Y  Y12  1  0.814940  0.186260  0.814940  1
  Y  Y13  1  0.187343  0.812059  0.187343  1
  Y  Y14  1  0.814940  0.814940  0.186260  1
  Y  Y15  1  0.187343  0.187343  0.812059  1
  Mg  Mg16  1  0.825137  0.825137  0.825137  1
  Cd  Cd17  1  0.830540  0.830540  0.505564  1
  Cd  Cd18  1  0.830540  0.505564  0.830540  1
  Cd  Cd19  1  0.505564  0.830540  0.830540  1
  Co  Co20  1  0.392869  0.392869  0.392869  1
  Ni  Ni21  1  0.391769  0.391769  0.824319  1
  Ni  Ni22  1  0.391769  0.824319  0.391769  1
  Ni  Ni23  1  0.824319  0.391769  0.391769  1
