# generated using pymatgen
data_MgAl3(FeRh3)2
_symmetry_space_group_name_H-M   'P 1'
_cell_length_a   4.28474000
_cell_length_b   6.03008300
_cell_length_c   12.85431001
_cell_angle_alpha   90.00000000
_cell_angle_beta   90.00363719
_cell_angle_gamma   90.00000000
_symmetry_Int_Tables_number   1
_chemical_formula_structural   MgAl3(FeRh3)2
_chemical_formula_sum   'Mg2 Al6 Fe4 Rh12'
_cell_volume   332.12114975
_cell_formula_units_Z   2
loop_
 _symmetry_equiv_pos_site_id
 _symmetry_equiv_pos_as_xyz
  1  'x, y, z'
loop_
 _atom_site_type_symbol
 _atom_site_label
 _atom_site_symmetry_multiplicity
 _atom_site_fract_x
 _atom_site_fract_y
 _atom_site_fract_z
 _atom_site_occupancy
  Mg  Mg0  1  0.999990  0.000000  0.999229  1
  Mg  Mg1  1  0.499886  0.500000  0.167416  1
  Al  Al2  1  0.999989  0.500000  0.000321  1
  Al  Al3  1  0.499900  0.000000  0.166348  1
  Al  Al4  1  0.999909  0.500000  0.333447  1
  Al  Al5  1  0.500009  0.000000  0.500859  1
  Al  Al6  1  0.000089  0.500000  0.665817  1
  Al  Al7  1  0.500081  0.000000  0.833218  1
  Fe  Fe8  1  0.999919  0.000000  0.333745  1
  Fe  Fe9  1  0.500037  0.500000  0.500020  1
  Fe  Fe10  1  0.000071  0.000000  0.666628  1
  Fe  Fe11  1  0.500089  0.500000  0.832946  1
  Rh  Rh12  1  0.499997  0.254458  0.996466  1
  Rh  Rh13  1  0.499997  0.745543  0.996466  1
  Rh  Rh14  1  0.999911  0.245553  0.170183  1
  Rh  Rh15  1  0.999911  0.754448  0.170183  1
  Rh  Rh16  1  0.499920  0.246499  0.338170  1
  Rh  Rh17  1  0.499920  0.753502  0.338170  1
  Rh  Rh18  1  0.000014  0.249967  0.501195  1
  Rh  Rh19  1  0.000014  0.750034  0.501195  1
  Rh  Rh20  1  0.500093  0.250047  0.665484  1
  Rh  Rh21  1  0.500093  0.749954  0.665484  1
  Rh  Rh22  1  0.000082  0.253484  0.828505  1
  Rh  Rh23  1  0.000082  0.746517  0.828505  1
