# generated using pymatgen
data_Sr3Pr(Sn2Pd)4
_symmetry_space_group_name_H-M   'P 1'
_cell_length_a   9.07422305
_cell_length_b   9.07422139
_cell_length_c   9.83279300
_cell_angle_alpha   90.00000000
_cell_angle_beta   90.00000000
_cell_angle_gamma   149.18452737
_symmetry_Int_Tables_number   1
_chemical_formula_structural   Sr3Pr(Sn2Pd)4
_chemical_formula_sum   'Sr3 Pr1 Sn8 Pd4'
_cell_volume   414.76176724
_cell_formula_units_Z   1
loop_
 _symmetry_equiv_pos_site_id
 _symmetry_equiv_pos_as_xyz
  1  'x, y, z'
loop_
 _atom_site_type_symbol
 _atom_site_label
 _atom_site_symmetry_multiplicity
 _atom_site_fract_x
 _atom_site_fract_y
 _atom_site_fract_z
 _atom_site_occupancy
  Sr  Sr0  1  0.500250  0.499750  0.500794  1
  Sr  Sr1  1  0.500250  0.499750  0.999206  1
  Sr  Sr2  1  0.700590  0.299410  0.750000  1
  Pr  Pr3  1  0.297353  0.702647  0.250000  1
  Sn  Sn4  1  0.909022  0.090978  0.750000  1
  Sn  Sn5  1  0.925200  0.074800  0.250000  1
  Sn  Sn6  1  0.090866  0.909134  0.250000  1
  Sn  Sn7  1  0.072484  0.927516  0.750000  1
  Sn  Sn8  1  0.697025  0.302975  0.406288  1
  Sn  Sn9  1  0.304172  0.695828  0.593052  1
  Sn  Sn10  1  0.304172  0.695828  0.906948  1
  Sn  Sn11  1  0.697025  0.302975  0.093712  1
  Pd  Pd12  1  0.150020  0.849980  0.504307  1
  Pd  Pd13  1  0.850776  0.149224  0.006551  1
  Pd  Pd14  1  0.150020  0.849980  0.995693  1
  Pd  Pd15  1  0.850776  0.149224  0.493449  1
