# generated using pymatgen
data_TaNb12Co8Os3N4
_symmetry_space_group_name_H-M   'P 1'
_cell_length_a   8.16991625
_cell_length_b   8.11799791
_cell_length_c   8.16975100
_cell_angle_alpha   59.78778355
_cell_angle_beta   60.00105879
_cell_angle_gamma   59.78819392
_symmetry_Int_Tables_number   1
_chemical_formula_structural   TaNb12Co8Os3N4
_chemical_formula_sum   'Ta1 Nb12 Co8 Os3 N4'
_cell_volume   381.91317294
_cell_formula_units_Z   1
loop_
 _symmetry_equiv_pos_site_id
 _symmetry_equiv_pos_as_xyz
  1  'x, y, z'
loop_
 _atom_site_type_symbol
 _atom_site_label
 _atom_site_symmetry_multiplicity
 _atom_site_fract_x
 _atom_site_fract_y
 _atom_site_fract_z
 _atom_site_occupancy
  Ta  Ta0  1  0.625000  0.125000  0.625000  1
  Nb  Nb1  1  0.805965  0.804802  0.194619  1
  Nb  Nb2  1  0.185518  0.193836  0.810330  1
  Nb  Nb3  1  0.810324  0.193831  0.810330  1
  Nb  Nb4  1  0.194612  0.804802  0.194620  1
  Nb  Nb5  1  0.194616  0.804794  0.805971  1
  Nb  Nb6  1  0.810328  0.193826  0.185521  1
  Nb  Nb7  1  0.444035  0.445198  0.055381  1
  Nb  Nb8  1  0.064482  0.056164  0.439670  1
  Nb  Nb9  1  0.439676  0.056169  0.439670  1
  Nb  Nb10  1  0.055388  0.445198  0.055380  1
  Nb  Nb11  1  0.055384  0.445206  0.444029  1
  Nb  Nb12  1  0.439672  0.056174  0.064479  1
  Co  Co13  1  0.736111  0.423994  0.419955  1
  Co  Co14  1  0.424108  0.727656  0.424109  1
  Co  Co15  1  0.419954  0.424004  0.736100  1
  Co  Co16  1  0.419952  0.423980  0.419954  1
  Co  Co17  1  0.513889  0.826006  0.830045  1
  Co  Co18  1  0.825892  0.522344  0.825891  1
  Co  Co19  1  0.830046  0.825996  0.513900  1
  Co  Co20  1  0.830048  0.826020  0.830046  1
  Os  Os21  1  0.125000  0.625000  0.625000  1
  Os  Os22  1  0.625000  0.625000  0.125000  1
  Os  Os23  1  0.625000  0.625000  0.625000  1
  N  N24  1  0.625000  0.125000  0.125000  1
  N  N25  1  0.125000  0.625000  0.125000  1
  N  N26  1  0.125000  0.125000  0.625000  1
  N  N27  1  0.125000  0.125000  0.125000  1
