# generated using pymatgen
data_Ac8ErNi6
_symmetry_space_group_name_H-M   'P 1'
_cell_length_a   7.78751345
_cell_length_b   7.78751360
_cell_length_c   7.78751380
_cell_angle_alpha   74.49927497
_cell_angle_beta   74.49926777
_cell_angle_gamma   74.49927759
_symmetry_Int_Tables_number   1
_chemical_formula_structural   Ac8ErNi6
_chemical_formula_sum   'Ac8 Er1 Ni6'
_cell_volume   428.68229392
_cell_formula_units_Z   1
loop_
 _symmetry_equiv_pos_site_id
 _symmetry_equiv_pos_as_xyz
  1  'x, y, z'
loop_
 _atom_site_type_symbol
 _atom_site_label
 _atom_site_symmetry_multiplicity
 _atom_site_fract_x
 _atom_site_fract_y
 _atom_site_fract_z
 _atom_site_occupancy
  Ac  Ac0  1  0.293705  0.293705  0.293705  1
  Ac  Ac1  1  0.706295  0.706295  0.706295  1
  Ac  Ac2  1  0.817416  0.333584  0.128532  1
  Ac  Ac3  1  0.333584  0.128532  0.817416  1
  Ac  Ac4  1  0.128532  0.817416  0.333584  1
  Ac  Ac5  1  0.182584  0.666416  0.871468  1
  Ac  Ac6  1  0.666416  0.871468  0.182584  1
  Ac  Ac7  1  0.871468  0.182584  0.666416  1
  Er  Er8  1  0.500000  0.500000  0.500000  1
  Ni  Ni9  1  0.468017  0.627544  0.102962  1
  Ni  Ni10  1  0.627544  0.102962  0.468017  1
  Ni  Ni11  1  0.102962  0.468017  0.627544  1
  Ni  Ni12  1  0.531983  0.372456  0.897038  1
  Ni  Ni13  1  0.372456  0.897038  0.531983  1
  Ni  Ni14  1  0.897038  0.531983  0.372456  1
