# generated using pymatgen
data_Nd3In3GePdPt
_symmetry_space_group_name_H-M   'P 1'
_cell_length_a   7.66356800
_cell_length_b   7.66356700
_cell_length_c   4.21720600
_cell_angle_alpha   90.00000000
_cell_angle_beta   90.00000000
_cell_angle_gamma   119.99999566
_symmetry_Int_Tables_number   1
_chemical_formula_structural   Nd3In3GePdPt
_chemical_formula_sum   'Nd3 In3 Ge1 Pd1 Pt1'
_cell_volume   214.49513220
_cell_formula_units_Z   1
loop_
 _symmetry_equiv_pos_site_id
 _symmetry_equiv_pos_as_xyz
  1  'x, y, z'
loop_
 _atom_site_type_symbol
 _atom_site_label
 _atom_site_symmetry_multiplicity
 _atom_site_fract_x
 _atom_site_fract_y
 _atom_site_fract_z
 _atom_site_occupancy
  Nd  Nd0  1  0.006343  0.591102  0.500000  1
  Nd  Nd1  1  0.584759  0.993657  0.500000  1
  Nd  Nd2  1  0.408898  0.415241  0.500000  1
  In  In3  1  0.010910  0.254422  0.000000  1
  In  In4  1  0.243512  0.989090  0.000000  1
  In  In5  1  0.745578  0.756488  0.000000  1
  Ge  Ge6  1  0.666667  0.333333  0.000000  1
  Pd  Pd7  1  0.000000  0.000000  0.500000  1
  Pt  Pt8  1  0.333333  0.666667  0.000000  1
