# generated using pymatgen
data_Tb3Tm3Al24Os5Pd3
_symmetry_space_group_name_H-M   'P 1'
_cell_length_a   8.82127643
_cell_length_b   8.83439603
_cell_length_c   9.55832971
_cell_angle_alpha   90.16532571
_cell_angle_beta   89.68943809
_cell_angle_gamma   119.47998058
_symmetry_Int_Tables_number   1
_chemical_formula_structural   Tb3Tm3Al24Os5Pd3
_chemical_formula_sum   'Tb3 Tm3 Al24 Os5 Pd3'
_cell_volume   648.43508213
_cell_formula_units_Z   1
loop_
 _symmetry_equiv_pos_site_id
 _symmetry_equiv_pos_as_xyz
  1  'x, y, z'
loop_
 _atom_site_type_symbol
 _atom_site_label
 _atom_site_symmetry_multiplicity
 _atom_site_fract_x
 _atom_site_fract_y
 _atom_site_fract_z
 _atom_site_occupancy
  Tb  Tb0  1  0.186969  0.381585  0.250663  1
  Tb  Tb1  1  0.812896  0.618952  0.749392  1
  Tb  Tb2  1  0.615679  0.814769  0.252452  1
  Tm  Tm3  1  0.388382  0.185215  0.747175  1
  Tm  Tm4  1  0.196445  0.808326  0.252109  1
  Tm  Tm5  1  0.802626  0.191266  0.747875  1
  Al  Al6  1  0.334658  0.671008  0.029214  1
  Al  Al7  1  0.664769  0.329159  0.969459  1
  Al  Al8  1  0.669102  0.331614  0.528360  1
  Al  Al9  1  0.330596  0.668737  0.472764  1
  Al  Al10  1  0.157146  0.324837  0.576217  1
  Al  Al11  1  0.842972  0.674726  0.424555  1
  Al  Al12  1  0.673472  0.841593  0.576600  1
  Al  Al13  1  0.837313  0.676045  0.078676  1
  Al  Al14  1  0.326157  0.158407  0.424812  1
  Al  Al15  1  0.162924  0.323293  0.920400  1
  Al  Al16  1  0.163914  0.835392  0.576008  1
  Al  Al17  1  0.325383  0.158043  0.075924  1
  Al  Al18  1  0.835905  0.165201  0.424882  1
  Al  Al19  1  0.674396  0.841923  0.922771  1
  Al  Al20  1  0.831254  0.159473  0.077098  1
  Al  Al21  1  0.168675  0.841300  0.921988  1
  Al  Al22  1  0.560444  0.124990  0.249838  1
  Al  Al23  1  0.438734  0.874777  0.750252  1
  Al  Al24  1  0.874279  0.438169  0.252413  1
  Al  Al25  1  0.125322  0.561456  0.747736  1
  Al  Al26  1  0.562282  0.436426  0.249770  1
  Al  Al27  1  0.437135  0.561958  0.750259  1
  Al  Al28  1  0.000328  0.001416  0.250251  1
  Al  Al29  1  0.002861  0.000575  0.749750  1
  Os  Os30  1  0.499676  0.000518  0.999210  1
  Os  Os31  1  0.499608  0.000627  0.500911  1
  Os  Os32  1  0.999801  0.499937  0.500127  1
  Os  Os33  1  0.999684  0.999836  0.999976  1
  Os  Os34  1  0.999641  0.999817  0.500029  1
  Pd  Pd35  1  0.999602  0.499829  0.999975  1
  Pd  Pd36  1  0.499531  0.499454  0.999630  1
  Pd  Pd37  1  0.499432  0.499353  0.500478  1
