# generated using pymatgen
data_Y2Ag2Sn3Bi
_symmetry_space_group_name_H-M   'P 1'
_cell_length_a   4.49033900
_cell_length_b   4.49033900
_cell_length_c   9.89914400
_cell_angle_alpha   90.00000000
_cell_angle_beta   90.00000000
_cell_angle_gamma   90.00000000
_symmetry_Int_Tables_number   1
_chemical_formula_structural   Y2Ag2Sn3Bi
_chemical_formula_sum   'Y2 Ag2 Sn3 Bi1'
_cell_volume   199.59786926
_cell_formula_units_Z   1
loop_
 _symmetry_equiv_pos_site_id
 _symmetry_equiv_pos_as_xyz
  1  'x, y, z'
loop_
 _atom_site_type_symbol
 _atom_site_label
 _atom_site_symmetry_multiplicity
 _atom_site_fract_x
 _atom_site_fract_y
 _atom_site_fract_z
 _atom_site_occupancy
  Y  Y0  1  0.000000  0.500001  0.243387  1
  Y  Y1  1  0.500001  0.000000  0.756613  1
  Ag  Ag2  1  0.000000  0.000000  0.000000  1
  Ag  Ag3  1  0.500001  0.500001  0.000000  1
  Sn  Sn4  1  0.500001  0.000000  0.185610  1
  Sn  Sn5  1  0.000000  0.000000  0.500000  1
  Sn  Sn6  1  0.000000  0.500001  0.814390  1
  Bi  Bi7  1  0.500001  0.500001  0.500000  1
