# generated using pymatgen
data_Ce2PaFeTc2
_symmetry_space_group_name_H-M   'P 1'
_cell_length_a   5.36761848
_cell_length_b   4.97937281
_cell_length_c   5.36761806
_cell_angle_alpha   66.73007169
_cell_angle_beta   67.52007820
_cell_angle_gamma   66.73006661
_symmetry_Int_Tables_number   1
_chemical_formula_structural   Ce2PaFeTc2
_chemical_formula_sum   'Ce2 Pa1 Fe1 Tc2'
_cell_volume   116.63800933
_cell_formula_units_Z   1
loop_
 _symmetry_equiv_pos_site_id
 _symmetry_equiv_pos_as_xyz
  1  'x, y, z'
loop_
 _atom_site_type_symbol
 _atom_site_label
 _atom_site_symmetry_multiplicity
 _atom_site_fract_x
 _atom_site_fract_y
 _atom_site_fract_z
 _atom_site_occupancy
  Ce  Ce0  1  0.744256  0.743724  0.744256  1
  Ce  Ce1  1  0.505744  0.506276  0.505744  1
  Pa  Pa2  1  0.125000  0.125000  0.125000  1
  Fe  Fe3  1  0.125000  0.625000  0.125000  1
  Tc  Tc4  1  0.125000  0.125000  0.625000  1
  Tc  Tc5  1  0.625000  0.125000  0.125000  1
