# generated using pymatgen
data_PrNd3Al18(FePt2)2
_symmetry_space_group_name_H-M   'P 1'
_cell_length_a   7.67029600
_cell_length_b   7.67049773
_cell_length_c   9.58998000
_cell_angle_alpha   90.00000000
_cell_angle_beta   90.00000000
_cell_angle_gamma   119.60181294
_symmetry_Int_Tables_number   1
_chemical_formula_structural   PrNd3Al18(FePt2)2
_chemical_formula_sum   'Pr1 Nd3 Al18 Fe2 Pt4'
_cell_volume   490.58313968
_cell_formula_units_Z   1
loop_
 _symmetry_equiv_pos_site_id
 _symmetry_equiv_pos_as_xyz
  1  'x, y, z'
loop_
 _atom_site_type_symbol
 _atom_site_label
 _atom_site_symmetry_multiplicity
 _atom_site_fract_x
 _atom_site_fract_y
 _atom_site_fract_z
 _atom_site_occupancy
  Pr  Pr0  1  0.993663  0.665245  0.750000  1
  Nd  Nd1  1  0.006295  0.334555  0.250000  1
  Nd  Nd2  1  0.665582  0.993701  0.750000  1
  Nd  Nd3  1  0.334709  0.006324  0.250000  1
  Al  Al4  1  0.118248  0.118567  0.750000  1
  Al  Al5  1  0.882167  0.882379  0.250000  1
  Al  Al6  1  0.000809  0.322191  0.571885  1
  Al  Al7  1  0.999151  0.677314  0.426892  1
  Al  Al8  1  0.999151  0.677314  0.073108  1
  Al  Al9  1  0.323067  0.001213  0.928115  1
  Al  Al10  1  0.000809  0.322191  0.928115  1
  Al  Al11  1  0.677323  0.999310  0.072567  1
  Al  Al12  1  0.677323  0.999310  0.427433  1
  Al  Al13  1  0.323067  0.001213  0.571885  1
  Al  Al14  1  0.324259  0.324292  0.047582  1
  Al  Al15  1  0.675357  0.675694  0.953483  1
  Al  Al16  1  0.675357  0.675694  0.546517  1
  Al  Al17  1  0.324259  0.324292  0.452418  1
  Al  Al18  1  0.341282  0.541877  0.750000  1
  Al  Al19  1  0.659185  0.458088  0.250000  1
  Al  Al20  1  0.541072  0.339828  0.750000  1
  Al  Al21  1  0.458148  0.659373  0.250000  1
  Fe  Fe22  1  0.999969  0.000172  0.499690  1
  Fe  Fe23  1  0.999969  0.000172  0.000310  1
  Pt  Pt24  1  0.671158  0.328473  0.499799  1
  Pt  Pt25  1  0.328733  0.671370  0.499819  1
  Pt  Pt26  1  0.328733  0.671370  0.000181  1
  Pt  Pt27  1  0.671158  0.328473  0.000201  1
