# generated using pymatgen
data_Li4Y2HoSn4
_symmetry_space_group_name_H-M   'P 1'
_cell_length_a   8.62035017
_cell_length_b   8.62034967
_cell_length_c   8.62035064
_cell_angle_alpha   149.08999978
_cell_angle_beta   131.25757223
_cell_angle_gamma   58.84063220
_symmetry_Int_Tables_number   1
_chemical_formula_structural   Li4Y2HoSn4
_chemical_formula_sum   'Li4 Y2 Ho1 Sn4'
_cell_volume   245.42465139
_cell_formula_units_Z   1
loop_
 _symmetry_equiv_pos_site_id
 _symmetry_equiv_pos_as_xyz
  1  'x, y, z'
loop_
 _atom_site_type_symbol
 _atom_site_label
 _atom_site_symmetry_multiplicity
 _atom_site_fract_x
 _atom_site_fract_y
 _atom_site_fract_z
 _atom_site_occupancy
  Li  Li0  1  0.982097  0.673641  0.308456  1
  Li  Li1  1  0.017903  0.326359  0.691544  1
  Li  Li2  1  0.365185  0.673641  0.691544  1
  Li  Li3  1  0.634815  0.326359  0.308456  1
  Y  Y4  1  0.372169  0.872169  0.500000  1
  Y  Y5  1  0.627831  0.127831  0.500000  1
  Ho  Ho6  1  0.000000  0.000000  0.000000  1
  Sn  Sn7  1  0.702357  0.500000  0.202357  1
  Sn  Sn8  1  0.297643  0.500000  0.797643  1
  Sn  Sn9  1  0.213771  0.213771  0.000000  1
  Sn  Sn10  1  0.786229  0.786229  0.000000  1
