# generated using pymatgen
data_TbEuCo9P6Ru
_symmetry_space_group_name_H-M   'P 1'
_cell_length_a   3.68680400
_cell_length_b   10.41227900
_cell_length_c   11.83616000
_cell_angle_alpha   90.00000000
_cell_angle_beta   90.00000000
_cell_angle_gamma   90.00000000
_symmetry_Int_Tables_number   1
_chemical_formula_structural   TbEuCo9P6Ru
_chemical_formula_sum   'Tb2 Eu2 Co18 P12 Ru2'
_cell_volume   454.36688725
_cell_formula_units_Z   2
loop_
 _symmetry_equiv_pos_site_id
 _symmetry_equiv_pos_as_xyz
  1  'x, y, z'
loop_
 _atom_site_type_symbol
 _atom_site_label
 _atom_site_symmetry_multiplicity
 _atom_site_fract_x
 _atom_site_fract_y
 _atom_site_fract_z
 _atom_site_occupancy
  Tb  Tb0  1  0.750000  0.414001  0.295710  1
  Tb  Tb1  1  0.750000  0.085999  0.795710  1
  Eu  Eu2  1  0.250000  0.583531  0.703014  1
  Eu  Eu3  1  0.250000  0.916469  0.203014  1
  Co  Co4  1  0.750000  0.284474  0.009720  1
  Co  Co5  1  0.750000  0.215526  0.509720  1
  Co  Co6  1  0.250000  0.404711  0.487241  1
  Co  Co7  1  0.250000  0.095289  0.987241  1
  Co  Co8  1  0.750000  0.590296  0.507136  1
  Co  Co9  1  0.750000  0.909704  0.007136  1
  Co  Co10  1  0.250000  0.221318  0.175840  1
  Co  Co11  1  0.250000  0.278682  0.675840  1
  Co  Co12  1  0.750000  0.780937  0.824044  1
  Co  Co13  1  0.750000  0.719063  0.324044  1
  Co  Co14  1  0.250000  0.887789  0.701432  1
  Co  Co15  1  0.250000  0.612211  0.201432  1
  Co  Co16  1  0.750000  0.119989  0.302426  1
  Co  Co17  1  0.750000  0.380011  0.802426  1
  Co  Co18  1  0.250000  0.463708  0.933868  1
  Co  Co19  1  0.250000  0.036292  0.433868  1
  Co  Co20  1  0.750000  0.532190  0.068560  1
  Co  Co21  1  0.750000  0.967810  0.568560  1
  P  P22  1  0.250000  0.417527  0.111989  1
  P  P23  1  0.250000  0.082473  0.611989  1
  P  P24  1  0.750000  0.578353  0.887905  1
  P  P25  1  0.750000  0.921647  0.387905  1
  P  P26  1  0.250000  0.271498  0.868736  1
  P  P27  1  0.250000  0.228502  0.368736  1
  P  P28  1  0.750000  0.726382  0.133011  1
  P  P29  1  0.750000  0.773618  0.633011  1
  P  P30  1  0.250000  0.596267  0.390907  1
  P  P31  1  0.250000  0.903733  0.890907  1
  P  P32  1  0.750000  0.395846  0.608088  1
  P  P33  1  0.750000  0.104154  0.108088  1
  Ru  Ru34  1  0.250000  0.713296  0.990375  1
  Ru  Ru35  1  0.250000  0.786704  0.490375  1
