# generated using pymatgen
data_Lu12Re(Si4Rh)3
_symmetry_space_group_name_H-M   'P 1'
_cell_length_a   4.15884000
_cell_length_b   10.53124012
_cell_length_c   12.09100112
_cell_angle_alpha   90.14195903
_cell_angle_beta   90.00000000
_cell_angle_gamma   90.00000000
_symmetry_Int_Tables_number   1
_chemical_formula_structural   Lu12Re(Si4Rh)3
_chemical_formula_sum   'Lu12 Re1 Si12 Rh3'
_cell_volume   529.55693030
_cell_formula_units_Z   1
loop_
 _symmetry_equiv_pos_site_id
 _symmetry_equiv_pos_as_xyz
  1  'x, y, z'
loop_
 _atom_site_type_symbol
 _atom_site_label
 _atom_site_symmetry_multiplicity
 _atom_site_fract_x
 _atom_site_fract_y
 _atom_site_fract_z
 _atom_site_occupancy
  Lu  Lu0  1  0.250000  0.877863  0.020479  1
  Lu  Lu1  1  0.250000  0.620748  0.521174  1
  Lu  Lu2  1  0.750000  0.119360  0.980241  1
  Lu  Lu3  1  0.750000  0.378991  0.480947  1
  Lu  Lu4  1  0.250000  0.921896  0.602004  1
  Lu  Lu5  1  0.250000  0.579244  0.104082  1
  Lu  Lu6  1  0.750000  0.078534  0.395979  1
  Lu  Lu7  1  0.750000  0.421085  0.895574  1
  Lu  Lu8  1  0.250000  0.665603  0.798856  1
  Lu  Lu9  1  0.250000  0.839252  0.299817  1
  Lu  Lu10  1  0.750000  0.338944  0.199390  1
  Lu  Lu11  1  0.750000  0.159290  0.700541  1
  Re  Re12  1  0.250000  0.392936  0.679606  1
  Si  Si13  1  0.250000  0.013567  0.822673  1
  Si  Si14  1  0.250000  0.484842  0.322191  1
  Si  Si15  1  0.750000  0.984685  0.177927  1
  Si  Si16  1  0.750000  0.515012  0.679432  1
  Si  Si17  1  0.250000  0.248565  0.842097  1
  Si  Si18  1  0.250000  0.250373  0.342031  1
  Si  Si19  1  0.750000  0.750506  0.158330  1
  Si  Si20  1  0.750000  0.752148  0.656838  1
  Si  Si21  1  0.250000  0.199216  0.544190  1
  Si  Si22  1  0.250000  0.301127  0.042862  1
  Si  Si23  1  0.750000  0.802454  0.456192  1
  Si  Si24  1  0.750000  0.695959  0.956822  1
  Rh  Rh25  1  0.250000  0.108003  0.179769  1
  Rh  Rh26  1  0.750000  0.609121  0.319827  1
  Rh  Rh27  1  0.750000  0.890677  0.820127  1
