# generated using pymatgen
data_CeNd2Zn3Ir2Pd
_symmetry_space_group_name_H-M   'P 1'
_cell_length_a   7.43916000
_cell_length_b   7.30855276
_cell_length_c   3.93265400
_cell_angle_alpha   90.00000000
_cell_angle_beta   90.00000000
_cell_angle_gamma   120.59292300
_symmetry_Int_Tables_number   1
_chemical_formula_structural   CeNd2Zn3Ir2Pd
_chemical_formula_sum   'Ce1 Nd2 Zn3 Ir2 Pd1'
_cell_volume   184.05420874
_cell_formula_units_Z   1
loop_
 _symmetry_equiv_pos_site_id
 _symmetry_equiv_pos_as_xyz
  1  'x, y, z'
loop_
 _atom_site_type_symbol
 _atom_site_label
 _atom_site_symmetry_multiplicity
 _atom_site_fract_x
 _atom_site_fract_y
 _atom_site_fract_z
 _atom_site_occupancy
  Ce  Ce0  1  0.422094  0.000000  0.000000  1
  Nd  Nd1  1  0.998999  0.411802  0.000000  1
  Nd  Nd2  1  0.587197  0.588198  0.000000  1
  Zn  Zn3  1  0.001803  0.752451  0.500000  1
  Zn  Zn4  1  0.249352  0.247549  0.500000  1
  Zn  Zn5  1  0.757987  0.000000  0.500000  1
  Ir  Ir6  1  0.644774  0.310776  0.500000  1
  Ir  Ir7  1  0.333997  0.689224  0.500000  1
  Pd  Pd8  1  0.003798  0.000000  0.000000  1
