# generated using pymatgen
data_Ca2Th(Si3Pd10)2
_symmetry_space_group_name_H-M   'P 1'
_cell_length_a   8.74639143
_cell_length_b   8.74639108
_cell_length_c   8.74639000
_cell_angle_alpha   59.99999653
_cell_angle_beta   59.99999783
_cell_angle_gamma   59.99999507
_symmetry_Int_Tables_number   1
_chemical_formula_structural   Ca2Th(Si3Pd10)2
_chemical_formula_sum   'Ca2 Th1 Si6 Pd20'
_cell_volume   473.12032734
_cell_formula_units_Z   1
loop_
 _symmetry_equiv_pos_site_id
 _symmetry_equiv_pos_as_xyz
  1  'x, y, z'
loop_
 _atom_site_type_symbol
 _atom_site_label
 _atom_site_symmetry_multiplicity
 _atom_site_fract_x
 _atom_site_fract_y
 _atom_site_fract_z
 _atom_site_occupancy
  Ca  Ca0  1  0.750000  0.750000  0.750000  1
  Ca  Ca1  1  0.000000  0.000000  0.000000  1
  Th  Th2  1  0.250000  0.250000  0.250000  1
  Si  Si3  1  0.733719  0.266281  0.266281  1
  Si  Si4  1  0.266281  0.733719  0.733719  1
  Si  Si5  1  0.266281  0.733719  0.266281  1
  Si  Si6  1  0.733719  0.266281  0.733719  1
  Si  Si7  1  0.266281  0.266281  0.733719  1
  Si  Si8  1  0.733719  0.733719  0.266281  1
  Pd  Pd9  1  0.384195  0.384195  0.384195  1
  Pd  Pd10  1  0.615161  0.615161  0.615161  1
  Pd  Pd11  1  0.384195  0.384195  0.847415  1
  Pd  Pd12  1  0.384195  0.847415  0.384195  1
  Pd  Pd13  1  0.615161  0.615161  0.154515  1
  Pd  Pd14  1  0.615161  0.154515  0.615161  1
  Pd  Pd15  1  0.847415  0.384195  0.384195  1
  Pd  Pd16  1  0.154515  0.615161  0.615161  1
  Pd  Pd17  1  0.343857  0.002395  0.002395  1
  Pd  Pd18  1  0.651352  0.002395  0.002395  1
  Pd  Pd19  1  0.002395  0.343857  0.651352  1
  Pd  Pd20  1  0.002395  0.651352  0.343857  1
  Pd  Pd21  1  0.002395  0.343857  0.002395  1
  Pd  Pd22  1  0.651352  0.002395  0.343857  1
  Pd  Pd23  1  0.002395  0.651352  0.002395  1
  Pd  Pd24  1  0.343857  0.002395  0.651352  1
  Pd  Pd25  1  0.002395  0.002395  0.343857  1
  Pd  Pd26  1  0.002395  0.002395  0.651352  1
  Pd  Pd27  1  0.651352  0.343857  0.002395  1
  Pd  Pd28  1  0.343857  0.651352  0.002395  1
