# generated using pymatgen
data_Er5Mn3(P3Rh4)4
_symmetry_space_group_name_H-M   'P 1'
_cell_length_a   12.59746800
_cell_length_b   12.59746823
_cell_length_c   3.85704700
_cell_angle_alpha   90.00000000
_cell_angle_beta   90.00000000
_cell_angle_gamma   120.00000465
_symmetry_Int_Tables_number   1
_chemical_formula_structural   Er5Mn3(P3Rh4)4
_chemical_formula_sum   'Er5 Mn3 P12 Rh16'
_cell_volume   530.09301057
_cell_formula_units_Z   1
loop_
 _symmetry_equiv_pos_site_id
 _symmetry_equiv_pos_as_xyz
  1  'x, y, z'
loop_
 _atom_site_type_symbol
 _atom_site_label
 _atom_site_symmetry_multiplicity
 _atom_site_fract_x
 _atom_site_fract_y
 _atom_site_fract_z
 _atom_site_occupancy
  Er  Er0  1  0.666667  0.333333  0.000000  1
  Er  Er1  1  0.333333  0.666667  0.000000  1
  Er  Er2  1  0.817294  0.817294  0.500000  1
  Er  Er3  1  0.182706  0.000000  0.500000  1
  Er  Er4  1  0.000000  0.182706  0.500000  1
  Mn  Mn5  1  0.284971  0.284971  0.500000  1
  Mn  Mn6  1  0.715029  0.000000  0.500000  1
  Mn  Mn7  1  0.000000  0.715029  0.500000  1
  P  P8  1  0.685495  0.161279  0.500000  1
  P  P9  1  0.838721  0.524216  0.500000  1
  P  P10  1  0.475784  0.314505  0.500000  1
  P  P11  1  0.161279  0.685495  0.500000  1
  P  P12  1  0.524216  0.838721  0.500000  1
  P  P13  1  0.314505  0.475784  0.500000  1
  P  P14  1  0.635661  0.635661  0.000000  1
  P  P15  1  0.364339  0.000000  0.000000  1
  P  P16  1  0.000000  0.364339  0.000000  1
  P  P17  1  0.182507  0.182507  0.000000  1
  P  P18  1  0.817493  0.000000  0.000000  1
  P  P19  1  0.000000  0.817493  0.000000  1
  Rh  Rh20  1  0.806001  0.179759  0.000000  1
  Rh  Rh21  1  0.820241  0.626243  0.000000  1
  Rh  Rh22  1  0.373757  0.193999  0.000000  1
  Rh  Rh23  1  0.179759  0.806001  0.000000  1
  Rh  Rh24  1  0.626243  0.820241  0.000000  1
  Rh  Rh25  1  0.193999  0.373757  0.000000  1
  Rh  Rh26  1  0.449159  0.449159  0.000000  1
  Rh  Rh27  1  0.550841  0.000000  0.000000  1
  Rh  Rh28  1  0.000000  0.550841  0.000000  1
  Rh  Rh29  1  0.868970  0.358643  0.500000  1
  Rh  Rh30  1  0.641357  0.510329  0.500000  1
  Rh  Rh31  1  0.489671  0.131030  0.500000  1
  Rh  Rh32  1  0.358643  0.868970  0.500000  1
  Rh  Rh33  1  0.510329  0.641357  0.500000  1
  Rh  Rh34  1  0.131030  0.489671  0.500000  1
  Rh  Rh35  1  0.000000  0.000000  0.000000  1
