# generated using pymatgen
data_Cs12Rb6Ga2BiSb7
_symmetry_space_group_name_H-M   'P 1'
_cell_length_a   11.35307261
_cell_length_b   11.36452145
_cell_length_c   11.92784600
_cell_angle_alpha   90.00000000
_cell_angle_beta   90.00000000
_cell_angle_gamma   120.03331433
_symmetry_Int_Tables_number   1
_chemical_formula_structural   Cs12Rb6Ga2BiSb7
_chemical_formula_sum   'Cs12 Rb6 Ga2 Bi1 Sb7'
_cell_volume   1332.32854761
_cell_formula_units_Z   1
loop_
 _symmetry_equiv_pos_site_id
 _symmetry_equiv_pos_as_xyz
  1  'x, y, z'
loop_
 _atom_site_type_symbol
 _atom_site_label
 _atom_site_symmetry_multiplicity
 _atom_site_fract_x
 _atom_site_fract_y
 _atom_site_fract_z
 _atom_site_occupancy
  Cs  Cs0  1  0.417507  0.208750  0.040222  1
  Cs  Cs1  1  0.790140  0.206992  0.039097  1
  Cs  Cs2  1  0.790141  0.583147  0.039097  1
  Cs  Cs3  1  0.790141  0.583147  0.460903  1
  Cs  Cs4  1  0.417507  0.208750  0.459778  1
  Cs  Cs5  1  0.790140  0.206992  0.460903  1
  Cs  Cs6  1  0.208550  0.791727  0.541087  1
  Cs  Cs7  1  0.582808  0.791407  0.540729  1
  Cs  Cs8  1  0.208547  0.416823  0.541089  1
  Cs  Cs9  1  0.208547  0.416823  0.958912  1
  Cs  Cs10  1  0.208550  0.791727  0.958913  1
  Cs  Cs11  1  0.582808  0.791407  0.959271  1
  Rb  Rb12  1  0.119806  0.236779  0.250000  1
  Rb  Rb13  1  0.119802  0.883021  0.250000  1
  Rb  Rb14  1  0.762339  0.881170  0.250000  1
  Rb  Rb15  1  0.238186  0.119099  0.750000  1
  Rb  Rb16  1  0.880948  0.119065  0.750000  1
  Rb  Rb17  1  0.880947  0.761889  0.750000  1
  Ga  Ga18  1  0.338120  0.669044  0.250000  1
  Ga  Ga19  1  0.666773  0.333397  0.750000  1
  Bi  Bi20  1  0.052068  0.526029  0.250000  1
  Sb  Sb21  1  0.000105  0.000053  0.999733  1
  Sb  Sb22  1  0.472829  0.528566  0.250000  1
  Sb  Sb23  1  0.472820  0.944246  0.250000  1
  Sb  Sb24  1  0.000105  0.000053  0.500267  1
  Sb  Sb25  1  0.528586  0.057346  0.750000  1
  Sb  Sb26  1  0.528582  0.471249  0.750000  1
  Sb  Sb27  1  0.942601  0.471303  0.750000  1
