# generated using pymatgen
data_Tb5Y11MgCo4Ag3
_symmetry_space_group_name_H-M   'P 1'
_cell_length_a   9.43143570
_cell_length_b   9.48429188
_cell_length_c   9.48457158
_cell_angle_alpha   60.21978124
_cell_angle_beta   60.21433772
_cell_angle_gamma   60.21724250
_symmetry_Int_Tables_number   1
_chemical_formula_structural   Tb5Y11MgCo4Ag3
_chemical_formula_sum   'Tb5 Y11 Mg1 Co4 Ag3'
_cell_volume   602.85816561
_cell_formula_units_Z   1
loop_
 _symmetry_equiv_pos_site_id
 _symmetry_equiv_pos_as_xyz
  1  'x, y, z'
loop_
 _atom_site_type_symbol
 _atom_site_label
 _atom_site_symmetry_multiplicity
 _atom_site_fract_x
 _atom_site_fract_y
 _atom_site_fract_z
 _atom_site_occupancy
  Tb  Tb0  1  0.345475  0.345317  0.345269  1
  Tb  Tb1  1  0.347164  0.344494  0.963611  1
  Tb  Tb2  1  0.347129  0.963691  0.344462  1
  Tb  Tb3  1  0.947260  0.351465  0.351461  1
  Tb  Tb4  1  0.809215  0.188795  0.188782  1
  Y  Y5  1  0.184609  0.813503  0.813534  1
  Y  Y6  1  0.185938  0.812905  0.185940  1
  Y  Y7  1  0.808901  0.188559  0.810865  1
  Y  Y8  1  0.185987  0.185963  0.812888  1
  Y  Y9  1  0.808897  0.810873  0.188533  1
  Y  Y10  1  0.935714  0.562225  0.562284  1
  Y  Y11  1  0.564707  0.936456  0.936508  1
  Y  Y12  1  0.561989  0.938082  0.562726  1
  Y  Y13  1  0.937242  0.561756  0.938318  1
  Y  Y14  1  0.561986  0.562692  0.938091  1
  Y  Y15  1  0.937267  0.938293  0.561804  1
  Mg  Mg16  1  0.291872  0.569455  0.569387  1
  Co  Co17  1  0.135787  0.143786  0.143763  1
  Co  Co18  1  0.140130  0.144183  0.574005  1
  Co  Co19  1  0.140150  0.573945  0.144172  1
  Co  Co20  1  0.576096  0.143294  0.143304  1
  Ag  Ag21  1  0.582339  0.583871  0.583875  1
  Ag  Ag22  1  0.582070  0.584111  0.252309  1
  Ag  Ag23  1  0.582075  0.252284  0.584110  1
