# generated using pymatgen
data_ErCo2(AsRu)3
_symmetry_space_group_name_H-M   'P 1'
_cell_length_a   3.89221400
_cell_length_b   11.05750500
_cell_length_c   12.51172700
_cell_angle_alpha   90.00000000
_cell_angle_beta   90.00000000
_cell_angle_gamma   90.00000000
_symmetry_Int_Tables_number   1
_chemical_formula_structural   ErCo2(AsRu)3
_chemical_formula_sum   'Er4 Co8 As12 Ru12'
_cell_volume   538.48190576
_cell_formula_units_Z   4
loop_
 _symmetry_equiv_pos_site_id
 _symmetry_equiv_pos_as_xyz
  1  'x, y, z'
loop_
 _atom_site_type_symbol
 _atom_site_label
 _atom_site_symmetry_multiplicity
 _atom_site_fract_x
 _atom_site_fract_y
 _atom_site_fract_z
 _atom_site_occupancy
  Er  Er0  1  0.250000  0.585325  0.704211  1
  Er  Er1  1  0.250000  0.914675  0.204211  1
  Er  Er2  1  0.750000  0.414675  0.295789  1
  Er  Er3  1  0.750000  0.085325  0.795789  1
  Co  Co4  1  0.250000  0.886644  0.694629  1
  Co  Co5  1  0.250000  0.613356  0.194629  1
  Co  Co6  1  0.750000  0.113356  0.305371  1
  Co  Co7  1  0.750000  0.386644  0.805371  1
  Co  Co8  1  0.250000  0.465320  0.934366  1
  Co  Co9  1  0.250000  0.034680  0.434366  1
  Co  Co10  1  0.750000  0.534680  0.065634  1
  Co  Co11  1  0.750000  0.965320  0.565634  1
  As  As12  1  0.250000  0.424030  0.114600  1
  As  As13  1  0.250000  0.075970  0.614600  1
  As  As14  1  0.750000  0.575970  0.885400  1
  As  As15  1  0.750000  0.924030  0.385400  1
  As  As16  1  0.250000  0.271311  0.872586  1
  As  As17  1  0.250000  0.228689  0.372586  1
  As  As18  1  0.750000  0.728689  0.127414  1
  As  As19  1  0.750000  0.771311  0.627414  1
  As  As20  1  0.250000  0.598838  0.384490  1
  As  As21  1  0.250000  0.901162  0.884490  1
  As  As22  1  0.750000  0.401162  0.615510  1
  As  As23  1  0.750000  0.098838  0.115510  1
  Ru  Ru24  1  0.250000  0.705413  0.985966  1
  Ru  Ru25  1  0.250000  0.794587  0.485966  1
  Ru  Ru26  1  0.750000  0.294587  0.014034  1
  Ru  Ru27  1  0.750000  0.205413  0.514034  1
  Ru  Ru28  1  0.250000  0.406382  0.486084  1
  Ru  Ru29  1  0.250000  0.093618  0.986084  1
  Ru  Ru30  1  0.750000  0.593618  0.513916  1
  Ru  Ru31  1  0.750000  0.906382  0.013916  1
  Ru  Ru32  1  0.250000  0.221363  0.180025  1
  Ru  Ru33  1  0.250000  0.278637  0.680025  1
  Ru  Ru34  1  0.750000  0.778637  0.819975  1
  Ru  Ru35  1  0.750000  0.721363  0.319975  1
