# generated using pymatgen
data_YLuWO6
_symmetry_space_group_name_H-M   'P 1'
_cell_length_a   5.37670100
_cell_length_b   7.65624869
_cell_length_c   11.34135571
_cell_angle_alpha   75.64489480
_cell_angle_beta   90.00000000
_cell_angle_gamma   90.00000000
_symmetry_Int_Tables_number   1
_chemical_formula_structural   YLuWO6
_chemical_formula_sum   'Y4 Lu4 W4 O24'
_cell_volume   452.29421761
_cell_formula_units_Z   4
loop_
 _symmetry_equiv_pos_site_id
 _symmetry_equiv_pos_as_xyz
  1  'x, y, z'
loop_
 _atom_site_type_symbol
 _atom_site_label
 _atom_site_symmetry_multiplicity
 _atom_site_fract_x
 _atom_site_fract_y
 _atom_site_fract_z
 _atom_site_occupancy
  Y  Y0  1  0.257298  0.000000  0.750000  1
  Y  Y1  1  0.742702  0.000000  0.250000  1
  Y  Y2  1  0.315701  0.500000  0.750000  1
  Y  Y3  1  0.684299  0.500000  0.250000  1
  Lu  Lu4  1  0.182868  0.793659  0.079061  1
  Lu  Lu5  1  0.182868  0.206341  0.420939  1
  Lu  Lu6  1  0.817132  0.206341  0.920939  1
  Lu  Lu7  1  0.817132  0.793659  0.579061  1
  W  W8  1  0.743785  0.723883  0.886214  1
  W  W9  1  0.256215  0.723883  0.386214  1
  W  W10  1  0.743785  0.276117  0.613786  1
  W  W11  1  0.256215  0.276117  0.113786  1
  O  O12  1  0.539573  0.157556  0.066617  1
  O  O13  1  0.048456  0.058206  0.102239  1
  O  O14  1  0.017974  0.712669  0.770122  1
  O  O15  1  0.460427  0.157556  0.566617  1
  O  O16  1  0.356957  0.487761  0.386882  1
  O  O17  1  0.951544  0.058206  0.602239  1
  O  O18  1  0.545815  0.791904  0.725304  1
  O  O19  1  0.454185  0.791904  0.225304  1
  O  O20  1  0.145096  0.635566  0.549632  1
  O  O21  1  0.048456  0.941794  0.397761  1
  O  O22  1  0.460427  0.842444  0.933383  1
  O  O23  1  0.454185  0.208096  0.274696  1
  O  O24  1  0.854904  0.364434  0.450368  1
  O  O25  1  0.643043  0.487761  0.886882  1
  O  O26  1  0.356957  0.512239  0.113118  1
  O  O27  1  0.951544  0.941794  0.897761  1
  O  O28  1  0.539573  0.842444  0.433383  1
  O  O29  1  0.982026  0.287331  0.229878  1
  O  O30  1  0.545815  0.208096  0.774696  1
  O  O31  1  0.854904  0.635566  0.049632  1
  O  O32  1  0.017974  0.287331  0.729878  1
  O  O33  1  0.145096  0.364434  0.950368  1
  O  O34  1  0.982026  0.712669  0.270122  1
  O  O35  1  0.643043  0.512239  0.613118  1
