# generated using pymatgen
data_ZrTi2AlFe8
_symmetry_space_group_name_H-M   'P 1'
_cell_length_a   8.34168351
_cell_length_b   8.34168329
_cell_length_c   8.34168318
_cell_angle_alpha   33.56271126
_cell_angle_beta   33.56271367
_cell_angle_gamma   33.56270692
_symmetry_Int_Tables_number   1
_chemical_formula_structural   ZrTi2AlFe8
_chemical_formula_sum   'Zr1 Ti2 Al1 Fe8'
_cell_volume   158.02343175
_cell_formula_units_Z   1
loop_
 _symmetry_equiv_pos_site_id
 _symmetry_equiv_pos_as_xyz
  1  'x, y, z'
loop_
 _atom_site_type_symbol
 _atom_site_label
 _atom_site_symmetry_multiplicity
 _atom_site_fract_x
 _atom_site_fract_y
 _atom_site_fract_z
 _atom_site_occupancy
  Zr  Zr0  1  0.499007  0.499007  0.499007  1
  Ti  Ti1  1  0.626733  0.626733  0.626733  1
  Ti  Ti2  1  0.001259  0.001259  0.001259  1
  Al  Al3  1  0.122326  0.122326  0.122326  1
  Fe  Fe4  1  0.562214  0.059393  0.562214  1
  Fe  Fe5  1  0.064368  0.563155  0.064368  1
  Fe  Fe6  1  0.059393  0.562214  0.562214  1
  Fe  Fe7  1  0.563155  0.064368  0.064368  1
  Fe  Fe8  1  0.812294  0.812294  0.812294  1
  Fe  Fe9  1  0.312669  0.312669  0.312669  1
  Fe  Fe10  1  0.562214  0.562214  0.059393  1
  Fe  Fe11  1  0.064368  0.064368  0.563155  1
