# generated using pymatgen
data_Dy2Er2Ga18NiIr5
_symmetry_space_group_name_H-M   'P 1'
_cell_length_a   7.56323078
_cell_length_b   7.56432942
_cell_length_c   9.44201326
_cell_angle_alpha   90.19204319
_cell_angle_beta   90.19857719
_cell_angle_gamma   119.96222714
_symmetry_Int_Tables_number   1
_chemical_formula_structural   Dy2Er2Ga18NiIr5
_chemical_formula_sum   'Dy2 Er2 Ga18 Ni1 Ir5'
_cell_volume   467.98088952
_cell_formula_units_Z   1
loop_
 _symmetry_equiv_pos_site_id
 _symmetry_equiv_pos_as_xyz
  1  'x, y, z'
loop_
 _atom_site_type_symbol
 _atom_site_label
 _atom_site_symmetry_multiplicity
 _atom_site_fract_x
 _atom_site_fract_y
 _atom_site_fract_z
 _atom_site_occupancy
  Dy  Dy0  1  0.996799  0.667277  0.750161  1
  Dy  Dy1  1  0.003201  0.332723  0.249839  1
  Er  Er2  1  0.667283  0.996850  0.750213  1
  Er  Er3  1  0.332717  0.003150  0.249787  1
  Ga  Ga4  1  0.122238  0.122355  0.745228  1
  Ga  Ga5  1  0.877762  0.877645  0.254772  1
  Ga  Ga6  1  0.998845  0.329832  0.580146  1
  Ga  Ga7  1  0.001155  0.670168  0.419854  1
  Ga  Ga8  1  0.001165  0.666789  0.080827  1
  Ga  Ga9  1  0.333771  0.999089  0.919385  1
  Ga  Ga10  1  0.998835  0.333211  0.919173  1
  Ga  Ga11  1  0.666229  0.000911  0.080615  1
  Ga  Ga12  1  0.669651  0.000896  0.420036  1
  Ga  Ga13  1  0.330349  0.999104  0.579964  1
  Ga  Ga14  1  0.332444  0.332166  0.065243  1
  Ga  Ga15  1  0.667556  0.667834  0.934757  1
  Ga  Ga16  1  0.672299  0.672572  0.564948  1
  Ga  Ga17  1  0.327701  0.327428  0.435052  1
  Ga  Ga18  1  0.338848  0.546012  0.749466  1
  Ga  Ga19  1  0.661152  0.453988  0.250534  1
  Ga  Ga20  1  0.545795  0.338520  0.749449  1
  Ga  Ga21  1  0.454205  0.661480  0.250551  1
  Ni  Ni22  1  0.000000  0.000000  0.500000  1
  Ir  Ir23  1  0.671779  0.327947  0.499982  1
  Ir  Ir24  1  0.328221  0.672053  0.500018  1
  Ir  Ir25  1  0.328291  0.671775  0.000002  1
  Ir  Ir26  1  0.671709  0.328225  0.999998  1
  Ir  Ir27  1  0.000000  0.000000  0.000000  1
