# generated using pymatgen
data_Tb3Ce2Gd5(Al2Ru3)2
_symmetry_space_group_name_H-M   'P 1'
_cell_length_a   8.52486648
_cell_length_b   8.43576709
_cell_length_c   8.40406601
_cell_angle_alpha   110.04222304
_cell_angle_beta   109.28993080
_cell_angle_gamma   110.41703618
_symmetry_Int_Tables_number   1
_chemical_formula_structural   Tb3Ce2Gd5(Al2Ru3)2
_chemical_formula_sum   'Tb3 Ce2 Gd5 Al4 Ru6'
_cell_volume   457.37985226
_cell_formula_units_Z   1
loop_
 _symmetry_equiv_pos_site_id
 _symmetry_equiv_pos_as_xyz
  1  'x, y, z'
loop_
 _atom_site_type_symbol
 _atom_site_label
 _atom_site_symmetry_multiplicity
 _atom_site_fract_x
 _atom_site_fract_y
 _atom_site_fract_z
 _atom_site_occupancy
  Tb  Tb0  1  0.781542  0.785690  0.779648  1
  Tb  Tb1  1  0.316427  0.565098  0.753732  1
  Tb  Tb2  1  0.751746  0.316620  0.567500  1
  Ce  Ce3  1  0.944421  0.250695  0.195728  1
  Ce  Ce4  1  0.196940  0.942094  0.250839  1
  Gd  Gd5  1  0.564524  0.748594  0.311076  1
  Gd  Gd6  1  0.721671  0.503799  0.998644  1
  Gd  Gd7  1  0.998957  0.718696  0.506296  1
  Gd  Gd8  1  0.502654  0.992726  0.716160  1
  Gd  Gd9  1  0.253376  0.190389  0.934937  1
  Al  Al10  1  0.413939  0.409634  0.408661  1
  Al  Al11  1  0.091573  0.492292  0.997501  1
  Al  Al12  1  0.999019  0.092308  0.501377  1
  Al  Al13  1  0.502867  0.010450  0.095265  1
  Ru  Ru14  1  0.870524  0.117381  0.740825  1
  Ru  Ru15  1  0.754389  0.905191  0.122687  1
  Ru  Ru16  1  0.127818  0.762801  0.910765  1
  Ru  Ru17  1  0.223988  0.590508  0.363181  1
  Ru  Ru18  1  0.357662  0.220699  0.592930  1
  Ru  Ru19  1  0.625963  0.384333  0.252245  1
