# generated using pymatgen
data_DyYNiPt
_symmetry_space_group_name_H-M   'P 1'
_cell_length_a   4.36135500
_cell_length_b   5.54899700
_cell_length_c   7.15531500
_cell_angle_alpha   90.00000000
_cell_angle_beta   90.00000000
_cell_angle_gamma   90.00000000
_symmetry_Int_Tables_number   1
_chemical_formula_structural   DyYNiPt
_chemical_formula_sum   'Dy2 Y2 Ni2 Pt2'
_cell_volume   173.16682164
_cell_formula_units_Z   2
loop_
 _symmetry_equiv_pos_site_id
 _symmetry_equiv_pos_as_xyz
  1  'x, y, z'
loop_
 _atom_site_type_symbol
 _atom_site_label
 _atom_site_symmetry_multiplicity
 _atom_site_fract_x
 _atom_site_fract_y
 _atom_site_fract_z
 _atom_site_occupancy
  Dy  Dy0  1  0.000000  0.117089  0.680242  1
  Dy  Dy1  1  0.000000  0.882911  0.180242  1
  Y  Y2  1  0.500000  0.385688  0.318474  1
  Y  Y3  1  0.500000  0.614312  0.818474  1
  Ni  Ni4  1  0.000000  0.612686  0.540683  1
  Ni  Ni5  1  0.000000  0.387314  0.040683  1
  Pt  Pt6  1  0.500000  0.885339  0.460602  1
  Pt  Pt7  1  0.500000  0.114661  0.960602  1
