# generated using pymatgen
data_Tb3MgPaInIr3
_symmetry_space_group_name_H-M   'P 1'
_cell_length_a   7.52789560
_cell_length_b   7.42608367
_cell_length_c   4.12487400
_cell_angle_alpha   90.00000000
_cell_angle_beta   90.00000000
_cell_angle_gamma   119.26341149
_symmetry_Int_Tables_number   1
_chemical_formula_structural   Tb3MgPaInIr3
_chemical_formula_sum   'Tb3 Mg1 Pa1 In1 Ir3'
_cell_volume   201.16416294
_cell_formula_units_Z   1
loop_
 _symmetry_equiv_pos_site_id
 _symmetry_equiv_pos_as_xyz
  1  'x, y, z'
loop_
 _atom_site_type_symbol
 _atom_site_label
 _atom_site_symmetry_multiplicity
 _atom_site_fract_x
 _atom_site_fract_y
 _atom_site_fract_z
 _atom_site_occupancy
  Tb  Tb0  1  0.437702  0.406469  0.000000  1
  Tb  Tb1  1  0.564500  0.972036  0.000000  1
  Tb  Tb2  1  0.999318  0.623275  0.000000  1
  Mg  Mg3  1  0.748469  0.750007  0.500000  1
  Pa  Pa4  1  0.004531  0.267589  0.500000  1
  In  In5  1  0.252838  0.000451  0.500000  1
  Ir  Ir6  1  0.986940  0.013062  0.000000  1
  Ir  Ir7  1  0.320329  0.641042  0.500000  1
  Ir  Ir8  1  0.685375  0.326067  0.500000  1
