# generated using pymatgen
data_Dy3Sn3GeRuRh
_symmetry_space_group_name_H-M   'P 1'
_cell_length_a   7.40116700
_cell_length_b   7.40116706
_cell_length_c   4.15674400
_cell_angle_alpha   90.00000000
_cell_angle_beta   90.00000000
_cell_angle_gamma   119.99999525
_symmetry_Int_Tables_number   1
_chemical_formula_structural   Dy3Sn3GeRuRh
_chemical_formula_sum   'Dy3 Sn3 Ge1 Ru1 Rh1'
_cell_volume   197.18975263
_cell_formula_units_Z   1
loop_
 _symmetry_equiv_pos_site_id
 _symmetry_equiv_pos_as_xyz
  1  'x, y, z'
loop_
 _atom_site_type_symbol
 _atom_site_label
 _atom_site_symmetry_multiplicity
 _atom_site_fract_x
 _atom_site_fract_y
 _atom_site_fract_z
 _atom_site_occupancy
  Dy  Dy0  1  0.403695  0.410971  0.500000  1
  Dy  Dy1  1  0.589029  0.992723  0.500000  1
  Dy  Dy2  1  0.007277  0.596305  0.500000  1
  Sn  Sn3  1  0.743810  0.757837  0.000000  1
  Sn  Sn4  1  0.242163  0.985973  0.000000  1
  Sn  Sn5  1  0.014027  0.256190  0.000000  1
  Ge  Ge6  1  0.666667  0.333333  0.000000  1
  Ru  Ru7  1  0.000000  0.000000  0.500000  1
  Rh  Rh8  1  0.333333  0.666667  0.000000  1
