# generated using pymatgen
data_Th10SnBi5P2
_symmetry_space_group_name_H-M   'P 1'
_cell_length_a   9.54121029
_cell_length_b   9.55266016
_cell_length_c   6.70544200
_cell_angle_alpha   90.00000000
_cell_angle_beta   90.00000000
_cell_angle_gamma   120.03969813
_symmetry_Int_Tables_number   1
_chemical_formula_structural   Th10SnBi5P2
_chemical_formula_sum   'Th10 Sn1 Bi5 P2'
_cell_volume   529.06857965
_cell_formula_units_Z   1
loop_
 _symmetry_equiv_pos_site_id
 _symmetry_equiv_pos_as_xyz
  1  'x, y, z'
loop_
 _atom_site_type_symbol
 _atom_site_label
 _atom_site_symmetry_multiplicity
 _atom_site_fract_x
 _atom_site_fract_y
 _atom_site_fract_z
 _atom_site_occupancy
  Th  Th0  1  0.669565  0.334037  0.001818  1
  Th  Th1  1  0.330435  0.664473  0.001818  1
  Th  Th2  1  0.330435  0.664473  0.498182  1
  Th  Th3  1  0.669565  0.334037  0.498182  1
  Th  Th4  1  0.754622  0.754781  0.750000  1
  Th  Th5  1  0.245378  0.000159  0.750000  1
  Th  Th6  1  0.000000  0.247421  0.750000  1
  Th  Th7  1  0.243069  0.246381  0.250000  1
  Th  Th8  1  0.756931  0.003312  0.250000  1
  Th  Th9  1  0.000000  0.751676  0.250000  1
  Sn  Sn10  1  0.000000  0.393423  0.250000  1
  Bi  Bi11  1  0.394448  0.394314  0.750000  1
  Bi  Bi12  1  0.605552  0.999866  0.750000  1
  Bi  Bi13  1  0.000000  0.605862  0.750000  1
  Bi  Bi14  1  0.606055  0.606569  0.250000  1
  Bi  Bi15  1  0.393945  0.000514  0.250000  1
  P  P16  1  0.000000  0.999351  0.999888  1
  P  P17  1  0.000000  0.999351  0.500112  1
