# generated using pymatgen
data_Er8ReOsI8
_symmetry_space_group_name_H-M   'P 1'
_cell_length_a   11.04492032
_cell_length_b   11.04492333
_cell_length_c   6.14999203
_cell_angle_alpha   89.50562608
_cell_angle_beta   89.50562390
_cell_angle_gamma   88.89014403
_symmetry_Int_Tables_number   1
_chemical_formula_structural   Er8ReOsI8
_chemical_formula_sum   'Er8 Re1 Os1 I8'
_cell_volume   750.04382802
_cell_formula_units_Z   1
loop_
 _symmetry_equiv_pos_site_id
 _symmetry_equiv_pos_as_xyz
  1  'x, y, z'
loop_
 _atom_site_type_symbol
 _atom_site_label
 _atom_site_symmetry_multiplicity
 _atom_site_fract_x
 _atom_site_fract_y
 _atom_site_fract_z
 _atom_site_occupancy
  Er  Er0  1  0.201966  0.915893  0.998347  1
  Er  Er1  1  0.798077  0.084069  0.002841  1
  Er  Er2  1  0.084107  0.798034  0.501653  1
  Er  Er3  1  0.915931  0.201923  0.497159  1
  Er  Er4  1  0.799717  0.919931  0.504782  1
  Er  Er5  1  0.200447  0.080048  0.493989  1
  Er  Er6  1  0.080069  0.200283  0.995218  1
  Er  Er7  1  0.919952  0.799553  0.006011  1
  Re  Re8  1  0.999575  0.000425  0.250000  1
  Os  Os9  1  0.999456  0.000544  0.750000  1
  I  I10  1  0.363955  0.842511  0.501278  1
  I  I11  1  0.635901  0.157195  0.499099  1
  I  I12  1  0.157489  0.636045  0.998722  1
  I  I13  1  0.842805  0.364099  0.000901  1
  I  I14  1  0.360686  0.150363  0.003438  1
  I  I15  1  0.639473  0.849243  0.996051  1
  I  I16  1  0.849637  0.639314  0.496562  1
  I  I17  1  0.150757  0.360527  0.503949  1
