# generated using pymatgen
data_Ta2Ti3Nb(B2Ru5)2
_symmetry_space_group_name_H-M   'P 1'
_cell_length_a   9.32114405
_cell_length_b   9.32145941
_cell_length_c   3.01908700
_cell_angle_alpha   90.00000000
_cell_angle_beta   90.00000000
_cell_angle_gamma   89.79803267
_symmetry_Int_Tables_number   1
_chemical_formula_structural   Ta2Ti3Nb(B2Ru5)2
_chemical_formula_sum   'Ta2 Ti3 Nb1 B4 Ru10'
_cell_volume   262.31677394
_cell_formula_units_Z   1
loop_
 _symmetry_equiv_pos_site_id
 _symmetry_equiv_pos_as_xyz
  1  'x, y, z'
loop_
 _atom_site_type_symbol
 _atom_site_label
 _atom_site_symmetry_multiplicity
 _atom_site_fract_x
 _atom_site_fract_y
 _atom_site_fract_z
 _atom_site_occupancy
  Ta  Ta0  1  0.176060  0.324016  0.000000  1
  Ta  Ta1  1  0.678119  0.177116  0.000000  1
  Ti  Ti2  1  0.822436  0.677668  0.000000  1
  Ti  Ti3  1  0.501119  0.500465  0.000000  1
  Ti  Ti4  1  0.999419  0.998767  0.000000  1
  Nb  Nb5  1  0.323036  0.822018  0.000000  1
  B  B6  1  0.625129  0.874727  0.000000  1
  B  B7  1  0.376593  0.123263  0.000000  1
  B  B8  1  0.122108  0.623766  0.000000  1
  B  B9  1  0.876410  0.378028  0.000000  1
  Ru  Ru10  1  0.572069  0.715316  0.500000  1
  Ru  Ru11  1  0.428846  0.284411  0.500000  1
  Ru  Ru12  1  0.070371  0.784535  0.500000  1
  Ru  Ru13  1  0.930194  0.215914  0.500000  1
  Ru  Ru14  1  0.283819  0.568606  0.500000  1
  Ru  Ru15  1  0.715121  0.428408  0.500000  1
  Ru  Ru16  1  0.215536  0.071896  0.500000  1
  Ru  Ru17  1  0.784664  0.928757  0.500000  1
  Ru  Ru18  1  0.501000  0.000546  0.500000  1
  Ru  Ru19  1  0.997954  0.501778  0.500000  1
