# generated using pymatgen
data_Y2TcB8W
_symmetry_space_group_name_H-M   'P 1'
_cell_length_a   6.01167645
_cell_length_b   11.62693588
_cell_length_c   3.61557000
_cell_angle_alpha   90.00000000
_cell_angle_beta   90.00000000
_cell_angle_gamma   89.95548136
_symmetry_Int_Tables_number   1
_chemical_formula_structural   Y2TcB8W
_chemical_formula_sum   'Y4 Tc2 B16 W2'
_cell_volume   252.71878178
_cell_formula_units_Z   2
loop_
 _symmetry_equiv_pos_site_id
 _symmetry_equiv_pos_as_xyz
  1  'x, y, z'
loop_
 _atom_site_type_symbol
 _atom_site_label
 _atom_site_symmetry_multiplicity
 _atom_site_fract_x
 _atom_site_fract_y
 _atom_site_fract_z
 _atom_site_occupancy
  Y  Y0  1  0.627172  0.348364  0.000000  1
  Y  Y1  1  0.372828  0.651636  0.000000  1
  Y  Y2  1  0.127832  0.148472  0.000000  1
  Y  Y3  1  0.872168  0.851528  0.000000  1
  Tc  Tc4  1  0.633944  0.086723  0.000000  1
  Tc  Tc5  1  0.366056  0.913277  0.000000  1
  B  B6  1  0.784601  0.184073  0.500000  1
  B  B7  1  0.215399  0.815927  0.500000  1
  B  B8  1  0.289085  0.312680  0.500000  1
  B  B9  1  0.710915  0.687320  0.500000  1
  B  B10  1  0.863258  0.030900  0.500000  1
  B  B11  1  0.136742  0.969100  0.500000  1
  B  B12  1  0.367008  0.467524  0.500000  1
  B  B13  1  0.632992  0.532476  0.500000  1
  B  B14  1  0.885410  0.452651  0.500000  1
  B  B15  1  0.114590  0.547349  0.500000  1
  B  B16  1  0.387343  0.046869  0.500000  1
  B  B17  1  0.612657  0.953131  0.500000  1
  B  B18  1  0.975437  0.305647  0.500000  1
  B  B19  1  0.024563  0.694353  0.500000  1
  B  B20  1  0.476991  0.190935  0.500000  1
  B  B21  1  0.523009  0.809065  0.500000  1
  W  W22  1  0.130319  0.414572  0.000000  1
  W  W23  1  0.869681  0.585428  0.000000  1
