# generated using pymatgen
data_YbHoNbIr3
_symmetry_space_group_name_H-M   'P 1'
_cell_length_a   5.63342692
_cell_length_b   5.63342801
_cell_length_c   5.24703740
_cell_angle_alpha   57.53258760
_cell_angle_beta   57.53259241
_cell_angle_gamma   59.99999991
_symmetry_Int_Tables_number   1
_chemical_formula_structural   YbHoNbIr3
_chemical_formula_sum   'Yb1 Ho1 Nb1 Ir3'
_cell_volume   113.16133429
_cell_formula_units_Z   1
loop_
 _symmetry_equiv_pos_site_id
 _symmetry_equiv_pos_as_xyz
  1  'x, y, z'
loop_
 _atom_site_type_symbol
 _atom_site_label
 _atom_site_symmetry_multiplicity
 _atom_site_fract_x
 _atom_site_fract_y
 _atom_site_fract_z
 _atom_site_occupancy
  Yb  Yb0  1  0.750193  0.750193  0.749419  1
  Ho  Ho1  1  0.500094  0.500094  0.499720  1
  Nb  Nb2  1  0.125575  0.125575  0.623276  1
  Ir  Ir3  1  0.626006  0.124066  0.125862  1
  Ir  Ir4  1  0.124066  0.124066  0.125862  1
  Ir  Ir5  1  0.124066  0.626006  0.125862  1
