# generated using pymatgen
data_U2AlB8W
_symmetry_space_group_name_H-M   'P 1'
_cell_length_a   5.92109044
_cell_length_b   5.92108951
_cell_length_c   3.62842000
_cell_angle_alpha   90.00000000
_cell_angle_beta   90.00000000
_cell_angle_gamma   103.97816594
_symmetry_Int_Tables_number   1
_chemical_formula_structural   U2AlB8W
_chemical_formula_sum   'U2 Al1 B8 W1'
_cell_volume   123.44293009
_cell_formula_units_Z   1
loop_
 _symmetry_equiv_pos_site_id
 _symmetry_equiv_pos_as_xyz
  1  'x, y, z'
loop_
 _atom_site_type_symbol
 _atom_site_label
 _atom_site_symmetry_multiplicity
 _atom_site_fract_x
 _atom_site_fract_y
 _atom_site_fract_z
 _atom_site_occupancy
  U  U0  1  0.299983  0.699677  0.000000  1
  U  U1  1  0.699677  0.299983  0.000000  1
  Al  Al2  1  0.184677  0.184677  0.000000  1
  B  B3  1  0.383126  0.063567  0.500000  1
  B  B4  1  0.614597  0.934440  0.500000  1
  B  B5  1  0.063567  0.383126  0.500000  1
  B  B6  1  0.934440  0.614597  0.500000  1
  B  B7  1  0.378620  0.378620  0.500000  1
  B  B8  1  0.619624  0.619624  0.500000  1
  B  B9  1  0.091800  0.902628  0.500000  1
  B  B10  1  0.902628  0.091800  0.500000  1
  W  W11  1  0.827261  0.827261  0.000000  1
