# generated using pymatgen
data_Lu3Fe8P6Ru
_symmetry_space_group_name_H-M   'P 1'
_cell_length_a   3.69337500
_cell_length_b   10.46972000
_cell_length_c   12.18020100
_cell_angle_alpha   90.00000000
_cell_angle_beta   90.00000000
_cell_angle_gamma   90.00000000
_symmetry_Int_Tables_number   1
_chemical_formula_structural   Lu3Fe8P6Ru
_chemical_formula_sum   'Lu6 Fe16 P12 Ru2'
_cell_volume   470.99134603
_cell_formula_units_Z   2
loop_
 _symmetry_equiv_pos_site_id
 _symmetry_equiv_pos_as_xyz
  1  'x, y, z'
loop_
 _atom_site_type_symbol
 _atom_site_label
 _atom_site_symmetry_multiplicity
 _atom_site_fract_x
 _atom_site_fract_y
 _atom_site_fract_z
 _atom_site_occupancy
  Lu  Lu0  1  0.000000  0.500000  0.527911  1
  Lu  Lu1  1  0.500000  0.000000  0.472089  1
  Lu  Lu2  1  0.500000  0.820868  0.207676  1
  Lu  Lu3  1  0.500000  0.179132  0.207676  1
  Lu  Lu4  1  0.000000  0.679132  0.792324  1
  Lu  Lu5  1  0.000000  0.320868  0.792324  1
  Fe  Fe6  1  0.500000  0.500000  0.698785  1
  Fe  Fe7  1  0.000000  0.000000  0.301215  1
  Fe  Fe8  1  0.000000  0.500000  0.988601  1
  Fe  Fe9  1  0.500000  0.000000  0.011399  1
  Fe  Fe10  1  0.500000  0.327441  0.994246  1
  Fe  Fe11  1  0.500000  0.672559  0.994246  1
  Fe  Fe12  1  0.000000  0.172559  0.005754  1
  Fe  Fe13  1  0.000000  0.827441  0.005754  1
  Fe  Fe14  1  0.500000  0.298968  0.431473  1
  Fe  Fe15  1  0.500000  0.701032  0.431473  1
  Fe  Fe16  1  0.000000  0.201032  0.568527  1
  Fe  Fe17  1  0.000000  0.798968  0.568527  1
  Fe  Fe18  1  0.500000  0.880576  0.705898  1
  Fe  Fe19  1  0.500000  0.119424  0.705898  1
  Fe  Fe20  1  0.000000  0.619424  0.294102  1
  Fe  Fe21  1  0.000000  0.380576  0.294102  1
  P  P22  1  0.500000  0.500000  0.881325  1
  P  P23  1  0.000000  0.000000  0.118675  1
  P  P24  1  0.500000  0.500000  0.347441  1
  P  P25  1  0.000000  0.000000  0.652559  1
  P  P26  1  0.500000  0.307786  0.614986  1
  P  P27  1  0.500000  0.692214  0.614986  1
  P  P28  1  0.000000  0.192214  0.385014  1
  P  P29  1  0.000000  0.807786  0.385014  1
  P  P30  1  0.500000  0.847475  0.887774  1
  P  P31  1  0.500000  0.152525  0.887774  1
  P  P32  1  0.000000  0.652525  0.112226  1
  P  P33  1  0.000000  0.347475  0.112226  1
  Ru  Ru34  1  0.500000  0.500000  0.155403  1
  Ru  Ru35  1  0.000000  0.000000  0.844597  1
