# generated using pymatgen
data_Ac11SmPd12
_symmetry_space_group_name_H-M   'P 1'
_cell_length_a   6.09482790
_cell_length_b   4.72657800
_cell_length_c   23.51998663
_cell_angle_alpha   90.00000000
_cell_angle_beta   96.88000249
_cell_angle_gamma   90.00000000
_symmetry_Int_Tables_number   1
_chemical_formula_structural   Ac11SmPd12
_chemical_formula_sum   'Ac11 Sm1 Pd12'
_cell_volume   672.67729654
_cell_formula_units_Z   1
loop_
 _symmetry_equiv_pos_site_id
 _symmetry_equiv_pos_as_xyz
  1  'x, y, z'
loop_
 _atom_site_type_symbol
 _atom_site_label
 _atom_site_symmetry_multiplicity
 _atom_site_fract_x
 _atom_site_fract_y
 _atom_site_fract_z
 _atom_site_occupancy
  Ac  Ac0  1  0.173185  0.750000  0.104054  1
  Ac  Ac1  1  0.511028  0.250001  0.224125  1
  Ac  Ac2  1  0.029660  0.750000  0.270665  1
  Ac  Ac3  1  0.803003  0.250001  0.393375  1
  Ac  Ac4  1  0.325744  0.750000  0.437923  1
  Ac  Ac5  1  0.673435  0.250001  0.561200  1
  Ac  Ac6  1  0.195655  0.750000  0.605738  1
  Ac  Ac7  1  0.968912  0.250001  0.728406  1
  Ac  Ac8  1  0.489046  0.750000  0.774171  1
  Ac  Ac9  1  0.830786  0.250001  0.897626  1
  Ac  Ac10  1  0.330632  0.750000  0.942414  1
  Sm  Sm11  1  0.675496  0.250001  0.061309  1
  Pd  Pd12  1  0.168242  0.250001  0.016808  1
  Pd  Pd13  1  0.685621  0.750000  0.145910  1
  Pd  Pd14  1  0.989004  0.250001  0.178060  1
  Pd  Pd15  1  0.556954  0.750000  0.316757  1
  Pd  Pd16  1  0.275195  0.250001  0.346654  1
  Pd  Pd17  1  0.845200  0.750000  0.485092  1
  Pd  Pd18  1  0.154337  0.250001  0.514103  1
  Pd  Pd19  1  0.723950  0.750000  0.651989  1
  Pd  Pd20  1  0.441668  0.250001  0.681569  1
  Pd  Pd21  1  0.002357  0.750000  0.820626  1
  Pd  Pd22  1  0.320178  0.250001  0.849763  1
  Pd  Pd23  1  0.830714  0.750000  0.991666  1
