# generated using pymatgen
data_NdTh3(NiAs)4
_symmetry_space_group_name_H-M   'P 1'
_cell_length_a   4.09789200
_cell_length_b   4.09789150
_cell_length_c   16.29194300
_cell_angle_alpha   90.00000000
_cell_angle_beta   90.00000000
_cell_angle_gamma   120.00000401
_symmetry_Int_Tables_number   1
_chemical_formula_structural   NdTh3(NiAs)4
_chemical_formula_sum   'Nd1 Th3 Ni4 As4'
_cell_volume   236.93240358
_cell_formula_units_Z   1
loop_
 _symmetry_equiv_pos_site_id
 _symmetry_equiv_pos_as_xyz
  1  'x, y, z'
loop_
 _atom_site_type_symbol
 _atom_site_label
 _atom_site_symmetry_multiplicity
 _atom_site_fract_x
 _atom_site_fract_y
 _atom_site_fract_z
 _atom_site_occupancy
  Nd  Nd0  1  0.000000  0.000000  0.750000  1
  Th  Th1  1  0.000000  0.000000  0.250000  1
  Th  Th2  1  0.000000  0.000000  0.999375  1
  Th  Th3  1  0.000000  0.000000  0.500625  1
  Ni  Ni4  1  0.333333  0.666667  0.120387  1
  Ni  Ni5  1  0.666667  0.333333  0.886913  1
  Ni  Ni6  1  0.666667  0.333333  0.613087  1
  Ni  Ni7  1  0.333333  0.666667  0.379613  1
  As  As8  1  0.333333  0.666667  0.628542  1
  As  As9  1  0.666667  0.333333  0.371464  1
  As  As10  1  0.666667  0.333333  0.128536  1
  As  As11  1  0.333333  0.666667  0.871458  1
