# generated using pymatgen
data_K2BaYbBi2
_symmetry_space_group_name_H-M   'P 1'
_cell_length_a   5.46514900
_cell_length_b   8.90955900
_cell_length_c   10.39207600
_cell_angle_alpha   90.00000000
_cell_angle_beta   90.00000000
_cell_angle_gamma   90.00000000
_symmetry_Int_Tables_number   1
_chemical_formula_structural   K2BaYbBi2
_chemical_formula_sum   'K4 Ba2 Yb2 Bi4'
_cell_volume   506.01166563
_cell_formula_units_Z   2
loop_
 _symmetry_equiv_pos_site_id
 _symmetry_equiv_pos_as_xyz
  1  'x, y, z'
loop_
 _atom_site_type_symbol
 _atom_site_label
 _atom_site_symmetry_multiplicity
 _atom_site_fract_x
 _atom_site_fract_y
 _atom_site_fract_z
 _atom_site_occupancy
  K  K0  1  0.500000  0.022021  0.419055  1
  K  K1  1  0.000000  0.343458  0.340963  1
  K  K2  1  0.500000  0.522021  0.580945  1
  K  K3  1  0.000000  0.843458  0.659037  1
  Ba  Ba4  1  0.000000  0.998484  0.055122  1
  Ba  Ba5  1  0.000000  0.498484  0.944878  1
  Yb  Yb6  1  0.500000  0.151490  0.818593  1
  Yb  Yb7  1  0.500000  0.651490  0.181407  1
  Bi  Bi8  1  0.000000  0.244595  0.678028  1
  Bi  Bi9  1  0.500000  0.285552  0.114544  1
  Bi  Bi10  1  0.000000  0.744595  0.321972  1
  Bi  Bi11  1  0.500000  0.785552  0.885456  1
