# generated using pymatgen
data_HoTmUCo2Si7
_symmetry_space_group_name_H-M   'P 1'
_cell_length_a   3.99100367
_cell_length_b   3.98777300
_cell_length_c   12.31849008
_cell_angle_alpha   90.00000000
_cell_angle_beta   99.32258561
_cell_angle_gamma   90.00000000
_symmetry_Int_Tables_number   1
_chemical_formula_structural   HoTmUCo2Si7
_chemical_formula_sum   'Ho1 Tm1 U1 Co2 Si7'
_cell_volume   193.46197879
_cell_formula_units_Z   1
loop_
 _symmetry_equiv_pos_site_id
 _symmetry_equiv_pos_as_xyz
  1  'x, y, z'
loop_
 _atom_site_type_symbol
 _atom_site_label
 _atom_site_symmetry_multiplicity
 _atom_site_fract_x
 _atom_site_fract_y
 _atom_site_fract_z
 _atom_site_occupancy
  Ho  Ho0  1  0.684008  0.000000  0.368013  1
  Tm  Tm1  1  0.316345  0.000000  0.632693  1
  U  U2  1  0.999894  0.500000  0.999787  1
  Co  Co3  1  0.128508  0.500000  0.257017  1
  Co  Co4  1  0.871327  0.500000  0.742654  1
  Si  Si5  1  0.499988  0.000000  0.999977  1
  Si  Si6  1  0.413095  0.500000  0.826190  1
  Si  Si7  1  0.586704  0.500000  0.173408  1
  Si  Si8  1  0.086443  0.000000  0.172887  1
  Si  Si9  1  0.913312  0.000000  0.826624  1
  Si  Si10  1  0.221646  0.500000  0.443292  1
  Si  Si11  1  0.778729  0.500000  0.557458  1
