# generated using pymatgen
data_Ba4Lu(ReO6)2
_symmetry_space_group_name_H-M   'P 1'
_cell_length_a   10.08482320
_cell_length_b   10.08482350
_cell_length_c   10.08482401
_cell_angle_alpha   33.79095742
_cell_angle_beta   33.79095278
_cell_angle_gamma   33.79095737
_symmetry_Int_Tables_number   1
_chemical_formula_structural   Ba4Lu(ReO6)2
_chemical_formula_sum   'Ba4 Lu1 Re2 O12'
_cell_volume   282.69730998
_cell_formula_units_Z   1
loop_
 _symmetry_equiv_pos_site_id
 _symmetry_equiv_pos_as_xyz
  1  'x, y, z'
loop_
 _atom_site_type_symbol
 _atom_site_label
 _atom_site_symmetry_multiplicity
 _atom_site_fract_x
 _atom_site_fract_y
 _atom_site_fract_z
 _atom_site_occupancy
  Ba  Ba0  1  0.710543  0.710543  0.710543  1
  Ba  Ba1  1  0.289457  0.289457  0.289457  1
  Ba  Ba2  1  0.866973  0.866973  0.866973  1
  Ba  Ba3  1  0.133027  0.133027  0.133027  1
  Lu  Lu4  1  0.000000  0.000000  0.000000  1
  Re  Re5  1  0.579765  0.579765  0.579765  1
  Re  Re6  1  0.420235  0.420235  0.420235  1
  O  O7  1  0.221140  0.689755  0.221140  1
  O  O8  1  0.221140  0.221140  0.689755  1
  O  O9  1  0.689755  0.221140  0.221140  1
  O  O10  1  0.778860  0.310245  0.778860  1
  O  O11  1  0.778860  0.778860  0.310245  1
  O  O12  1  0.310245  0.778860  0.778860  1
  O  O13  1  0.389287  0.859094  0.389287  1
  O  O14  1  0.389287  0.389287  0.859094  1
  O  O15  1  0.859094  0.389287  0.389287  1
  O  O16  1  0.610713  0.140906  0.610713  1
  O  O17  1  0.610713  0.610713  0.140906  1
  O  O18  1  0.140906  0.610713  0.610713  1
