# generated using pymatgen
data_Dy4YHo(Co3P2)6
_symmetry_space_group_name_H-M   'P 1'
_cell_length_a   3.70131400
_cell_length_b   10.51470601
_cell_length_c   12.17822401
_cell_angle_alpha   90.00536813
_cell_angle_beta   90.00000000
_cell_angle_gamma   90.00000000
_symmetry_Int_Tables_number   1
_chemical_formula_structural   Dy4YHo(Co3P2)6
_chemical_formula_sum   'Dy4 Y1 Ho1 Co18 P12'
_cell_volume   473.95490360
_cell_formula_units_Z   1
loop_
 _symmetry_equiv_pos_site_id
 _symmetry_equiv_pos_as_xyz
  1  'x, y, z'
loop_
 _atom_site_type_symbol
 _atom_site_label
 _atom_site_symmetry_multiplicity
 _atom_site_fract_x
 _atom_site_fract_y
 _atom_site_fract_z
 _atom_site_occupancy
  Dy  Dy0  1  0.000000  0.500020  0.521920  1
  Dy  Dy1  1  0.500000  0.817373  0.205775  1
  Dy  Dy2  1  0.500000  0.182624  0.205784  1
  Dy  Dy3  1  0.000000  0.682475  0.794165  1
  Y  Y4  1  0.500000  0.999987  0.478071  1
  Ho  Ho5  1  0.000000  0.317457  0.794166  1
  Co  Co6  1  0.500000  0.500002  0.158855  1
  Co  Co7  1  0.000000  0.000008  0.841527  1
  Co  Co8  1  0.500000  0.499753  0.703530  1
  Co  Co9  1  0.000000  0.000004  0.296279  1
  Co  Co10  1  0.000000  0.499919  0.986268  1
  Co  Co11  1  0.500000  0.000005  0.013505  1
  Co  Co12  1  0.500000  0.333495  0.994642  1
  Co  Co13  1  0.500000  0.666493  0.994792  1
  Co  Co14  1  0.000000  0.166706  0.005149  1
  Co  Co15  1  0.000000  0.833361  0.005239  1
  Co  Co16  1  0.500000  0.297671  0.430531  1
  Co  Co17  1  0.500000  0.702324  0.430526  1
  Co  Co18  1  0.000000  0.203190  0.569575  1
  Co  Co19  1  0.000000  0.796841  0.569453  1
  Co  Co20  1  0.500000  0.879303  0.709938  1
  Co  Co21  1  0.500000  0.120928  0.710048  1
  Co  Co22  1  0.000000  0.620460  0.290106  1
  Co  Co23  1  0.000000  0.379545  0.290115  1
  P  P24  1  0.500000  0.499768  0.882575  1
  P  P25  1  0.000000  0.999997  0.117106  1
  P  P26  1  0.500000  0.499996  0.343798  1
  P  P27  1  0.000000  0.999989  0.656635  1
  P  P28  1  0.500000  0.310651  0.616224  1
  P  P29  1  0.500000  0.689396  0.615910  1
  P  P30  1  0.000000  0.189910  0.383890  1
  P  P31  1  0.000000  0.810093  0.383896  1
  P  P32  1  0.500000  0.847272  0.893408  1
  P  P33  1  0.500000  0.152983  0.893193  1
  P  P34  1  0.000000  0.652475  0.106687  1
  P  P35  1  0.000000  0.347530  0.106723  1
