# generated using pymatgen
data_Pr11DyTh4(MgRu)4
_symmetry_space_group_name_H-M   'P 1'
_cell_length_a   10.03890773
_cell_length_b   10.03890833
_cell_length_c   10.02392700
_cell_angle_alpha   60.04935019
_cell_angle_beta   60.04934822
_cell_angle_gamma   60.25769915
_symmetry_Int_Tables_number   1
_chemical_formula_structural   Pr11DyTh4(MgRu)4
_chemical_formula_sum   'Pr11 Dy1 Th4 Mg4 Ru4'
_cell_volume   716.24126699
_cell_formula_units_Z   1
loop_
 _symmetry_equiv_pos_site_id
 _symmetry_equiv_pos_as_xyz
  1  'x, y, z'
loop_
 _atom_site_type_symbol
 _atom_site_label
 _atom_site_symmetry_multiplicity
 _atom_site_fract_x
 _atom_site_fract_y
 _atom_site_fract_z
 _atom_site_occupancy
  Pr  Pr0  1  0.810096  0.189553  0.191388  1
  Pr  Pr1  1  0.189553  0.810096  0.808963  1
  Pr  Pr2  1  0.189553  0.810096  0.191388  1
  Pr  Pr3  1  0.810096  0.189553  0.808963  1
  Pr  Pr4  1  0.189255  0.189255  0.810745  1
  Pr  Pr5  1  0.809766  0.809766  0.190234  1
  Pr  Pr6  1  0.939739  0.562588  0.560278  1
  Pr  Pr7  1  0.562588  0.939739  0.937395  1
  Pr  Pr8  1  0.562588  0.939739  0.560278  1
  Pr  Pr9  1  0.939739  0.562588  0.937395  1
  Pr  Pr10  1  0.560593  0.560593  0.939407  1
  Dy  Dy11  1  0.942321  0.942321  0.557679  1
  Th  Th12  1  0.342855  0.342855  0.343580  1
  Th  Th13  1  0.342855  0.342855  0.970709  1
  Th  Th14  1  0.343034  0.968667  0.344149  1
  Th  Th15  1  0.968667  0.343034  0.344149  1
  Mg  Mg16  1  0.578604  0.578604  0.579388  1
  Mg  Mg17  1  0.578604  0.578604  0.263405  1
  Mg  Mg18  1  0.580243  0.261769  0.578994  1
  Mg  Mg19  1  0.261769  0.580243  0.578994  1
  Ru  Ru20  1  0.144599  0.144599  0.148958  1
  Ru  Ru21  1  0.144599  0.144599  0.561844  1
  Ru  Ru22  1  0.147431  0.560850  0.145860  1
  Ru  Ru23  1  0.560850  0.147431  0.145860  1
