# generated using pymatgen
data_Ta3Be4Nb3Ru10
_symmetry_space_group_name_H-M   'P 1'
_cell_length_a   9.39734783
_cell_length_b   9.39734707
_cell_length_c   3.15895100
_cell_angle_alpha   90.00000000
_cell_angle_beta   90.00000000
_cell_angle_gamma   89.97111843
_symmetry_Int_Tables_number   1
_chemical_formula_structural   Ta3Be4Nb3Ru10
_chemical_formula_sum   'Ta3 Be4 Nb3 Ru10'
_cell_volume   278.96736655
_cell_formula_units_Z   1
loop_
 _symmetry_equiv_pos_site_id
 _symmetry_equiv_pos_as_xyz
  1  'x, y, z'
loop_
 _atom_site_type_symbol
 _atom_site_label
 _atom_site_symmetry_multiplicity
 _atom_site_fract_x
 _atom_site_fract_y
 _atom_site_fract_z
 _atom_site_occupancy
  Ta  Ta0  1  0.674377  0.174377  0.000000  1
  Ta  Ta1  1  0.500007  0.499999  0.000000  1
  Ta  Ta2  1  0.999999  0.000007  0.000000  1
  Be  Be3  1  0.621324  0.878973  0.000000  1
  Be  Be4  1  0.378973  0.121324  0.000000  1
  Be  Be5  1  0.121011  0.621011  0.000000  1
  Be  Be6  1  0.878928  0.378928  0.000000  1
  Nb  Nb7  1  0.825814  0.674064  0.000000  1
  Nb  Nb8  1  0.174064  0.325814  0.000000  1
  Nb  Nb9  1  0.325624  0.825624  0.000000  1
  Ru  Ru10  1  0.572577  0.711951  0.500000  1
  Ru  Ru11  1  0.428380  0.288277  0.500000  1
  Ru  Ru12  1  0.072676  0.788358  0.500000  1
  Ru  Ru13  1  0.925594  0.211079  0.500000  1
  Ru  Ru14  1  0.288358  0.572676  0.500000  1
  Ru  Ru15  1  0.711079  0.425594  0.500000  1
  Ru  Ru16  1  0.211951  0.072577  0.500000  1
  Ru  Ru17  1  0.788277  0.928380  0.500000  1
  Ru  Ru18  1  0.501214  0.001214  0.500000  1
  Ru  Ru19  1  0.999775  0.499775  0.500000  1
