# generated using pymatgen
data_Lu10CoBi4Os
_symmetry_space_group_name_H-M   'P 1'
_cell_length_a   7.79193075
_cell_length_b   8.87481400
_cell_length_c   12.27130435
_cell_angle_alpha   90.00000000
_cell_angle_beta   89.50059760
_cell_angle_gamma   90.00000000
_symmetry_Int_Tables_number   1
_chemical_formula_structural   Lu10CoBi4Os
_chemical_formula_sum   'Lu20 Co2 Bi8 Os2'
_cell_volume   848.55222034
_cell_formula_units_Z   2
loop_
 _symmetry_equiv_pos_site_id
 _symmetry_equiv_pos_as_xyz
  1  'x, y, z'
loop_
 _atom_site_type_symbol
 _atom_site_label
 _atom_site_symmetry_multiplicity
 _atom_site_fract_x
 _atom_site_fract_y
 _atom_site_fract_z
 _atom_site_occupancy
  Lu  Lu0  1  0.341706  0.750000  0.702749  1
  Lu  Lu1  1  0.658294  0.250000  0.297251  1
  Lu  Lu2  1  0.841145  0.250000  0.792292  1
  Lu  Lu3  1  0.158855  0.750000  0.207708  1
  Lu  Lu4  1  0.879998  0.750000  0.809736  1
  Lu  Lu5  1  0.120002  0.250000  0.190264  1
  Lu  Lu6  1  0.383881  0.250000  0.680917  1
  Lu  Lu7  1  0.616119  0.750000  0.319083  1
  Lu  Lu8  1  0.670464  0.539291  0.564071  1
  Lu  Lu9  1  0.329536  0.460709  0.435929  1
  Lu  Lu10  1  0.172188  0.457098  0.933670  1
  Lu  Lu11  1  0.329536  0.039291  0.435929  1
  Lu  Lu12  1  0.827812  0.542902  0.066330  1
  Lu  Lu13  1  0.670464  0.960709  0.564071  1
  Lu  Lu14  1  0.827812  0.957098  0.066330  1
  Lu  Lu15  1  0.172188  0.042902  0.933670  1
  Lu  Lu16  1  0.062510  0.750000  0.497664  1
  Lu  Lu17  1  0.937490  0.250000  0.502336  1
  Lu  Lu18  1  0.560095  0.250000  0.004986  1
  Lu  Lu19  1  0.439905  0.750000  0.995014  1
  Co  Co20  1  0.568520  0.250000  0.504847  1
  Co  Co21  1  0.431480  0.750000  0.495153  1
  Bi  Bi22  1  0.565103  0.506693  0.826375  1
  Bi  Bi23  1  0.434897  0.493307  0.173625  1
  Bi  Bi24  1  0.066003  0.491177  0.670646  1
  Bi  Bi25  1  0.434897  0.006693  0.173625  1
  Bi  Bi26  1  0.933997  0.508823  0.329354  1
  Bi  Bi27  1  0.565103  0.993307  0.826375  1
  Bi  Bi28  1  0.933997  0.991177  0.329354  1
  Bi  Bi29  1  0.066003  0.008823  0.670646  1
  Os  Os30  1  0.074993  0.750000  0.991167  1
  Os  Os31  1  0.925007  0.250000  0.008833  1
