# generated using pymatgen
data_Na4HoSbO6
_symmetry_space_group_name_H-M   'P 1'
_cell_length_a   5.74182355
_cell_length_b   5.74182285
_cell_length_c   5.85750385
_cell_angle_alpha   99.50478314
_cell_angle_beta   99.50478379
_cell_angle_gamma   119.97961599
_symmetry_Int_Tables_number   1
_chemical_formula_structural   Na4HoSbO6
_chemical_formula_sum   'Na4 Ho1 Sb1 O6'
_cell_volume   157.89551300
_cell_formula_units_Z   1
loop_
 _symmetry_equiv_pos_site_id
 _symmetry_equiv_pos_as_xyz
  1  'x, y, z'
loop_
 _atom_site_type_symbol
 _atom_site_label
 _atom_site_symmetry_multiplicity
 _atom_site_fract_x
 _atom_site_fract_y
 _atom_site_fract_z
 _atom_site_occupancy
  Na  Na0  1  0.498175  0.501826  0.000000  1
  Na  Na1  1  0.013902  0.986101  0.499999  1
  Na  Na2  1  0.656722  0.343276  0.499999  1
  Na  Na3  1  0.339201  0.660797  0.499999  1
  Ho  Ho4  1  0.832235  0.167766  0.000000  1
  Sb  Sb5  1  0.166380  0.833621  0.000000  1
  O  O6  1  0.951772  0.599969  0.206981  1
  O  O7  1  0.539896  0.925456  0.213529  1
  O  O8  1  0.215740  0.188595  0.213414  1
  O  O9  1  0.811406  0.784261  0.786587  1
  O  O10  1  0.074545  0.460105  0.786472  1
  O  O11  1  0.400032  0.048229  0.793020  1
