# generated using pymatgen
data_Th5UH8Br15
_symmetry_space_group_name_H-M   'P 1'
_cell_length_a   10.07782146
_cell_length_b   10.07791778
_cell_length_c   10.06523974
_cell_angle_alpha   109.33475114
_cell_angle_beta   109.35633897
_cell_angle_gamma   109.77426824
_symmetry_Int_Tables_number   1
_chemical_formula_structural   Th5UH8Br15
_chemical_formula_sum   'Th5 U1 H8 Br15'
_cell_volume   786.42301757
_cell_formula_units_Z   1
loop_
 _symmetry_equiv_pos_site_id
 _symmetry_equiv_pos_as_xyz
  1  'x, y, z'
loop_
 _atom_site_type_symbol
 _atom_site_label
 _atom_site_symmetry_multiplicity
 _atom_site_fract_x
 _atom_site_fract_y
 _atom_site_fract_z
 _atom_site_occupancy
  Th  Th0  1  0.759884  0.759900  0.000003  1
  Th  Th1  1  0.240458  0.002711  0.237570  1
  Th  Th2  1  0.002719  0.240424  0.237598  1
  Th  Th3  1  0.765140  0.002882  0.762434  1
  Th  Th4  1  0.002809  0.765104  0.762397  1
  U  U5  1  0.232030  0.232024  0.000010  1
  H  H6  1  0.178607  0.998600  0.999983  1
  H  H7  1  0.822318  0.999863  0.000008  1
  H  H8  1  0.998622  0.178628  0.000017  1
  H  H9  1  0.999853  0.822313  0.999993  1
  H  H10  1  0.999653  0.999636  0.178529  1
  H  H11  1  0.176047  0.176031  0.176952  1
  H  H12  1  0.999076  0.999087  0.823071  1
  H  H13  1  0.821091  0.821113  0.821467  1
  Br  Br14  1  0.746620  0.251926  0.000005  1
  Br  Br15  1  0.503740  0.503744  0.000013  1
  Br  Br16  1  0.251921  0.746619  0.999993  1
  Br  Br17  1  0.746740  0.999233  0.252268  1
  Br  Br18  1  0.999258  0.746750  0.252254  1
  Br  Br19  1  0.507037  0.252561  0.253501  1
  Br  Br20  1  0.252682  0.507012  0.253660  1
  Br  Br21  1  0.747025  0.747062  0.494595  1
  Br  Br22  1  0.500244  0.000246  0.499999  1
  Br  Br23  1  0.000152  0.500153  0.500000  1
  Br  Br24  1  0.252459  0.252421  0.505406  1
  Br  Br25  1  0.253345  0.999024  0.746345  1
  Br  Br26  1  0.999042  0.253471  0.746452  1
  Br  Br27  1  0.746957  0.494470  0.747737  1
  Br  Br28  1  0.494475  0.746998  0.747746  1
