# generated using pymatgen
data_MgScMn3Co9P7
_symmetry_space_group_name_H-M   'P 1'
_cell_length_a   8.96631300
_cell_length_b   8.96631339
_cell_length_c   3.54167700
_cell_angle_alpha   90.00000000
_cell_angle_beta   90.00000000
_cell_angle_gamma   120.00000224
_symmetry_Int_Tables_number   1
_chemical_formula_structural   MgScMn3Co9P7
_chemical_formula_sum   'Mg1 Sc1 Mn3 Co9 P7'
_cell_volume   246.58541342
_cell_formula_units_Z   1
loop_
 _symmetry_equiv_pos_site_id
 _symmetry_equiv_pos_as_xyz
  1  'x, y, z'
loop_
 _atom_site_type_symbol
 _atom_site_label
 _atom_site_symmetry_multiplicity
 _atom_site_fract_x
 _atom_site_fract_y
 _atom_site_fract_z
 _atom_site_occupancy
  Mg  Mg0  1  0.666667  0.333333  0.500000  1
  Sc  Sc1  1  0.000000  0.000000  0.000000  1
  Mn  Mn2  1  0.432355  0.540864  0.500000  1
  Mn  Mn3  1  0.108508  0.567645  0.500000  1
  Mn  Mn4  1  0.459136  0.891492  0.500000  1
  Co  Co5  1  0.397132  0.293219  0.000000  1
  Co  Co6  1  0.896087  0.602868  0.000000  1
  Co  Co7  1  0.706781  0.103913  0.000000  1
  Co  Co8  1  0.612930  0.786208  0.000000  1
  Co  Co9  1  0.173281  0.387070  0.000000  1
  Co  Co10  1  0.213792  0.826719  0.000000  1
  Co  Co11  1  0.772569  0.721198  0.500000  1
  Co  Co12  1  0.948629  0.227431  0.500000  1
  Co  Co13  1  0.278802  0.051371  0.500000  1
  P  P14  1  0.628592  0.548360  0.000000  1
  P  P15  1  0.919768  0.371408  0.000000  1
  P  P16  1  0.451640  0.080232  0.000000  1
  P  P17  1  0.741934  0.956679  0.500000  1
  P  P18  1  0.214745  0.258066  0.500000  1
  P  P19  1  0.043321  0.785255  0.500000  1
  P  P20  1  0.333333  0.666667  0.000000  1
