# generated using pymatgen
data_Ac(S8I)3
_symmetry_space_group_name_H-M   'P 1'
_cell_length_a   15.45151198
_cell_length_b   15.45151240
_cell_length_c   15.45151316
_cell_angle_alpha   119.04049151
_cell_angle_beta   119.04049061
_cell_angle_gamma   119.04048678
_symmetry_Int_Tables_number   1
_chemical_formula_structural   Ac(S8I)3
_chemical_formula_sum   'Ac1 S24 I3'
_cell_volume   935.50349689
_cell_formula_units_Z   1
loop_
 _symmetry_equiv_pos_site_id
 _symmetry_equiv_pos_as_xyz
  1  'x, y, z'
loop_
 _atom_site_type_symbol
 _atom_site_label
 _atom_site_symmetry_multiplicity
 _atom_site_fract_x
 _atom_site_fract_y
 _atom_site_fract_z
 _atom_site_occupancy
  Ac  Ac0  1  0.460290  0.460290  0.460290  1
  S  S1  1  0.003733  0.593218  0.593218  1
  S  S2  1  0.593218  0.593218  0.003733  1
  S  S3  1  0.593218  0.003733  0.593218  1
  S  S4  1  0.242562  0.847879  0.721758  1
  S  S5  1  0.847879  0.721758  0.242562  1
  S  S6  1  0.721758  0.242562  0.847879  1
  S  S7  1  0.847879  0.242562  0.721758  1
  S  S8  1  0.242562  0.721758  0.847879  1
  S  S9  1  0.721758  0.847879  0.242562  1
  S  S10  1  0.091897  0.615720  0.437165  1
  S  S11  1  0.615720  0.437165  0.091897  1
  S  S12  1  0.437165  0.091897  0.615720  1
  S  S13  1  0.615720  0.091897  0.437165  1
  S  S14  1  0.091897  0.437165  0.615720  1
  S  S15  1  0.437165  0.615720  0.091897  1
  S  S16  1  0.367505  0.754208  0.626963  1
  S  S17  1  0.754208  0.626963  0.367505  1
  S  S18  1  0.626963  0.367505  0.754208  1
  S  S19  1  0.754208  0.367505  0.626963  1
  S  S20  1  0.367505  0.626963  0.754208  1
  S  S21  1  0.626963  0.754208  0.367505  1
  S  S22  1  0.182070  0.461454  0.461454  1
  S  S23  1  0.461454  0.461454  0.182070  1
  S  S24  1  0.461454  0.182070  0.461454  1
  I  I25  1  0.065334  0.907508  0.907508  1
  I  I26  1  0.907508  0.907508  0.065334  1
  I  I27  1  0.907508  0.065334  0.907508  1
