# generated using pymatgen
data_Tb4TmLu3(ReB6)4
_symmetry_space_group_name_H-M   'P 1'
_cell_length_a   3.65573500
_cell_length_b   9.12478701
_cell_length_c   11.52277401
_cell_angle_alpha   90.00559995
_cell_angle_beta   90.00000000
_cell_angle_gamma   90.00000000
_symmetry_Int_Tables_number   1
_chemical_formula_structural   Tb4TmLu3(ReB6)4
_chemical_formula_sum   'Tb4 Tm1 Lu3 Re4 B24'
_cell_volume   384.37442653
_cell_formula_units_Z   1
loop_
 _symmetry_equiv_pos_site_id
 _symmetry_equiv_pos_as_xyz
  1  'x, y, z'
loop_
 _atom_site_type_symbol
 _atom_site_label
 _atom_site_symmetry_multiplicity
 _atom_site_fract_x
 _atom_site_fract_y
 _atom_site_fract_z
 _atom_site_occupancy
  Tb  Tb0  1  0.000000  0.323173  0.414038  1
  Tb  Tb1  1  0.000000  0.676788  0.586077  1
  Tb  Tb2  1  0.000000  0.823061  0.085878  1
  Tb  Tb3  1  0.000000  0.176931  0.913966  1
  Tm  Tm4  1  0.000000  0.943652  0.370294  1
  Lu  Lu5  1  0.000000  0.056542  0.630136  1
  Lu  Lu6  1  0.000000  0.443611  0.129693  1
  Lu  Lu7  1  0.000000  0.556415  0.870188  1
  Re  Re8  1  0.000000  0.638947  0.319889  1
  Re  Re9  1  0.000000  0.360333  0.680241  1
  Re  Re10  1  0.000000  0.140171  0.179966  1
  Re  Re11  1  0.000000  0.860070  0.819730  1
  B  B12  1  0.500000  0.553805  0.432355  1
  B  B13  1  0.500000  0.445961  0.567745  1
  B  B14  1  0.500000  0.054083  0.067564  1
  B  B15  1  0.500000  0.945997  0.932248  1
  B  B16  1  0.500000  0.750439  0.418024  1
  B  B17  1  0.500000  0.248984  0.582014  1
  B  B18  1  0.500000  0.251221  0.081880  1
  B  B19  1  0.500000  0.748907  0.918033  1
  B  B20  1  0.500000  0.792690  0.265355  1
  B  B21  1  0.500000  0.206817  0.734514  1
  B  B22  1  0.500000  0.293464  0.234405  1
  B  B23  1  0.500000  0.706751  0.765523  1
  B  B24  1  0.500000  0.630065  0.184774  1
  B  B25  1  0.500000  0.369833  0.815134  1
  B  B26  1  0.500000  0.130733  0.314820  1
  B  B27  1  0.500000  0.869782  0.684956  1
  B  B28  1  0.500000  0.982531  0.212481  1
  B  B29  1  0.500000  0.017757  0.787173  1
  B  B30  1  0.500000  0.482083  0.287073  1
  B  B31  1  0.500000  0.517811  0.712862  1
  B  B32  1  0.500000  0.597585  0.027036  1
  B  B33  1  0.500000  0.402460  0.972920  1
  B  B34  1  0.500000  0.098251  0.473368  1
  B  B35  1  0.500000  0.902295  0.527645  1
