# generated using pymatgen
data_Li(YZn8)2
_symmetry_space_group_name_H-M   'P 1'
_cell_length_a   6.80127015
_cell_length_b   6.77178482
_cell_length_c   6.80127004
_cell_angle_alpha   82.94130871
_cell_angle_beta   82.40275566
_cell_angle_gamma   82.94131782
_symmetry_Int_Tables_number   1
_chemical_formula_structural   Li(YZn8)2
_chemical_formula_sum   'Li1 Y2 Zn16'
_cell_volume   306.32537646
_cell_formula_units_Z   1
loop_
 _symmetry_equiv_pos_site_id
 _symmetry_equiv_pos_as_xyz
  1  'x, y, z'
loop_
 _atom_site_type_symbol
 _atom_site_label
 _atom_site_symmetry_multiplicity
 _atom_site_fract_x
 _atom_site_fract_y
 _atom_site_fract_z
 _atom_site_occupancy
  Li  Li0  1  0.000000  0.500000  0.000000  1
  Y  Y1  1  0.665126  0.666148  0.665126  1
  Y  Y2  1  0.334874  0.333852  0.334874  1
  Zn  Zn3  1  0.348546  0.352725  0.841224  1
  Zn  Zn4  1  0.841224  0.352725  0.348546  1
  Zn  Zn5  1  0.100055  0.104742  0.100055  1
  Zn  Zn6  1  0.899945  0.895258  0.899945  1
  Zn  Zn7  1  0.000000  0.000000  0.500000  1
  Zn  Zn8  1  0.500000  0.000000  0.000000  1
  Zn  Zn9  1  0.293843  0.700740  0.000556  1
  Zn  Zn10  1  0.701548  0.000000  0.298452  1
  Zn  Zn11  1  0.999444  0.299260  0.706157  1
  Zn  Zn12  1  0.706157  0.299260  0.999444  1
  Zn  Zn13  1  0.298452  0.000000  0.701548  1
  Zn  Zn14  1  0.000556  0.700740  0.293843  1
  Zn  Zn15  1  0.158776  0.647275  0.651454  1
  Zn  Zn16  1  0.651454  0.647275  0.158776  1
  Zn  Zn17  1  0.647197  0.163668  0.647197  1
  Zn  Zn18  1  0.352803  0.836332  0.352803  1
