# generated using pymatgen
data_Tb2Pr2Al24Pd8Au
_symmetry_space_group_name_H-M   'P 1'
_cell_length_a   7.59742189
_cell_length_b   7.60571338
_cell_length_c   13.26202959
_cell_angle_alpha   84.58417755
_cell_angle_beta   100.97326225
_cell_angle_gamma   119.78842515
_symmetry_Int_Tables_number   1
_chemical_formula_structural   Tb2Pr2Al24Pd8Au
_chemical_formula_sum   'Tb2 Pr2 Al24 Pd8 Au1'
_cell_volume   652.91206681
_cell_formula_units_Z   1
loop_
 _symmetry_equiv_pos_site_id
 _symmetry_equiv_pos_as_xyz
  1  'x, y, z'
loop_
 _atom_site_type_symbol
 _atom_site_label
 _atom_site_symmetry_multiplicity
 _atom_site_fract_x
 _atom_site_fract_y
 _atom_site_fract_z
 _atom_site_occupancy
  Tb  Tb0  1  0.767430  0.502056  0.808564  1
  Tb  Tb1  1  0.231326  0.498194  0.191573  1
  Pr  Pr2  1  0.439009  0.830396  0.809739  1
  Pr  Pr3  1  0.561325  0.168229  0.190763  1
  Al  Al4  1  0.482303  0.167963  0.945630  1
  Al  Al5  1  0.518694  0.831451  0.055577  1
  Al  Al6  1  0.015200  0.160847  0.559437  1
  Al  Al7  1  0.978403  0.833769  0.436836  1
  Al  Al8  1  0.352449  0.839732  0.557334  1
  Al  Al9  1  0.646188  0.166811  0.440109  1
  Al  Al10  1  0.617490  0.833426  0.331156  1
  Al  Al11  1  0.382747  0.161573  0.670796  1
  Al  Al12  1  0.050634  0.491268  0.671334  1
  Al  Al13  1  0.945046  0.508408  0.330562  1
  Al  Al14  1  0.739102  0.846903  0.669497  1
  Al  Al15  1  0.267991  0.159822  0.332100  1
  Al  Al16  1  0.145829  0.498342  0.947056  1
  Al  Al17  1  0.853676  0.502074  0.053932  1
  Al  Al18  1  0.820529  0.832859  0.957444  1
  Al  Al19  1  0.180207  0.167277  0.044208  1
  Al  Al20  1  0.311695  0.500220  0.435919  1
  Al  Al21  1  0.693608  0.500658  0.557875  1
  Al  Al22  1  0.099511  0.833072  0.184205  1
  Al  Al23  1  0.899440  0.167068  0.816224  1
  Al  Al24  1  0.305402  0.363479  0.818004  1
  Al  Al25  1  0.692619  0.633337  0.185803  1
  Al  Al26  1  0.099893  0.956776  0.816100  1
  Al  Al27  1  0.900428  0.042055  0.184303  1
  Pd  Pd28  1  0.613594  0.494138  0.362993  1
  Pd  Pd29  1  0.170929  0.828862  0.999770  1
  Pd  Pd30  1  0.829170  0.171343  0.999831  1
  Pd  Pd31  1  0.293807  0.832461  0.363102  1
  Pd  Pd32  1  0.706143  0.167698  0.636310  1
  Pd  Pd33  1  0.045828  0.825936  0.635983  1
  Pd  Pd34  1  0.954173  0.174299  0.363226  1
  Pd  Pd35  1  0.500036  0.500081  0.000111  1
  Au  Au36  1  0.388147  0.507118  0.636597  1
