# generated using pymatgen
data_DyTm7(AgRh)2
_symmetry_space_group_name_H-M   'P 1'
_cell_length_a   9.37802398
_cell_length_b   9.41277002
_cell_length_c   9.42111976
_cell_angle_alpha   60.29938422
_cell_angle_beta   60.15120222
_cell_angle_gamma   60.12202816
_symmetry_Int_Tables_number   1
_chemical_formula_structural   DyTm7(AgRh)2
_chemical_formula_sum   'Dy2 Tm14 Ag4 Rh4'
_cell_volume   590.59128857
_cell_formula_units_Z   2
loop_
 _symmetry_equiv_pos_site_id
 _symmetry_equiv_pos_as_xyz
  1  'x, y, z'
loop_
 _atom_site_type_symbol
 _atom_site_label
 _atom_site_symmetry_multiplicity
 _atom_site_fract_x
 _atom_site_fract_y
 _atom_site_fract_z
 _atom_site_occupancy
  Dy  Dy0  1  0.063761  0.065282  0.434992  1
  Dy  Dy1  1  0.435966  0.065282  0.434992  1
  Tm  Tm2  1  0.064646  0.435490  0.064691  1
  Tm  Tm3  1  0.060154  0.645878  0.646907  1
  Tm  Tm4  1  0.435173  0.435490  0.064691  1
  Tm  Tm5  1  0.646749  0.058951  0.647554  1
  Tm  Tm6  1  0.187164  0.813037  0.187257  1
  Tm  Tm7  1  0.186509  0.187643  0.814070  1
  Tm  Tm8  1  0.812542  0.813037  0.187257  1
  Tm  Tm9  1  0.435899  0.064463  0.063738  1
  Tm  Tm10  1  0.812466  0.188249  0.186819  1
  Tm  Tm11  1  0.064074  0.436948  0.434905  1
  Tm  Tm12  1  0.811778  0.187643  0.814070  1
  Tm  Tm13  1  0.186269  0.812724  0.814737  1
  Tm  Tm14  1  0.647090  0.646808  0.059015  1
  Tm  Tm15  1  0.647063  0.645878  0.646907  1
  Ag  Ag16  1  0.417707  0.418476  0.416611  1
  Ag  Ag17  1  0.747204  0.418476  0.416611  1
  Ag  Ag18  1  0.419123  0.745520  0.416233  1
  Ag  Ag19  1  0.417845  0.416980  0.747328  1
  Rh  Rh20  1  0.856985  0.854477  0.431554  1
  Rh  Rh21  1  0.856770  0.855611  0.856784  1
  Rh  Rh22  1  0.430835  0.855611  0.856784  1
  Rh  Rh23  1  0.856229  0.432049  0.855492  1
