# generated using pymatgen
data_TbYbY2(Ga3Ir)6
_symmetry_space_group_name_H-M   'P 1'
_cell_length_a   7.58660900
_cell_length_b   7.57873414
_cell_length_c   9.54622000
_cell_angle_alpha   90.00000000
_cell_angle_beta   90.00000000
_cell_angle_gamma   119.74707460
_symmetry_Int_Tables_number   1
_chemical_formula_structural   TbYbY2(Ga3Ir)6
_chemical_formula_sum   'Tb1 Yb1 Y2 Ga18 Ir6'
_cell_volume   476.54912271
_cell_formula_units_Z   1
loop_
 _symmetry_equiv_pos_site_id
 _symmetry_equiv_pos_as_xyz
  1  'x, y, z'
loop_
 _atom_site_type_symbol
 _atom_site_label
 _atom_site_symmetry_multiplicity
 _atom_site_fract_x
 _atom_site_fract_y
 _atom_site_fract_z
 _atom_site_occupancy
  Tb  Tb0  1  0.998680  0.669222  0.250000  1
  Yb  Yb1  1  0.331754  0.003501  0.750000  1
  Y  Y2  1  0.002593  0.331916  0.750000  1
  Y  Y3  1  0.668283  0.997842  0.250000  1
  Ga  Ga4  1  0.128125  0.127156  0.250000  1
  Ga  Ga5  1  0.873018  0.873683  0.750000  1
  Ga  Ga6  1  0.999520  0.334439  0.079877  1
  Ga  Ga7  1  0.001324  0.667373  0.920409  1
  Ga  Ga8  1  0.001324  0.667373  0.579591  1
  Ga  Ga9  1  0.334803  0.000125  0.422336  1
  Ga  Ga10  1  0.999520  0.334439  0.420123  1
  Ga  Ga11  1  0.663491  0.999244  0.580120  1
  Ga  Ga12  1  0.663491  0.999244  0.919880  1
  Ga  Ga13  1  0.334803  0.000125  0.077664  1
  Ga  Ga14  1  0.332883  0.331079  0.561749  1
  Ga  Ga15  1  0.667416  0.667338  0.435336  1
  Ga  Ga16  1  0.667416  0.667338  0.064664  1
  Ga  Ga17  1  0.332883  0.331079  0.938251  1
  Ga  Ga18  1  0.338641  0.546179  0.250000  1
  Ga  Ga19  1  0.662870  0.454022  0.750000  1
  Ga  Ga20  1  0.545830  0.337732  0.250000  1
  Ga  Ga21  1  0.453399  0.662032  0.750000  1
  Ir  Ir22  1  0.671830  0.329193  0.000016  1
  Ir  Ir23  1  0.328220  0.670165  0.000286  1
  Ir  Ir24  1  0.328220  0.670165  0.499714  1
  Ir  Ir25  1  0.671830  0.329193  0.499984  1
  Ir  Ir26  1  0.998916  0.999401  0.000686  1
  Ir  Ir27  1  0.998916  0.999401  0.499314  1
