# generated using pymatgen
data_Cs3MoSe3S
_symmetry_space_group_name_H-M   'P 1'
_cell_length_a   10.33209600
_cell_length_b   10.31333000
_cell_length_c   12.00370600
_cell_angle_alpha   90.00000000
_cell_angle_beta   90.00000000
_cell_angle_gamma   90.00000000
_symmetry_Int_Tables_number   1
_chemical_formula_structural   Cs3MoSe3S
_chemical_formula_sum   'Cs12 Mo4 Se12 S4'
_cell_volume   1279.09469279
_cell_formula_units_Z   4
loop_
 _symmetry_equiv_pos_site_id
 _symmetry_equiv_pos_as_xyz
  1  'x, y, z'
loop_
 _atom_site_type_symbol
 _atom_site_label
 _atom_site_symmetry_multiplicity
 _atom_site_fract_x
 _atom_site_fract_y
 _atom_site_fract_z
 _atom_site_occupancy
  Cs  Cs0  1  0.949591  0.708783  0.956045  1
  Cs  Cs1  1  0.449591  0.791217  0.956045  1
  Cs  Cs2  1  0.550409  0.208783  0.456045  1
  Cs  Cs3  1  0.050409  0.291217  0.043955  1
  Cs  Cs4  1  0.146013  0.079483  0.750000  1
  Cs  Cs5  1  0.646013  0.420517  0.750000  1
  Cs  Cs6  1  0.353987  0.579483  0.250000  1
  Cs  Cs7  1  0.853987  0.920517  0.250000  1
  Cs  Cs8  1  0.050409  0.291217  0.456045  1
  Cs  Cs9  1  0.449591  0.791217  0.543955  1
  Cs  Cs10  1  0.550409  0.208783  0.043955  1
  Cs  Cs11  1  0.949591  0.708783  0.543955  1
  Mo  Mo12  1  0.779227  0.480475  0.250000  1
  Mo  Mo13  1  0.279227  0.019525  0.250000  1
  Mo  Mo14  1  0.720773  0.980475  0.750000  1
  Mo  Mo15  1  0.220773  0.519525  0.750000  1
  Se  Se16  1  0.009094  0.425744  0.750000  1
  Se  Se17  1  0.509094  0.074256  0.750000  1
  Se  Se18  1  0.490906  0.925744  0.250000  1
  Se  Se19  1  0.990906  0.574256  0.250000  1
  Se  Se20  1  0.666981  0.548420  0.413235  1
  Se  Se21  1  0.166981  0.951580  0.086765  1
  Se  Se22  1  0.833019  0.048420  0.586765  1
  Se  Se23  1  0.333019  0.451580  0.913235  1
  Se  Se24  1  0.333019  0.451580  0.586765  1
  Se  Se25  1  0.666981  0.548420  0.086765  1
  Se  Se26  1  0.166981  0.951580  0.413235  1
  Se  Se27  1  0.833019  0.048420  0.913235  1
  S  S28  1  0.204898  0.735881  0.750000  1
  S  S29  1  0.704898  0.764119  0.750000  1
  S  S30  1  0.295102  0.235881  0.250000  1
  S  S31  1  0.795102  0.264119  0.250000  1
