# generated using pymatgen
data_Pu(NiGe)2
_symmetry_space_group_name_H-M   'P 1'
_cell_length_a   4.12055700
_cell_length_b   4.12055700
_cell_length_c   9.57545100
_cell_angle_alpha   90.00000000
_cell_angle_beta   90.00000000
_cell_angle_gamma   90.00000000
_symmetry_Int_Tables_number   1
_chemical_formula_structural   Pu(NiGe)2
_chemical_formula_sum   'Pu2 Ni4 Ge4'
_cell_volume   162.58148668
_cell_formula_units_Z   2
loop_
 _symmetry_equiv_pos_site_id
 _symmetry_equiv_pos_as_xyz
  1  'x, y, z'
loop_
 _atom_site_type_symbol
 _atom_site_label
 _atom_site_symmetry_multiplicity
 _atom_site_fract_x
 _atom_site_fract_y
 _atom_site_fract_z
 _atom_site_occupancy
  Pu  Pu0  1  0.000000  0.500000  0.248833  1
  Pu  Pu1  1  0.500000  0.000000  0.751167  1
  Ni  Ni2  1  0.000000  0.000000  0.000000  1
  Ni  Ni3  1  0.500000  0.500000  0.000000  1
  Ni  Ni4  1  0.000000  0.500000  0.625698  1
  Ni  Ni5  1  0.500000  0.000000  0.374302  1
  Ge  Ge6  1  0.000000  0.000000  0.500000  1
  Ge  Ge7  1  0.500000  0.500000  0.500000  1
  Ge  Ge8  1  0.000000  0.500000  0.870311  1
  Ge  Ge9  1  0.500000  0.000000  0.129689  1
