# generated using pymatgen
data_Nd12Os2RuRh
_symmetry_space_group_name_H-M   'P 1'
_cell_length_a   6.52686343
_cell_length_b   7.47335757
_cell_length_c   9.75360200
_cell_angle_alpha   90.00000000
_cell_angle_beta   90.00000000
_cell_angle_gamma   90.12982437
_symmetry_Int_Tables_number   1
_chemical_formula_structural   Nd12Os2RuRh
_chemical_formula_sum   'Nd12 Os2 Ru1 Rh1'
_cell_volume   475.75592170
_cell_formula_units_Z   1
loop_
 _symmetry_equiv_pos_site_id
 _symmetry_equiv_pos_as_xyz
  1  'x, y, z'
loop_
 _atom_site_type_symbol
 _atom_site_label
 _atom_site_symmetry_multiplicity
 _atom_site_fract_x
 _atom_site_fract_y
 _atom_site_fract_z
 _atom_site_occupancy
  Nd  Nd0  1  0.332732  0.674389  0.064668  1
  Nd  Nd1  1  0.170616  0.178865  0.434116  1
  Nd  Nd2  1  0.671076  0.322985  0.566268  1
  Nd  Nd3  1  0.827049  0.823349  0.930725  1
  Nd  Nd4  1  0.671076  0.322985  0.933732  1
  Nd  Nd5  1  0.827049  0.823349  0.569275  1
  Nd  Nd6  1  0.332732  0.674389  0.435332  1
  Nd  Nd7  1  0.170616  0.178865  0.065884  1
  Nd  Nd8  1  0.857387  0.537510  0.250000  1
  Nd  Nd9  1  0.640902  0.041591  0.250000  1
  Nd  Nd10  1  0.141326  0.462154  0.750000  1
  Nd  Nd11  1  0.355830  0.961239  0.750000  1
  Os  Os12  1  0.446239  0.384085  0.250000  1
  Os  Os13  1  0.551534  0.615635  0.750000  1
  Ru  Ru14  1  0.949598  0.114435  0.750000  1
  Rh  Rh15  1  0.054239  0.884178  0.250000  1
