# generated using pymatgen
data_PrSm2Y2(FeB3)2
_symmetry_space_group_name_H-M   'P 1'
_cell_length_a   5.45708849
_cell_length_b   5.45708788
_cell_length_c   8.42658687
_cell_angle_alpha   71.10699341
_cell_angle_beta   71.10699468
_cell_angle_gamma   59.99999126
_symmetry_Int_Tables_number   1
_chemical_formula_structural   PrSm2Y2(FeB3)2
_chemical_formula_sum   'Pr1 Sm2 Y2 Fe2 B6'
_cell_volume   201.56018083
_cell_formula_units_Z   1
loop_
 _symmetry_equiv_pos_site_id
 _symmetry_equiv_pos_as_xyz
  1  'x, y, z'
loop_
 _atom_site_type_symbol
 _atom_site_label
 _atom_site_symmetry_multiplicity
 _atom_site_fract_x
 _atom_site_fract_y
 _atom_site_fract_z
 _atom_site_occupancy
  Pr  Pr0  1  0.000000  0.000000  0.000000  1
  Sm  Sm1  1  0.747668  0.747668  0.756995  1
  Sm  Sm2  1  0.252332  0.252332  0.243005  1
  Y  Y3  1  0.581164  0.581164  0.256507  1
  Y  Y4  1  0.418836  0.418836  0.743493  1
  Fe  Fe5  1  0.881565  0.881565  0.355305  1
  Fe  Fe6  1  0.118435  0.118435  0.644695  1
  B  B7  1  0.500000  0.166853  0.500000  1
  B  B8  1  0.833147  0.500000  0.500000  1
  B  B9  1  0.166853  0.833147  0.500000  1
  B  B10  1  0.166853  0.500000  0.500000  1
  B  B11  1  0.833147  0.166853  0.500000  1
  B  B12  1  0.500000  0.833147  0.500000  1
