# generated using pymatgen
data_Lu8Al2RuRh
_symmetry_space_group_name_H-M   'P 1'
_cell_length_a   9.32138329
_cell_length_b   9.32138350
_cell_length_c   9.32471400
_cell_angle_alpha   59.98818003
_cell_angle_beta   59.98817927
_cell_angle_gamma   59.95334424
_symmetry_Int_Tables_number   1
_chemical_formula_structural   Lu8Al2RuRh
_chemical_formula_sum   'Lu16 Al4 Ru2 Rh2'
_cell_volume   572.59867279
_cell_formula_units_Z   2
loop_
 _symmetry_equiv_pos_site_id
 _symmetry_equiv_pos_as_xyz
  1  'x, y, z'
loop_
 _atom_site_type_symbol
 _atom_site_label
 _atom_site_symmetry_multiplicity
 _atom_site_fract_x
 _atom_site_fract_y
 _atom_site_fract_z
 _atom_site_occupancy
  Lu  Lu0  1  0.601948  0.601948  0.603438  1
  Lu  Lu1  1  0.601948  0.601948  0.192669  1
  Lu  Lu2  1  0.600866  0.194483  0.602326  1
  Lu  Lu3  1  0.194483  0.600866  0.602326  1
  Lu  Lu4  1  0.057302  0.443892  0.444577  1
  Lu  Lu5  1  0.443892  0.057302  0.054229  1
  Lu  Lu6  1  0.443892  0.057302  0.444577  1
  Lu  Lu7  1  0.057302  0.443892  0.054229  1
  Lu  Lu8  1  0.444056  0.444056  0.055944  1
  Lu  Lu9  1  0.055409  0.055409  0.444591  1
  Lu  Lu10  1  0.187909  0.809934  0.813559  1
  Lu  Lu11  1  0.809934  0.187909  0.188598  1
  Lu  Lu12  1  0.809934  0.187909  0.813559  1
  Lu  Lu13  1  0.187909  0.809934  0.188598  1
  Lu  Lu14  1  0.813212  0.813212  0.186788  1
  Lu  Lu15  1  0.189710  0.189710  0.810290  1
  Al  Al16  1  0.828239  0.828239  0.827845  1
  Al  Al17  1  0.828239  0.828239  0.515678  1
  Al  Al18  1  0.828833  0.514431  0.828368  1
  Al  Al19  1  0.514431  0.828833  0.828368  1
  Ru  Ru20  1  0.392037  0.392037  0.391296  1
  Ru  Ru21  1  0.392037  0.392037  0.824629  1
  Rh  Rh22  1  0.391853  0.824626  0.391760  1
  Rh  Rh23  1  0.824626  0.391853  0.391760  1
