# generated using pymatgen
data_NaLi3(FeBr4)4
_symmetry_space_group_name_H-M   'P 1'
_cell_length_a   7.42318216
_cell_length_b   7.63665702
_cell_length_c   14.07773362
_cell_angle_alpha   87.22426006
_cell_angle_beta   89.71659480
_cell_angle_gamma   90.01972946
_symmetry_Int_Tables_number   1
_chemical_formula_structural   NaLi3(FeBr4)4
_chemical_formula_sum   'Na1 Li3 Fe4 Br16'
_cell_volume   797.09652717
_cell_formula_units_Z   1
loop_
 _symmetry_equiv_pos_site_id
 _symmetry_equiv_pos_as_xyz
  1  'x, y, z'
loop_
 _atom_site_type_symbol
 _atom_site_label
 _atom_site_symmetry_multiplicity
 _atom_site_fract_x
 _atom_site_fract_y
 _atom_site_fract_z
 _atom_site_occupancy
  Na  Na0  1  0.488276  0.850258  0.867052  1
  Li  Li1  1  0.519816  0.152588  0.122856  1
  Li  Li2  1  0.985121  0.148808  0.619055  1
  Li  Li3  1  0.020229  0.850718  0.375820  1
  Fe  Fe4  1  0.165197  0.711253  0.596988  1
  Fe  Fe5  1  0.828384  0.289718  0.398854  1
  Fe  Fe6  1  0.679871  0.287110  0.900137  1
  Fe  Fe7  1  0.320856  0.707826  0.107377  1
  Br  Br8  1  0.169309  0.440045  0.682303  1
  Br  Br9  1  0.832735  0.564728  0.317365  1
  Br  Br10  1  0.694626  0.549854  0.808202  1
  Br  Br11  1  0.333866  0.432859  0.189230  1
  Br  Br12  1  0.299870  0.941775  0.680362  1
  Br  Br13  1  0.687978  0.072913  0.309340  1
  Br  Br14  1  0.821353  0.066733  0.811664  1
  Br  Br15  1  0.182303  0.927948  0.196494  1
  Br  Br16  1  0.170480  0.689266  0.961955  1
  Br  Br17  1  0.814240  0.303421  0.050456  1
  Br  Br18  1  0.691259  0.302462  0.549669  1
  Br  Br19  1  0.307538  0.692017  0.448483  1
  Br  Br20  1  0.867712  0.814183  0.565809  1
  Br  Br21  1  0.125019  0.182198  0.430705  1
  Br  Br22  1  0.376633  0.203327  0.934778  1
  Br  Br23  1  0.617329  0.817993  0.075046  1
