# generated using pymatgen
data_Rb2Cr(CuSe2)2
_symmetry_space_group_name_H-M   'P 1'
_cell_length_a   5.89886800
_cell_length_b   5.89886800
_cell_length_c   13.67955400
_cell_angle_alpha   90.00000000
_cell_angle_beta   90.00000000
_cell_angle_gamma   90.00000000
_symmetry_Int_Tables_number   1
_chemical_formula_structural   Rb2Cr(CuSe2)2
_chemical_formula_sum   'Rb4 Cr2 Cu4 Se8'
_cell_volume   476.00256626
_cell_formula_units_Z   2
loop_
 _symmetry_equiv_pos_site_id
 _symmetry_equiv_pos_as_xyz
  1  'x, y, z'
loop_
 _atom_site_type_symbol
 _atom_site_label
 _atom_site_symmetry_multiplicity
 _atom_site_fract_x
 _atom_site_fract_y
 _atom_site_fract_z
 _atom_site_occupancy
  Rb  Rb0  1  0.754056  0.754056  0.000000  1
  Rb  Rb1  1  0.245944  0.754056  0.500000  1
  Rb  Rb2  1  0.754056  0.245944  0.500000  1
  Rb  Rb3  1  0.245944  0.245944  0.000000  1
  Cr  Cr4  1  0.500000  0.500000  0.250000  1
  Cr  Cr5  1  0.500000  0.500000  0.750000  1
  Cu  Cu6  1  0.000000  0.500000  0.750000  1
  Cu  Cu7  1  0.500000  0.000000  0.750000  1
  Cu  Cu8  1  0.500000  0.000000  0.250000  1
  Cu  Cu9  1  0.000000  0.500000  0.250000  1
  Se  Se10  1  0.734725  0.265275  0.153752  1
  Se  Se11  1  0.734725  0.734725  0.346248  1
  Se  Se12  1  0.265275  0.265275  0.653752  1
  Se  Se13  1  0.734725  0.734725  0.653752  1
  Se  Se14  1  0.265275  0.265275  0.346248  1
  Se  Se15  1  0.734725  0.265275  0.846248  1
  Se  Se16  1  0.265275  0.734725  0.846248  1
  Se  Se17  1  0.265275  0.734725  0.153752  1
