# generated using pymatgen
data_Dy8Tm4InCo4Ru
_symmetry_space_group_name_H-M   'P 1'
_cell_length_a   8.25296421
_cell_length_b   8.25296549
_cell_length_c   8.25296580
_cell_angle_alpha   111.02908040
_cell_angle_beta   111.14863354
_cell_angle_gamma   106.28226830
_symmetry_Int_Tables_number   1
_chemical_formula_structural   Dy8Tm4InCo4Ru
_chemical_formula_sum   'Dy8 Tm4 In1 Co4 Ru1'
_cell_volume   431.72246627
_cell_formula_units_Z   1
loop_
 _symmetry_equiv_pos_site_id
 _symmetry_equiv_pos_as_xyz
  1  'x, y, z'
loop_
 _atom_site_type_symbol
 _atom_site_label
 _atom_site_symmetry_multiplicity
 _atom_site_fract_x
 _atom_site_fract_y
 _atom_site_fract_z
 _atom_site_occupancy
  Dy  Dy0  1  0.184929  0.284078  0.469007  1
  Dy  Dy1  1  0.815071  0.715922  0.530993  1
  Dy  Dy2  1  0.184929  0.715922  0.900852  1
  Dy  Dy3  1  0.815071  0.284078  0.099148  1
  Dy  Dy4  1  0.313808  0.619141  0.305333  1
  Dy  Dy5  1  0.686192  0.380859  0.694667  1
  Dy  Dy6  1  0.313808  0.008475  0.694667  1
  Dy  Dy7  1  0.686192  0.991525  0.305333  1
  Tm  Tm8  1  0.409884  0.217547  0.192338  1
  Tm  Tm9  1  0.590116  0.782453  0.807662  1
  Tm  Tm10  1  0.025208  0.217547  0.807662  1
  Tm  Tm11  1  0.974792  0.782453  0.192338  1
  In  In12  1  0.500000  0.500000  0.000000  1
  Co  Co13  1  0.375380  0.000000  0.375380  1
  Co  Co14  1  0.624620  0.000000  0.624620  1
  Co  Co15  1  0.111752  0.611752  0.500000  1
  Co  Co16  1  0.888248  0.388248  0.500000  1
  Ru  Ru17  1  0.000000  0.000000  0.000000  1
