# generated using pymatgen
data_Pa2Si3Pt
_symmetry_space_group_name_H-M   'P 1'
_cell_length_a   3.92329600
_cell_length_b   4.13628000
_cell_length_c   7.10402000
_cell_angle_alpha   90.00317641
_cell_angle_beta   90.00000000
_cell_angle_gamma   90.00000000
_symmetry_Int_Tables_number   1
_chemical_formula_structural   Pa2Si3Pt
_chemical_formula_sum   'Pa2 Si3 Pt1'
_cell_volume   115.28297640
_cell_formula_units_Z   1
loop_
 _symmetry_equiv_pos_site_id
 _symmetry_equiv_pos_as_xyz
  1  'x, y, z'
loop_
 _atom_site_type_symbol
 _atom_site_label
 _atom_site_symmetry_multiplicity
 _atom_site_fract_x
 _atom_site_fract_y
 _atom_site_fract_z
 _atom_site_occupancy
  Pa  Pa0  1  0.000000  0.999954  0.991479  1
  Pa  Pa1  1  0.000000  0.499948  0.509640  1
  Si  Si2  1  0.500000  0.499962  0.829899  1
  Si  Si3  1  0.500000  0.499986  0.160882  1
  Si  Si4  1  0.500000  0.999951  0.672841  1
  Pt  Pt5  1  0.500000  0.999999  0.335260  1
