# generated using pymatgen
data_Dy8Hg3Au
_symmetry_space_group_name_H-M   'P 1'
_cell_length_a   5.04597100
_cell_length_b   7.09379125
_cell_length_c   9.23228670
_cell_angle_alpha   90.29203165
_cell_angle_beta   90.00000000
_cell_angle_gamma   90.00000000
_symmetry_Int_Tables_number   1
_chemical_formula_structural   Dy8Hg3Au
_chemical_formula_sum   'Dy8 Hg3 Au1'
_cell_volume   330.46600939
_cell_formula_units_Z   1
loop_
 _symmetry_equiv_pos_site_id
 _symmetry_equiv_pos_as_xyz
  1  'x, y, z'
loop_
 _atom_site_type_symbol
 _atom_site_label
 _atom_site_symmetry_multiplicity
 _atom_site_fract_x
 _atom_site_fract_y
 _atom_site_fract_z
 _atom_site_occupancy
  Dy  Dy0  1  0.250000  0.839076  0.922955  1
  Dy  Dy1  1  0.250000  0.333440  0.571743  1
  Dy  Dy2  1  0.750000  0.167662  0.086635  1
  Dy  Dy3  1  0.750000  0.650729  0.422507  1
  Dy  Dy4  1  0.250000  0.487109  0.188442  1
  Dy  Dy5  1  0.250000  0.990780  0.314502  1
  Dy  Dy6  1  0.750000  0.514107  0.809845  1
  Dy  Dy7  1  0.750000  0.018568  0.681937  1
  Hg  Hg8  1  0.250000  0.262677  0.896627  1
  Hg  Hg9  1  0.250000  0.757173  0.602910  1
  Hg  Hg10  1  0.750000  0.739425  0.101638  1
  Au  Au11  1  0.750000  0.239255  0.400259  1
