# generated using pymatgen
data_Y10In8PtAu3
_symmetry_space_group_name_H-M   'P 1'
_cell_length_a   3.67063500
_cell_length_b   8.21956000
_cell_length_c   18.44743000
_cell_angle_alpha   89.99990938
_cell_angle_beta   90.00000000
_cell_angle_gamma   90.00000000
_symmetry_Int_Tables_number   1
_chemical_formula_structural   Y10In8PtAu3
_chemical_formula_sum   'Y10 In8 Pt1 Au3'
_cell_volume   556.57749577
_cell_formula_units_Z   1
loop_
 _symmetry_equiv_pos_site_id
 _symmetry_equiv_pos_as_xyz
  1  'x, y, z'
loop_
 _atom_site_type_symbol
 _atom_site_label
 _atom_site_symmetry_multiplicity
 _atom_site_fract_x
 _atom_site_fract_y
 _atom_site_fract_z
 _atom_site_occupancy
  Y  Y0  1  0.500000  0.248838  0.783241  1
  Y  Y1  1  0.500000  0.763131  0.217017  1
  Y  Y2  1  0.500000  0.261982  0.282567  1
  Y  Y3  1  0.500000  0.730518  0.720063  1
  Y  Y4  1  0.500000  0.120871  0.580172  1
  Y  Y5  1  0.500000  0.878611  0.420551  1
  Y  Y6  1  0.500000  0.378907  0.079106  1
  Y  Y7  1  0.500000  0.616985  0.916447  1
  Y  Y8  1  0.500000  0.000741  0.999372  1
  Y  Y9  1  0.500000  0.500588  0.500581  1
  In  In10  1  0.000000  0.079887  0.147271  1
  In  In11  1  0.000000  0.919550  0.851667  1
  In  In12  1  0.000000  0.421309  0.648910  1
  In  In13  1  0.000000  0.579910  0.352655  1
  In  In14  1  0.000000  0.209794  0.433094  1
  In  In15  1  0.000000  0.789969  0.567845  1
  In  In16  1  0.000000  0.291856  0.932500  1
  In  In17  1  0.000000  0.709493  0.065921  1
  Pt  Pt18  1  0.000000  0.526272  0.803999  1
  Au  Au19  1  0.000000  0.027341  0.697179  1
  Au  Au20  1  0.000000  0.971586  0.303537  1
  Au  Au21  1  0.000000  0.471862  0.196309  1
