# generated using pymatgen
data_TmPa3Rh4
_symmetry_space_group_name_H-M   'P 1'
_cell_length_a   3.95822900
_cell_length_b   5.75357465
_cell_length_c   7.50602843
_cell_angle_alpha   90.44729717
_cell_angle_beta   90.00000000
_cell_angle_gamma   90.00000000
_symmetry_Int_Tables_number   1
_chemical_formula_structural   TmPa3Rh4
_chemical_formula_sum   'Tm1 Pa3 Rh4'
_cell_volume   170.93682731
_cell_formula_units_Z   1
loop_
 _symmetry_equiv_pos_site_id
 _symmetry_equiv_pos_as_xyz
  1  'x, y, z'
loop_
 _atom_site_type_symbol
 _atom_site_label
 _atom_site_symmetry_multiplicity
 _atom_site_fract_x
 _atom_site_fract_y
 _atom_site_fract_z
 _atom_site_occupancy
  Tm  Tm0  1  0.250000  0.836817  0.671068  1
  Pa  Pa1  1  0.250000  0.673844  0.169875  1
  Pa  Pa2  1  0.750000  0.334019  0.825122  1
  Pa  Pa3  1  0.750000  0.168130  0.333869  1
  Rh  Rh4  1  0.250000  0.181369  0.065925  1
  Rh  Rh5  1  0.750000  0.819506  0.946993  1
  Rh  Rh6  1  0.750000  0.661041  0.421632  1
  Rh  Rh7  1  0.250000  0.325274  0.565517  1
