# generated using pymatgen
data_Sr2AlPtI
_symmetry_space_group_name_H-M   'P 1'
_cell_length_a   4.41221600
_cell_length_b   4.41221638
_cell_length_c   18.55223300
_cell_angle_alpha   90.00000000
_cell_angle_beta   90.00000000
_cell_angle_gamma   120.00001217
_symmetry_Int_Tables_number   1
_chemical_formula_structural   Sr2AlPtI
_chemical_formula_sum   'Sr4 Al2 Pt2 I2'
_cell_volume   312.78097984
_cell_formula_units_Z   2
loop_
 _symmetry_equiv_pos_site_id
 _symmetry_equiv_pos_as_xyz
  1  'x, y, z'
loop_
 _atom_site_type_symbol
 _atom_site_label
 _atom_site_symmetry_multiplicity
 _atom_site_fract_x
 _atom_site_fract_y
 _atom_site_fract_z
 _atom_site_occupancy
  Sr  Sr0  1  0.000000  0.000000  0.386707  1
  Sr  Sr1  1  0.000000  0.000000  0.886707  1
  Sr  Sr2  1  0.000000  0.000000  0.613758  1
  Sr  Sr3  1  0.000000  0.000000  0.113758  1
  Al  Al4  1  0.333333  0.666667  0.501018  1
  Al  Al5  1  0.666667  0.333333  0.001018  1
  Pt  Pt6  1  0.666667  0.333333  0.498423  1
  Pt  Pt7  1  0.333333  0.666667  0.998423  1
  I  I8  1  0.333333  0.666667  0.250094  1
  I  I9  1  0.666667  0.333333  0.750094  1
