# generated using pymatgen
data_Hf4Ti3MoP4
_symmetry_space_group_name_H-M   'P 1'
_cell_length_a   3.50906000
_cell_length_b   6.74559368
_cell_length_c   8.13807619
_cell_angle_alpha   90.19363855
_cell_angle_beta   90.00000000
_cell_angle_gamma   90.00000000
_symmetry_Int_Tables_number   1
_chemical_formula_structural   Hf4Ti3MoP4
_chemical_formula_sum   'Hf4 Ti3 Mo1 P4'
_cell_volume   192.63280262
_cell_formula_units_Z   1
loop_
 _symmetry_equiv_pos_site_id
 _symmetry_equiv_pos_as_xyz
  1  'x, y, z'
loop_
 _atom_site_type_symbol
 _atom_site_label
 _atom_site_symmetry_multiplicity
 _atom_site_fract_x
 _atom_site_fract_y
 _atom_site_fract_z
 _atom_site_occupancy
  Hf  Hf0  1  0.250000  0.535578  0.168676  1
  Hf  Hf1  1  0.750000  0.460470  0.831970  1
  Hf  Hf2  1  0.750000  0.964527  0.667618  1
  Hf  Hf3  1  0.250000  0.035555  0.330808  1
  Ti  Ti4  1  0.250000  0.634868  0.560704  1
  Ti  Ti5  1  0.750000  0.363636  0.439630  1
  Ti  Ti6  1  0.750000  0.866942  0.058506  1
  Mo  Mo7  1  0.250000  0.138858  0.940878  1
  P  P8  1  0.250000  0.761443  0.858457  1
  P  P9  1  0.750000  0.238073  0.144095  1
  P  P10  1  0.750000  0.738896  0.360716  1
  P  P11  1  0.250000  0.261155  0.637942  1
