# generated using pymatgen
data_Tb6GdFeCl12
_symmetry_space_group_name_H-M   'P 1'
_cell_length_a   9.06726433
_cell_length_b   9.06726555
_cell_length_c   9.06726600
_cell_angle_alpha   106.64164232
_cell_angle_beta   106.64164462
_cell_angle_gamma   106.64165446
_symmetry_Int_Tables_number   1
_chemical_formula_structural   Tb6GdFeCl12
_chemical_formula_sum   'Tb6 Gd1 Fe1 Cl12'
_cell_volume   626.80274461
_cell_formula_units_Z   1
loop_
 _symmetry_equiv_pos_site_id
 _symmetry_equiv_pos_as_xyz
  1  'x, y, z'
loop_
 _atom_site_type_symbol
 _atom_site_label
 _atom_site_symmetry_multiplicity
 _atom_site_fract_x
 _atom_site_fract_y
 _atom_site_fract_z
 _atom_site_occupancy
  Tb  Tb0  1  0.305904  0.101700  0.017714  1
  Tb  Tb1  1  0.101700  0.017714  0.305904  1
  Tb  Tb2  1  0.017714  0.305904  0.101700  1
  Tb  Tb3  1  0.694096  0.898300  0.982286  1
  Tb  Tb4  1  0.898300  0.982286  0.694096  1
  Tb  Tb5  1  0.982286  0.694096  0.898300  1
  Gd  Gd6  1  0.500000  0.500000  0.500000  1
  Fe  Fe7  1  0.000000  0.000000  0.000000  1
  Cl  Cl8  1  0.206392  0.069026  0.680042  1
  Cl  Cl9  1  0.069026  0.680042  0.206392  1
  Cl  Cl10  1  0.680042  0.206392  0.069026  1
  Cl  Cl11  1  0.793608  0.930974  0.319958  1
  Cl  Cl12  1  0.930974  0.319958  0.793608  1
  Cl  Cl13  1  0.319958  0.793608  0.930974  1
  Cl  Cl14  1  0.371599  0.450565  0.167798  1
  Cl  Cl15  1  0.450565  0.167798  0.371599  1
  Cl  Cl16  1  0.167798  0.371599  0.450565  1
  Cl  Cl17  1  0.628401  0.549435  0.832202  1
  Cl  Cl18  1  0.549435  0.832202  0.628401  1
  Cl  Cl19  1  0.832202  0.628401  0.549435  1
