# generated using pymatgen
data_Ce6Mg2HgAu9
_symmetry_space_group_name_H-M   'P 1'
_cell_length_a   8.05842787
_cell_length_b   8.05842682
_cell_length_c   8.05842800
_cell_angle_alpha   65.58720164
_cell_angle_beta   65.58720502
_cell_angle_gamma   65.58718753
_symmetry_Int_Tables_number   1
_chemical_formula_structural   Ce6Mg2HgAu9
_chemical_formula_sum   'Ce6 Mg2 Hg1 Au9'
_cell_volume   414.93948625
_cell_formula_units_Z   1
loop_
 _symmetry_equiv_pos_site_id
 _symmetry_equiv_pos_as_xyz
  1  'x, y, z'
loop_
 _atom_site_type_symbol
 _atom_site_label
 _atom_site_symmetry_multiplicity
 _atom_site_fract_x
 _atom_site_fract_y
 _atom_site_fract_z
 _atom_site_occupancy
  Ce  Ce0  1  0.898143  0.186225  0.623384  1
  Ce  Ce1  1  0.623384  0.898143  0.186225  1
  Ce  Ce2  1  0.186225  0.623384  0.898143  1
  Ce  Ce3  1  0.101857  0.813775  0.376616  1
  Ce  Ce4  1  0.376616  0.101857  0.813775  1
  Ce  Ce5  1  0.813775  0.376616  0.101857  1
  Mg  Mg6  1  0.657553  0.657553  0.657553  1
  Mg  Mg7  1  0.342447  0.342447  0.342447  1
  Hg  Hg8  1  0.500000  0.500000  0.500000  1
  Au  Au9  1  0.000000  0.000000  0.000000  1
  Au  Au10  1  0.801225  0.801225  0.801225  1
  Au  Au11  1  0.198775  0.198775  0.198775  1
  Au  Au12  1  0.938262  0.550940  0.320405  1
  Au  Au13  1  0.320405  0.938262  0.550940  1
  Au  Au14  1  0.550940  0.320405  0.938262  1
  Au  Au15  1  0.061738  0.449060  0.679595  1
  Au  Au16  1  0.679595  0.061738  0.449060  1
  Au  Au17  1  0.449060  0.679595  0.061738  1
