# generated using pymatgen
data_Tb4HfZrPt2F28
_symmetry_space_group_name_H-M   'P 1'
_cell_length_a   5.66154981
_cell_length_b   9.03097850
_cell_length_c   12.12989707
_cell_angle_alpha   62.28673934
_cell_angle_beta   90.11860251
_cell_angle_gamma   90.13951583
_symmetry_Int_Tables_number   1
_chemical_formula_structural   Tb4HfZrPt2F28
_chemical_formula_sum   'Tb4 Hf1 Zr1 Pt2 F28'
_cell_volume   549.04675662
_cell_formula_units_Z   1
loop_
 _symmetry_equiv_pos_site_id
 _symmetry_equiv_pos_as_xyz
  1  'x, y, z'
loop_
 _atom_site_type_symbol
 _atom_site_label
 _atom_site_symmetry_multiplicity
 _atom_site_fract_x
 _atom_site_fract_y
 _atom_site_fract_z
 _atom_site_occupancy
  Tb  Tb0  1  0.256995  0.812714  0.270043  1
  Tb  Tb1  1  0.742936  0.188178  0.730588  1
  Tb  Tb2  1  0.759759  0.182453  0.239643  1
  Tb  Tb3  1  0.240060  0.817598  0.759330  1
  Hf  Hf4  1  0.244518  0.274341  0.956201  1
  Zr  Zr5  1  0.754808  0.725493  0.043509  1
  Pt  Pt6  1  0.259252  0.273449  0.456139  1
  Pt  Pt7  1  0.740821  0.726502  0.543890  1
  F  F8  1  0.935436  0.704047  0.418277  1
  F  F9  1  0.064575  0.295930  0.581837  1
  F  F10  1  0.461080  0.289747  0.081385  1
  F  F11  1  0.536123  0.709649  0.916375  1
  F  F12  1  0.476851  0.732125  0.147346  1
  F  F13  1  0.518714  0.268016  0.854041  1
  F  F14  1  0.971688  0.271287  0.365277  1
  F  F15  1  0.028317  0.728389  0.634760  1
  F  F16  1  0.962758  0.749017  0.173084  1
  F  F17  1  0.038791  0.251510  0.828740  1
  F  F18  1  0.450599  0.257491  0.325909  1
  F  F19  1  0.549648  0.742306  0.674024  1
  F  F20  1  0.779287  0.472217  0.142585  1
  F  F21  1  0.221176  0.523998  0.858671  1
  F  F22  1  0.267129  0.519333  0.359735  1
  F  F23  1  0.732824  0.480602  0.640522  1
  F  F24  1  0.951240  0.274068  0.051356  1
  F  F25  1  0.053703  0.725854  0.947717  1
  F  F26  1  0.446729  0.716661  0.459923  1
  F  F27  1  0.553379  0.283259  0.540324  1
  F  F28  1  0.740649  0.972372  0.452074  1
  F  F29  1  0.259337  0.027471  0.547816  1
  F  F30  1  0.241347  0.025064  0.060215  1
  F  F31  1  0.759200  0.978508  0.938604  1
  F  F32  1  0.579438  0.969470  0.236749  1
  F  F33  1  0.421132  0.030350  0.763051  1
  F  F34  1  0.080408  0.027204  0.272694  1
  F  F35  1  0.919295  0.973328  0.727565  1
