# generated using pymatgen
data_YbThNiAs2
_symmetry_space_group_name_H-M   'P 1'
_cell_length_a   4.17115400
_cell_length_b   4.17115508
_cell_length_c   14.69908800
_cell_angle_alpha   90.00000000
_cell_angle_beta   90.00000000
_cell_angle_gamma   120.00000727
_symmetry_Int_Tables_number   1
_chemical_formula_structural   YbThNiAs2
_chemical_formula_sum   'Yb2 Th2 Ni2 As4'
_cell_volume   221.47950863
_cell_formula_units_Z   2
loop_
 _symmetry_equiv_pos_site_id
 _symmetry_equiv_pos_as_xyz
  1  'x, y, z'
loop_
 _atom_site_type_symbol
 _atom_site_label
 _atom_site_symmetry_multiplicity
 _atom_site_fract_x
 _atom_site_fract_y
 _atom_site_fract_z
 _atom_site_occupancy
  Yb  Yb0  1  0.666667  0.333333  0.355211  1
  Yb  Yb1  1  0.333333  0.666667  0.855211  1
  Th  Th2  1  0.666667  0.333333  0.617474  1
  Th  Th3  1  0.333333  0.666667  0.117474  1
  Ni  Ni4  1  0.000000  0.000000  0.985231  1
  Ni  Ni5  1  0.000000  0.000000  0.485231  1
  As  As6  1  0.666667  0.333333  0.988730  1
  As  As7  1  0.333333  0.666667  0.488730  1
  As  As8  1  0.000000  0.000000  0.737685  1
  As  As9  1  0.000000  0.000000  0.237685  1
