# generated using pymatgen
data_K8Sr4TiSiAs8
_symmetry_space_group_name_H-M   'P 1'
_cell_length_a   10.24440027
_cell_length_b   10.27739032
_cell_length_c   7.76812739
_cell_angle_alpha   88.11370926
_cell_angle_beta   88.27863518
_cell_angle_gamma   119.32518579
_symmetry_Int_Tables_number   1
_chemical_formula_structural   K8Sr4TiSiAs8
_chemical_formula_sum   'K8 Sr4 Ti1 Si1 As8'
_cell_volume   711.67861336
_cell_formula_units_Z   1
loop_
 _symmetry_equiv_pos_site_id
 _symmetry_equiv_pos_as_xyz
  1  'x, y, z'
loop_
 _atom_site_type_symbol
 _atom_site_label
 _atom_site_symmetry_multiplicity
 _atom_site_fract_x
 _atom_site_fract_y
 _atom_site_fract_z
 _atom_site_occupancy
  K  K0  1  0.477643  0.948869  0.385076  1
  K  K1  1  0.945865  0.476307  0.885570  1
  K  K2  1  0.866651  0.723787  0.168642  1
  K  K3  1  0.268855  0.127271  0.232909  1
  K  K4  1  0.854458  0.140431  0.196602  1
  K  K5  1  0.128375  0.271715  0.731454  1
  K  K6  1  0.718989  0.863184  0.665834  1
  K  K7  1  0.141282  0.852231  0.694455  1
  Sr  Sr8  1  0.056771  0.526839  0.390576  1
  Sr  Sr9  1  0.478399  0.524637  0.379570  1
  Sr  Sr10  1  0.531138  0.063900  0.890422  1
  Sr  Sr11  1  0.529317  0.477075  0.880892  1
  Ti  Ti12  1  0.334862  0.664924  0.991550  1
  Si  Si13  1  0.663345  0.334565  0.496149  1
  As  As14  1  0.651321  0.334963  0.180894  1
  As  As15  1  0.331278  0.645344  0.668831  1
  As  As16  1  0.210950  0.404072  0.126782  1
  As  As17  1  0.602671  0.796934  0.074368  1
  As  As18  1  0.209814  0.803836  0.096466  1
  As  As19  1  0.791847  0.595194  0.575735  1
  As  As20  1  0.407873  0.213194  0.626124  1
  As  As21  1  0.798105  0.210538  0.596440  1
