# generated using pymatgen
data_Tb2Th2Pd11Pt
_symmetry_space_group_name_H-M   'P 1'
_cell_length_a   5.90927700
_cell_length_b   5.89572606
_cell_length_c   9.70631439
_cell_angle_alpha   90.17092722
_cell_angle_beta   90.00000000
_cell_angle_gamma   120.07604391
_symmetry_Int_Tables_number   1
_chemical_formula_structural   Tb2Th2Pd11Pt
_chemical_formula_sum   'Tb2 Th2 Pd11 Pt1'
_cell_volume   292.63128409
_cell_formula_units_Z   1
loop_
 _symmetry_equiv_pos_site_id
 _symmetry_equiv_pos_as_xyz
  1  'x, y, z'
loop_
 _atom_site_type_symbol
 _atom_site_label
 _atom_site_symmetry_multiplicity
 _atom_site_fract_x
 _atom_site_fract_y
 _atom_site_fract_z
 _atom_site_occupancy
  Tb  Tb0  1  0.333876  0.667754  0.250586  1
  Tb  Tb1  1  0.666124  0.332246  0.749414  1
  Th  Th2  1  0.000000  0.000000  0.500000  1
  Th  Th3  1  0.000000  0.000000  0.000000  1
  Pd  Pd4  1  0.500000  0.500000  0.500000  1
  Pd  Pd5  1  0.000000  0.500000  0.500000  1
  Pd  Pd6  1  0.500000  0.500000  0.000000  1
  Pd  Pd7  1  0.500000  0.000000  0.000000  1
  Pd  Pd8  1  0.000000  0.500000  0.000000  1
  Pd  Pd9  1  0.826211  0.652423  0.248951  1
  Pd  Pd10  1  0.348523  0.174497  0.249467  1
  Pd  Pd11  1  0.825973  0.174497  0.249467  1
  Pd  Pd12  1  0.173789  0.347577  0.751049  1
  Pd  Pd13  1  0.651477  0.825503  0.750533  1
  Pd  Pd14  1  0.174027  0.825503  0.750533  1
  Pt  Pt15  1  0.500000  0.000000  0.500000  1
