# generated using pymatgen
data_Zr2V2C3
_symmetry_space_group_name_H-M   'P 1'
_cell_length_a   5.66922694
_cell_length_b   5.66922591
_cell_length_c   5.32658668
_cell_angle_alpha   107.39219845
_cell_angle_beta   107.39219435
_cell_angle_gamma   32.71160306
_symmetry_Int_Tables_number   1
_chemical_formula_structural   Zr2V2C3
_chemical_formula_sum   'Zr2 V2 C3'
_cell_volume   87.91319533
_cell_formula_units_Z   1
loop_
 _symmetry_equiv_pos_site_id
 _symmetry_equiv_pos_as_xyz
  1  'x, y, z'
loop_
 _atom_site_type_symbol
 _atom_site_label
 _atom_site_symmetry_multiplicity
 _atom_site_fract_x
 _atom_site_fract_y
 _atom_site_fract_z
 _atom_site_occupancy
  Zr  Zr0  1  0.387626  0.387626  0.158742  1
  Zr  Zr1  1  0.612374  0.612374  0.841260  1
  V  V2  1  0.150933  0.150933  0.341213  1
  V  V3  1  0.849066  0.849066  0.658786  1
  C  C4  1  0.000000  0.000000  0.000000  1
  C  C5  1  0.751598  0.751598  0.264875  1
  C  C6  1  0.248402  0.248402  0.735125  1
