# generated using pymatgen
data_SrMn2Cr(PO4)3
_symmetry_space_group_name_H-M   'P 1'
_cell_length_a   9.25725631
_cell_length_b   9.25725597
_cell_length_c   9.25725613
_cell_angle_alpha   137.11260594
_cell_angle_beta   110.36334531
_cell_angle_gamma   85.37320920
_symmetry_Int_Tables_number   1
_chemical_formula_structural   SrMn2Cr(PO4)3
_chemical_formula_sum   'Sr2 Mn4 Cr2 P6 O24'
_cell_volume   486.90679594
_cell_formula_units_Z   2
loop_
 _symmetry_equiv_pos_site_id
 _symmetry_equiv_pos_as_xyz
  1  'x, y, z'
loop_
 _atom_site_type_symbol
 _atom_site_label
 _atom_site_symmetry_multiplicity
 _atom_site_fract_x
 _atom_site_fract_y
 _atom_site_fract_z
 _atom_site_occupancy
  Sr  Sr0  1  0.250000  0.350633  0.100633  1
  Sr  Sr1  1  0.750000  0.649367  0.899367  1
  Mn  Mn2  1  0.118310  0.118310  0.500000  1
  Mn  Mn3  1  0.381690  0.881690  0.000000  1
  Mn  Mn4  1  0.618310  0.118310  0.000000  1
  Mn  Mn5  1  0.881690  0.881690  0.500000  1
  Cr  Cr6  1  0.000000  0.500000  0.500000  1
  Cr  Cr7  1  0.500000  0.000000  0.500000  1
  P  P8  1  0.250000  0.843444  0.593444  1
  P  P9  1  0.750000  0.156556  0.406556  1
  P  P10  1  0.325846  0.325846  0.500000  1
  P  P11  1  0.174154  0.674154  0.000000  1
  P  P12  1  0.825846  0.325846  0.000000  1
  P  P13  1  0.674154  0.674154  0.500000  1
  O  O14  1  0.343155  0.804571  0.461418  1
  O  O15  1  0.656845  0.195429  0.538582  1
  O  O16  1  0.843155  0.381737  0.538582  1
  O  O17  1  0.156845  0.618263  0.461418  1
  O  O18  1  0.134548  0.986356  0.620904  1
  O  O19  1  0.634548  0.013644  0.148192  1
  O  O20  1  0.865452  0.013644  0.379096  1
  O  O21  1  0.365452  0.986356  0.851808  1
  O  O22  1  0.342984  0.210824  0.278858  1
  O  O23  1  0.068034  0.789176  0.132160  1
  O  O24  1  0.842984  0.564126  0.132160  1
  O  O25  1  0.568034  0.435874  0.278858  1
  O  O26  1  0.657016  0.789176  0.721142  1
  O  O27  1  0.931966  0.210824  0.867840  1
  O  O28  1  0.157016  0.435874  0.867840  1
  O  O29  1  0.431966  0.564126  0.721142  1
  O  O30  1  0.140164  0.302225  0.441321  1
  O  O31  1  0.139097  0.697775  0.837940  1
  O  O32  1  0.640164  0.198843  0.837940  1
  O  O33  1  0.639097  0.801157  0.441321  1
  O  O34  1  0.859836  0.697775  0.558679  1
  O  O35  1  0.860903  0.302225  0.162060  1
  O  O36  1  0.359836  0.801157  0.162060  1
  O  O37  1  0.360903  0.198843  0.558679  1
