# generated using pymatgen
data_FeCo2NiB4
_symmetry_space_group_name_H-M   'P 1'
_cell_length_a   3.06511000
_cell_length_b   3.94729165
_cell_length_c   5.19128501
_cell_angle_alpha   88.94559379
_cell_angle_beta   90.00000000
_cell_angle_gamma   90.00000000
_symmetry_Int_Tables_number   1
_chemical_formula_structural   FeCo2NiB4
_chemical_formula_sum   'Fe1 Co2 Ni1 B4'
_cell_volume   62.79811523
_cell_formula_units_Z   1
loop_
 _symmetry_equiv_pos_site_id
 _symmetry_equiv_pos_as_xyz
  1  'x, y, z'
loop_
 _atom_site_type_symbol
 _atom_site_label
 _atom_site_symmetry_multiplicity
 _atom_site_fract_x
 _atom_site_fract_y
 _atom_site_fract_z
 _atom_site_occupancy
  Fe  Fe0  1  0.500000  0.620687  0.822450  1
  Co  Co1  1  0.000000  0.124905  0.678767  1
  Co  Co2  1  0.000000  0.875099  0.174893  1
  Ni  Ni3  1  0.500000  0.373850  0.324148  1
  B  B4  1  0.000000  0.634556  0.540459  1
  B  B5  1  0.000000  0.372662  0.023767  1
  B  B6  1  0.500000  0.872796  0.471398  1
  B  B7  1  0.500000  0.125444  0.964118  1
