# generated using pymatgen
data_KPu(PO3)4
_symmetry_space_group_name_H-M   'P 1'
_cell_length_a   8.61914500
_cell_length_b   7.43613577
_cell_length_c   8.09239574
_cell_angle_alpha   88.13729806
_cell_angle_beta   90.00000000
_cell_angle_gamma   90.00000000
_symmetry_Int_Tables_number   1
_chemical_formula_structural   KPu(PO3)4
_chemical_formula_sum   'K2 Pu2 P8 O24'
_cell_volume   518.39292205
_cell_formula_units_Z   2
loop_
 _symmetry_equiv_pos_site_id
 _symmetry_equiv_pos_as_xyz
  1  'x, y, z'
loop_
 _atom_site_type_symbol
 _atom_site_label
 _atom_site_symmetry_multiplicity
 _atom_site_fract_x
 _atom_site_fract_y
 _atom_site_fract_z
 _atom_site_occupancy
  K  K0  1  0.054852  0.731396  0.715381  1
  K  K1  1  0.554852  0.268604  0.284619  1
  Pu  Pu2  1  0.734986  0.764624  0.241870  1
  Pu  Pu3  1  0.234986  0.235376  0.758130  1
  P  P4  1  0.993005  0.384580  0.394219  1
  P  P5  1  0.493005  0.615420  0.605781  1
  P  P6  1  0.091205  0.003939  0.380472  1
  P  P7  1  0.591205  0.996061  0.619528  1
  P  P8  1  0.318311  0.900599  0.103387  1
  P  P9  1  0.818311  0.099401  0.896613  1
  P  P10  1  0.115875  0.569255  0.095017  1
  P  P11  1  0.615875  0.430745  0.904983  1
  O  O12  1  0.052803  0.393968  0.568089  1
  O  O13  1  0.552803  0.606032  0.431911  1
  O  O14  1  0.839441  0.467340  0.350945  1
  O  O15  1  0.339441  0.532660  0.649055  1
  O  O16  1  0.984913  0.177973  0.339837  1
  O  O17  1  0.484913  0.822027  0.660163  1
  O  O18  1  0.188433  0.032036  0.532077  1
  O  O19  1  0.688433  0.967964  0.467923  1
  O  O20  1  0.988385  0.841152  0.383823  1
  O  O21  1  0.488385  0.158848  0.616177  1
  O  O22  1  0.199968  0.009607  0.218887  1
  O  O23  1  0.699968  0.990393  0.781113  1
  O  O24  1  0.472732  0.318556  0.928246  1
  O  O25  1  0.972732  0.681444  0.071754  1
  O  O26  1  0.648722  0.561862  0.038407  1
  O  O27  1  0.148722  0.438138  0.961593  1
  O  O28  1  0.768627  0.307454  0.882562  1
  O  O29  1  0.268627  0.692546  0.117438  1
  O  O30  1  0.627129  0.534894  0.727257  1
  O  O31  1  0.127129  0.465106  0.272743  1
  O  O32  1  0.789212  0.028161  0.069834  1
  O  O33  1  0.289212  0.971839  0.930166  1
  O  O34  1  0.978230  0.088203  0.824597  1
  O  O35  1  0.478230  0.911797  0.175403  1
