# generated using pymatgen
data_CaCoIO6
_symmetry_space_group_name_H-M   'P 1'
_cell_length_a   5.04580900
_cell_length_b   5.04580944
_cell_length_c   5.14001200
_cell_angle_alpha   90.00000000
_cell_angle_beta   90.00000000
_cell_angle_gamma   120.00000365
_symmetry_Int_Tables_number   1
_chemical_formula_structural   CaCoIO6
_chemical_formula_sum   'Ca1 Co1 I1 O6'
_cell_volume   113.33300416
_cell_formula_units_Z   1
loop_
 _symmetry_equiv_pos_site_id
 _symmetry_equiv_pos_as_xyz
  1  'x, y, z'
loop_
 _atom_site_type_symbol
 _atom_site_label
 _atom_site_symmetry_multiplicity
 _atom_site_fract_x
 _atom_site_fract_y
 _atom_site_fract_z
 _atom_site_occupancy
  Ca  Ca0  1  0.333334  0.666668  0.000000  1
  Co  Co1  1  0.666668  0.333334  0.500000  1
  I  I2  1  0.000000  0.000000  0.500000  1
  O  O3  1  0.705634  0.036976  0.291672  1
  O  O4  1  0.331342  0.294365  0.291672  1
  O  O5  1  0.963024  0.668657  0.291672  1
  O  O6  1  0.331342  0.036976  0.708327  1
  O  O7  1  0.963023  0.294365  0.708327  1
  O  O8  1  0.705633  0.668657  0.708327  1
