# generated using pymatgen
data_ErTm3(LuGa5)2
_symmetry_space_group_name_H-M   'P 1'
_cell_length_a   6.05190301
_cell_length_b   9.57337102
_cell_length_c   11.30336500
_cell_angle_alpha   90.00000000
_cell_angle_beta   90.00000000
_cell_angle_gamma   89.99302081
_symmetry_Int_Tables_number   1
_chemical_formula_structural   ErTm3(LuGa5)2
_chemical_formula_sum   'Er2 Tm6 Lu4 Ga20'
_cell_volume   654.88432918
_cell_formula_units_Z   2
loop_
 _symmetry_equiv_pos_site_id
 _symmetry_equiv_pos_as_xyz
  1  'x, y, z'
loop_
 _atom_site_type_symbol
 _atom_site_label
 _atom_site_symmetry_multiplicity
 _atom_site_fract_x
 _atom_site_fract_y
 _atom_site_fract_z
 _atom_site_occupancy
  Er  Er0  1  0.890025  0.511401  0.352571  1
  Er  Er1  1  0.609975  0.988599  0.852571  1
  Tm  Tm2  1  0.110006  0.011358  0.647392  1
  Tm  Tm3  1  0.389994  0.488642  0.147392  1
  Tm  Tm4  1  0.110003  0.488625  0.647550  1
  Tm  Tm5  1  0.389997  0.011375  0.147550  1
  Tm  Tm6  1  0.890036  0.988652  0.352536  1
  Tm  Tm7  1  0.609964  0.511348  0.852536  1
  Lu  Lu8  1  0.848405  0.749996  0.073128  1
  Lu  Lu9  1  0.651595  0.750004  0.573128  1
  Lu  Lu10  1  0.151502  0.249991  0.926892  1
  Lu  Lu11  1  0.348498  0.250009  0.426892  1
  Ga  Ga12  1  0.873570  0.051228  0.090922  1
  Ga  Ga13  1  0.626430  0.448772  0.590922  1
  Ga  Ga14  1  0.126465  0.551180  0.909151  1
  Ga  Ga15  1  0.373535  0.948820  0.409151  1
  Ga  Ga16  1  0.126304  0.948757  0.909200  1
  Ga  Ga17  1  0.373696  0.551243  0.409200  1
  Ga  Ga18  1  0.873536  0.448757  0.090690  1
  Ga  Ga19  1  0.626464  0.051243  0.590690  1
  Ga  Ga20  1  0.174607  0.750083  0.249882  1
  Ga  Ga21  1  0.325393  0.749917  0.749882  1
  Ga  Ga22  1  0.825593  0.250134  0.750009  1
  Ga  Ga23  1  0.674407  0.249866  0.250009  1
  Ga  Ga24  1  0.373878  0.749934  0.007202  1
  Ga  Ga25  1  0.126122  0.750066  0.507202  1
  Ga  Ga26  1  0.626082  0.250169  0.992963  1
  Ga  Ga27  1  0.873918  0.249831  0.492963  1
  Ga  Ga28  1  0.605456  0.750196  0.298661  1
  Ga  Ga29  1  0.894544  0.749804  0.798661  1
  Ga  Ga30  1  0.394350  0.250031  0.701251  1
  Ga  Ga31  1  0.105650  0.249969  0.201251  1
