# generated using pymatgen
data_La4Ga(Ge3Pd2)3
_symmetry_space_group_name_H-M   'P 1'
_cell_length_a   8.63799318
_cell_length_b   8.63799335
_cell_length_c   8.63709923
_cell_angle_alpha   137.56169002
_cell_angle_beta   106.47240373
_cell_angle_gamma   88.77078701
_symmetry_Int_Tables_number   1
_chemical_formula_structural   La4Ga(Ge3Pd2)3
_chemical_formula_sum   'La4 Ga1 Ge9 Pd6'
_cell_volume   399.07690363
_cell_formula_units_Z   1
loop_
 _symmetry_equiv_pos_site_id
 _symmetry_equiv_pos_as_xyz
  1  'x, y, z'
loop_
 _atom_site_type_symbol
 _atom_site_label
 _atom_site_symmetry_multiplicity
 _atom_site_fract_x
 _atom_site_fract_y
 _atom_site_fract_z
 _atom_site_occupancy
  La  La0  1  0.103022  0.870638  0.232595  1
  La  La1  1  0.638043  0.370426  0.267405  1
  La  La2  1  0.896801  0.128789  0.766734  1
  La  La3  1  0.362055  0.630068  0.733266  1
  Ga  Ga4  1  0.274420  0.024420  0.750000  1
  Ge  Ge5  1  0.273506  0.523506  0.250000  1
  Ge  Ge6  1  0.999924  0.249924  0.250000  1
  Ge  Ge7  1  0.239663  0.390691  0.844148  1
  Ge  Ge8  1  0.759689  0.606244  0.154363  1
  Ge  Ge9  1  0.725910  0.475910  0.750000  1
  Ge  Ge10  1  0.546544  0.895515  0.655852  1
  Ge  Ge11  1  0.726524  0.976524  0.250000  1
  Ge  Ge12  1  0.451881  0.105325  0.345637  1
  Ge  Ge13  1  0.001421  0.751421  0.750000  1
  Pd  Pd14  1  0.028939  0.637150  0.389343  1
  Pd  Pd15  1  0.753300  0.859757  0.890547  1
  Pd  Pd16  1  0.969210  0.362753  0.609453  1
  Pd  Pd17  1  0.247807  0.139597  0.110657  1
  Pd  Pd18  1  0.500234  0.750234  0.250000  1
  Pd  Pd19  1  0.501107  0.251107  0.750000  1
