# generated using pymatgen
data_Dy6Lu4BiPb5
_symmetry_space_group_name_H-M   'P 1'
_cell_length_a   6.50403200
_cell_length_b   9.01657011
_cell_length_c   9.02058839
_cell_angle_alpha   119.98563060
_cell_angle_beta   89.99987726
_cell_angle_gamma   89.99991584
_symmetry_Int_Tables_number   1
_chemical_formula_structural   Dy6Lu4BiPb5
_chemical_formula_sum   'Dy6 Lu4 Bi1 Pb5'
_cell_volume   458.19716418
_cell_formula_units_Z   1
loop_
 _symmetry_equiv_pos_site_id
 _symmetry_equiv_pos_as_xyz
  1  'x, y, z'
loop_
 _atom_site_type_symbol
 _atom_site_label
 _atom_site_symmetry_multiplicity
 _atom_site_fract_x
 _atom_site_fract_y
 _atom_site_fract_z
 _atom_site_occupancy
  Dy  Dy0  1  0.750009  0.237021  0.000001  1
  Dy  Dy1  1  0.750013  0.762788  0.760674  1
  Dy  Dy2  1  0.750015  0.002118  0.239329  1
  Dy  Dy3  1  0.249988  0.762027  0.999998  1
  Dy  Dy4  1  0.250006  0.237961  0.238224  1
  Dy  Dy5  1  0.249992  0.999729  0.761773  1
  Lu  Lu6  1  0.499596  0.332457  0.665404  1
  Lu  Lu7  1  0.499586  0.667052  0.334603  1
  Lu  Lu8  1  0.000403  0.667080  0.334590  1
  Lu  Lu9  1  0.000408  0.332490  0.665405  1
  Bi  Bi10  1  0.749987  0.603624  0.000001  1
  Pb  Pb11  1  0.750006  0.396635  0.396510  1
  Pb  Pb12  1  0.750008  0.000130  0.603488  1
  Pb  Pb13  1  0.249983  0.396051  0.999999  1
  Pb  Pb14  1  0.250002  0.603344  0.603846  1
  Pb  Pb15  1  0.249999  0.999495  0.396155  1
