# generated using pymatgen
data_Zr3Ta2Ir3O
_symmetry_space_group_name_H-M   'P 1'
_cell_length_a   8.05954400
_cell_length_b   8.05954413
_cell_length_c   5.32243900
_cell_angle_alpha   90.00000000
_cell_angle_beta   90.00000000
_cell_angle_gamma   119.99999946
_symmetry_Int_Tables_number   1
_chemical_formula_structural   Zr3Ta2Ir3O
_chemical_formula_sum   'Zr6 Ta4 Ir6 O2'
_cell_volume   299.40722435
_cell_formula_units_Z   2
loop_
 _symmetry_equiv_pos_site_id
 _symmetry_equiv_pos_as_xyz
  1  'x, y, z'
loop_
 _atom_site_type_symbol
 _atom_site_label
 _atom_site_symmetry_multiplicity
 _atom_site_fract_x
 _atom_site_fract_y
 _atom_site_fract_z
 _atom_site_occupancy
  Zr  Zr0  1  0.241814  0.000000  0.750000  1
  Zr  Zr1  1  0.758186  0.000000  0.250000  1
  Zr  Zr2  1  0.000000  0.241814  0.750000  1
  Zr  Zr3  1  0.000000  0.758186  0.250000  1
  Zr  Zr4  1  0.758186  0.758186  0.750000  1
  Zr  Zr5  1  0.241814  0.241814  0.250000  1
  Ta  Ta6  1  0.333333  0.666667  0.500000  1
  Ta  Ta7  1  0.666667  0.333333  0.500000  1
  Ta  Ta8  1  0.666667  0.333333  0.000000  1
  Ta  Ta9  1  0.333333  0.666667  0.000000  1
  Ir  Ir10  1  0.587697  0.000000  0.750000  1
  Ir  Ir11  1  0.412303  0.000000  0.250000  1
  Ir  Ir12  1  0.000000  0.587697  0.750000  1
  Ir  Ir13  1  0.000000  0.412303  0.250000  1
  Ir  Ir14  1  0.412303  0.412303  0.750000  1
  Ir  Ir15  1  0.587697  0.587697  0.250000  1
  O  O16  1  0.000000  0.000000  0.500000  1
  O  O17  1  0.000000  0.000000  0.000000  1
