# generated using pymatgen
data_Th7Tl2S15
_symmetry_space_group_name_H-M   'P 1'
_cell_length_a   7.56259200
_cell_length_b   14.70193431
_cell_length_c   20.92506300
_cell_angle_alpha   89.51518760
_cell_angle_beta   90.00000000
_cell_angle_gamma   90.00000000
_symmetry_Int_Tables_number   1
_chemical_formula_structural   Th7Tl2S15
_chemical_formula_sum   'Th28 Tl8 S60'
_cell_volume   2326.46420922
_cell_formula_units_Z   4
loop_
 _symmetry_equiv_pos_site_id
 _symmetry_equiv_pos_as_xyz
  1  'x, y, z'
loop_
 _atom_site_type_symbol
 _atom_site_label
 _atom_site_symmetry_multiplicity
 _atom_site_fract_x
 _atom_site_fract_y
 _atom_site_fract_z
 _atom_site_occupancy
  Th  Th0  1  0.420816  0.904391  0.422148  1
  Th  Th1  1  0.920816  0.095609  0.077852  1
  Th  Th2  1  0.579184  0.095609  0.577852  1
  Th  Th3  1  0.079184  0.904391  0.922148  1
  Th  Th4  1  0.522777  0.883068  0.061091  1
  Th  Th5  1  0.022777  0.116932  0.438909  1
  Th  Th6  1  0.477223  0.116932  0.938909  1
  Th  Th7  1  0.977223  0.883068  0.561091  1
  Th  Th8  1  0.024222  0.787111  0.105973  1
  Th  Th9  1  0.524222  0.212889  0.394027  1
  Th  Th10  1  0.975778  0.212889  0.894027  1
  Th  Th11  1  0.475778  0.787111  0.605973  1
  Th  Th12  1  0.567736  0.751473  0.244652  1
  Th  Th13  1  0.067736  0.248527  0.255348  1
  Th  Th14  1  0.432264  0.248527  0.755348  1
  Th  Th15  1  0.932264  0.751473  0.744652  1
  Th  Th16  1  0.426567  0.578770  0.084716  1
  Th  Th17  1  0.926567  0.421230  0.415284  1
  Th  Th18  1  0.573433  0.421230  0.915284  1
  Th  Th19  1  0.073433  0.578770  0.584716  1
  Th  Th20  1  0.479861  0.453892  0.275069  1
  Th  Th21  1  0.979861  0.546108  0.224931  1
  Th  Th22  1  0.520139  0.546108  0.724931  1
  Th  Th23  1  0.020139  0.453892  0.775069  1
  Th  Th24  1  0.447486  0.259754  0.113038  1
  Th  Th25  1  0.947486  0.740246  0.386962  1
  Th  Th26  1  0.552514  0.740246  0.886962  1
  Th  Th27  1  0.052514  0.259754  0.613038  1
  Tl  Tl28  1  0.051806  0.954102  0.267066  1
  Tl  Tl29  1  0.551806  0.045898  0.232934  1
  Tl  Tl30  1  0.948194  0.045898  0.732934  1
  Tl  Tl31  1  0.448194  0.954102  0.767066  1
  Tl  Tl32  1  0.456127  0.606914  0.441055  1
  Tl  Tl33  1  0.956127  0.393086  0.058945  1
  Tl  Tl34  1  0.543873  0.393086  0.558945  1
  Tl  Tl35  1  0.043873  0.606914  0.941055  1
  S  S36  1  0.161639  0.952530  0.046906  1
  S  S37  1  0.661639  0.047470  0.453094  1
  S  S38  1  0.838361  0.047470  0.953094  1
  S  S39  1  0.338361  0.952530  0.546906  1
  S  S40  1  0.808410  0.932881  0.143774  1
  S  S41  1  0.308410  0.067119  0.356226  1
  S  S42  1  0.191590  0.067119  0.856226  1
  S  S43  1  0.691590  0.932881  0.643774  1
  S  S44  1  0.037775  0.921933  0.429046  1
  S  S45  1  0.537775  0.078067  0.070954  1
  S  S46  1  0.962225  0.078067  0.570954  1
  S  S47  1  0.462225  0.921933  0.929046  1
  S  S48  1  0.699479  0.869523  0.333524  1
  S  S49  1  0.199479  0.130477  0.166476  1
  S  S50  1  0.300521  0.130477  0.666476  1
  S  S51  1  0.800521  0.869523  0.833524  1
  S  S52  1  0.329393  0.857635  0.174313  1
  S  S53  1  0.829393  0.142365  0.325687  1
  S  S54  1  0.670607  0.142365  0.825687  1
  S  S55  1  0.170607  0.857635  0.674313  1
  S  S56  1  0.291469  0.769313  0.343124  1
  S  S57  1  0.791469  0.230687  0.156876  1
  S  S58  1  0.708531  0.230687  0.656876  1
  S  S59  1  0.208531  0.769313  0.843124  1
  S  S60  1  0.311903  0.741292  0.011246  1
  S  S61  1  0.811903  0.258708  0.488754  1
  S  S62  1  0.688097  0.258708  0.988754  1
  S  S63  1  0.188097  0.741292  0.511246  1
  S  S64  1  0.664504  0.716707  0.118367  1
  S  S65  1  0.164504  0.283293  0.381633  1
  S  S66  1  0.335496  0.283293  0.881633  1
  S  S67  1  0.835496  0.716707  0.618367  1
  S  S68  1  0.339291  0.612516  0.214073  1
  S  S69  1  0.839291  0.387484  0.285927  1
  S  S70  1  0.660709  0.387484  0.785927  1
  S  S71  1  0.160709  0.612516  0.714073  1
  S  S72  1  0.053631  0.597396  0.096076  1
  S  S73  1  0.553631  0.402604  0.403924  1
  S  S74  1  0.946369  0.402604  0.903924  1
  S  S75  1  0.446369  0.597396  0.596076  1
  S  S76  1  0.165648  0.527938  0.341815  1
  S  S77  1  0.665648  0.472062  0.158185  1
  S  S78  1  0.834352  0.472062  0.658185  1
  S  S79  1  0.334352  0.527938  0.841815  1
  S  S80  1  0.373385  0.410549  0.030038  1
  S  S81  1  0.873385  0.589451  0.469962  1
  S  S82  1  0.626615  0.589451  0.969962  1
  S  S83  1  0.126615  0.410549  0.530038  1
  S  S84  1  0.203953  0.396456  0.181413  1
  S  S85  1  0.703953  0.603544  0.318587  1
  S  S86  1  0.796047  0.603544  0.818587  1
  S  S87  1  0.296047  0.396456  0.681413  1
  S  S88  1  0.453184  0.262115  0.260517  1
  S  S89  1  0.953184  0.737885  0.239483  1
  S  S90  1  0.546816  0.737885  0.739483  1
  S  S91  1  0.046816  0.262115  0.760517  1
  S  S92  1  0.177085  0.200240  0.012098  1
  S  S93  1  0.677085  0.799760  0.487902  1
  S  S94  1  0.822915  0.799760  0.987902  1
  S  S95  1  0.322915  0.200240  0.512098  1
