# generated using pymatgen
data_Sr7Ca3
_symmetry_space_group_name_H-M   'P 1'
_cell_length_a   15.70164060
_cell_length_b   15.70164082
_cell_length_c   6.29846500
_cell_angle_alpha   90.00000000
_cell_angle_beta   90.00000000
_cell_angle_gamma   161.34960749
_symmetry_Int_Tables_number   1
_chemical_formula_structural   Sr7Ca3
_chemical_formula_sum   'Sr7 Ca3'
_cell_volume   496.58480003
_cell_formula_units_Z   1
loop_
 _symmetry_equiv_pos_site_id
 _symmetry_equiv_pos_as_xyz
  1  'x, y, z'
loop_
 _atom_site_type_symbol
 _atom_site_label
 _atom_site_symmetry_multiplicity
 _atom_site_fract_x
 _atom_site_fract_y
 _atom_site_fract_z
 _atom_site_occupancy
  Sr  Sr0  1  0.000000  0.000000  0.000000  1
  Sr  Sr1  1  0.601369  0.398631  0.000000  1
  Sr  Sr2  1  0.398631  0.601369  0.000000  1
  Sr  Sr3  1  0.900648  0.099351  0.500000  1
  Sr  Sr4  1  0.700847  0.299153  0.500000  1
  Sr  Sr5  1  0.299153  0.700847  0.500000  1
  Sr  Sr6  1  0.099351  0.900648  0.500000  1
  Ca  Ca7  1  0.798231  0.201769  0.000000  1
  Ca  Ca8  1  0.201769  0.798231  0.000000  1
  Ca  Ca9  1  0.500000  0.500000  0.500000  1
