# generated using pymatgen
data_LaTb5YbCoI12
_symmetry_space_group_name_H-M   'P 1'
_cell_length_a   9.87914204
_cell_length_b   9.87815896
_cell_length_c   9.77748198
_cell_angle_alpha   107.33224256
_cell_angle_beta   106.62218757
_cell_angle_gamma   106.76639986
_symmetry_Int_Tables_number   1
_chemical_formula_structural   LaTb5YbCoI12
_chemical_formula_sum   'La1 Tb5 Yb1 Co1 I12'
_cell_volume   796.61755260
_cell_formula_units_Z   1
loop_
 _symmetry_equiv_pos_site_id
 _symmetry_equiv_pos_as_xyz
  1  'x, y, z'
loop_
 _atom_site_type_symbol
 _atom_site_label
 _atom_site_symmetry_multiplicity
 _atom_site_fract_x
 _atom_site_fract_y
 _atom_site_fract_z
 _atom_site_occupancy
  La  La0  1  0.023008  0.094937  0.291452  1
  Tb  Tb1  1  0.097151  0.297591  0.025610  1
  Tb  Tb2  1  0.296043  0.023640  0.094779  1
  Tb  Tb3  1  0.976738  0.908078  0.721686  1
  Tb  Tb4  1  0.902720  0.701725  0.974975  1
  Tb  Tb5  1  0.702409  0.975056  0.900473  1
  Yb  Yb6  1  0.501305  0.500516  0.499494  1
  Co  Co7  1  0.999272  0.001412  0.005594  1
  I  I8  1  0.160237  0.468997  0.379846  1
  I  I9  1  0.454805  0.377224  0.149349  1
  I  I10  1  0.389916  0.155459  0.458115  1
  I  I11  1  0.848088  0.545426  0.620424  1
  I  I12  1  0.544575  0.622697  0.848607  1
  I  I13  1  0.624492  0.846886  0.542589  1
  I  I14  1  0.667680  0.069265  0.216025  1
  I  I15  1  0.072081  0.220990  0.683983  1
  I  I16  1  0.221720  0.679680  0.070343  1
  I  I17  1  0.316144  0.926576  0.773033  1
  I  I18  1  0.923739  0.764181  0.315914  1
  I  I19  1  0.777878  0.319665  0.927708  1
