# generated using pymatgen
data_Tb2LuAl12Os3Rh
_symmetry_space_group_name_H-M   'P 1'
_cell_length_a   8.77629100
_cell_length_b   8.80865316
_cell_length_c   9.55989100
_cell_angle_alpha   90.00000000
_cell_angle_beta   90.00000000
_cell_angle_gamma   119.87853865
_symmetry_Int_Tables_number   1
_chemical_formula_structural   Tb2LuAl12Os3Rh
_chemical_formula_sum   'Tb4 Lu2 Al24 Os6 Rh2'
_cell_volume   640.81746750
_cell_formula_units_Z   2
loop_
 _symmetry_equiv_pos_site_id
 _symmetry_equiv_pos_as_xyz
  1  'x, y, z'
loop_
 _atom_site_type_symbol
 _atom_site_label
 _atom_site_symmetry_multiplicity
 _atom_site_fract_x
 _atom_site_fract_y
 _atom_site_fract_z
 _atom_site_occupancy
  Tb  Tb0  1  0.617528  0.805304  0.250000  1
  Tb  Tb1  1  0.382472  0.194696  0.750000  1
  Tb  Tb2  1  0.187777  0.805304  0.250000  1
  Tb  Tb3  1  0.812223  0.194696  0.750000  1
  Lu  Lu4  1  0.197450  0.394901  0.250000  1
  Lu  Lu5  1  0.802550  0.605099  0.750000  1
  Al  Al6  1  0.333367  0.666734  0.021797  1
  Al  Al7  1  0.666633  0.333266  0.978203  1
  Al  Al8  1  0.666633  0.333266  0.521797  1
  Al  Al9  1  0.333367  0.666734  0.478203  1
  Al  Al10  1  0.164228  0.328456  0.575282  1
  Al  Al11  1  0.835772  0.671544  0.424718  1
  Al  Al12  1  0.673208  0.834296  0.577192  1
  Al  Al13  1  0.835772  0.671544  0.075282  1
  Al  Al14  1  0.326792  0.165704  0.422808  1
  Al  Al15  1  0.164228  0.328456  0.924718  1
  Al  Al16  1  0.161089  0.834296  0.577192  1
  Al  Al17  1  0.326792  0.165704  0.077192  1
  Al  Al18  1  0.838911  0.165704  0.422808  1
  Al  Al19  1  0.673208  0.834296  0.922808  1
  Al  Al20  1  0.838911  0.165704  0.077192  1
  Al  Al21  1  0.161089  0.834296  0.922808  1
  Al  Al22  1  0.560547  0.121093  0.250000  1
  Al  Al23  1  0.439453  0.878907  0.750000  1
  Al  Al24  1  0.875715  0.437468  0.250000  1
  Al  Al25  1  0.124285  0.562532  0.750000  1
  Al  Al26  1  0.561751  0.437468  0.250000  1
  Al  Al27  1  0.438249  0.562532  0.750000  1
  Al  Al28  1  0.002659  0.005318  0.250000  1
  Al  Al29  1  0.997341  0.994682  0.750000  1
  Os  Os30  1  0.000000  0.500000  0.000000  1
  Os  Os31  1  0.500000  0.500000  0.000000  1
  Os  Os32  1  0.000000  0.500000  0.500000  1
  Os  Os33  1  0.500000  0.500000  0.500000  1
  Os  Os34  1  0.000000  0.000000  0.000000  1
  Os  Os35  1  0.000000  0.000000  0.500000  1
  Rh  Rh36  1  0.500000  0.000000  0.000000  1
  Rh  Rh37  1  0.500000  0.000000  0.500000  1
