# generated using pymatgen
data_Sc3Cd(InPt)2
_symmetry_space_group_name_H-M   'P 1'
_cell_length_a   7.52431600
_cell_length_b   7.53736661
_cell_length_c   3.33979500
_cell_angle_alpha   90.00000000
_cell_angle_beta   90.00000000
_cell_angle_gamma   119.94274045
_symmetry_Int_Tables_number   1
_chemical_formula_structural   Sc3Cd(InPt)2
_chemical_formula_sum   'Sc3 Cd1 In2 Pt2'
_cell_volume   164.12978479
_cell_formula_units_Z   1
loop_
 _symmetry_equiv_pos_site_id
 _symmetry_equiv_pos_as_xyz
  1  'x, y, z'
loop_
 _atom_site_type_symbol
 _atom_site_label
 _atom_site_symmetry_multiplicity
 _atom_site_fract_x
 _atom_site_fract_y
 _atom_site_fract_z
 _atom_site_occupancy
  Sc  Sc0  1  0.580596  0.000000  0.500001  1
  Sc  Sc1  1  0.421259  0.422895  0.500001  1
  Sc  Sc2  1  0.998364  0.577105  0.500001  1
  Cd  Cd3  1  0.231826  0.000000  0.000000  1
  In  In4  1  0.000482  0.231408  0.000000  1
  In  In5  1  0.769074  0.768592  0.000000  1
  Pt  Pt6  1  0.665237  0.332077  0.000000  1
  Pt  Pt7  1  0.333160  0.667923  0.000000  1
