# generated using pymatgen
data_Zr5Mn3Co16(SiP2)4
_symmetry_space_group_name_H-M   'P 1'
_cell_length_a   11.96779400
_cell_length_b   11.96330376
_cell_length_c   3.61692100
_cell_angle_alpha   90.00000000
_cell_angle_beta   90.00000000
_cell_angle_gamma   120.01241121
_symmetry_Int_Tables_number   1
_chemical_formula_structural   Zr5Mn3Co16(SiP2)4
_chemical_formula_sum   'Zr5 Mn3 Co16 Si4 P8'
_cell_volume   448.41544404
_cell_formula_units_Z   1
loop_
 _symmetry_equiv_pos_site_id
 _symmetry_equiv_pos_as_xyz
  1  'x, y, z'
loop_
 _atom_site_type_symbol
 _atom_site_label
 _atom_site_symmetry_multiplicity
 _atom_site_fract_x
 _atom_site_fract_y
 _atom_site_fract_z
 _atom_site_occupancy
  Zr  Zr0  1  0.666465  0.334000  0.000000  1
  Zr  Zr1  1  0.332464  0.666000  0.000000  1
  Zr  Zr2  1  0.819603  0.818417  0.500000  1
  Zr  Zr3  1  0.182291  0.000000  0.500000  1
  Zr  Zr4  1  0.001186  0.181583  0.500000  1
  Mn  Mn5  1  0.443855  0.443628  0.000000  1
  Mn  Mn6  1  0.556759  0.000000  0.000000  1
  Mn  Mn7  1  0.000227  0.556372  0.000000  1
  Co  Co8  1  0.201441  0.376702  0.000000  1
  Co  Co9  1  0.175585  0.798666  0.000000  1
  Co  Co10  1  0.824739  0.623298  0.000000  1
  Co  Co11  1  0.797847  0.178377  0.000000  1
  Co  Co12  1  0.376919  0.201334  0.000000  1
  Co  Co13  1  0.128683  0.484801  0.500000  1
  Co  Co14  1  0.355869  0.871032  0.500000  1
  Co  Co15  1  0.514331  0.642251  0.500000  1
  Co  Co16  1  0.643882  0.515199  0.500000  1
  Co  Co17  1  0.872081  0.357749  0.500000  1
  Co  Co18  1  0.484837  0.128968  0.500000  1
  Co  Co19  1  0.004294  0.000000  0.000000  1
  Co  Co20  1  0.711860  0.000000  0.500000  1
  Co  Co21  1  0.000260  0.715870  0.500000  1
  Co  Co22  1  0.619469  0.821623  0.000000  1
  Co  Co23  1  0.284391  0.284130  0.500000  1
  Si  Si24  1  0.641781  0.641844  0.000000  1
  Si  Si25  1  0.358842  0.000000  0.000000  1
  Si  Si26  1  0.999937  0.358156  0.000000  1
  Si  Si27  1  0.821634  0.000000  0.000000  1
  P  P28  1  0.482888  0.315297  0.500000  1
  P  P29  1  0.685229  0.168772  0.500000  1
  P  P30  1  0.832309  0.517471  0.500000  1
  P  P31  1  0.516457  0.831228  0.500000  1
  P  P32  1  0.167590  0.684703  0.500000  1
  P  P33  1  0.000217  0.821276  0.000000  1
  P  P34  1  0.314838  0.482529  0.500000  1
  P  P35  1  0.178941  0.178724  0.000000  1
