# generated using pymatgen
data_Tb3Y5(TmSb)12
_symmetry_space_group_name_H-M   'P 1'
_cell_length_a   8.01371832
_cell_length_b   9.19478800
_cell_length_c   11.71768300
_cell_angle_alpha   90.00000000
_cell_angle_beta   89.98372011
_cell_angle_gamma   90.00000000
_symmetry_Int_Tables_number   1
_chemical_formula_structural   Tb3Y5(TmSb)12
_chemical_formula_sum   'Tb3 Y5 Tm12 Sb12'
_cell_volume   863.41088771
_cell_formula_units_Z   1
loop_
 _symmetry_equiv_pos_site_id
 _symmetry_equiv_pos_as_xyz
  1  'x, y, z'
loop_
 _atom_site_type_symbol
 _atom_site_label
 _atom_site_symmetry_multiplicity
 _atom_site_fract_x
 _atom_site_fract_y
 _atom_site_fract_z
 _atom_site_occupancy
  Tb  Tb0  1  0.184774  0.750000  0.719600  1
  Tb  Tb1  1  0.684840  0.750000  0.780371  1
  Tb  Tb2  1  0.815153  0.250000  0.280433  1
  Y  Y3  1  0.314825  0.250000  0.219535  1
  Y  Y4  1  0.353093  0.750000  0.214782  1
  Y  Y5  1  0.852997  0.750000  0.285194  1
  Y  Y6  1  0.647109  0.250000  0.785257  1
  Y  Y7  1  0.146960  0.250000  0.714786  1
  Tm  Tm8  1  0.026555  0.750000  0.988585  1
  Tm  Tm9  1  0.526372  0.750000  0.511409  1
  Tm  Tm10  1  0.973238  0.250000  0.011433  1
  Tm  Tm11  1  0.473733  0.250000  0.488888  1
  Tm  Tm12  1  0.307953  0.437815  0.940566  1
  Tm  Tm13  1  0.808101  0.062314  0.559202  1
  Tm  Tm14  1  0.692095  0.937698  0.059255  1
  Tm  Tm15  1  0.192002  0.562349  0.440702  1
  Tm  Tm16  1  0.692095  0.562302  0.059255  1
  Tm  Tm17  1  0.192002  0.937651  0.440702  1
  Tm  Tm18  1  0.307953  0.062185  0.940566  1
  Tm  Tm19  1  0.808101  0.437686  0.559202  1
  Sb  Sb20  1  0.434198  0.004659  0.671877  1
  Sb  Sb21  1  0.934088  0.495279  0.828245  1
  Sb  Sb22  1  0.565663  0.504456  0.328220  1
  Sb  Sb23  1  0.066117  0.995466  0.171785  1
  Sb  Sb24  1  0.565663  0.995544  0.328220  1
  Sb  Sb25  1  0.066117  0.504534  0.171785  1
  Sb  Sb26  1  0.434198  0.495341  0.671877  1
  Sb  Sb27  1  0.934088  0.004721  0.828245  1
  Sb  Sb28  1  0.407836  0.750000  0.958555  1
  Sb  Sb29  1  0.907812  0.750000  0.541426  1
  Sb  Sb30  1  0.591651  0.250000  0.041626  1
  Sb  Sb31  1  0.092619  0.250000  0.458415  1
