# generated using pymatgen
data_Co2Hg(AsO4)2
_symmetry_space_group_name_H-M   'P 1'
_cell_length_a   5.44345795
_cell_length_b   5.50129710
_cell_length_c   6.84407970
_cell_angle_alpha   73.31812209
_cell_angle_beta   85.54629698
_cell_angle_gamma   68.21921444
_symmetry_Int_Tables_number   1
_chemical_formula_structural   Co2Hg(AsO4)2
_chemical_formula_sum   'Co2 Hg1 As2 O8'
_cell_volume   182.21580429
_cell_formula_units_Z   1
loop_
 _symmetry_equiv_pos_site_id
 _symmetry_equiv_pos_as_xyz
  1  'x, y, z'
loop_
 _atom_site_type_symbol
 _atom_site_label
 _atom_site_symmetry_multiplicity
 _atom_site_fract_x
 _atom_site_fract_y
 _atom_site_fract_z
 _atom_site_occupancy
  Co  Co0  1  0.198205  0.270573  0.172072  1
  Co  Co1  1  0.801795  0.729426  0.827927  1
  Hg  Hg2  1  0.500000  0.500000  0.500001  1
  As  As3  1  0.835347  0.880885  0.271148  1
  As  As4  1  0.164654  0.119116  0.728851  1
  O  O5  1  0.902343  0.646289  0.130327  1
  O  O6  1  0.589890  0.179757  0.156275  1
  O  O7  1  0.120498  0.930654  0.304430  1
  O  O8  1  0.742353  0.720492  0.511278  1
  O  O9  1  0.257646  0.279510  0.488722  1
  O  O10  1  0.879502  0.069346  0.695569  1
  O  O11  1  0.410112  0.820242  0.843725  1
  O  O12  1  0.097657  0.353710  0.869672  1
