# generated using pymatgen
data_Tb3LuZr4F28
_symmetry_space_group_name_H-M   'P 1'
_cell_length_a   5.74896036
_cell_length_b   9.09115452
_cell_length_c   12.22606383
_cell_angle_alpha   62.41090096
_cell_angle_beta   90.01691789
_cell_angle_gamma   89.96432220
_symmetry_Int_Tables_number   1
_chemical_formula_structural   Tb3LuZr4F28
_chemical_formula_sum   'Tb3 Lu1 Zr4 F28'
_cell_volume   566.33254697
_cell_formula_units_Z   1
loop_
 _symmetry_equiv_pos_site_id
 _symmetry_equiv_pos_as_xyz
  1  'x, y, z'
loop_
 _atom_site_type_symbol
 _atom_site_label
 _atom_site_symmetry_multiplicity
 _atom_site_fract_x
 _atom_site_fract_y
 _atom_site_fract_z
 _atom_site_occupancy
  Tb  Tb0  1  0.743404  0.814251  0.266511  1
  Tb  Tb1  1  0.243329  0.184020  0.233431  1
  Tb  Tb2  1  0.255993  0.181534  0.733757  1
  Lu  Lu3  1  0.757061  0.815434  0.766142  1
  Zr  Zr4  1  0.745106  0.271326  0.456308  1
  Zr  Zr5  1  0.244307  0.725984  0.041978  1
  Zr  Zr6  1  0.256365  0.726349  0.548526  1
  Zr  Zr7  1  0.755573  0.277180  0.953312  1
  F  F8  1  0.470661  0.712351  0.918895  1
  F  F9  1  0.967220  0.288479  0.579337  1
  F  F10  1  0.533640  0.290373  0.078092  1
  F  F11  1  0.033823  0.711966  0.424162  1
  F  F12  1  0.452796  0.279260  0.549860  1
  F  F13  1  0.952098  0.722201  0.945554  1
  F  F14  1  0.545766  0.720055  0.452250  1
  F  F15  1  0.047861  0.281729  0.047909  1
  F  F16  1  0.766074  0.529857  0.856566  1
  F  F17  1  0.267560  0.474627  0.643750  1
  F  F18  1  0.230041  0.474704  0.140351  1
  F  F19  1  0.731998  0.523921  0.359550  1
  F  F20  1  0.759483  0.025831  0.057435  1
  F  F21  1  0.259802  0.977113  0.443304  1
  F  F22  1  0.240644  0.977398  0.941097  1
  F  F23  1  0.741625  0.020549  0.560863  1
  F  F24  1  0.986759  0.736221  0.654393  1
  F  F25  1  0.486339  0.265533  0.849109  1
  F  F26  1  0.016553  0.265975  0.351042  1
  F  F27  1  0.514349  0.733521  0.147777  1
  F  F28  1  0.033339  0.746612  0.170441  1
  F  F29  1  0.535581  0.252215  0.327414  1
  F  F30  1  0.965834  0.254879  0.825885  1
  F  F31  1  0.472775  0.749459  0.674631  1
  F  F32  1  0.427314  0.971425  0.234600  1
  F  F33  1  0.926997  0.027318  0.265417  1
  F  F34  1  0.571416  0.019468  0.764373  1
  F  F35  1  0.060517  0.970877  0.735978  1
