# generated using pymatgen
data_La3CeSm2OsI10
_symmetry_space_group_name_H-M   'P 1'
_cell_length_a   8.13572745
_cell_length_b   10.15639837
_cell_length_c   10.04600807
_cell_angle_alpha   107.00587001
_cell_angle_beta   96.92169860
_cell_angle_gamma   106.28493010
_symmetry_Int_Tables_number   1
_chemical_formula_structural   La3CeSm2OsI10
_chemical_formula_sum   'La3 Ce1 Sm2 Os1 I10'
_cell_volume   743.17643291
_cell_formula_units_Z   1
loop_
 _symmetry_equiv_pos_site_id
 _symmetry_equiv_pos_as_xyz
  1  'x, y, z'
loop_
 _atom_site_type_symbol
 _atom_site_label
 _atom_site_symmetry_multiplicity
 _atom_site_fract_x
 _atom_site_fract_y
 _atom_site_fract_z
 _atom_site_occupancy
  La  La0  1  0.139706  0.865890  0.322851  1
  La  La1  1  0.386599  0.956555  0.727697  1
  La  La2  1  0.615276  0.044442  0.273116  1
  Ce  Ce3  1  0.858730  0.133755  0.676313  1
  Sm  Sm4  1  0.469540  0.290449  0.587179  1
  Sm  Sm5  1  0.530981  0.709807  0.413481  1
  Os  Os6  1  0.500423  0.000157  0.500057  1
  I  I7  1  0.417480  0.627090  0.674702  1
  I  I8  1  0.582292  0.372893  0.325375  1
  I  I9  1  0.295139  0.262189  0.846484  1
  I  I10  1  0.703064  0.737194  0.152890  1
  I  I11  1  0.846856  0.454662  0.769595  1
  I  I12  1  0.153488  0.543549  0.230333  1
  I  I13  1  0.050353  0.182719  0.412089  1
  I  I14  1  0.242229  0.914213  0.037790  1
  I  I15  1  0.758755  0.086236  0.960898  1
  I  I16  1  0.949090  0.818202  0.589152  1
