# generated using pymatgen
data_Gd8Tm11LuSi16
_symmetry_space_group_name_H-M   'P 1'
_cell_length_a   7.57516713
_cell_length_b   7.57516715
_cell_length_c   13.93613500
_cell_angle_alpha   90.01043781
_cell_angle_beta   89.98956219
_cell_angle_gamma   90.00442663
_symmetry_Int_Tables_number   1
_chemical_formula_structural   Gd8Tm11LuSi16
_chemical_formula_sum   'Gd8 Tm11 Lu1 Si16'
_cell_volume   799.69939589
_cell_formula_units_Z   1
loop_
 _symmetry_equiv_pos_site_id
 _symmetry_equiv_pos_as_xyz
  1  'x, y, z'
loop_
 _atom_site_type_symbol
 _atom_site_label
 _atom_site_symmetry_multiplicity
 _atom_site_fract_x
 _atom_site_fract_y
 _atom_site_fract_z
 _atom_site_occupancy
  Gd  Gd0  1  0.992474  0.643249  0.040216  1
  Gd  Gd1  1  0.008117  0.356662  0.540147  1
  Gd  Gd2  1  0.643249  0.992474  0.959784  1
  Gd  Gd3  1  0.142889  0.507708  0.790529  1
  Gd  Gd4  1  0.857143  0.492372  0.290455  1
  Gd  Gd5  1  0.507708  0.142889  0.209471  1
  Gd  Gd6  1  0.492372  0.857143  0.709545  1
  Gd  Gd7  1  0.356662  0.008117  0.459853  1
  Tm  Tm8  1  0.360848  0.492071  0.375700  1
  Tm  Tm9  1  0.860883  0.007813  0.374421  1
  Tm  Tm10  1  0.991932  0.139177  0.125635  1
  Tm  Tm11  1  0.007813  0.860883  0.625579  1
  Tm  Tm12  1  0.639096  0.507681  0.875911  1
  Tm  Tm13  1  0.492071  0.360848  0.624300  1
  Tm  Tm14  1  0.507681  0.639096  0.124089  1
  Tm  Tm15  1  0.139177  0.991932  0.874365  1
  Tm  Tm16  1  0.681885  0.681885  0.500000  1
  Tm  Tm17  1  0.818076  0.181982  0.750044  1
  Tm  Tm18  1  0.181982  0.818076  0.249956  1
  Lu  Lu19  1  0.317940  0.317940  0.000000  1
  Si  Si20  1  0.060880  0.707022  0.437731  1
  Si  Si21  1  0.939622  0.293051  0.937778  1
  Si  Si22  1  0.707022  0.060880  0.562269  1
  Si  Si23  1  0.207311  0.438775  0.187344  1
  Si  Si24  1  0.793065  0.560831  0.687889  1
  Si  Si25  1  0.438775  0.207311  0.812656  1
  Si  Si26  1  0.560831  0.793065  0.312111  1
  Si  Si27  1  0.293051  0.939622  0.062222  1
  Si  Si28  1  0.847489  0.796111  0.813053  1
  Si  Si29  1  0.152532  0.203677  0.312966  1
  Si  Si30  1  0.796111  0.847489  0.186947  1
  Si  Si31  1  0.296617  0.652954  0.563257  1
  Si  Si32  1  0.703105  0.346960  0.063143  1
  Si  Si33  1  0.652954  0.296617  0.436743  1
  Si  Si34  1  0.346960  0.703105  0.936857  1
  Si  Si35  1  0.203677  0.152532  0.687034  1
