# generated using pymatgen
data_Zr4TiSnBSb2
_symmetry_space_group_name_H-M   'P 1'
_cell_length_a   8.45490708
_cell_length_b   8.45490775
_cell_length_c   5.71320218
_cell_angle_alpha   89.98568482
_cell_angle_beta   89.98568395
_cell_angle_gamma   120.00265949
_symmetry_Int_Tables_number   1
_chemical_formula_structural   Zr4TiSnBSb2
_chemical_formula_sum   'Zr8 Ti2 Sn2 B2 Sb4'
_cell_volume   353.68467633
_cell_formula_units_Z   2
loop_
 _symmetry_equiv_pos_site_id
 _symmetry_equiv_pos_as_xyz
  1  'x, y, z'
loop_
 _atom_site_type_symbol
 _atom_site_label
 _atom_site_symmetry_multiplicity
 _atom_site_fract_x
 _atom_site_fract_y
 _atom_site_fract_z
 _atom_site_occupancy
  Zr  Zr0  1  0.334630  0.666398  0.499493  1
  Zr  Zr1  1  0.666398  0.334630  0.499493  1
  Zr  Zr2  1  0.765678  0.765678  0.749319  1
  Zr  Zr3  1  0.232186  0.998992  0.749009  1
  Zr  Zr4  1  0.998992  0.232186  0.749009  1
  Zr  Zr5  1  0.235087  0.235087  0.250557  1
  Zr  Zr6  1  0.765704  0.000672  0.250597  1
  Zr  Zr7  1  0.000672  0.765704  0.250597  1
  Ti  Ti8  1  0.666409  0.334711  0.001011  1
  Ti  Ti9  1  0.334711  0.666409  0.001011  1
  Sn  Sn10  1  0.401698  0.000181  0.240898  1
  Sn  Sn11  1  0.000181  0.401698  0.240898  1
  B  B12  1  0.000064  0.000064  0.001207  1
  B  B13  1  0.000052  0.000052  0.498859  1
  Sb  Sb14  1  0.400258  0.400258  0.758836  1
  Sb  Sb15  1  0.596653  0.000946  0.759169  1
  Sb  Sb16  1  0.000946  0.596653  0.759169  1
  Sb  Sb17  1  0.599679  0.599679  0.240870  1
