# generated using pymatgen
data_Ca6Nd13HoSn16
_symmetry_space_group_name_H-M   'P 1'
_cell_length_a   8.05660219
_cell_length_b   8.50698368
_cell_length_c   16.10830700
_cell_angle_alpha   89.98865801
_cell_angle_beta   89.82591352
_cell_angle_gamma   89.77170515
_symmetry_Int_Tables_number   1
_chemical_formula_structural   Ca6Nd13HoSn16
_chemical_formula_sum   'Ca6 Nd13 Ho1 Sn16'
_cell_volume   1104.00733231
_cell_formula_units_Z   1
loop_
 _symmetry_equiv_pos_site_id
 _symmetry_equiv_pos_as_xyz
  1  'x, y, z'
loop_
 _atom_site_type_symbol
 _atom_site_label
 _atom_site_symmetry_multiplicity
 _atom_site_fract_x
 _atom_site_fract_y
 _atom_site_fract_z
 _atom_site_occupancy
  Ca  Ca0  1  0.996969  0.183145  0.407793  1
  Ca  Ca1  1  0.334127  0.830099  0.123176  1
  Ca  Ca2  1  0.163536  0.496084  0.249392  1
  Ca  Ca3  1  0.665489  0.006106  0.249529  1
  Ca  Ca4  1  0.335169  0.993731  0.750247  1
  Ca  Ca5  1  0.834823  0.503923  0.750190  1
  Nd  Nd6  1  0.506129  0.682121  0.903559  1
  Nd  Nd7  1  0.835663  0.673888  0.124434  1
  Nd  Nd8  1  0.164894  0.326217  0.875242  1
  Nd  Nd9  1  0.507975  0.683250  0.596525  1
  Nd  Nd10  1  0.665020  0.172892  0.624227  1
  Nd  Nd11  1  0.835375  0.670922  0.377119  1
  Nd  Nd12  1  0.992995  0.182293  0.092430  1
  Nd  Nd13  1  0.007399  0.817015  0.903228  1
  Nd  Nd14  1  0.665391  0.171301  0.874795  1
  Nd  Nd15  1  0.489768  0.315269  0.095385  1
  Nd  Nd16  1  0.333332  0.830725  0.375647  1
  Nd  Nd17  1  0.007627  0.816349  0.597247  1
  Nd  Nd18  1  0.491200  0.315597  0.404007  1
  Ho  Ho19  1  0.166788  0.330016  0.624617  1
  Sn  Sn20  1  0.830146  0.465384  0.541352  1
  Sn  Sn21  1  0.670678  0.963422  0.462680  1
  Sn  Sn22  1  0.708009  0.858571  0.749900  1
  Sn  Sn23  1  0.179900  0.540196  0.466529  1
  Sn  Sn24  1  0.326346  0.034484  0.961226  1
  Sn  Sn25  1  0.791619  0.362717  0.249378  1
  Sn  Sn26  1  0.822641  0.462425  0.962795  1
  Sn  Sn27  1  0.532306  0.600923  0.250362  1
  Sn  Sn28  1  0.174272  0.535977  0.037691  1
  Sn  Sn29  1  0.464756  0.393793  0.748389  1
  Sn  Sn30  1  0.204621  0.638592  0.748764  1
  Sn  Sn31  1  0.969746  0.109436  0.746665  1
  Sn  Sn32  1  0.325049  0.037158  0.540551  1
  Sn  Sn33  1  0.675603  0.962130  0.035928  1
  Sn  Sn34  1  0.290659  0.142321  0.249270  1
  Sn  Sn35  1  0.033980  0.891529  0.249729  1
