# generated using pymatgen
data_Nd3Th7(Sn3Br)2
_symmetry_space_group_name_H-M   'P 1'
_cell_length_a   9.54507903
_cell_length_b   9.53634983
_cell_length_c   6.67175500
_cell_angle_alpha   90.00000000
_cell_angle_beta   90.00000000
_cell_angle_gamma   120.03874520
_symmetry_Int_Tables_number   1
_chemical_formula_structural   Nd3Th7(Sn3Br)2
_chemical_formula_sum   'Nd3 Th7 Sn6 Br2'
_cell_volume   525.72996756
_cell_formula_units_Z   1
loop_
 _symmetry_equiv_pos_site_id
 _symmetry_equiv_pos_as_xyz
  1  'x, y, z'
loop_
 _atom_site_type_symbol
 _atom_site_label
 _atom_site_symmetry_multiplicity
 _atom_site_fract_x
 _atom_site_fract_y
 _atom_site_fract_z
 _atom_site_occupancy
  Nd  Nd0  1  0.999570  0.722829  0.750000  1
  Nd  Nd1  1  0.276000  0.276191  0.750000  1
  Nd  Nd2  1  0.725328  0.725171  0.250000  1
  Th  Th3  1  0.333390  0.667378  0.498537  1
  Th  Th4  1  0.666567  0.331172  0.498468  1
  Th  Th5  1  0.720766  0.000006  0.750000  1
  Th  Th6  1  0.000165  0.277170  0.250000  1
  Th  Th7  1  0.278166  0.000130  0.250000  1
  Th  Th8  1  0.333390  0.667378  0.001463  1
  Th  Th9  1  0.666567  0.331172  0.001532  1
  Sn  Sn10  1  0.618107  0.617815  0.750000  1
  Sn  Sn11  1  0.000691  0.381756  0.750000  1
  Sn  Sn12  1  0.379790  0.000030  0.750000  1
  Sn  Sn13  1  0.619351  0.999253  0.250000  1
  Sn  Sn14  1  0.382279  0.382349  0.250000  1
  Sn  Sn15  1  0.999507  0.618658  0.250000  1
  Br  Br16  1  0.000183  0.000772  0.000090  1
  Br  Br17  1  0.000183  0.000772  0.499910  1
