# generated using pymatgen
data_Tm7(CoSe)2
_symmetry_space_group_name_H-M   'P 1'
_cell_length_a   8.95169919
_cell_length_b   8.95169929
_cell_length_c   8.95169963
_cell_angle_alpha   155.80607133
_cell_angle_beta   66.72572716
_cell_angle_gamma   118.87952764
_symmetry_Int_Tables_number   1
_chemical_formula_structural   Tm7(CoSe)2
_chemical_formula_sum   'Tm7 Co2 Se2'
_cell_volume   255.34933710
_cell_formula_units_Z   1
loop_
 _symmetry_equiv_pos_site_id
 _symmetry_equiv_pos_as_xyz
  1  'x, y, z'
loop_
 _atom_site_type_symbol
 _atom_site_label
 _atom_site_symmetry_multiplicity
 _atom_site_fract_x
 _atom_site_fract_y
 _atom_site_fract_z
 _atom_site_occupancy
  Tm  Tm0  1  0.321644  0.321644  0.000000  1
  Tm  Tm1  1  0.863053  0.736594  0.126459  1
  Tm  Tm2  1  0.258409  0.943541  0.314868  1
  Tm  Tm3  1  0.941870  0.584061  0.357810  1
  Tm  Tm4  1  0.226251  0.584062  0.642190  1
  Tm  Tm5  1  0.628673  0.943541  0.685132  1
  Tm  Tm6  1  0.610135  0.736594  0.873541  1
  Co  Co7  1  0.485050  0.246186  0.238864  1
  Co  Co8  1  0.007323  0.246187  0.761137  1
  Se  Se9  1  0.982858  0.982858  0.000000  1
  Se  Se10  1  0.580083  0.080083  0.500000  1
