# generated using pymatgen
data_Li3Ni(GeRu)4
_symmetry_space_group_name_H-M   'P 1'
_cell_length_a   4.16181800
_cell_length_b   5.16084512
_cell_length_c   7.35192600
_cell_angle_alpha   87.52863575
_cell_angle_beta   90.00000000
_cell_angle_gamma   90.00000000
_symmetry_Int_Tables_number   1
_chemical_formula_structural   Li3Ni(GeRu)4
_chemical_formula_sum   'Li3 Ni1 Ge4 Ru4'
_cell_volume   157.76145765
_cell_formula_units_Z   1
loop_
 _symmetry_equiv_pos_site_id
 _symmetry_equiv_pos_as_xyz
  1  'x, y, z'
loop_
 _atom_site_type_symbol
 _atom_site_label
 _atom_site_symmetry_multiplicity
 _atom_site_fract_x
 _atom_site_fract_y
 _atom_site_fract_z
 _atom_site_occupancy
  Li  Li0  1  0.750000  0.493648  0.755754  1
  Li  Li1  1  0.250000  0.500741  0.246210  1
  Li  Li2  1  0.750000  0.996135  0.749376  1
  Ni  Ni3  1  0.750000  0.326705  0.089088  1
  Ge  Ge4  1  0.250000  0.225038  0.931476  1
  Ge  Ge5  1  0.750000  0.801377  0.089675  1
  Ge  Ge6  1  0.250000  0.781396  0.569537  1
  Ge  Ge7  1  0.750000  0.194090  0.411744  1
  Ru  Ru8  1  0.250000  0.007008  0.239880  1
  Ru  Ru9  1  0.250000  0.708941  0.905092  1
  Ru  Ru10  1  0.250000  0.288394  0.594350  1
  Ru  Ru11  1  0.750000  0.676524  0.417815  1
