# generated using pymatgen
data_Ho2Er10Ga2Ni3Os
_symmetry_space_group_name_H-M   'P 1'
_cell_length_a   8.26062269
_cell_length_b   8.26422156
_cell_length_c   8.26422169
_cell_angle_alpha   112.73437801
_cell_angle_beta   109.65164426
_cell_angle_gamma   106.11149456
_symmetry_Int_Tables_number   1
_chemical_formula_structural   Ho2Er10Ga2Ni3Os
_chemical_formula_sum   'Ho2 Er10 Ga2 Ni3 Os1'
_cell_volume   432.76856705
_cell_formula_units_Z   1
loop_
 _symmetry_equiv_pos_site_id
 _symmetry_equiv_pos_as_xyz
  1  'x, y, z'
loop_
 _atom_site_type_symbol
 _atom_site_label
 _atom_site_symmetry_multiplicity
 _atom_site_fract_x
 _atom_site_fract_y
 _atom_site_fract_z
 _atom_site_occupancy
  Ho  Ho0  1  0.054660  0.747742  0.306919  1
  Ho  Ho1  1  0.960813  0.266035  0.694779  1
  Er  Er2  1  0.559109  0.252488  0.306622  1
  Er  Er3  1  0.428671  0.733817  0.694854  1
  Er  Er4  1  0.674522  0.863414  0.192384  1
  Er  Er5  1  0.329520  0.517754  0.192948  1
  Er  Er6  1  0.329520  0.136571  0.811766  1
  Er  Er7  1  0.674522  0.482138  0.811109  1
  Er  Er8  1  0.174441  0.222805  0.396663  1
  Er  Er9  1  0.814711  0.222108  0.037237  1
  Er  Er10  1  0.174441  0.777780  0.951635  1
  Er  Er11  1  0.814711  0.777474  0.592602  1
  Ga  Ga12  1  0.987828  0.499930  0.487898  1
  Ga  Ga13  1  0.505664  0.000095  0.505569  1
  Ni  Ni14  1  0.348889  0.500223  0.848666  1
  Ni  Ni15  1  0.882245  0.882097  0.000149  1
  Ni  Ni16  1  0.118323  0.117886  0.000437  1
  Os  Os17  1  0.667408  0.499644  0.167764  1
