# generated using pymatgen
data_Mn3Nb4CrP4
_symmetry_space_group_name_H-M   'P 1'
_cell_length_a   3.54981300
_cell_length_b   6.23897013
_cell_length_c   7.27256115
_cell_angle_alpha   90.02300675
_cell_angle_beta   90.00000000
_cell_angle_gamma   90.00000000
_symmetry_Int_Tables_number   1
_chemical_formula_structural   Mn3Nb4CrP4
_chemical_formula_sum   'Mn3 Nb4 Cr1 P4'
_cell_volume   161.06668786
_cell_formula_units_Z   1
loop_
 _symmetry_equiv_pos_site_id
 _symmetry_equiv_pos_as_xyz
  1  'x, y, z'
loop_
 _atom_site_type_symbol
 _atom_site_label
 _atom_site_symmetry_multiplicity
 _atom_site_fract_x
 _atom_site_fract_y
 _atom_site_fract_z
 _atom_site_occupancy
  Mn  Mn0  1  0.250000  0.141330  0.440397  1
  Mn  Mn1  1  0.750000  0.360704  0.942132  1
  Mn  Mn2  1  0.250000  0.638489  0.057969  1
  Nb  Nb3  1  0.250000  0.532286  0.672412  1
  Nb  Nb4  1  0.750000  0.468736  0.327268  1
  Nb  Nb5  1  0.250000  0.028284  0.827903  1
  Nb  Nb6  1  0.750000  0.970877  0.171968  1
  Cr  Cr7  1  0.750000  0.859761  0.559451  1
  P  P8  1  0.250000  0.270535  0.129096  1
  P  P9  1  0.750000  0.728661  0.873237  1
  P  P10  1  0.250000  0.770003  0.367551  1
  P  P11  1  0.750000  0.230332  0.630615  1
