# generated using pymatgen
data_PrNd5Y4(In2Pt)4
_symmetry_space_group_name_H-M   'P 1'
_cell_length_a   3.75389200
_cell_length_b   8.30184277
_cell_length_c   18.47596422
_cell_angle_alpha   90.03161449
_cell_angle_beta   90.00000000
_cell_angle_gamma   90.00000000
_symmetry_Int_Tables_number   1
_chemical_formula_structural   PrNd5Y4(In2Pt)4
_chemical_formula_sum   'Pr1 Nd5 Y4 In8 Pt4'
_cell_volume   575.78894757
_cell_formula_units_Z   1
loop_
 _symmetry_equiv_pos_site_id
 _symmetry_equiv_pos_as_xyz
  1  'x, y, z'
loop_
 _atom_site_type_symbol
 _atom_site_label
 _atom_site_symmetry_multiplicity
 _atom_site_fract_x
 _atom_site_fract_y
 _atom_site_fract_z
 _atom_site_occupancy
  Pr  Pr0  1  0.000000  0.999978  0.999989  1
  Nd  Nd1  1  0.000000  0.239565  0.215991  1
  Nd  Nd2  1  0.000000  0.760484  0.784032  1
  Nd  Nd3  1  0.000000  0.260452  0.715911  1
  Nd  Nd4  1  0.000000  0.739594  0.284066  1
  Nd  Nd5  1  0.000000  0.499951  0.500010  1
  Y  Y6  1  0.000000  0.117190  0.413532  1
  Y  Y7  1  0.000000  0.882779  0.586435  1
  Y  Y8  1  0.000000  0.382661  0.913554  1
  Y  Y9  1  0.000000  0.617317  0.086486  1
  In  In10  1  0.500000  0.415234  0.349368  1
  In  In11  1  0.500000  0.584835  0.650659  1
  In  In12  1  0.500000  0.085040  0.848900  1
  In  In13  1  0.500000  0.915094  0.151078  1
  In  In14  1  0.500000  0.303518  0.062926  1
  In  In15  1  0.500000  0.696439  0.937100  1
  In  In16  1  0.500000  0.197454  0.562711  1
  In  In17  1  0.500000  0.802420  0.437226  1
  Pt  Pt18  1  0.500000  0.025518  0.304952  1
  Pt  Pt19  1  0.500000  0.974485  0.695037  1
  Pt  Pt20  1  0.500000  0.474375  0.804903  1
  Pt  Pt21  1  0.500000  0.525618  0.195131  1
