# generated using pymatgen
data_Tm3MgZn2Si2Ag
_symmetry_space_group_name_H-M   'P 1'
_cell_length_a   6.88477502
_cell_length_b   6.88477415
_cell_length_c   4.28570400
_cell_angle_alpha   90.00000000
_cell_angle_beta   90.00000000
_cell_angle_gamma   119.61421206
_symmetry_Int_Tables_number   1
_chemical_formula_structural   Tm3MgZn2Si2Ag
_chemical_formula_sum   'Tm3 Mg1 Zn2 Si2 Ag1'
_cell_volume   176.60681672
_cell_formula_units_Z   1
loop_
 _symmetry_equiv_pos_site_id
 _symmetry_equiv_pos_as_xyz
  1  'x, y, z'
loop_
 _atom_site_type_symbol
 _atom_site_label
 _atom_site_symmetry_multiplicity
 _atom_site_fract_x
 _atom_site_fract_y
 _atom_site_fract_z
 _atom_site_occupancy
  Tm  Tm0  1  0.568392  0.998763  0.000000  1
  Tm  Tm1  1  0.998763  0.568392  0.000000  1
  Tm  Tm2  1  0.420613  0.420613  0.000000  1
  Mg  Mg3  1  0.763581  0.763581  0.500000  1
  Zn  Zn4  1  0.254173  0.001206  0.500000  1
  Zn  Zn5  1  0.001206  0.254173  0.500000  1
  Si  Si6  1  0.325317  0.663290  0.500000  1
  Si  Si7  1  0.663290  0.325317  0.500000  1
  Ag  Ag8  1  0.004666  0.004666  0.000000  1
