# generated using pymatgen
data_CeDy2(SnRh)3
_symmetry_space_group_name_H-M   'P 1'
_cell_length_a   7.54177453
_cell_length_b   7.54177494
_cell_length_c   3.90662500
_cell_angle_alpha   90.00000000
_cell_angle_beta   90.00000000
_cell_angle_gamma   119.45105645
_symmetry_Int_Tables_number   1
_chemical_formula_structural   CeDy2(SnRh)3
_chemical_formula_sum   'Ce1 Dy2 Sn3 Rh3'
_cell_volume   193.48856263
_cell_formula_units_Z   1
loop_
 _symmetry_equiv_pos_site_id
 _symmetry_equiv_pos_as_xyz
  1  'x, y, z'
loop_
 _atom_site_type_symbol
 _atom_site_label
 _atom_site_symmetry_multiplicity
 _atom_site_fract_x
 _atom_site_fract_y
 _atom_site_fract_z
 _atom_site_occupancy
  Ce  Ce0  1  0.412484  0.412484  0.500000  1
  Dy  Dy1  1  0.593413  0.000086  0.500000  1
  Dy  Dy2  1  0.000086  0.593413  0.500000  1
  Sn  Sn3  1  0.748400  0.748400  0.000000  1
  Sn  Sn4  1  0.258654  0.992506  0.000000  1
  Sn  Sn5  1  0.992506  0.258654  0.000000  1
  Rh  Rh6  1  0.654955  0.335214  0.000000  1
  Rh  Rh7  1  0.335214  0.654955  0.000000  1
  Rh  Rh8  1  0.004289  0.004289  0.500000  1
