# generated using pymatgen
data_HoTm3Si4(NiOs)2
_symmetry_space_group_name_H-M   'P 1'
_cell_length_a   4.20780700
_cell_length_b   6.82051082
_cell_length_c   7.17402427
_cell_angle_alpha   91.69827962
_cell_angle_beta   90.00000000
_cell_angle_gamma   90.00000000
_symmetry_Int_Tables_number   1
_chemical_formula_structural   HoTm3Si4(NiOs)2
_chemical_formula_sum   'Ho1 Tm3 Si4 Ni2 Os2'
_cell_volume   205.79970583
_cell_formula_units_Z   1
loop_
 _symmetry_equiv_pos_site_id
 _symmetry_equiv_pos_as_xyz
  1  'x, y, z'
loop_
 _atom_site_type_symbol
 _atom_site_label
 _atom_site_symmetry_multiplicity
 _atom_site_fract_x
 _atom_site_fract_y
 _atom_site_fract_z
 _atom_site_occupancy
  Ho  Ho0  1  0.750000  0.507636  0.200449  1
  Tm  Tm1  1  0.750000  0.010209  0.317121  1
  Tm  Tm2  1  0.250000  0.989394  0.682918  1
  Tm  Tm3  1  0.250000  0.491902  0.798756  1
  Si  Si4  1  0.750000  0.697402  0.604222  1
  Si  Si5  1  0.250000  0.301290  0.397452  1
  Si  Si6  1  0.250000  0.799055  0.099845  1
  Si  Si7  1  0.750000  0.201893  0.898118  1
  Ni  Ni8  1  0.250000  0.664655  0.427501  1
  Ni  Ni9  1  0.750000  0.335251  0.575030  1
  Os  Os10  1  0.750000  0.842058  0.929748  1
  Os  Os11  1  0.250000  0.159254  0.068841  1
