# generated using pymatgen
data_Er7Mg3(Pb3C)2
_symmetry_space_group_name_H-M   'P 1'
_cell_length_a   8.96824000
_cell_length_b   8.96824029
_cell_length_c   6.28382800
_cell_angle_alpha   90.00000000
_cell_angle_beta   90.00000000
_cell_angle_gamma   119.99999894
_symmetry_Int_Tables_number   1
_chemical_formula_structural   Er7Mg3(Pb3C)2
_chemical_formula_sum   'Er7 Mg3 Pb6 C2'
_cell_volume   437.69278055
_cell_formula_units_Z   1
loop_
 _symmetry_equiv_pos_site_id
 _symmetry_equiv_pos_as_xyz
  1  'x, y, z'
loop_
 _atom_site_type_symbol
 _atom_site_label
 _atom_site_symmetry_multiplicity
 _atom_site_fract_x
 _atom_site_fract_y
 _atom_site_fract_z
 _atom_site_occupancy
  Er  Er0  1  0.212061  0.000962  0.251696  1
  Er  Er1  1  0.788901  0.000962  0.748304  1
  Er  Er2  1  0.999038  0.211099  0.251696  1
  Er  Er3  1  0.999038  0.787939  0.748304  1
  Er  Er4  1  0.788901  0.787939  0.251696  1
  Er  Er5  1  0.212061  0.211099  0.748304  1
  Er  Er6  1  0.333333  0.666667  0.500000  1
  Mg  Mg7  1  0.333333  0.666667  0.000000  1
  Mg  Mg8  1  0.666667  0.333333  0.000000  1
  Mg  Mg9  1  0.666667  0.333333  0.500000  1
  Pb  Pb10  1  0.591807  0.001914  0.252662  1
  Pb  Pb11  1  0.410107  0.001914  0.747338  1
  Pb  Pb12  1  0.998086  0.589893  0.252662  1
  Pb  Pb13  1  0.998086  0.408193  0.747338  1
  Pb  Pb14  1  0.410107  0.408193  0.252662  1
  Pb  Pb15  1  0.591807  0.589893  0.747338  1
  C  C16  1  0.000000  0.000000  0.000000  1
  C  C17  1  0.000000  0.000000  0.500000  1
