# generated using pymatgen
data_TbScPa2(Al3Rh)6
_symmetry_space_group_name_H-M   'P 1'
_cell_length_a   7.57854465
_cell_length_b   7.58889027
_cell_length_c   9.34578800
_cell_angle_alpha   90.00000000
_cell_angle_beta   90.00000000
_cell_angle_gamma   119.64467838
_symmetry_Int_Tables_number   1
_chemical_formula_structural   TbScPa2(Al3Rh)6
_chemical_formula_sum   'Tb1 Sc1 Pa2 Al18 Rh6'
_cell_volume   467.14801439
_cell_formula_units_Z   1
loop_
 _symmetry_equiv_pos_site_id
 _symmetry_equiv_pos_as_xyz
  1  'x, y, z'
loop_
 _atom_site_type_symbol
 _atom_site_label
 _atom_site_symmetry_multiplicity
 _atom_site_fract_x
 _atom_site_fract_y
 _atom_site_fract_z
 _atom_site_occupancy
  Tb  Tb0  1  0.330136  0.006696  0.750000  1
  Sc  Sc1  1  0.671040  0.993205  0.250000  1
  Pa  Pa2  1  0.997371  0.671596  0.250000  1
  Pa  Pa3  1  0.002598  0.328569  0.750000  1
  Al  Al4  1  0.126929  0.124938  0.250000  1
  Al  Al5  1  0.868115  0.873014  0.750000  1
  Al  Al6  1  0.995985  0.328165  0.080827  1
  Al  Al7  1  0.999174  0.667488  0.922998  1
  Al  Al8  1  0.999174  0.667488  0.577002  1
  Al  Al9  1  0.342181  0.002629  0.421315  1
  Al  Al10  1  0.995985  0.328165  0.419173  1
  Al  Al11  1  0.662471  0.997458  0.570529  1
  Al  Al12  1  0.662471  0.997458  0.929471  1
  Al  Al13  1  0.342181  0.002629  0.078685  1
  Al  Al14  1  0.334785  0.333479  0.550509  1
  Al  Al15  1  0.665441  0.669951  0.444493  1
  Al  Al16  1  0.665441  0.669951  0.055507  1
  Al  Al17  1  0.334785  0.333479  0.949491  1
  Al  Al18  1  0.343386  0.554051  0.250000  1
  Al  Al19  1  0.659395  0.451432  0.750000  1
  Al  Al20  1  0.551650  0.340737  0.250000  1
  Al  Al21  1  0.450819  0.658650  0.750000  1
  Rh  Rh22  1  0.675356  0.329521  0.000234  1
  Rh  Rh23  1  0.324353  0.670409  0.000899  1
  Rh  Rh24  1  0.324353  0.670409  0.499101  1
  Rh  Rh25  1  0.675356  0.329521  0.499766  1
  Rh  Rh26  1  0.999534  0.999455  0.000889  1
  Rh  Rh27  1  0.999534  0.999455  0.499111  1
