# generated using pymatgen
data_RbLiThS3
_symmetry_space_group_name_H-M   'P 1'
_cell_length_a   7.57538522
_cell_length_b   7.57538547
_cell_length_c   10.84347600
_cell_angle_alpha   90.00000000
_cell_angle_beta   90.00000000
_cell_angle_gamma   147.68066047
_symmetry_Int_Tables_number   1
_chemical_formula_structural   RbLiThS3
_chemical_formula_sum   'Rb2 Li2 Th2 S6'
_cell_volume   332.68828061
_cell_formula_units_Z   2
loop_
 _symmetry_equiv_pos_site_id
 _symmetry_equiv_pos_as_xyz
  1  'x, y, z'
loop_
 _atom_site_type_symbol
 _atom_site_label
 _atom_site_symmetry_multiplicity
 _atom_site_fract_x
 _atom_site_fract_y
 _atom_site_fract_z
 _atom_site_occupancy
  Rb  Rb0  1  0.761014  0.238989  0.250000  1
  Rb  Rb1  1  0.238989  0.761014  0.750000  1
  Li  Li2  1  0.037486  0.962516  0.250000  1
  Li  Li3  1  0.962516  0.037486  0.750000  1
  Th  Th4  1  0.500001  0.500001  0.000000  1
  Th  Th5  1  0.500001  0.500001  0.500000  1
  S  S6  1  0.118748  0.881254  0.056536  1
  S  S7  1  0.449752  0.550250  0.250000  1
  S  S8  1  0.118748  0.881254  0.443464  1
  S  S9  1  0.881254  0.118748  0.556536  1
  S  S10  1  0.550250  0.449752  0.750000  1
  S  S11  1  0.881254  0.118748  0.943464  1
