# generated using pymatgen
data_Eu3Ga4(NiRu)2
_symmetry_space_group_name_H-M   'P 1'
_cell_length_a   6.53053613
_cell_length_b   6.53053561
_cell_length_c   6.62875406
_cell_angle_alpha   109.38293529
_cell_angle_beta   109.38292959
_cell_angle_gamma   109.04174045
_symmetry_Int_Tables_number   1
_chemical_formula_structural   Eu3Ga4(NiRu)2
_chemical_formula_sum   'Eu3 Ga4 Ni2 Ru2'
_cell_volume   219.23511176
_cell_formula_units_Z   1
loop_
 _symmetry_equiv_pos_site_id
 _symmetry_equiv_pos_as_xyz
  1  'x, y, z'
loop_
 _atom_site_type_symbol
 _atom_site_label
 _atom_site_symmetry_multiplicity
 _atom_site_fract_x
 _atom_site_fract_y
 _atom_site_fract_z
 _atom_site_occupancy
  Eu  Eu0  1  0.505082  0.005082  0.500000  1
  Eu  Eu1  1  0.005082  0.505082  0.500000  1
  Eu  Eu2  1  0.499024  0.499024  0.000000  1
  Ga  Ga3  1  0.002541  0.002541  0.616075  1
  Ga  Ga4  1  0.386466  0.386466  0.383925  1
  Ga  Ga5  1  0.007457  0.603428  0.000000  1
  Ga  Ga6  1  0.603428  0.007457  0.000000  1
  Ni  Ni7  1  0.241456  0.001350  0.000000  1
  Ni  Ni8  1  0.001350  0.241456  0.000000  1
  Ru  Ru9  1  0.995995  0.995995  0.243877  1
  Ru  Ru10  1  0.752118  0.752118  0.756123  1
