# generated using pymatgen
data_Zr2B2PRu5
_symmetry_space_group_name_H-M   'P 1'
_cell_length_a   9.31231900
_cell_length_b   9.31231900
_cell_length_c   3.05475600
_cell_angle_alpha   90.00000000
_cell_angle_beta   90.00000000
_cell_angle_gamma   90.00000000
_symmetry_Int_Tables_number   1
_chemical_formula_structural   Zr2B2PRu5
_chemical_formula_sum   'Zr4 B4 P2 Ru10'
_cell_volume   264.90625665
_cell_formula_units_Z   2
loop_
 _symmetry_equiv_pos_site_id
 _symmetry_equiv_pos_as_xyz
  1  'x, y, z'
loop_
 _atom_site_type_symbol
 _atom_site_label
 _atom_site_symmetry_multiplicity
 _atom_site_fract_x
 _atom_site_fract_y
 _atom_site_fract_z
 _atom_site_occupancy
  Zr  Zr0  1  0.675569  0.175569  0.000000  1
  Zr  Zr1  1  0.324431  0.824431  0.000000  1
  Zr  Zr2  1  0.175569  0.324431  0.000000  1
  Zr  Zr3  1  0.824431  0.675569  0.000000  1
  B  B4  1  0.123997  0.623997  0.000000  1
  B  B5  1  0.876003  0.376003  0.000000  1
  B  B6  1  0.623997  0.876003  0.000000  1
  B  B7  1  0.376003  0.123997  0.000000  1
  P  P8  1  0.000000  0.000000  0.000000  1
  P  P9  1  0.500000  0.500000  0.000000  1
  Ru  Ru10  1  0.209628  0.067740  0.500000  1
  Ru  Ru11  1  0.790372  0.932260  0.500000  1
  Ru  Ru12  1  0.067740  0.790372  0.500000  1
  Ru  Ru13  1  0.709628  0.432260  0.500000  1
  Ru  Ru14  1  0.932260  0.209628  0.500000  1
  Ru  Ru15  1  0.290372  0.567740  0.500000  1
  Ru  Ru16  1  0.567740  0.709628  0.500000  1
  Ru  Ru17  1  0.432260  0.290372  0.500000  1
  Ru  Ru18  1  0.500000  0.000000  0.500000  1
  Ru  Ru19  1  0.000000  0.500000  0.500000  1
