# generated using pymatgen
data_Hf4Zr6CuSiSb6
_symmetry_space_group_name_H-M   'P 1'
_cell_length_a   8.62764600
_cell_length_b   8.62764720
_cell_length_c   5.82309700
_cell_angle_alpha   90.00000000
_cell_angle_beta   90.00000000
_cell_angle_gamma   119.99999539
_symmetry_Int_Tables_number   1
_chemical_formula_structural   Hf4Zr6CuSiSb6
_chemical_formula_sum   'Hf4 Zr6 Cu1 Si1 Sb6'
_cell_volume   375.37848017
_cell_formula_units_Z   1
loop_
 _symmetry_equiv_pos_site_id
 _symmetry_equiv_pos_as_xyz
  1  'x, y, z'
loop_
 _atom_site_type_symbol
 _atom_site_label
 _atom_site_symmetry_multiplicity
 _atom_site_fract_x
 _atom_site_fract_y
 _atom_site_fract_z
 _atom_site_occupancy
  Hf  Hf0  1  0.666667  0.333333  0.000000  1
  Hf  Hf1  1  0.333333  0.666667  0.000000  1
  Hf  Hf2  1  0.333333  0.666667  0.500000  1
  Hf  Hf3  1  0.666667  0.333333  0.500000  1
  Zr  Zr4  1  0.736880  0.736880  0.747824  1
  Zr  Zr5  1  0.263120  0.000000  0.747824  1
  Zr  Zr6  1  0.000000  0.263120  0.747824  1
  Zr  Zr7  1  0.263120  0.263120  0.252176  1
  Zr  Zr8  1  0.736880  0.000000  0.252176  1
  Zr  Zr9  1  0.000000  0.736880  0.252176  1
  Cu  Cu10  1  0.000000  0.000000  0.000000  1
  Si  Si11  1  0.000000  0.000000  0.500000  1
  Sb  Sb12  1  0.390003  0.390003  0.752497  1
  Sb  Sb13  1  0.609997  0.000000  0.752497  1
  Sb  Sb14  1  0.000000  0.609997  0.752497  1
  Sb  Sb15  1  0.609997  0.609997  0.247503  1
  Sb  Sb16  1  0.390003  0.000000  0.247503  1
  Sb  Sb17  1  0.000000  0.390003  0.247503  1
