# generated using pymatgen
data_RbOsO4F
_symmetry_space_group_name_H-M   'P 1'
_cell_length_a   5.48572035
_cell_length_b   6.46248615
_cell_length_c   7.57319996
_cell_angle_alpha   95.90863149
_cell_angle_beta   88.97850926
_cell_angle_gamma   95.37200644
_symmetry_Int_Tables_number   1
_chemical_formula_structural   RbOsO4F
_chemical_formula_sum   'Rb2 Os2 O8 F2'
_cell_volume   265.87208774
_cell_formula_units_Z   2
loop_
 _symmetry_equiv_pos_site_id
 _symmetry_equiv_pos_as_xyz
  1  'x, y, z'
loop_
 _atom_site_type_symbol
 _atom_site_label
 _atom_site_symmetry_multiplicity
 _atom_site_fract_x
 _atom_site_fract_y
 _atom_site_fract_z
 _atom_site_occupancy
  Rb  Rb0  1  0.994827  0.286134  0.286331  1
  Rb  Rb1  1  0.005173  0.713866  0.713669  1
  Os  Os2  1  0.507346  0.218051  0.793122  1
  Os  Os3  1  0.492654  0.781949  0.206878  1
  O  O4  1  0.250191  0.151999  0.922314  1
  O  O5  1  0.615791  0.620563  0.344699  1
  O  O6  1  0.296333  0.659659  0.041492  1
  O  O7  1  0.384209  0.379437  0.655301  1
  O  O8  1  0.438054  0.031801  0.299738  1
  O  O9  1  0.561946  0.968199  0.700262  1
  O  O10  1  0.749809  0.848001  0.077686  1
  O  O11  1  0.703667  0.340341  0.958508  1
  F  F12  1  0.826390  0.295081  0.635563  1
  F  F13  1  0.173610  0.704919  0.364437  1
