# generated using pymatgen
data_CeNdTm2(NiP)4
_symmetry_space_group_name_H-M   'P 1'
_cell_length_a   3.93918500
_cell_length_b   3.93918537
_cell_length_c   15.47313600
_cell_angle_alpha   90.00000000
_cell_angle_beta   90.00000000
_cell_angle_gamma   119.99998847
_symmetry_Int_Tables_number   1
_chemical_formula_structural   CeNdTm2(NiP)4
_chemical_formula_sum   'Ce1 Nd1 Tm2 Ni4 P4'
_cell_volume   207.93223472
_cell_formula_units_Z   1
loop_
 _symmetry_equiv_pos_site_id
 _symmetry_equiv_pos_as_xyz
  1  'x, y, z'
loop_
 _atom_site_type_symbol
 _atom_site_label
 _atom_site_symmetry_multiplicity
 _atom_site_fract_x
 _atom_site_fract_y
 _atom_site_fract_z
 _atom_site_occupancy
  Ce  Ce0  1  0.000000  0.000000  0.500000  1
  Nd  Nd1  1  0.000000  0.000000  0.000000  1
  Tm  Tm2  1  0.000000  0.000000  0.249876  1
  Tm  Tm3  1  0.000000  0.000000  0.750124  1
  Ni  Ni4  1  0.333333  0.666667  0.366601  1
  Ni  Ni5  1  0.666667  0.333333  0.633399  1
  Ni  Ni6  1  0.666667  0.333333  0.861898  1
  Ni  Ni7  1  0.333333  0.666667  0.138102  1
  P  P8  1  0.333333  0.666667  0.871777  1
  P  P9  1  0.666667  0.333333  0.128223  1
  P  P10  1  0.666667  0.333333  0.375829  1
  P  P11  1  0.333333  0.666667  0.624171  1
