# generated using pymatgen
data_Lu3Zn3Hg2Pt
_symmetry_space_group_name_H-M   'P 1'
_cell_length_a   7.61440300
_cell_length_b   7.61440151
_cell_length_c   3.72870400
_cell_angle_alpha   90.00000000
_cell_angle_beta   90.00000000
_cell_angle_gamma   120.00000213
_symmetry_Int_Tables_number   1
_chemical_formula_structural   Lu3Zn3Hg2Pt
_chemical_formula_sum   'Lu3 Zn3 Hg2 Pt1'
_cell_volume   187.22341521
_cell_formula_units_Z   1
loop_
 _symmetry_equiv_pos_site_id
 _symmetry_equiv_pos_as_xyz
  1  'x, y, z'
loop_
 _atom_site_type_symbol
 _atom_site_label
 _atom_site_symmetry_multiplicity
 _atom_site_fract_x
 _atom_site_fract_y
 _atom_site_fract_z
 _atom_site_occupancy
  Lu  Lu0  1  0.578961  0.604736  0.000000  1
  Lu  Lu1  1  0.395264  0.974224  0.000000  1
  Lu  Lu2  1  0.025776  0.421039  0.000000  1
  Zn  Zn3  1  0.270652  0.276333  0.500000  1
  Zn  Zn4  1  0.723667  0.994319  0.500000  1
  Zn  Zn5  1  0.005681  0.729348  0.500000  1
  Hg  Hg6  1  0.000000  0.000000  0.000000  1
  Hg  Hg7  1  0.666667  0.333333  0.500000  1
  Pt  Pt8  1  0.333333  0.666667  0.500000  1
