# generated using pymatgen
data_Ho6TaO12
_symmetry_space_group_name_H-M   'P 1'
_cell_length_a   6.45586620
_cell_length_b   6.45586586
_cell_length_c   6.45586535
_cell_angle_alpha   98.80671018
_cell_angle_beta   98.80669786
_cell_angle_gamma   98.80670476
_symmetry_Int_Tables_number   1
_chemical_formula_structural   Ho6TaO12
_chemical_formula_sum   'Ho6 Ta1 O12'
_cell_volume   258.43256404
_cell_formula_units_Z   1
loop_
 _symmetry_equiv_pos_site_id
 _symmetry_equiv_pos_as_xyz
  1  'x, y, z'
loop_
 _atom_site_type_symbol
 _atom_site_label
 _atom_site_symmetry_multiplicity
 _atom_site_fract_x
 _atom_site_fract_y
 _atom_site_fract_z
 _atom_site_occupancy
  Ho  Ho0  1  0.139109  0.304588  0.611152  1
  Ho  Ho1  1  0.388848  0.860891  0.695412  1
  Ho  Ho2  1  0.695412  0.388848  0.860891  1
  Ho  Ho3  1  0.304588  0.611152  0.139109  1
  Ho  Ho4  1  0.611152  0.139109  0.304588  1
  Ho  Ho5  1  0.860891  0.695412  0.388848  1
  Ta  Ta6  1  0.000000  0.000000  0.000000  1
  O  O7  1  0.074392  0.303954  0.958135  1
  O  O8  1  0.041865  0.925608  0.696046  1
  O  O9  1  0.412977  0.565002  0.821640  1
  O  O10  1  0.178360  0.587023  0.434998  1
  O  O11  1  0.696046  0.041865  0.925608  1
  O  O12  1  0.434998  0.178360  0.587023  1
  O  O13  1  0.565002  0.821640  0.412977  1
  O  O14  1  0.303954  0.958135  0.074392  1
  O  O15  1  0.821640  0.412977  0.565002  1
  O  O16  1  0.587023  0.434998  0.178360  1
  O  O17  1  0.958135  0.074392  0.303954  1
  O  O18  1  0.925608  0.696046  0.041865  1
