# generated using pymatgen
data_Yb5Pr8Ho7Sn16
_symmetry_space_group_name_H-M   'P 1'
_cell_length_a   8.02463634
_cell_length_b   8.40539244
_cell_length_c   15.78714732
_cell_angle_alpha   90.07425145
_cell_angle_beta   89.82810258
_cell_angle_gamma   90.10680282
_symmetry_Int_Tables_number   1
_chemical_formula_structural   Yb5Pr8Ho7Sn16
_chemical_formula_sum   'Yb5 Pr8 Ho7 Sn16'
_cell_volume   1064.83899442
_cell_formula_units_Z   1
loop_
 _symmetry_equiv_pos_site_id
 _symmetry_equiv_pos_as_xyz
  1  'x, y, z'
loop_
 _atom_site_type_symbol
 _atom_site_label
 _atom_site_symmetry_multiplicity
 _atom_site_fract_x
 _atom_site_fract_y
 _atom_site_fract_z
 _atom_site_occupancy
  Yb  Yb0  1  0.832975  0.668791  0.876794  1
  Yb  Yb1  1  0.165627  0.499336  0.751014  1
  Yb  Yb2  1  0.667331  0.999602  0.750437  1
  Yb  Yb3  1  0.833097  0.502107  0.250517  1
  Yb  Yb4  1  0.333066  0.997877  0.250164  1
  Pr  Pr5  1  0.494695  0.319028  0.903419  1
  Pr  Pr6  1  0.994083  0.180993  0.595288  1
  Pr  Pr7  1  0.506046  0.680247  0.403398  1
  Pr  Pr8  1  0.006082  0.819199  0.096917  1
  Pr  Pr9  1  0.506172  0.679754  0.096618  1
  Pr  Pr10  1  0.006096  0.820502  0.403898  1
  Pr  Pr11  1  0.494655  0.318746  0.595117  1
  Pr  Pr12  1  0.993038  0.181902  0.903446  1
  Ho  Ho13  1  0.334650  0.828912  0.874948  1
  Ho  Ho14  1  0.835868  0.672418  0.623734  1
  Ho  Ho15  1  0.664262  0.170936  0.374996  1
  Ho  Ho16  1  0.164923  0.330043  0.125589  1
  Ho  Ho17  1  0.666600  0.170711  0.125530  1
  Ho  Ho18  1  0.165251  0.329227  0.375206  1
  Ho  Ho19  1  0.335205  0.828347  0.623922  1
  Sn  Sn20  1  0.326704  0.040232  0.038219  1
  Sn  Sn21  1  0.825464  0.460516  0.462066  1
  Sn  Sn22  1  0.674913  0.959865  0.537093  1
  Sn  Sn23  1  0.178266  0.538970  0.963442  1
  Sn  Sn24  1  0.668510  0.963056  0.962076  1
  Sn  Sn25  1  0.174419  0.539003  0.538037  1
  Sn  Sn26  1  0.325050  0.040465  0.462296  1
  Sn  Sn27  1  0.829183  0.459557  0.040199  1
  Sn  Sn28  1  0.533137  0.615846  0.747419  1
  Sn  Sn29  1  0.034752  0.886896  0.749961  1
  Sn  Sn30  1  0.466938  0.382864  0.250258  1
  Sn  Sn31  1  0.966687  0.116402  0.250073  1
  Sn  Sn32  1  0.294860  0.135116  0.748820  1
  Sn  Sn33  1  0.793397  0.362319  0.748355  1
  Sn  Sn34  1  0.704078  0.864267  0.250393  1
  Sn  Sn35  1  0.203921  0.635949  0.250339  1
