# generated using pymatgen
data_Tb15Sm(HoPb4)4
_symmetry_space_group_name_H-M   'P 1'
_cell_length_a   8.23512466
_cell_length_b   8.30983806
_cell_length_c   15.71366768
_cell_angle_alpha   90.00769356
_cell_angle_beta   89.74498611
_cell_angle_gamma   89.92237374
_symmetry_Int_Tables_number   1
_chemical_formula_structural   Tb15Sm(HoPb4)4
_chemical_formula_sum   'Tb15 Sm1 Ho4 Pb16'
_cell_volume   1075.31473745
_cell_formula_units_Z   1
loop_
 _symmetry_equiv_pos_site_id
 _symmetry_equiv_pos_as_xyz
  1  'x, y, z'
loop_
 _atom_site_type_symbol
 _atom_site_label
 _atom_site_symmetry_multiplicity
 _atom_site_fract_x
 _atom_site_fract_y
 _atom_site_fract_z
 _atom_site_occupancy
  Tb  Tb0  1  0.623897  0.158604  0.621300  1
  Tb  Tb1  1  0.121996  0.341388  0.880045  1
  Tb  Tb2  1  0.378351  0.842248  0.121154  1
  Tb  Tb3  1  0.875538  0.658079  0.378192  1
  Tb  Tb4  1  0.375674  0.841474  0.378611  1
  Tb  Tb5  1  0.877944  0.658257  0.121128  1
  Tb  Tb6  1  0.621593  0.158381  0.879383  1
  Tb  Tb7  1  0.123250  0.341421  0.621153  1
  Tb  Tb8  1  0.464693  0.675151  0.599555  1
  Tb  Tb9  1  0.963044  0.824097  0.899473  1
  Tb  Tb10  1  0.536413  0.324518  0.100484  1
  Tb  Tb11  1  0.035007  0.176406  0.400143  1
  Tb  Tb12  1  0.534754  0.323840  0.400265  1
  Tb  Tb13  1  0.036772  0.175591  0.100320  1
  Tb  Tb14  1  0.463699  0.675488  0.900459  1
  Sm  Sm15  1  0.967604  0.823020  0.598209  1
  Ho  Ho16  1  0.790205  0.495893  0.750586  1
  Ho  Ho17  1  0.290496  0.004545  0.750747  1
  Ho  Ho18  1  0.209374  0.504066  0.249888  1
  Ho  Ho19  1  0.709423  0.995680  0.249316  1
  Pb  Pb20  1  0.715628  0.967382  0.455595  1
  Pb  Pb21  1  0.219272  0.534426  0.043302  1
  Pb  Pb22  1  0.280569  0.032408  0.957671  1
  Pb  Pb23  1  0.781477  0.464611  0.542245  1
  Pb  Pb24  1  0.286222  0.036848  0.542284  1
  Pb  Pb25  1  0.780496  0.466499  0.957882  1
  Pb  Pb26  1  0.719669  0.966329  0.042450  1
  Pb  Pb27  1  0.216928  0.533706  0.457039  1
  Pb  Pb28  1  0.426732  0.374301  0.750375  1
  Pb  Pb29  1  0.926927  0.126467  0.750246  1
  Pb  Pb30  1  0.572485  0.625663  0.249788  1
  Pb  Pb31  1  0.073058  0.874566  0.249843  1
  Pb  Pb32  1  0.650654  0.845943  0.749930  1
  Pb  Pb33  1  0.153232  0.652925  0.750684  1
  Pb  Pb34  1  0.348313  0.154687  0.250328  1
  Pb  Pb35  1  0.848608  0.345095  0.249925  1
