# generated using pymatgen
data_RbNp2Cl7
_symmetry_space_group_name_H-M   'P 1'
_cell_length_a   7.12662699
_cell_length_b   8.99678769
_cell_length_c   10.90211675
_cell_angle_alpha   75.09567565
_cell_angle_beta   71.44655434
_cell_angle_gamma   72.96678002
_symmetry_Int_Tables_number   1
_chemical_formula_structural   RbNp2Cl7
_chemical_formula_sum   'Rb2 Np4 Cl14'
_cell_volume   623.15378867
_cell_formula_units_Z   2
loop_
 _symmetry_equiv_pos_site_id
 _symmetry_equiv_pos_as_xyz
  1  'x, y, z'
loop_
 _atom_site_type_symbol
 _atom_site_label
 _atom_site_symmetry_multiplicity
 _atom_site_fract_x
 _atom_site_fract_y
 _atom_site_fract_z
 _atom_site_occupancy
  Rb  Rb0  1  0.072199  0.665678  0.130403  1
  Rb  Rb1  1  0.927030  0.333294  0.868397  1
  Np  Np2  1  0.337945  0.115479  0.172192  1
  Np  Np3  1  0.597639  0.252228  0.454259  1
  Np  Np4  1  0.404246  0.749820  0.545725  1
  Np  Np5  1  0.662703  0.883281  0.826545  1
  Cl  Cl6  1  0.732427  0.015498  0.009058  1
  Cl  Cl7  1  0.652997  0.632866  0.020045  1
  Cl  Cl8  1  0.916375  0.237119  0.223418  1
  Cl  Cl9  1  0.295046  0.337400  0.325223  1
  Cl  Cl10  1  0.608511  0.972210  0.346511  1
  Cl  Cl11  1  0.179159  0.864704  0.364020  1
  Cl  Cl12  1  0.704442  0.545854  0.389684  1
  Cl  Cl13  1  0.296744  0.455419  0.609796  1
  Cl  Cl14  1  0.813811  0.140492  0.641706  1
  Cl  Cl15  1  0.395897  0.027325  0.650675  1
  Cl  Cl16  1  0.702891  0.658704  0.677450  1
  Cl  Cl17  1  0.086329  0.764579  0.777734  1
  Cl  Cl18  1  0.345974  0.363966  0.977709  1
  Cl  Cl19  1  0.267627  0.984083  0.989451  1
