# generated using pymatgen
data_Ca6Tc2N6Cl
_symmetry_space_group_name_H-M   'P 1'
_cell_length_a   6.19388223
_cell_length_b   6.19388261
_cell_length_c   6.19388210
_cell_angle_alpha   95.81255827
_cell_angle_beta   95.81256674
_cell_angle_gamma   95.81256272
_symmetry_Int_Tables_number   1
_chemical_formula_structural   Ca6Tc2N6Cl
_chemical_formula_sum   'Ca6 Tc2 N6 Cl1'
_cell_volume   233.68801808
_cell_formula_units_Z   1
loop_
 _symmetry_equiv_pos_site_id
 _symmetry_equiv_pos_as_xyz
  1  'x, y, z'
loop_
 _atom_site_type_symbol
 _atom_site_label
 _atom_site_symmetry_multiplicity
 _atom_site_fract_x
 _atom_site_fract_y
 _atom_site_fract_z
 _atom_site_occupancy
  Ca  Ca0  1  0.612080  0.111449  0.784167  1
  Ca  Ca1  1  0.111449  0.784167  0.612080  1
  Ca  Ca2  1  0.784167  0.612080  0.111449  1
  Ca  Ca3  1  0.387920  0.888551  0.215833  1
  Ca  Ca4  1  0.888551  0.215833  0.387920  1
  Ca  Ca5  1  0.215833  0.387920  0.888551  1
  Tc  Tc6  1  0.622737  0.622737  0.622737  1
  Tc  Tc7  1  0.377263  0.377263  0.377263  1
  N  N8  1  0.729791  0.858524  0.467637  1
  N  N9  1  0.858524  0.467637  0.729791  1
  N  N10  1  0.467637  0.729791  0.858524  1
  N  N11  1  0.270209  0.141476  0.532363  1
  N  N12  1  0.141476  0.532363  0.270209  1
  N  N13  1  0.532363  0.270209  0.141476  1
  Cl  Cl14  1  0.000000  0.000000  0.000000  1
