# generated using pymatgen
data_Yb20Cd3Ag8Hg
_symmetry_space_group_name_H-M   'P 1'
_cell_length_a   8.06820500
_cell_length_b   8.06820500
_cell_length_c   14.62934800
_cell_angle_alpha   90.00000000
_cell_angle_beta   90.00000000
_cell_angle_gamma   90.00000000
_symmetry_Int_Tables_number   1
_chemical_formula_structural   Yb20Cd3Ag8Hg
_chemical_formula_sum   'Yb20 Cd3 Ag8 Hg1'
_cell_volume   952.31104147
_cell_formula_units_Z   1
loop_
 _symmetry_equiv_pos_site_id
 _symmetry_equiv_pos_as_xyz
  1  'x, y, z'
loop_
 _atom_site_type_symbol
 _atom_site_label
 _atom_site_symmetry_multiplicity
 _atom_site_fract_x
 _atom_site_fract_y
 _atom_site_fract_z
 _atom_site_occupancy
  Yb  Yb0  1  0.000000  0.000000  0.754438  1
  Yb  Yb1  1  0.500000  0.500000  0.250321  1
  Yb  Yb2  1  0.000000  0.000000  0.245562  1
  Yb  Yb3  1  0.500000  0.500000  0.749679  1
  Yb  Yb4  1  0.169883  0.661715  0.106764  1
  Yb  Yb5  1  0.666427  0.165603  0.609304  1
  Yb  Yb6  1  0.830117  0.338285  0.106764  1
  Yb  Yb7  1  0.333573  0.834397  0.609304  1
  Yb  Yb8  1  0.338285  0.169883  0.106764  1
  Yb  Yb9  1  0.834397  0.666427  0.609304  1
  Yb  Yb10  1  0.661715  0.830117  0.106764  1
  Yb  Yb11  1  0.165603  0.333573  0.609304  1
  Yb  Yb12  1  0.338285  0.830117  0.893236  1
  Yb  Yb13  1  0.834397  0.333573  0.390696  1
  Yb  Yb14  1  0.661715  0.169883  0.893236  1
  Yb  Yb15  1  0.165603  0.666427  0.390696  1
  Yb  Yb16  1  0.169883  0.338285  0.893236  1
  Yb  Yb17  1  0.666427  0.834397  0.390696  1
  Yb  Yb18  1  0.830117  0.661715  0.893236  1
  Yb  Yb19  1  0.333573  0.165603  0.390696  1
  Cd  Cd20  1  0.000000  0.000000  0.500000  1
  Cd  Cd21  1  0.000000  0.000000  0.000000  1
  Cd  Cd22  1  0.500000  0.500000  0.500000  1
  Ag  Ag23  1  0.628806  0.127802  0.248507  1
  Ag  Ag24  1  0.127802  0.628806  0.751493  1
  Ag  Ag25  1  0.872198  0.371194  0.751493  1
  Ag  Ag26  1  0.371194  0.872198  0.248507  1
  Ag  Ag27  1  0.371194  0.127802  0.751493  1
  Ag  Ag28  1  0.872198  0.628806  0.248507  1
  Ag  Ag29  1  0.127802  0.371194  0.248507  1
  Ag  Ag30  1  0.628806  0.872198  0.751493  1
  Hg  Hg31  1  0.500000  0.500000  0.000000  1
