# generated using pymatgen
data_Pr2Al20TcRh3
_symmetry_space_group_name_H-M   'P 1'
_cell_length_a   6.91396532
_cell_length_b   6.90938212
_cell_length_c   9.24415258
_cell_angle_alpha   90.21786134
_cell_angle_beta   90.24466221
_cell_angle_gamma   97.27293458
_symmetry_Int_Tables_number   1
_chemical_formula_structural   Pr2Al20TcRh3
_chemical_formula_sum   'Pr2 Al20 Tc1 Rh3'
_cell_volume   438.04333823
_cell_formula_units_Z   1
loop_
 _symmetry_equiv_pos_site_id
 _symmetry_equiv_pos_as_xyz
  1  'x, y, z'
loop_
 _atom_site_type_symbol
 _atom_site_label
 _atom_site_symmetry_multiplicity
 _atom_site_fract_x
 _atom_site_fract_y
 _atom_site_fract_z
 _atom_site_occupancy
  Pr  Pr0  1  0.870862  0.123921  0.750105  1
  Pr  Pr1  1  0.129138  0.876079  0.249895  1
  Al  Al2  1  0.620080  0.376333  0.547554  1
  Al  Al3  1  0.379920  0.623667  0.452446  1
  Al  Al4  1  0.378976  0.621508  0.049465  1
  Al  Al5  1  0.621024  0.378492  0.950535  1
  Al  Al6  1  0.224449  0.223247  0.499161  1
  Al  Al7  1  0.775551  0.776753  0.500839  1
  Al  Al8  1  0.774267  0.774476  0.999426  1
  Al  Al9  1  0.225733  0.225524  0.000574  1
  Al  Al10  1  0.841373  0.159984  0.104345  1
  Al  Al11  1  0.158627  0.840016  0.895655  1
  Al  Al12  1  0.159284  0.841915  0.602504  1
  Al  Al13  1  0.840716  0.158085  0.397496  1
  Al  Al14  1  0.857547  0.591378  0.749450  1
  Al  Al15  1  0.142453  0.408622  0.250550  1
  Al  Al16  1  0.408627  0.141841  0.749236  1
  Al  Al17  1  0.591373  0.858159  0.250764  1
  Al  Al18  1  0.224058  0.482331  0.750330  1
  Al  Al19  1  0.775942  0.517669  0.249670  1
  Al  Al20  1  0.517395  0.776801  0.745989  1
  Al  Al21  1  0.482605  0.223199  0.254011  1
  Tc  Tc22  1  0.500000  0.000000  0.500000  1
  Rh  Rh23  1  0.000000  0.500000  0.500000  1
  Rh  Rh24  1  0.000000  0.500000  0.000000  1
  Rh  Rh25  1  0.500000  0.000000  0.000000  1
