# generated using pymatgen
data_Pr8GaCuPd23
_symmetry_space_group_name_H-M   'P 1'
_cell_length_a   8.57109400
_cell_length_b   8.53028200
_cell_length_c   8.48044600
_cell_angle_alpha   90.00000000
_cell_angle_beta   90.00000000
_cell_angle_gamma   90.00000000
_symmetry_Int_Tables_number   1
_chemical_formula_structural   Pr8GaCuPd23
_chemical_formula_sum   'Pr8 Ga1 Cu1 Pd23'
_cell_volume   620.03804718
_cell_formula_units_Z   1
loop_
 _symmetry_equiv_pos_site_id
 _symmetry_equiv_pos_as_xyz
  1  'x, y, z'
loop_
 _atom_site_type_symbol
 _atom_site_label
 _atom_site_symmetry_multiplicity
 _atom_site_fract_x
 _atom_site_fract_y
 _atom_site_fract_z
 _atom_site_occupancy
  Pr  Pr0  1  0.255062  0.249553  0.748521  1
  Pr  Pr1  1  0.251220  0.747866  0.251982  1
  Pr  Pr2  1  0.748780  0.252134  0.251982  1
  Pr  Pr3  1  0.744938  0.750447  0.748521  1
  Pr  Pr4  1  0.748780  0.747866  0.251982  1
  Pr  Pr5  1  0.744938  0.249553  0.748521  1
  Pr  Pr6  1  0.255062  0.750447  0.748521  1
  Pr  Pr7  1  0.251220  0.252134  0.251982  1
  Ga  Ga8  1  0.000000  0.000000  0.000222  1
  Cu  Cu9  1  0.000000  0.500000  0.734748  1
  Pd  Pd10  1  0.500000  0.500000  0.746366  1
  Pd  Pd11  1  0.500000  0.254067  0.499513  1
  Pd  Pd12  1  0.250729  0.500000  0.504068  1
  Pd  Pd13  1  0.500000  0.500000  0.253591  1
  Pd  Pd14  1  0.500000  0.745933  0.499513  1
  Pd  Pd15  1  0.749271  0.500000  0.504068  1
  Pd  Pd16  1  0.000000  0.000000  0.705692  1
  Pd  Pd17  1  0.000000  0.298172  0.991506  1
  Pd  Pd18  1  0.292895  0.000000  0.000991  1
  Pd  Pd19  1  0.000000  0.000000  0.296603  1
  Pd  Pd20  1  0.000000  0.701828  0.991506  1
  Pd  Pd21  1  0.707105  0.000000  0.000991  1
  Pd  Pd22  1  0.500000  0.260997  0.000773  1
  Pd  Pd23  1  0.260622  0.000000  0.499715  1
  Pd  Pd24  1  0.000000  0.265429  0.505846  1
  Pd  Pd25  1  0.500000  0.000000  0.739220  1
  Pd  Pd26  1  0.261060  0.500000  0.997827  1
  Pd  Pd27  1  0.000000  0.500000  0.259849  1
  Pd  Pd28  1  0.500000  0.739003  0.000773  1
  Pd  Pd29  1  0.000000  0.734571  0.505846  1
  Pd  Pd30  1  0.500000  0.000000  0.261215  1
  Pd  Pd31  1  0.739378  0.000000  0.499715  1
  Pd  Pd32  1  0.738940  0.500000  0.997827  1
