# generated using pymatgen
data_DyHo(CoOs)2
_symmetry_space_group_name_H-M   'P 1'
_cell_length_a   5.27123232
_cell_length_b   5.24977462
_cell_length_c   5.24977359
_cell_angle_alpha   58.24834200
_cell_angle_beta   59.86468616
_cell_angle_gamma   59.86468534
_symmetry_Int_Tables_number   1
_chemical_formula_structural   DyHo(CoOs)2
_chemical_formula_sum   'Dy1 Ho1 Co2 Os2'
_cell_volume   101.09483441
_cell_formula_units_Z   1
loop_
 _symmetry_equiv_pos_site_id
 _symmetry_equiv_pos_as_xyz
  1  'x, y, z'
loop_
 _atom_site_type_symbol
 _atom_site_label
 _atom_site_symmetry_multiplicity
 _atom_site_fract_x
 _atom_site_fract_y
 _atom_site_fract_z
 _atom_site_occupancy
  Dy  Dy0  1  0.997205  0.002795  0.002795  1
  Ho  Ho1  1  0.253212  0.246788  0.246788  1
  Co  Co2  1  0.125059  0.625134  0.625134  1
  Co  Co3  1  0.624673  0.625134  0.625134  1
  Os  Os4  1  0.624925  0.625029  0.125121  1
  Os  Os5  1  0.624925  0.125121  0.625029  1
