# generated using pymatgen
data_YbDy3Ga17SiIr6
_symmetry_space_group_name_H-M   'P 1'
_cell_length_a   7.58390189
_cell_length_b   7.56106206
_cell_length_c   9.51596942
_cell_angle_alpha   90.05903351
_cell_angle_beta   89.85137724
_cell_angle_gamma   119.92192729
_symmetry_Int_Tables_number   1
_chemical_formula_structural   YbDy3Ga17SiIr6
_chemical_formula_sum   'Yb1 Dy3 Ga17 Si1 Ir6'
_cell_volume   472.93213497
_cell_formula_units_Z   1
loop_
 _symmetry_equiv_pos_site_id
 _symmetry_equiv_pos_as_xyz
  1  'x, y, z'
loop_
 _atom_site_type_symbol
 _atom_site_label
 _atom_site_symmetry_multiplicity
 _atom_site_fract_x
 _atom_site_fract_y
 _atom_site_fract_z
 _atom_site_occupancy
  Yb  Yb0  1  0.330847  0.002727  0.749179  1
  Dy  Dy1  1  0.998317  0.665041  0.247720  1
  Dy  Dy2  1  0.003003  0.331921  0.751475  1
  Dy  Dy3  1  0.672884  0.003023  0.247840  1
  Ga  Ga4  1  0.130100  0.129177  0.250667  1
  Ga  Ga5  1  0.873109  0.874312  0.750861  1
  Ga  Ga6  1  0.000334  0.673228  0.918686  1
  Ga  Ga7  1  0.001377  0.667731  0.579344  1
  Ga  Ga8  1  0.333608  0.998326  0.421836  1
  Ga  Ga9  1  0.999557  0.334300  0.421060  1
  Ga  Ga10  1  0.663056  0.998955  0.579471  1
  Ga  Ga11  1  0.656750  0.993983  0.918824  1
  Ga  Ga12  1  0.333366  0.998207  0.079091  1
  Ga  Ga13  1  0.333563  0.330666  0.563910  1
  Ga  Ga14  1  0.668165  0.668595  0.434008  1
  Ga  Ga15  1  0.667830  0.669196  0.068289  1
  Ga  Ga16  1  0.339963  0.331637  0.935062  1
  Ga  Ga17  1  0.339330  0.545470  0.251034  1
  Ga  Ga18  1  0.662463  0.452021  0.751742  1
  Ga  Ga19  1  0.546416  0.337942  0.250579  1
  Ga  Ga20  1  0.452174  0.660802  0.750664  1
  Si  Si21  1  0.999881  0.334062  0.072016  1
  Ir  Ir22  1  0.684899  0.330312  0.004392  1
  Ir  Ir23  1  0.313070  0.655341  0.001843  1
  Ir  Ir24  1  0.327458  0.669261  0.499726  1
  Ir  Ir25  1  0.672229  0.329184  0.499829  1
  Ir  Ir26  1  0.997703  0.014321  0.001849  1
  Ir  Ir27  1  0.998547  0.000263  0.499001  1
