# generated using pymatgen
data_ErTm5P13Rh20
_symmetry_space_group_name_H-M   'P 1'
_cell_length_a   13.32729518
_cell_length_b   13.32335171
_cell_length_c   3.89888305
_cell_angle_alpha   89.98860582
_cell_angle_beta   90.01875996
_cell_angle_gamma   120.00699648
_symmetry_Int_Tables_number   1
_chemical_formula_structural   ErTm5P13Rh20
_chemical_formula_sum   'Er1 Tm5 P13 Rh20'
_cell_volume   599.50899513
_cell_formula_units_Z   1
loop_
 _symmetry_equiv_pos_site_id
 _symmetry_equiv_pos_as_xyz
  1  'x, y, z'
loop_
 _atom_site_type_symbol
 _atom_site_label
 _atom_site_symmetry_multiplicity
 _atom_site_fract_x
 _atom_site_fract_y
 _atom_site_fract_z
 _atom_site_occupancy
  Er  Er0  1  0.529198  0.717225  0.248400  1
  Tm  Tm1  1  0.282634  0.811811  0.248526  1
  Tm  Tm2  1  0.188143  0.470822  0.248612  1
  Tm  Tm3  1  0.470908  0.282764  0.751499  1
  Tm  Tm4  1  0.717347  0.188253  0.751533  1
  Tm  Tm5  1  0.811772  0.529120  0.751397  1
  P  P6  1  0.527182  0.140029  0.250321  1
  P  P7  1  0.859960  0.387115  0.250225  1
  P  P8  1  0.612861  0.472841  0.250313  1
  P  P9  1  0.944454  0.713907  0.254679  1
  P  P10  1  0.286110  0.230582  0.254643  1
  P  P11  1  0.769376  0.055502  0.254478  1
  P  P12  1  0.386904  0.526812  0.749659  1
  P  P13  1  0.472840  0.860173  0.749669  1
  P  P14  1  0.139990  0.612877  0.749787  1
  P  P15  1  0.714207  0.769531  0.745392  1
  P  P16  1  0.230547  0.944428  0.745464  1
  P  P17  1  0.055574  0.286092  0.745269  1
  P  P18  1  0.000023  0.999994  0.000056  1
  Rh  Rh19  1  0.332864  0.666566  0.752345  1
  Rh  Rh20  1  0.920223  0.250439  0.253485  1
  Rh  Rh21  1  0.749644  0.669755  0.253529  1
  Rh  Rh22  1  0.330212  0.079751  0.253394  1
  Rh  Rh23  1  0.438362  0.021856  0.751370  1
  Rh  Rh24  1  0.978098  0.416444  0.751517  1
  Rh  Rh25  1  0.583562  0.561509  0.751328  1
  Rh  Rh26  1  0.666701  0.333316  0.247703  1
  Rh  Rh27  1  0.094468  0.187499  0.247833  1
  Rh  Rh28  1  0.812385  0.907017  0.247783  1
  Rh  Rh29  1  0.093022  0.905495  0.247873  1
  Rh  Rh30  1  0.021875  0.583566  0.248470  1
  Rh  Rh31  1  0.416403  0.438146  0.248627  1
  Rh  Rh32  1  0.561745  0.978246  0.248670  1
  Rh  Rh33  1  0.670210  0.920832  0.746645  1
  Rh  Rh34  1  0.079737  0.749478  0.746490  1
  Rh  Rh35  1  0.250429  0.330187  0.746547  1
  Rh  Rh36  1  0.905653  0.812596  0.752157  1
  Rh  Rh37  1  0.187513  0.093067  0.752129  1
  Rh  Rh38  1  0.906864  0.094354  0.752184  1
