# generated using pymatgen
data_Tb4SiB4Ir9
_symmetry_space_group_name_H-M   'P 1'
_cell_length_a   10.71851452
_cell_length_b   10.71851411
_cell_length_c   10.71851520
_cell_angle_alpha   29.86458334
_cell_angle_beta   29.86458995
_cell_angle_gamma   29.86458920
_symmetry_Int_Tables_number   1
_chemical_formula_structural   Tb4SiB4Ir9
_chemical_formula_sum   'Tb4 Si1 B4 Ir9'
_cell_volume   270.40725857
_cell_formula_units_Z   1
loop_
 _symmetry_equiv_pos_site_id
 _symmetry_equiv_pos_as_xyz
  1  'x, y, z'
loop_
 _atom_site_type_symbol
 _atom_site_label
 _atom_site_symmetry_multiplicity
 _atom_site_fract_x
 _atom_site_fract_y
 _atom_site_fract_z
 _atom_site_occupancy
  Tb  Tb0  1  0.150051  0.150051  0.150051  1
  Tb  Tb1  1  0.949970  0.949970  0.949970  1
  Tb  Tb2  1  0.849949  0.849949  0.849949  1
  Tb  Tb3  1  0.050030  0.050030  0.050030  1
  Si  Si4  1  0.500000  0.500000  0.500000  1
  B  B5  1  0.615642  0.615642  0.615642  1
  B  B6  1  0.718376  0.718376  0.718376  1
  B  B7  1  0.384358  0.384358  0.384358  1
  B  B8  1  0.281624  0.281624  0.281624  1
  Ir  Ir9  1  0.401861  0.898991  0.401861  1
  Ir  Ir10  1  0.898991  0.401861  0.401861  1
  Ir  Ir11  1  0.500000  0.500000  0.000000  1
  Ir  Ir12  1  0.500000  0.000000  0.500000  1
  Ir  Ir13  1  0.000000  0.500000  0.500000  1
  Ir  Ir14  1  0.598139  0.101009  0.598139  1
  Ir  Ir15  1  0.598139  0.598139  0.101009  1
  Ir  Ir16  1  0.101009  0.598139  0.598139  1
  Ir  Ir17  1  0.401861  0.401861  0.898991  1
