# generated using pymatgen
data_Tm4Al18Ni3RuRh2
_symmetry_space_group_name_H-M   'P 1'
_cell_length_a   7.47528449
_cell_length_b   7.47527991
_cell_length_c   9.31414598
_cell_angle_alpha   89.94677994
_cell_angle_beta   89.94682026
_cell_angle_gamma   119.87217477
_symmetry_Int_Tables_number   1
_chemical_formula_structural   Tm4Al18Ni3RuRh2
_chemical_formula_sum   'Tm4 Al18 Ni3 Ru1 Rh2'
_cell_volume   451.32154352
_cell_formula_units_Z   1
loop_
 _symmetry_equiv_pos_site_id
 _symmetry_equiv_pos_as_xyz
  1  'x, y, z'
loop_
 _atom_site_type_symbol
 _atom_site_label
 _atom_site_symmetry_multiplicity
 _atom_site_fract_x
 _atom_site_fract_y
 _atom_site_fract_z
 _atom_site_occupancy
  Tm  Tm0  1  0.996169  0.670123  0.249353  1
  Tm  Tm1  1  0.007223  0.332937  0.751124  1
  Tm  Tm2  1  0.667062  0.992777  0.248876  1
  Tm  Tm3  1  0.329877  0.003830  0.750647  1
  Al  Al4  1  0.121435  0.120642  0.249278  1
  Al  Al5  1  0.879358  0.878565  0.750722  1
  Al  Al6  1  0.995470  0.333681  0.074103  1
  Al  Al7  1  0.998805  0.666338  0.926202  1
  Al  Al8  1  0.000502  0.667177  0.574811  1
  Al  Al9  1  0.332823  0.999498  0.425189  1
  Al  Al10  1  0.998872  0.330365  0.424721  1
  Al  Al11  1  0.669635  0.001128  0.575279  1
  Al  Al12  1  0.666319  0.004530  0.925897  1
  Al  Al13  1  0.333662  0.001195  0.073798  1
  Al  Al14  1  0.330908  0.329572  0.550550  1
  Al  Al15  1  0.670428  0.669092  0.449450  1
  Al  Al16  1  0.667928  0.669568  0.048193  1
  Al  Al17  1  0.330432  0.332072  0.951807  1
  Al  Al18  1  0.338897  0.546938  0.248506  1
  Al  Al19  1  0.661875  0.449070  0.753090  1
  Al  Al20  1  0.550930  0.338125  0.246910  1
  Al  Al21  1  0.453062  0.661103  0.751494  1
  Ni  Ni22  1  0.670624  0.329375  0.000000  1
  Ni  Ni23  1  0.999197  0.000803  0.000000  1
  Ni  Ni24  1  0.000861  0.999141  0.500000  1
  Ru  Ru25  1  0.326706  0.673294  0.000000  1
  Rh  Rh26  1  0.328482  0.671519  0.500000  1
  Rh  Rh27  1  0.672454  0.327547  0.500000  1
