# generated using pymatgen
data_Ac2PuSe3
_symmetry_space_group_name_H-M   'P 1'
_cell_length_a   4.38485400
_cell_length_b   4.38485367
_cell_length_c   10.65414100
_cell_angle_alpha   90.00000000
_cell_angle_beta   90.00000000
_cell_angle_gamma   120.00001756
_symmetry_Int_Tables_number   1
_chemical_formula_structural   Ac2PuSe3
_chemical_formula_sum   'Ac2 Pu1 Se3'
_cell_volume   177.40229645
_cell_formula_units_Z   1
loop_
 _symmetry_equiv_pos_site_id
 _symmetry_equiv_pos_as_xyz
  1  'x, y, z'
loop_
 _atom_site_type_symbol
 _atom_site_label
 _atom_site_symmetry_multiplicity
 _atom_site_fract_x
 _atom_site_fract_y
 _atom_site_fract_z
 _atom_site_occupancy
  Ac  Ac0  1  0.333333  0.666667  0.675722  1
  Ac  Ac1  1  0.666667  0.333333  0.324278  1
  Pu  Pu2  1  0.000000  0.000000  0.000000  1
  Se  Se3  1  0.333333  0.666667  0.147582  1
  Se  Se4  1  0.666667  0.333333  0.852418  1
  Se  Se5  1  0.000000  0.000000  0.500000  1
