# generated using pymatgen
data_Sr2Cd14Pd3
_symmetry_space_group_name_H-M   'P 1'
_cell_length_a   7.61156627
_cell_length_b   7.61156618
_cell_length_c   7.61156547
_cell_angle_alpha   83.30423270
_cell_angle_beta   83.30422916
_cell_angle_gamma   83.30424812
_symmetry_Int_Tables_number   1
_chemical_formula_structural   Sr2Cd14Pd3
_chemical_formula_sum   'Sr2 Cd14 Pd3'
_cell_volume   432.61002308
_cell_formula_units_Z   1
loop_
 _symmetry_equiv_pos_site_id
 _symmetry_equiv_pos_as_xyz
  1  'x, y, z'
loop_
 _atom_site_type_symbol
 _atom_site_label
 _atom_site_symmetry_multiplicity
 _atom_site_fract_x
 _atom_site_fract_y
 _atom_site_fract_z
 _atom_site_occupancy
  Sr  Sr0  1  0.660238  0.660238  0.660238  1
  Sr  Sr1  1  0.339762  0.339762  0.339762  1
  Cd  Cd2  1  0.347015  0.347015  0.854061  1
  Cd  Cd3  1  0.854061  0.347015  0.347015  1
  Cd  Cd4  1  0.104465  0.104465  0.104465  1
  Cd  Cd5  1  0.895535  0.895535  0.895535  1
  Cd  Cd6  1  0.295396  0.704604  0.000000  1
  Cd  Cd7  1  0.704604  0.000000  0.295396  1
  Cd  Cd8  1  0.000000  0.295396  0.704604  1
  Cd  Cd9  1  0.704604  0.295396  0.000000  1
  Cd  Cd10  1  0.295396  0.000000  0.704604  1
  Cd  Cd11  1  0.000000  0.704604  0.295396  1
  Cd  Cd12  1  0.145939  0.652985  0.652985  1
  Cd  Cd13  1  0.652985  0.652985  0.145939  1
  Cd  Cd14  1  0.652985  0.145939  0.652985  1
  Cd  Cd15  1  0.347015  0.854061  0.347015  1
  Pd  Pd16  1  0.000000  0.000000  0.500000  1
  Pd  Pd17  1  0.000000  0.500000  0.000000  1
  Pd  Pd18  1  0.500000  0.000000  0.000000  1
