# generated using pymatgen
data_Dy20TcBi8Rh3
_symmetry_space_group_name_H-M   'P 1'
_cell_length_a   8.00591437
_cell_length_b   9.01521800
_cell_length_c   12.44675232
_cell_angle_alpha   90.00000000
_cell_angle_beta   90.13262087
_cell_angle_gamma   90.00000000
_symmetry_Int_Tables_number   1
_chemical_formula_structural   Dy20TcBi8Rh3
_chemical_formula_sum   'Dy20 Tc1 Bi8 Rh3'
_cell_volume   898.34273068
_cell_formula_units_Z   1
loop_
 _symmetry_equiv_pos_site_id
 _symmetry_equiv_pos_as_xyz
  1  'x, y, z'
loop_
 _atom_site_type_symbol
 _atom_site_label
 _atom_site_symmetry_multiplicity
 _atom_site_fract_x
 _atom_site_fract_y
 _atom_site_fract_z
 _atom_site_occupancy
  Dy  Dy0  1  0.839036  0.750000  0.791622  1
  Dy  Dy1  1  0.158932  0.250000  0.206222  1
  Dy  Dy2  1  0.341499  0.250000  0.707201  1
  Dy  Dy3  1  0.656654  0.750000  0.293617  1
  Dy  Dy4  1  0.377064  0.750000  0.693726  1
  Dy  Dy5  1  0.625060  0.250000  0.305297  1
  Dy  Dy6  1  0.874196  0.250000  0.806402  1
  Dy  Dy7  1  0.124748  0.750000  0.193306  1
  Dy  Dy8  1  0.948191  0.750000  0.502578  1
  Dy  Dy9  1  0.050517  0.250000  0.497309  1
  Dy  Dy10  1  0.453388  0.250000  0.998019  1
  Dy  Dy11  1  0.548655  0.750000  0.002300  1
  Dy  Dy12  1  0.676545  0.039352  0.564672  1
  Dy  Dy13  1  0.323545  0.957468  0.435558  1
  Dy  Dy14  1  0.177467  0.958660  0.934312  1
  Dy  Dy15  1  0.323545  0.542532  0.435558  1
  Dy  Dy16  1  0.822098  0.042927  0.066074  1
  Dy  Dy17  1  0.676545  0.460648  0.564672  1
  Dy  Dy18  1  0.822098  0.457073  0.066074  1
  Dy  Dy19  1  0.177467  0.541340  0.934312  1
  Tc  Tc20  1  0.576630  0.750000  0.512385  1
  Bi  Bi21  1  0.569222  0.491867  0.827193  1
  Bi  Bi22  1  0.430496  0.508150  0.172917  1
  Bi  Bi23  1  0.069539  0.507991  0.673273  1
  Bi  Bi24  1  0.430496  0.991850  0.172917  1
  Bi  Bi25  1  0.930716  0.491640  0.326959  1
  Bi  Bi26  1  0.569222  0.008133  0.827193  1
  Bi  Bi27  1  0.930716  0.008360  0.326959  1
  Bi  Bi28  1  0.069539  0.992009  0.673273  1
  Rh  Rh29  1  0.426283  0.250000  0.489094  1
  Rh  Rh30  1  0.070947  0.250000  0.989231  1
  Rh  Rh31  1  0.928944  0.750000  0.009773  1
