# generated using pymatgen
data_Y5Nb3Co16(SiP2)4
_symmetry_space_group_name_H-M   'P 1'
_cell_length_a   12.29418529
_cell_length_b   12.30700713
_cell_length_c   3.74079100
_cell_angle_alpha   90.00000000
_cell_angle_beta   90.00000000
_cell_angle_gamma   119.99058127
_symmetry_Int_Tables_number   1
_chemical_formula_structural   Y5Nb3Co16(SiP2)4
_chemical_formula_sum   'Y5 Nb3 Co16 Si4 P8'
_cell_volume   490.21601324
_cell_formula_units_Z   1
loop_
 _symmetry_equiv_pos_site_id
 _symmetry_equiv_pos_as_xyz
  1  'x, y, z'
loop_
 _atom_site_type_symbol
 _atom_site_label
 _atom_site_symmetry_multiplicity
 _atom_site_fract_x
 _atom_site_fract_y
 _atom_site_fract_z
 _atom_site_occupancy
  Y  Y0  1  0.816533  0.998558  0.500000  1
  Y  Y1  1  0.001244  0.816718  0.500000  1
  Y  Y2  1  0.184247  0.184861  0.500000  1
  Y  Y3  1  0.332884  0.666519  0.000000  1
  Y  Y4  1  0.668920  0.335267  0.000000  1
  Nb  Nb5  1  0.441136  0.000712  0.000000  1
  Nb  Nb6  1  0.996723  0.439422  0.000000  1
  Nb  Nb7  1  0.560875  0.558894  0.000000  1
  Co  Co8  1  0.276871  0.001002  0.500000  1
  Co  Co9  1  0.996263  0.276163  0.500000  1
  Co  Co10  1  0.724439  0.719927  0.500000  1
  Co  Co11  1  0.630536  0.806322  0.000000  1
  Co  Co12  1  0.192931  0.822327  0.000000  1
  Co  Co13  1  0.175929  0.370459  0.000000  1
  Co  Co14  1  0.372299  0.180255  0.000000  1
  Co  Co15  1  0.805193  0.625202  0.000000  1
  Co  Co16  1  0.821402  0.194444  0.000000  1
  Co  Co17  1  0.525518  0.881048  0.500000  1
  Co  Co18  1  0.117628  0.643683  0.500000  1
  Co  Co19  1  0.355628  0.476129  0.500000  1
  Co  Co20  1  0.481485  0.358606  0.500000  1
  Co  Co21  1  0.871655  0.516927  0.500000  1
  Co  Co22  1  0.648265  0.125496  0.500000  1
  Co  Co23  1  0.000019  0.000000  0.000000  1
  Si  Si24  1  0.522419  0.691230  0.500000  1
  Si  Si25  1  0.308594  0.831177  0.500000  1
  Si  Si26  1  0.167831  0.478108  0.500000  1
  Si  Si27  1  0.478611  0.169559  0.500000  1
  P  P28  1  0.180715  0.001165  0.000000  1
  P  P29  1  0.999500  0.179138  0.000000  1
  P  P30  1  0.821396  0.819589  0.000000  1
  P  P31  1  0.690034  0.521528  0.500000  1
  P  P32  1  0.830823  0.308287  0.500000  1
  P  P33  1  0.643336  0.999626  0.000000  1
  P  P34  1  0.000764  0.643244  0.000000  1
  P  P35  1  0.357354  0.358408  0.000000  1
