# generated using pymatgen
data_Tb3In4PdPt
_symmetry_space_group_name_H-M   'P 1'
_cell_length_a   7.89270100
_cell_length_b   7.89270162
_cell_length_c   3.89629700
_cell_angle_alpha   90.00000000
_cell_angle_beta   90.00000000
_cell_angle_gamma   120.00000158
_symmetry_Int_Tables_number   1
_chemical_formula_structural   Tb3In4PdPt
_chemical_formula_sum   'Tb3 In4 Pd1 Pt1'
_cell_volume   210.20063055
_cell_formula_units_Z   1
loop_
 _symmetry_equiv_pos_site_id
 _symmetry_equiv_pos_as_xyz
  1  'x, y, z'
loop_
 _atom_site_type_symbol
 _atom_site_label
 _atom_site_symmetry_multiplicity
 _atom_site_fract_x
 _atom_site_fract_y
 _atom_site_fract_z
 _atom_site_occupancy
  Tb  Tb0  1  0.387623  0.414344  0.500000  1
  Tb  Tb1  1  0.026721  0.612378  0.500000  1
  Tb  Tb2  1  0.585656  0.973279  0.500000  1
  In  In3  1  0.000083  0.255603  0.000000  1
  In  In4  1  0.666667  0.333334  0.000000  1
  In  In5  1  0.744396  0.744480  0.000000  1
  In  In6  1  0.255521  0.999917  0.000000  1
  Pd  Pd7  1  0.000000  0.000000  0.500000  1
  Pt  Pt8  1  0.333334  0.666667  0.000000  1
