# generated using pymatgen
data_Cs7KNd2(NpI10)2
_symmetry_space_group_name_H-M   'P 1'
_cell_length_a   9.77630339
_cell_length_b   10.15501389
_cell_length_c   15.70184611
_cell_angle_alpha   90.27049215
_cell_angle_beta   89.97772189
_cell_angle_gamma   90.35779049
_symmetry_Int_Tables_number   1
_chemical_formula_structural   Cs7KNd2(NpI10)2
_chemical_formula_sum   'Cs7 K1 Nd2 Np2 I20'
_cell_volume   1558.80781117
_cell_formula_units_Z   1
loop_
 _symmetry_equiv_pos_site_id
 _symmetry_equiv_pos_as_xyz
  1  'x, y, z'
loop_
 _atom_site_type_symbol
 _atom_site_label
 _atom_site_symmetry_multiplicity
 _atom_site_fract_x
 _atom_site_fract_y
 _atom_site_fract_z
 _atom_site_occupancy
  Cs  Cs0  1  0.941947  0.003455  0.825057  1
  Cs  Cs1  1  0.056721  0.996726  0.173412  1
  Cs  Cs2  1  0.442757  0.995267  0.672188  1
  Cs  Cs3  1  0.057040  0.504596  0.173463  1
  Cs  Cs4  1  0.555318  0.004965  0.329944  1
  Cs  Cs5  1  0.942496  0.496142  0.826331  1
  Cs  Cs6  1  0.555511  0.495932  0.327642  1
  K  K7  1  0.447666  0.500515  0.672446  1
  Nd  Nd8  1  0.426034  0.250689  0.995288  1
  Nd  Nd9  1  0.572780  0.749757  0.001601  1
  Np  Np10  1  0.932538  0.747727  0.503035  1
  Np  Np11  1  0.069212  0.251758  0.500108  1
  I  I12  1  0.119413  0.744458  0.668162  1
  I  I13  1  0.885217  0.251410  0.332634  1
  I  I14  1  0.610037  0.256459  0.826930  1
  I  I15  1  0.385455  0.749865  0.167751  1
  I  I16  1  0.844011  0.040819  0.570839  1
  I  I17  1  0.159522  0.960073  0.431162  1
  I  I18  1  0.340535  0.955860  0.930156  1
  I  I19  1  0.158024  0.542533  0.429866  1
  I  I20  1  0.659624  0.045336  0.067161  1
  I  I21  1  0.840975  0.455477  0.570356  1
  I  I22  1  0.658632  0.457532  0.068467  1
  I  I23  1  0.340117  0.542396  0.929035  1
  I  I24  1  0.598094  0.740777  0.517755  1
  I  I25  1  0.402711  0.257916  0.492129  1
  I  I26  1  0.096028  0.249307  0.987041  1
  I  I27  1  0.902336  0.751151  0.011330  1
  I  I28  1  0.645511  0.741263  0.803952  1
  I  I29  1  0.348887  0.249502  0.192105  1
  I  I30  1  0.159248  0.258282  0.693767  1
  I  I31  1  0.845603  0.752056  0.308884  1
