# generated using pymatgen
data_Er2CdSi3P3Pd20
_symmetry_space_group_name_H-M   'P 1'
_cell_length_a   8.66442061
_cell_length_b   8.67037543
_cell_length_c   8.67037600
_cell_angle_alpha   59.99999782
_cell_angle_beta   59.97726041
_cell_angle_gamma   59.97726268
_symmetry_Int_Tables_number   1
_chemical_formula_structural   Er2CdSi3P3Pd20
_chemical_formula_sum   'Er2 Cd1 Si3 P3 Pd20'
_cell_volume   460.41663586
_cell_formula_units_Z   1
loop_
 _symmetry_equiv_pos_site_id
 _symmetry_equiv_pos_as_xyz
  1  'x, y, z'
loop_
 _atom_site_type_symbol
 _atom_site_label
 _atom_site_symmetry_multiplicity
 _atom_site_fract_x
 _atom_site_fract_y
 _atom_site_fract_z
 _atom_site_occupancy
  Er  Er0  1  0.995856  0.001381  0.001381  1
  Er  Er1  1  0.254081  0.248640  0.248640  1
  Cd  Cd2  1  0.754903  0.748366  0.748366  1
  Si  Si3  1  0.733382  0.268478  0.268478  1
  Si  Si4  1  0.733382  0.729661  0.268478  1
  Si  Si5  1  0.733382  0.268478  0.729661  1
  P  P6  1  0.268693  0.733702  0.263903  1
  P  P7  1  0.268693  0.733702  0.733702  1
  P  P8  1  0.268693  0.263903  0.733702  1
  Pd  Pd9  1  0.338752  0.004878  0.004878  1
  Pd  Pd10  1  0.001206  0.655858  0.344362  1
  Pd  Pd11  1  0.338752  0.004878  0.651494  1
  Pd  Pd12  1  0.001206  0.655858  0.998575  1
  Pd  Pd13  1  0.652304  0.341215  0.003241  1
  Pd  Pd14  1  0.617921  0.619202  0.143674  1
  Pd  Pd15  1  0.383940  0.844661  0.385700  1
  Pd  Pd16  1  0.151287  0.616238  0.616238  1
  Pd  Pd17  1  0.652304  0.003241  0.341215  1
  Pd  Pd18  1  0.001206  0.344362  0.655858  1
  Pd  Pd19  1  0.652304  0.003241  0.003241  1
  Pd  Pd20  1  0.001206  0.998575  0.344362  1
  Pd  Pd21  1  0.617921  0.143674  0.619202  1
  Pd  Pd22  1  0.338752  0.651494  0.004878  1
  Pd  Pd23  1  0.383940  0.385700  0.385700  1
  Pd  Pd24  1  0.617921  0.619202  0.619202  1
  Pd  Pd25  1  0.383940  0.385700  0.844661  1
  Pd  Pd26  1  0.001206  0.998575  0.655858  1
  Pd  Pd27  1  0.851665  0.382779  0.382779  1
  Pd  Pd28  1  0.001206  0.344362  0.998575  1
