# generated using pymatgen
data_Np2Nb3Ge4
_symmetry_space_group_name_H-M   'P 1'
_cell_length_a   7.02915400
_cell_length_b   7.21221400
_cell_length_c   13.59251300
_cell_angle_alpha   90.00000000
_cell_angle_beta   90.00000000
_cell_angle_gamma   90.00000000
_symmetry_Int_Tables_number   1
_chemical_formula_structural   Np2Nb3Ge4
_chemical_formula_sum   'Np8 Nb12 Ge16'
_cell_volume   689.08281609
_cell_formula_units_Z   4
loop_
 _symmetry_equiv_pos_site_id
 _symmetry_equiv_pos_as_xyz
  1  'x, y, z'
loop_
 _atom_site_type_symbol
 _atom_site_label
 _atom_site_symmetry_multiplicity
 _atom_site_fract_x
 _atom_site_fract_y
 _atom_site_fract_z
 _atom_site_occupancy
  Np  Np0  1  0.493501  0.330572  0.409360  1
  Np  Np1  1  0.993501  0.169428  0.090640  1
  Np  Np2  1  0.006499  0.830572  0.590640  1
  Np  Np3  1  0.506499  0.669428  0.909360  1
  Np  Np4  1  0.506499  0.669428  0.590640  1
  Np  Np5  1  0.006499  0.830572  0.909360  1
  Np  Np6  1  0.993501  0.169428  0.409360  1
  Np  Np7  1  0.493501  0.330572  0.090640  1
  Nb  Nb8  1  0.832119  0.505246  0.250000  1
  Nb  Nb9  1  0.332119  0.994754  0.250000  1
  Nb  Nb10  1  0.667881  0.005246  0.750000  1
  Nb  Nb11  1  0.167881  0.494754  0.750000  1
  Nb  Nb12  1  0.160536  0.667848  0.125881  1
  Nb  Nb13  1  0.339464  0.167848  0.874119  1
  Nb  Nb14  1  0.339464  0.167848  0.625881  1
  Nb  Nb15  1  0.839464  0.332152  0.874119  1
  Nb  Nb16  1  0.160536  0.667848  0.374119  1
  Nb  Nb17  1  0.660536  0.832152  0.125881  1
  Nb  Nb18  1  0.839464  0.332152  0.625881  1
  Nb  Nb19  1  0.660536  0.832152  0.374119  1
  Ge  Ge20  1  0.808189  0.640691  0.750000  1
  Ge  Ge21  1  0.308189  0.859309  0.750000  1
  Ge  Ge22  1  0.691811  0.140691  0.250000  1
  Ge  Ge23  1  0.191811  0.359309  0.250000  1
  Ge  Ge24  1  0.039545  0.124309  0.750000  1
  Ge  Ge25  1  0.539545  0.375691  0.750000  1
  Ge  Ge26  1  0.460455  0.624309  0.250000  1
  Ge  Ge27  1  0.960455  0.875691  0.250000  1
  Ge  Ge28  1  0.172671  0.457850  0.543531  1
  Ge  Ge29  1  0.672671  0.042150  0.956469  1
  Ge  Ge30  1  0.672671  0.042150  0.543531  1
  Ge  Ge31  1  0.172671  0.457850  0.956469  1
  Ge  Ge32  1  0.827329  0.542150  0.456469  1
  Ge  Ge33  1  0.827329  0.542150  0.043531  1
  Ge  Ge34  1  0.327329  0.957850  0.043531  1
  Ge  Ge35  1  0.327329  0.957850  0.456469  1
