# generated using pymatgen
data_Hf2ZrRh5
_symmetry_space_group_name_H-M   'P 1'
_cell_length_a   5.63412400
_cell_length_b   10.93659500
_cell_length_c   4.31984500
_cell_angle_alpha   90.00000000
_cell_angle_beta   90.00000000
_cell_angle_gamma   90.00000000
_symmetry_Int_Tables_number   1
_chemical_formula_structural   Hf2ZrRh5
_chemical_formula_sum   'Hf4 Zr2 Rh10'
_cell_volume   266.18078102
_cell_formula_units_Z   2
loop_
 _symmetry_equiv_pos_site_id
 _symmetry_equiv_pos_as_xyz
  1  'x, y, z'
loop_
 _atom_site_type_symbol
 _atom_site_label
 _atom_site_symmetry_multiplicity
 _atom_site_fract_x
 _atom_site_fract_y
 _atom_site_fract_z
 _atom_site_occupancy
  Hf  Hf0  1  0.000368  0.999161  0.000000  1
  Hf  Hf1  1  0.500368  0.500839  0.000000  1
  Hf  Hf2  1  0.155371  0.645932  0.500000  1
  Hf  Hf3  1  0.655371  0.854067  0.500000  1
  Zr  Zr4  1  0.344246  0.145397  0.500000  1
  Zr  Zr5  1  0.844246  0.354604  0.500000  1
  Rh  Rh6  1  0.503359  0.997399  0.000000  1
  Rh  Rh7  1  0.100241  0.243757  0.000000  1
  Rh  Rh8  1  0.600241  0.256243  0.000000  1
  Rh  Rh9  1  0.003359  0.502601  0.000000  1
  Rh  Rh10  1  0.394708  0.741000  0.000000  1
  Rh  Rh11  1  0.894708  0.759000  0.000000  1
  Rh  Rh12  1  0.819867  0.105459  0.500000  1
  Rh  Rh13  1  0.319867  0.394540  0.500000  1
  Rh  Rh14  1  0.681843  0.608029  0.500000  1
  Rh  Rh15  1  0.181843  0.891971  0.500000  1
