# generated using pymatgen
data_Nd3Ho(ScPt)4
_symmetry_space_group_name_H-M   'P 1'
_cell_length_a   4.67337200
_cell_length_b   7.08865011
_cell_length_c   8.54059162
_cell_angle_alpha   90.14069286
_cell_angle_beta   90.00000000
_cell_angle_gamma   90.00000000
_symmetry_Int_Tables_number   1
_chemical_formula_structural   Nd3Ho(ScPt)4
_chemical_formula_sum   'Nd3 Ho1 Sc4 Pt4'
_cell_volume   282.93100323
_cell_formula_units_Z   1
loop_
 _symmetry_equiv_pos_site_id
 _symmetry_equiv_pos_as_xyz
  1  'x, y, z'
loop_
 _atom_site_type_symbol
 _atom_site_label
 _atom_site_symmetry_multiplicity
 _atom_site_fract_x
 _atom_site_fract_y
 _atom_site_fract_z
 _atom_site_occupancy
  Nd  Nd0  1  0.250000  0.015460  0.823267  1
  Nd  Nd1  1  0.250000  0.515354  0.675111  1
  Nd  Nd2  1  0.750000  0.983963  0.180597  1
  Ho  Ho3  1  0.750000  0.481902  0.322668  1
  Sc  Sc4  1  0.250000  0.139979  0.425665  1
  Sc  Sc5  1  0.250000  0.637109  0.078483  1
  Sc  Sc6  1  0.750000  0.861598  0.570775  1
  Sc  Sc7  1  0.750000  0.363710  0.929797  1
  Pt  Pt8  1  0.250000  0.756135  0.401013  1
  Pt  Pt9  1  0.250000  0.263524  0.098315  1
  Pt  Pt10  1  0.750000  0.241790  0.587653  1
  Pt  Pt11  1  0.750000  0.739478  0.906656  1
