# generated using pymatgen
data_Lu3Sc5Cr3CoB24
_symmetry_space_group_name_H-M   'P 1'
_cell_length_a   3.39703300
_cell_length_b   8.90375666
_cell_length_c   11.23540555
_cell_angle_alpha   89.91039018
_cell_angle_beta   90.00000000
_cell_angle_gamma   90.00000000
_symmetry_Int_Tables_number   1
_chemical_formula_structural   Lu3Sc5Cr3CoB24
_chemical_formula_sum   'Lu3 Sc5 Cr3 Co1 B24'
_cell_volume   339.82965127
_cell_formula_units_Z   1
loop_
 _symmetry_equiv_pos_site_id
 _symmetry_equiv_pos_as_xyz
  1  'x, y, z'
loop_
 _atom_site_type_symbol
 _atom_site_label
 _atom_site_symmetry_multiplicity
 _atom_site_fract_x
 _atom_site_fract_y
 _atom_site_fract_z
 _atom_site_occupancy
  Lu  Lu0  1  0.000000  0.819590  0.084849  1
  Lu  Lu1  1  0.000000  0.178385  0.912698  1
  Lu  Lu2  1  0.000000  0.323447  0.416226  1
  Sc  Sc3  1  0.000000  0.678443  0.586145  1
  Sc  Sc4  1  0.000000  0.443435  0.130317  1
  Sc  Sc5  1  0.000000  0.556309  0.870258  1
  Sc  Sc6  1  0.000000  0.942099  0.370870  1
  Sc  Sc7  1  0.000000  0.056024  0.628744  1
  Cr  Cr8  1  0.000000  0.859466  0.818805  1
  Cr  Cr9  1  0.000000  0.640768  0.318856  1
  Cr  Cr10  1  0.000000  0.360836  0.680711  1
  Co  Co11  1  0.000000  0.140181  0.181044  1
  B  B12  1  0.500000  0.054809  0.066821  1
  B  B13  1  0.500000  0.946279  0.934090  1
  B  B14  1  0.500000  0.554726  0.434496  1
  B  B15  1  0.500000  0.448524  0.567096  1
  B  B16  1  0.500000  0.250176  0.081436  1
  B  B17  1  0.500000  0.747398  0.918741  1
  B  B18  1  0.500000  0.751901  0.420188  1
  B  B19  1  0.500000  0.248888  0.581112  1
  B  B20  1  0.500000  0.292081  0.235618  1
  B  B21  1  0.500000  0.705650  0.763618  1
  B  B22  1  0.500000  0.795039  0.263699  1
  B  B23  1  0.500000  0.205983  0.735200  1
  B  B24  1  0.500000  0.130080  0.316785  1
  B  B25  1  0.500000  0.869603  0.682830  1
  B  B26  1  0.500000  0.629518  0.183141  1
  B  B27  1  0.500000  0.370113  0.816316  1
  B  B28  1  0.500000  0.480714  0.287460  1
  B  B29  1  0.500000  0.520526  0.712563  1
  B  B30  1  0.500000  0.983812  0.212564  1
  B  B31  1  0.500000  0.019038  0.787057  1
  B  B32  1  0.500000  0.098940  0.472072  1
  B  B33  1  0.500000  0.900448  0.526879  1
  B  B34  1  0.500000  0.597028  0.027043  1
  B  B35  1  0.500000  0.399740  0.973651  1
