# generated using pymatgen
data_TbPr4Ir3
_symmetry_space_group_name_H-M   'P 1'
_cell_length_a   11.29789600
_cell_length_b   11.29789600
_cell_length_c   6.56992300
_cell_angle_alpha   90.00000000
_cell_angle_beta   90.00000000
_cell_angle_gamma   90.00000000
_symmetry_Int_Tables_number   1
_chemical_formula_structural   TbPr4Ir3
_chemical_formula_sum   'Tb4 Pr16 Ir12'
_cell_volume   838.60109449
_cell_formula_units_Z   4
loop_
 _symmetry_equiv_pos_site_id
 _symmetry_equiv_pos_as_xyz
  1  'x, y, z'
loop_
 _atom_site_type_symbol
 _atom_site_label
 _atom_site_symmetry_multiplicity
 _atom_site_fract_x
 _atom_site_fract_y
 _atom_site_fract_z
 _atom_site_occupancy
  Tb  Tb0  1  0.000000  0.000000  0.500000  1
  Tb  Tb1  1  0.000000  0.000000  0.000000  1
  Tb  Tb2  1  0.500000  0.500000  0.000000  1
  Tb  Tb3  1  0.500000  0.500000  0.500000  1
  Pr  Pr4  1  0.289082  0.088242  0.380887  1
  Pr  Pr5  1  0.289082  0.911758  0.880887  1
  Pr  Pr6  1  0.710918  0.088242  0.880887  1
  Pr  Pr7  1  0.710918  0.911758  0.380887  1
  Pr  Pr8  1  0.588242  0.789082  0.880887  1
  Pr  Pr9  1  0.588242  0.210918  0.380887  1
  Pr  Pr10  1  0.411758  0.789082  0.380887  1
  Pr  Pr11  1  0.411758  0.210918  0.880887  1
  Pr  Pr12  1  0.210918  0.411758  0.619113  1
  Pr  Pr13  1  0.210918  0.588242  0.119113  1
  Pr  Pr14  1  0.789082  0.411758  0.119113  1
  Pr  Pr15  1  0.789082  0.588242  0.619113  1
  Pr  Pr16  1  0.911758  0.710918  0.119113  1
  Pr  Pr17  1  0.911758  0.289082  0.619113  1
  Pr  Pr18  1  0.088242  0.710918  0.619113  1
  Pr  Pr19  1  0.088242  0.289082  0.119113  1
  Ir  Ir20  1  0.851408  0.148592  0.250000  1
  Ir  Ir21  1  0.851408  0.851408  0.750000  1
  Ir  Ir22  1  0.148592  0.148592  0.750000  1
  Ir  Ir23  1  0.148592  0.851408  0.250000  1
  Ir  Ir24  1  0.648592  0.351408  0.750000  1
  Ir  Ir25  1  0.648592  0.648592  0.250000  1
  Ir  Ir26  1  0.351408  0.351408  0.250000  1
  Ir  Ir27  1  0.351408  0.648592  0.750000  1
  Ir  Ir28  1  0.500000  0.000000  0.118586  1
  Ir  Ir29  1  0.500000  0.000000  0.618586  1
  Ir  Ir30  1  0.000000  0.500000  0.881414  1
  Ir  Ir31  1  0.000000  0.500000  0.381414  1
