# generated using pymatgen
data_Th8Ir5Pt3
_symmetry_space_group_name_H-M   'P 1'
_cell_length_a   4.34279300
_cell_length_b   5.96548365
_cell_length_c   14.87599696
_cell_angle_alpha   89.99346807
_cell_angle_beta   90.00000000
_cell_angle_gamma   90.00000000
_symmetry_Int_Tables_number   1
_chemical_formula_structural   Th8Ir5Pt3
_chemical_formula_sum   'Th8 Ir5 Pt3'
_cell_volume   385.39037776
_cell_formula_units_Z   1
loop_
 _symmetry_equiv_pos_site_id
 _symmetry_equiv_pos_as_xyz
  1  'x, y, z'
loop_
 _atom_site_type_symbol
 _atom_site_label
 _atom_site_symmetry_multiplicity
 _atom_site_fract_x
 _atom_site_fract_y
 _atom_site_fract_z
 _atom_site_occupancy
  Th  Th0  1  0.250000  0.547536  0.287071  1
  Th  Th1  1  0.750000  0.459174  0.716375  1
  Th  Th2  1  0.250000  0.958741  0.782315  1
  Th  Th3  1  0.250000  0.759082  0.534288  1
  Th  Th4  1  0.250000  0.739678  0.038804  1
  Th  Th5  1  0.750000  0.260317  0.961842  1
  Th  Th6  1  0.750000  0.040900  0.217350  1
  Th  Th7  1  0.750000  0.244413  0.460501  1
  Ir  Ir8  1  0.250000  0.069673  0.348397  1
  Ir  Ir9  1  0.750000  0.569909  0.149198  1
  Ir  Ir10  1  0.750000  0.719196  0.403169  1
  Ir  Ir11  1  0.250000  0.429566  0.849956  1
  Ir  Ir12  1  0.750000  0.929259  0.651448  1
  Pt  Pt13  1  0.750000  0.776548  0.901338  1
  Pt  Pt14  1  0.250000  0.222329  0.098775  1
  Pt  Pt15  1  0.250000  0.273681  0.599172  1
