# generated using pymatgen
data_ErZr7(Ta3Ge4)4
_symmetry_space_group_name_H-M   'P 1'
_cell_length_a   6.87477509
_cell_length_b   6.98633671
_cell_length_c   13.35665318
_cell_angle_alpha   90.07181641
_cell_angle_beta   89.94602487
_cell_angle_gamma   90.00755735
_symmetry_Int_Tables_number   1
_chemical_formula_structural   ErZr7(Ta3Ge4)4
_chemical_formula_sum   'Er1 Zr7 Ta12 Ge16'
_cell_volume   641.51249493
_cell_formula_units_Z   1
loop_
 _symmetry_equiv_pos_site_id
 _symmetry_equiv_pos_as_xyz
  1  'x, y, z'
loop_
 _atom_site_type_symbol
 _atom_site_label
 _atom_site_symmetry_multiplicity
 _atom_site_fract_x
 _atom_site_fract_y
 _atom_site_fract_z
 _atom_site_occupancy
  Er  Er0  1  0.992627  0.173117  0.091316  1
  Zr  Zr1  1  0.490709  0.326787  0.090963  1
  Zr  Zr2  1  0.987823  0.175028  0.408090  1
  Zr  Zr3  1  0.510839  0.674699  0.590864  1
  Zr  Zr4  1  0.011046  0.823409  0.906661  1
  Zr  Zr5  1  0.510872  0.675735  0.907686  1
  Zr  Zr6  1  0.011586  0.826408  0.590886  1
  Zr  Zr7  1  0.489216  0.324968  0.409765  1
  Ta  Ta8  1  0.663223  0.011128  0.749287  1
  Ta  Ta9  1  0.163168  0.490768  0.749907  1
  Ta  Ta10  1  0.337130  0.988725  0.251482  1
  Ta  Ta11  1  0.836368  0.510542  0.252191  1
  Ta  Ta12  1  0.840431  0.334820  0.624604  1
  Ta  Ta13  1  0.340514  0.164979  0.875146  1
  Ta  Ta14  1  0.159580  0.664993  0.125889  1
  Ta  Ta15  1  0.657617  0.832724  0.375813  1
  Ta  Ta16  1  0.159399  0.665983  0.376525  1
  Ta  Ta17  1  0.656464  0.831795  0.125565  1
  Ta  Ta18  1  0.838313  0.337165  0.874137  1
  Ta  Ta19  1  0.341194  0.165640  0.624923  1
  Ge  Ge20  1  0.806248  0.651085  0.748933  1
  Ge  Ge21  1  0.306922  0.850032  0.749560  1
  Ge  Ge22  1  0.195323  0.350359  0.251214  1
  Ge  Ge23  1  0.691783  0.150536  0.250212  1
  Ge  Ge24  1  0.537275  0.388133  0.749727  1
  Ge  Ge25  1  0.037803  0.113476  0.750306  1
  Ge  Ge26  1  0.461588  0.611502  0.250751  1
  Ge  Ge27  1  0.960960  0.885421  0.251023  1
  Ge  Ge28  1  0.682742  0.039556  0.539606  1
  Ge  Ge29  1  0.183617  0.462636  0.958885  1
  Ge  Ge30  1  0.322230  0.956802  0.039004  1
  Ge  Ge31  1  0.818039  0.539480  0.460609  1
  Ge  Ge32  1  0.316657  0.961698  0.460346  1
  Ge  Ge33  1  0.817500  0.541727  0.039116  1
  Ge  Ge34  1  0.681251  0.038810  0.958945  1
  Ge  Ge35  1  0.181939  0.459331  0.540061  1
