# generated using pymatgen
data_Hf3Cr2Si3Rh
_symmetry_space_group_name_H-M   'P 1'
_cell_length_a   6.75711064
_cell_length_b   6.75711107
_cell_length_c   3.49786200
_cell_angle_alpha   90.00000000
_cell_angle_beta   90.00000000
_cell_angle_gamma   119.86806257
_symmetry_Int_Tables_number   1
_chemical_formula_structural   Hf3Cr2Si3Rh
_chemical_formula_sum   'Hf3 Cr2 Si3 Rh1'
_cell_volume   138.49409199
_cell_formula_units_Z   1
loop_
 _symmetry_equiv_pos_site_id
 _symmetry_equiv_pos_as_xyz
  1  'x, y, z'
loop_
 _atom_site_type_symbol
 _atom_site_label
 _atom_site_symmetry_multiplicity
 _atom_site_fract_x
 _atom_site_fract_y
 _atom_site_fract_z
 _atom_site_occupancy
  Hf  Hf0  1  0.399585  0.399585  0.500000  1
  Hf  Hf1  1  0.590358  0.005900  0.500000  1
  Hf  Hf2  1  0.005900  0.590358  0.500000  1
  Cr  Cr3  1  0.250724  0.000312  0.000000  1
  Cr  Cr4  1  0.000312  0.250724  0.000000  1
  Si  Si5  1  0.667391  0.333978  0.000000  1
  Si  Si6  1  0.333978  0.667391  0.000000  1
  Si  Si7  1  0.000077  0.000077  0.500000  1
  Rh  Rh8  1  0.751675  0.751675  0.000000  1
