# generated using pymatgen
data_Na6La7CeAu20
_symmetry_space_group_name_H-M   'P 1'
_cell_length_a   8.92185205
_cell_length_b   8.92195107
_cell_length_c   10.49608600
_cell_angle_alpha   90.00599162
_cell_angle_beta   90.00635774
_cell_angle_gamma   108.42537887
_symmetry_Int_Tables_number   1
_chemical_formula_structural   Na6La7CeAu20
_chemical_formula_sum   'Na6 La7 Ce1 Au20'
_cell_volume   792.66129987
_cell_formula_units_Z   1
loop_
 _symmetry_equiv_pos_site_id
 _symmetry_equiv_pos_as_xyz
  1  'x, y, z'
loop_
 _atom_site_type_symbol
 _atom_site_label
 _atom_site_symmetry_multiplicity
 _atom_site_fract_x
 _atom_site_fract_y
 _atom_site_fract_z
 _atom_site_occupancy
  Na  Na0  1  0.512653  0.013344  0.250813  1
  Na  Na1  1  0.986659  0.487352  0.749182  1
  Na  Na2  1  0.000385  0.999612  0.999998  1
  Na  Na3  1  0.014582  0.513877  0.250354  1
  Na  Na4  1  0.486127  0.985408  0.749652  1
  Na  Na5  1  0.500745  0.499261  0.499998  1
  La  La6  1  0.201189  0.798825  0.499986  1
  La  La7  1  0.801431  0.801859  0.296004  1
  La  La8  1  0.300824  0.301399  0.201472  1
  La  La9  1  0.798816  0.201200  0.500003  1
  La  La10  1  0.299412  0.700542  0.000011  1
  La  La11  1  0.698574  0.699184  0.798531  1
  La  La12  1  0.198169  0.198538  0.704003  1
  Ce  Ce13  1  0.700174  0.299856  0.000008  1
  Au  Au14  1  0.152728  0.430533  0.488286  1
  Au  Au15  1  0.904245  0.905239  0.596080  1
  Au  Au16  1  0.569470  0.847282  0.511714  1
  Au  Au17  1  0.878648  0.162123  0.207531  1
  Au  Au18  1  0.382399  0.660350  0.290294  1
  Au  Au19  1  0.662201  0.379235  0.286536  1
  Au  Au20  1  0.403266  0.401887  0.905556  1
  Au  Au21  1  0.928946  0.646375  0.010753  1
  Au  Au22  1  0.339645  0.617604  0.709702  1
  Au  Au23  1  0.353634  0.071035  0.989245  1
  Au  Au24  1  0.598111  0.596737  0.094447  1
  Au  Au25  1  0.651976  0.933775  0.012836  1
  Au  Au26  1  0.094751  0.095747  0.403933  1
  Au  Au27  1  0.620767  0.337803  0.713458  1
  Au  Au28  1  0.119248  0.840693  0.791609  1
  Au  Au29  1  0.066220  0.348002  0.987162  1
  Au  Au30  1  0.846444  0.569646  0.510980  1
  Au  Au31  1  0.159295  0.880752  0.208387  1
  Au  Au32  1  0.430376  0.153567  0.489014  1
  Au  Au33  1  0.837888  0.121358  0.792465  1
