# generated using pymatgen
data_Tm12CdCo4Rh
_symmetry_space_group_name_H-M   'P 1'
_cell_length_a   8.17607116
_cell_length_b   8.17607104
_cell_length_c   8.17607127
_cell_angle_alpha   110.92950468
_cell_angle_beta   110.77329410
_cell_angle_gamma   106.74482617
_symmetry_Int_Tables_number   1
_chemical_formula_structural   Tm12CdCo4Rh
_chemical_formula_sum   'Tm12 Cd1 Co4 Rh1'
_cell_volume   420.02730625
_cell_formula_units_Z   1
loop_
 _symmetry_equiv_pos_site_id
 _symmetry_equiv_pos_as_xyz
  1  'x, y, z'
loop_
 _atom_site_type_symbol
 _atom_site_label
 _atom_site_symmetry_multiplicity
 _atom_site_fract_x
 _atom_site_fract_y
 _atom_site_fract_z
 _atom_site_occupancy
  Tm  Tm0  1  0.411762  0.217009  0.194753  1
  Tm  Tm1  1  0.588238  0.782991  0.805247  1
  Tm  Tm2  1  0.022257  0.217009  0.805247  1
  Tm  Tm3  1  0.977743  0.782991  0.194753  1
  Tm  Tm4  1  0.184605  0.287826  0.472431  1
  Tm  Tm5  1  0.815395  0.712174  0.527569  1
  Tm  Tm6  1  0.184605  0.712174  0.896779  1
  Tm  Tm7  1  0.815395  0.287826  0.103221  1
  Tm  Tm8  1  0.314660  0.620861  0.306199  1
  Tm  Tm9  1  0.685340  0.379139  0.693801  1
  Tm  Tm10  1  0.314660  0.008462  0.693801  1
  Tm  Tm11  1  0.685340  0.991538  0.306199  1
  Cd  Cd12  1  0.500000  0.500000  0.000000  1
  Co  Co13  1  0.375663  0.000000  0.375663  1
  Co  Co14  1  0.624337  0.000000  0.624337  1
  Co  Co15  1  0.112925  0.612925  0.500000  1
  Co  Co16  1  0.887075  0.387075  0.500000  1
  Rh  Rh17  1  0.000000  0.000000  0.000000  1
