# generated using pymatgen
data_SmYNi2(B4Os3)2
_symmetry_space_group_name_H-M   'P 1'
_cell_length_a   7.57474305
_cell_length_b   7.28049881
_cell_length_c   3.99938300
_cell_angle_alpha   90.00000000
_cell_angle_beta   90.00000000
_cell_angle_gamma   87.59053503
_symmetry_Int_Tables_number   1
_chemical_formula_structural   SmYNi2(B4Os3)2
_chemical_formula_sum   'Sm1 Y1 Ni2 B8 Os6'
_cell_volume   220.36260965
_cell_formula_units_Z   1
loop_
 _symmetry_equiv_pos_site_id
 _symmetry_equiv_pos_as_xyz
  1  'x, y, z'
loop_
 _atom_site_type_symbol
 _atom_site_label
 _atom_site_symmetry_multiplicity
 _atom_site_fract_x
 _atom_site_fract_y
 _atom_site_fract_z
 _atom_site_occupancy
  Sm  Sm0  1  0.000000  0.000000  0.015643  1
  Y  Y1  1  0.500000  0.500000  0.606867  1
  Ni  Ni2  1  0.137704  0.384421  0.880062  1
  Ni  Ni3  1  0.862296  0.615579  0.880062  1
  B  B4  1  0.673392  0.779702  0.105823  1
  B  B5  1  0.326608  0.220298  0.105823  1
  B  B6  1  0.280602  0.835211  0.602350  1
  B  B7  1  0.719398  0.164789  0.602350  1
  B  B8  1  0.844133  0.691273  0.382632  1
  B  B9  1  0.155867  0.308727  0.382632  1
  B  B10  1  0.205588  0.669435  0.881306  1
  B  B11  1  0.794412  0.330565  0.881306  1
  Os  Os12  1  0.879723  0.368794  0.374837  1
  Os  Os13  1  0.120277  0.631206  0.374837  1
  Os  Os14  1  0.347232  0.115352  0.606619  1
  Os  Os15  1  0.652768  0.884648  0.606619  1
  Os  Os16  1  0.602535  0.152073  0.105118  1
  Os  Os17  1  0.397465  0.847927  0.105118  1
