# generated using pymatgen
data_Nd3PaAl13Ga5Ir6
_symmetry_space_group_name_H-M   'P 1'
_cell_length_a   7.59621421
_cell_length_b   7.58936549
_cell_length_c   9.60743100
_cell_angle_alpha   90.00000000
_cell_angle_beta   90.00000000
_cell_angle_gamma   119.59479913
_symmetry_Int_Tables_number   1
_chemical_formula_structural   Nd3PaAl13Ga5Ir6
_chemical_formula_sum   'Nd3 Pa1 Al13 Ga5 Ir6'
_cell_volume   481.61432015
_cell_formula_units_Z   1
loop_
 _symmetry_equiv_pos_site_id
 _symmetry_equiv_pos_as_xyz
  1  'x, y, z'
loop_
 _atom_site_type_symbol
 _atom_site_label
 _atom_site_symmetry_multiplicity
 _atom_site_fract_x
 _atom_site_fract_y
 _atom_site_fract_z
 _atom_site_occupancy
  Nd  Nd0  1  0.004788  0.330348  0.750000  1
  Nd  Nd1  1  0.669744  0.992460  0.250000  1
  Nd  Nd2  1  0.330160  0.002691  0.750000  1
  Pa  Pa3  1  0.000882  0.675046  0.250000  1
  Al  Al4  1  0.000628  0.333542  0.074552  1
  Al  Al5  1  0.996102  0.664537  0.927792  1
  Al  Al6  1  0.996102  0.664537  0.572208  1
  Al  Al7  1  0.338091  0.005029  0.425391  1
  Al  Al8  1  0.000628  0.333542  0.425448  1
  Al  Al9  1  0.665595  0.997359  0.571134  1
  Al  Al10  1  0.665595  0.997359  0.928866  1
  Al  Al11  1  0.338091  0.005029  0.074609  1
  Al  Al12  1  0.334186  0.334217  0.550662  1
  Al  Al13  1  0.663865  0.664353  0.443456  1
  Al  Al14  1  0.663865  0.664353  0.056544  1
  Al  Al15  1  0.334186  0.334217  0.949338  1
  Al  Al16  1  0.549925  0.344533  0.250000  1
  Ga  Ga17  1  0.134804  0.134146  0.250000  1
  Ga  Ga18  1  0.870121  0.870596  0.750000  1
  Ga  Ga19  1  0.336736  0.542739  0.250000  1
  Ga  Ga20  1  0.658997  0.453207  0.750000  1
  Ga  Ga21  1  0.453173  0.659226  0.750000  1
  Ir  Ir22  1  0.671882  0.331398  0.005369  1
  Ir  Ir23  1  0.325901  0.671078  0.003107  1
  Ir  Ir24  1  0.325901  0.671078  0.496893  1
  Ir  Ir25  1  0.671882  0.331398  0.494631  1
  Ir  Ir26  1  0.999088  0.995992  0.004169  1
  Ir  Ir27  1  0.999088  0.995992  0.495831  1
