# generated using pymatgen
data_Hf5ZrSn6(Ir2Rh)2
_symmetry_space_group_name_H-M   'P 1'
_cell_length_a   7.40059585
_cell_length_b   7.38476128
_cell_length_c   7.26833600
_cell_angle_alpha   90.00000000
_cell_angle_beta   90.00000000
_cell_angle_gamma   119.73970419
_symmetry_Int_Tables_number   1
_chemical_formula_structural   Hf5ZrSn6(Ir2Rh)2
_chemical_formula_sum   'Hf5 Zr1 Sn6 Ir4 Rh2'
_cell_volume   344.90693549
_cell_formula_units_Z   1
loop_
 _symmetry_equiv_pos_site_id
 _symmetry_equiv_pos_as_xyz
  1  'x, y, z'
loop_
 _atom_site_type_symbol
 _atom_site_label
 _atom_site_symmetry_multiplicity
 _atom_site_fract_x
 _atom_site_fract_y
 _atom_site_fract_z
 _atom_site_occupancy
  Hf  Hf0  1  0.020892  0.409037  0.750000  1
  Hf  Hf1  1  0.590203  0.612302  0.750000  1
  Hf  Hf2  1  0.387419  0.978532  0.750000  1
  Hf  Hf3  1  0.612356  0.589291  0.250000  1
  Hf  Hf4  1  0.410078  0.022481  0.250000  1
  Zr  Zr5  1  0.975016  0.385795  0.250000  1
  Sn  Sn6  1  0.269331  0.269347  0.499656  1
  Sn  Sn7  1  0.999670  0.729817  0.500308  1
  Sn  Sn8  1  0.999670  0.729817  0.999692  1
  Sn  Sn9  1  0.731172  0.000691  0.500043  1
  Sn  Sn10  1  0.731172  0.000691  0.999957  1
  Sn  Sn11  1  0.269331  0.269347  0.000344  1
  Ir  Ir12  1  0.336382  0.669277  0.463069  1
  Ir  Ir13  1  0.665442  0.333305  0.542535  1
  Ir  Ir14  1  0.336382  0.669277  0.036931  1
  Ir  Ir15  1  0.665442  0.333305  0.957465  1
  Rh  Rh16  1  0.000191  0.999933  0.750000  1
  Rh  Rh17  1  0.999854  0.997754  0.250000  1
