# generated using pymatgen
data_Nd6Ta4Al12Os7
_symmetry_space_group_name_H-M   'P 1'
_cell_length_a   9.13301115
_cell_length_b   9.13301131
_cell_length_c   9.13301100
_cell_angle_alpha   60.00000473
_cell_angle_beta   60.00000416
_cell_angle_gamma   60.00000544
_symmetry_Int_Tables_number   1
_chemical_formula_structural   Nd6Ta4Al12Os7
_chemical_formula_sum   'Nd6 Ta4 Al12 Os7'
_cell_volume   538.67523901
_cell_formula_units_Z   1
loop_
 _symmetry_equiv_pos_site_id
 _symmetry_equiv_pos_as_xyz
  1  'x, y, z'
loop_
 _atom_site_type_symbol
 _atom_site_label
 _atom_site_symmetry_multiplicity
 _atom_site_fract_x
 _atom_site_fract_y
 _atom_site_fract_z
 _atom_site_occupancy
  Nd  Nd0  1  0.702892  0.702892  0.297108  1
  Nd  Nd1  1  0.297108  0.702892  0.297108  1
  Nd  Nd2  1  0.702892  0.297108  0.297108  1
  Nd  Nd3  1  0.297108  0.297108  0.702892  1
  Nd  Nd4  1  0.702892  0.297108  0.702892  1
  Nd  Nd5  1  0.297108  0.702892  0.702892  1
  Ta  Ta6  1  0.879770  0.879770  0.360687  1
  Ta  Ta7  1  0.879770  0.360687  0.879770  1
  Ta  Ta8  1  0.360687  0.879770  0.879770  1
  Ta  Ta9  1  0.879770  0.879770  0.879770  1
  Al  Al10  1  0.119200  0.119200  0.642400  1
  Al  Al11  1  0.119200  0.642400  0.119200  1
  Al  Al12  1  0.642400  0.119200  0.119200  1
  Al  Al13  1  0.119200  0.119200  0.119200  1
  Al  Al14  1  0.669259  0.669259  0.992224  1
  Al  Al15  1  0.669259  0.992224  0.669259  1
  Al  Al16  1  0.992224  0.669259  0.669259  1
  Al  Al17  1  0.669259  0.669259  0.669259  1
  Al  Al18  1  0.327877  0.327877  0.016369  1
  Al  Al19  1  0.327877  0.016369  0.327877  1
  Al  Al20  1  0.016369  0.327877  0.327877  1
  Al  Al21  1  0.327877  0.327877  0.327877  1
  Os  Os22  1  0.000000  0.000000  0.000000  1
  Os  Os23  1  0.995511  0.995511  0.504489  1
  Os  Os24  1  0.504489  0.995511  0.504489  1
  Os  Os25  1  0.995511  0.504489  0.504489  1
  Os  Os26  1  0.504489  0.504489  0.995511  1
  Os  Os27  1  0.995511  0.504489  0.995511  1
  Os  Os28  1  0.504489  0.995511  0.995511  1
