# generated using pymatgen
data_La10InSi4Ag
_symmetry_space_group_name_H-M   'P 1'
_cell_length_a   7.80533836
_cell_length_b   7.80533992
_cell_length_c   9.38723000
_cell_angle_alpha   114.56608774
_cell_angle_beta   114.56607683
_cell_angle_gamma   89.99999255
_symmetry_Int_Tables_number   1
_chemical_formula_structural   La10InSi4Ag
_chemical_formula_sum   'La10 In1 Si4 Ag1'
_cell_volume   462.60990686
_cell_formula_units_Z   1
loop_
 _symmetry_equiv_pos_site_id
 _symmetry_equiv_pos_as_xyz
  1  'x, y, z'
loop_
 _atom_site_type_symbol
 _atom_site_label
 _atom_site_symmetry_multiplicity
 _atom_site_fract_x
 _atom_site_fract_y
 _atom_site_fract_z
 _atom_site_occupancy
  La  La0  1  0.474160  0.474160  0.948319  1
  La  La1  1  0.025840  0.025840  0.051681  1
  La  La2  1  0.954077  0.806580  0.277041  1
  La  La3  1  0.322965  0.470461  0.277041  1
  La  La4  1  0.806580  0.322965  0.277041  1
  La  La5  1  0.470461  0.954077  0.277041  1
  La  La6  1  0.029539  0.177035  0.722959  1
  La  La7  1  0.693420  0.545923  0.722959  1
  La  La8  1  0.177035  0.693420  0.722959  1
  La  La9  1  0.545923  0.029539  0.722959  1
  In  In10  1  0.250000  0.250000  0.500000  1
  Si  Si11  1  0.613818  0.886182  0.000000  1
  Si  Si12  1  0.386182  0.113818  0.000000  1
  Si  Si13  1  0.886182  0.386182  0.000000  1
  Si  Si14  1  0.113818  0.613818  0.000000  1
  Ag  Ag15  1  0.750000  0.750000  0.500000  1
