# generated using pymatgen
data_Sr4In3SnPd4
_symmetry_space_group_name_H-M   'P 1'
_cell_length_a   4.58150500
_cell_length_b   7.71212557
_cell_length_c   8.67614754
_cell_angle_alpha   90.46019076
_cell_angle_beta   90.00000000
_cell_angle_gamma   90.00000000
_symmetry_Int_Tables_number   1
_chemical_formula_structural   Sr4In3SnPd4
_chemical_formula_sum   'Sr4 In3 Sn1 Pd4'
_cell_volume   306.54566369
_cell_formula_units_Z   1
loop_
 _symmetry_equiv_pos_site_id
 _symmetry_equiv_pos_as_xyz
  1  'x, y, z'
loop_
 _atom_site_type_symbol
 _atom_site_label
 _atom_site_symmetry_multiplicity
 _atom_site_fract_x
 _atom_site_fract_y
 _atom_site_fract_z
 _atom_site_occupancy
  Sr  Sr0  1  0.250000  0.030909  0.321939  1
  Sr  Sr1  1  0.250000  0.528506  0.179946  1
  Sr  Sr2  1  0.750000  0.970015  0.679618  1
  Sr  Sr3  1  0.750000  0.469717  0.820052  1
  In  In4  1  0.250000  0.643767  0.564891  1
  In  In5  1  0.750000  0.850323  0.065308  1
  In  In6  1  0.750000  0.353375  0.435830  1
  Sn  Sn7  1  0.250000  0.148692  0.936443  1
  Pd  Pd8  1  0.250000  0.276251  0.626011  1
  Pd  Pd9  1  0.250000  0.786827  0.877088  1
  Pd  Pd10  1  0.750000  0.722212  0.375773  1
  Pd  Pd11  1  0.750000  0.219406  0.117101  1
