# generated using pymatgen
data_Ca3NdTi4O12
_symmetry_space_group_name_H-M   'P 1'
_cell_length_a   5.43719370
_cell_length_b   5.53937571
_cell_length_c   7.74097500
_cell_angle_alpha   90.00000000
_cell_angle_beta   90.00000000
_cell_angle_gamma   89.94199693
_symmetry_Int_Tables_number   1
_chemical_formula_structural   Ca3NdTi4O12
_chemical_formula_sum   'Ca3 Nd1 Ti4 O12'
_cell_volume   233.14766449
_cell_formula_units_Z   1
loop_
 _symmetry_equiv_pos_site_id
 _symmetry_equiv_pos_as_xyz
  1  'x, y, z'
loop_
 _atom_site_type_symbol
 _atom_site_label
 _atom_site_symmetry_multiplicity
 _atom_site_fract_x
 _atom_site_fract_y
 _atom_site_fract_z
 _atom_site_occupancy
  Ca  Ca0  1  0.492335  0.456581  0.250000  1
  Ca  Ca1  1  0.990045  0.043592  0.750000  1
  Ca  Ca2  1  0.009627  0.958058  0.250000  1
  Nd  Nd3  1  0.508735  0.547108  0.750000  1
  Ti  Ti4  1  0.001520  0.499347  0.496410  1
  Ti  Ti5  1  0.001520  0.499347  0.003590  1
  Ti  Ti6  1  0.499130  0.002327  0.496771  1
  Ti  Ti7  1  0.499130  0.002327  0.003229  1
  O  O8  1  0.075797  0.478908  0.750000  1
  O  O9  1  0.923678  0.523592  0.250000  1
  O  O10  1  0.421172  0.984368  0.750000  1
  O  O11  1  0.579184  0.019463  0.250000  1
  O  O12  1  0.787060  0.785717  0.954766  1
  O  O13  1  0.209230  0.209986  0.458385  1
  O  O14  1  0.209230  0.209986  0.041615  1
  O  O15  1  0.787060  0.785717  0.545234  1
  O  O16  1  0.708372  0.290308  0.960317  1
  O  O17  1  0.294401  0.706481  0.462666  1
  O  O18  1  0.294401  0.706481  0.037334  1
  O  O19  1  0.708372  0.290308  0.539683  1
