# generated using pymatgen
data_Zr4ScSiRh10
_symmetry_space_group_name_H-M   'P 1'
_cell_length_a   5.59678835
_cell_length_b   5.59678890
_cell_length_c   8.28728100
_cell_angle_alpha   90.00000000
_cell_angle_beta   90.00000000
_cell_angle_gamma   98.76050873
_symmetry_Int_Tables_number   1
_chemical_formula_structural   Zr4ScSiRh10
_chemical_formula_sum   'Zr4 Sc1 Si1 Rh10'
_cell_volume   256.56264957
_cell_formula_units_Z   1
loop_
 _symmetry_equiv_pos_site_id
 _symmetry_equiv_pos_as_xyz
  1  'x, y, z'
loop_
 _atom_site_type_symbol
 _atom_site_label
 _atom_site_symmetry_multiplicity
 _atom_site_fract_x
 _atom_site_fract_y
 _atom_site_fract_z
 _atom_site_occupancy
  Zr  Zr0  1  0.786829  0.212284  0.497259  1
  Zr  Zr1  1  0.212284  0.786829  0.002741  1
  Zr  Zr2  1  0.212284  0.786829  0.497259  1
  Zr  Zr3  1  0.786829  0.212284  0.002741  1
  Sc  Sc4  1  0.509814  0.509814  0.750000  1
  Si  Si5  1  0.491260  0.491260  0.250000  1
  Rh  Rh6  1  0.708292  0.708292  0.020215  1
  Rh  Rh7  1  0.708292  0.708292  0.479785  1
  Rh  Rh8  1  0.289056  0.289056  0.011134  1
  Rh  Rh9  1  0.289056  0.289056  0.488866  1
  Rh  Rh10  1  0.499046  0.003841  0.750000  1
  Rh  Rh11  1  0.499477  0.005158  0.250000  1
  Rh  Rh12  1  0.999989  0.999989  0.250000  1
  Rh  Rh13  1  0.998493  0.998493  0.750000  1
  Rh  Rh14  1  0.003841  0.499046  0.750000  1
  Rh  Rh15  1  0.005158  0.499477  0.250000  1
