# generated using pymatgen
data_LiGa(IO3)4
_symmetry_space_group_name_H-M   'P 1'
_cell_length_a   4.90893526
_cell_length_b   6.43465372
_cell_length_c   8.51672148
_cell_angle_alpha   84.17553037
_cell_angle_beta   89.83822275
_cell_angle_gamma   88.51585370
_symmetry_Int_Tables_number   1
_chemical_formula_structural   LiGa(IO3)4
_chemical_formula_sum   'Li1 Ga1 I4 O12'
_cell_volume   267.54160873
_cell_formula_units_Z   1
loop_
 _symmetry_equiv_pos_site_id
 _symmetry_equiv_pos_as_xyz
  1  'x, y, z'
loop_
 _atom_site_type_symbol
 _atom_site_label
 _atom_site_symmetry_multiplicity
 _atom_site_fract_x
 _atom_site_fract_y
 _atom_site_fract_z
 _atom_site_occupancy
  Li  Li0  1  0.500000  0.000000  0.500000  1
  Ga  Ga1  1  0.500000  0.500000  0.500000  1
  I  I2  1  0.514626  0.799905  0.162525  1
  I  I3  1  0.010358  0.288429  0.249419  1
  I  I4  1  0.989642  0.711571  0.750581  1
  I  I5  1  0.485374  0.200095  0.837475  1
  O  O6  1  0.750007  0.620555  0.074927  1
  O  O7  1  0.700680  0.044224  0.112299  1
  O  O8  1  0.239103  0.489054  0.320142  1
  O  O9  1  0.207330  0.056344  0.321577  1
  O  O10  1  0.640616  0.750373  0.373211  1
  O  O11  1  0.748992  0.283413  0.406232  1
  O  O12  1  0.251008  0.716587  0.593768  1
  O  O13  1  0.359384  0.249627  0.626789  1
  O  O14  1  0.792670  0.943656  0.678423  1
  O  O15  1  0.760897  0.510946  0.679858  1
  O  O16  1  0.299320  0.955776  0.887701  1
  O  O17  1  0.249993  0.379445  0.925073  1
