# generated using pymatgen
data_Hf5Zr5(Sn3Ge)2
_symmetry_space_group_name_H-M   'P 1'
_cell_length_a   8.67337069
_cell_length_b   8.66761442
_cell_length_c   5.90731200
_cell_angle_alpha   90.00000000
_cell_angle_beta   90.00000000
_cell_angle_gamma   119.97805267
_symmetry_Int_Tables_number   1
_chemical_formula_structural   Hf5Zr5(Sn3Ge)2
_chemical_formula_sum   'Hf5 Zr5 Sn6 Ge2'
_cell_volume   384.68392303
_cell_formula_units_Z   1
loop_
 _symmetry_equiv_pos_site_id
 _symmetry_equiv_pos_as_xyz
  1  'x, y, z'
loop_
 _atom_site_type_symbol
 _atom_site_label
 _atom_site_symmetry_multiplicity
 _atom_site_fract_x
 _atom_site_fract_y
 _atom_site_fract_z
 _atom_site_occupancy
  Hf  Hf0  1  0.000000  0.735547  0.250000  1
  Hf  Hf1  1  0.666834  0.333612  0.999797  1
  Hf  Hf2  1  0.333166  0.666779  0.999797  1
  Hf  Hf3  1  0.333166  0.666779  0.500203  1
  Hf  Hf4  1  0.666834  0.333612  0.500203  1
  Zr  Zr5  1  0.737252  0.736307  0.750000  1
  Zr  Zr6  1  0.262748  0.999055  0.750000  1
  Zr  Zr7  1  0.000000  0.263205  0.750000  1
  Zr  Zr8  1  0.263847  0.264836  0.250000  1
  Zr  Zr9  1  0.736153  0.000990  0.250000  1
  Sn  Sn10  1  0.392501  0.392743  0.750000  1
  Sn  Sn11  1  0.607499  0.000242  0.750000  1
  Sn  Sn12  1  0.000000  0.606447  0.750000  1
  Sn  Sn13  1  0.608413  0.607726  0.250000  1
  Sn  Sn14  1  0.391587  0.999312  0.250000  1
  Sn  Sn15  1  0.000000  0.394337  0.250000  1
  Ge  Ge16  1  0.000000  0.999236  0.002093  1
  Ge  Ge17  1  0.000000  0.999236  0.497907  1
