# generated using pymatgen
data_Dy3Be3P3Pd20
_symmetry_space_group_name_H-M   'P 1'
_cell_length_a   8.71959358
_cell_length_b   8.67339225
_cell_length_c   8.63613800
_cell_angle_alpha   60.49574720
_cell_angle_beta   59.96360990
_cell_angle_gamma   59.54064994
_symmetry_Int_Tables_number   1
_chemical_formula_structural   Dy3Be3P3Pd20
_chemical_formula_sum   'Dy3 Be3 P3 Pd20'
_cell_volume   461.77365605
_cell_formula_units_Z   1
loop_
 _symmetry_equiv_pos_site_id
 _symmetry_equiv_pos_as_xyz
  1  'x, y, z'
loop_
 _atom_site_type_symbol
 _atom_site_label
 _atom_site_symmetry_multiplicity
 _atom_site_fract_x
 _atom_site_fract_y
 _atom_site_fract_z
 _atom_site_occupancy
  Dy  Dy0  1  0.250661  0.249339  0.250661  1
  Dy  Dy1  1  0.750661  0.749339  0.750661  1
  Dy  Dy2  1  0.004144  0.995856  0.004144  1
  Be  Be3  1  0.730318  0.269682  0.269546  1
  Be  Be4  1  0.269546  0.730454  0.730318  1
  Be  Be5  1  0.270059  0.729941  0.270059  1
  P  P6  1  0.733939  0.266061  0.733939  1
  P  P7  1  0.267770  0.269270  0.730730  1
  P  P8  1  0.730730  0.732230  0.267770  1
  Pd  Pd9  1  0.384586  0.385715  0.380684  1
  Pd  Pd10  1  0.612508  0.617667  0.617016  1
  Pd  Pd11  1  0.382333  0.387492  0.847191  1
  Pd  Pd12  1  0.380684  0.849015  0.384586  1
  Pd  Pd13  1  0.614285  0.615414  0.150985  1
  Pd  Pd14  1  0.617016  0.152809  0.612508  1
  Pd  Pd15  1  0.847191  0.382984  0.382333  1
  Pd  Pd16  1  0.150985  0.619316  0.614285  1
  Pd  Pd17  1  0.341560  0.997098  0.002902  1
  Pd  Pd18  1  0.655811  0.000236  0.999764  1
  Pd  Pd19  1  0.999764  0.344189  0.655811  1
  Pd  Pd20  1  0.002902  0.658440  0.341560  1
  Pd  Pd21  1  0.997831  0.341684  0.003449  1
  Pd  Pd22  1  0.658316  0.002169  0.342964  1
  Pd  Pd23  1  0.003449  0.657036  0.997831  1
  Pd  Pd24  1  0.342964  0.996551  0.658316  1
  Pd  Pd25  1  0.000008  0.999992  0.340233  1
  Pd  Pd26  1  0.003490  0.996510  0.656255  1
  Pd  Pd27  1  0.656255  0.343745  0.003490  1
  Pd  Pd28  1  0.340233  0.659767  0.000008  1
