# generated using pymatgen
data_Er16In4PdRu2Rh
_symmetry_space_group_name_H-M   'P 1'
_cell_length_a   9.58801187
_cell_length_b   9.59241744
_cell_length_c   9.58801281
_cell_angle_alpha   59.93075176
_cell_angle_beta   59.94937328
_cell_angle_gamma   59.93075829
_symmetry_Int_Tables_number   1
_chemical_formula_structural   Er16In4PdRu2Rh
_chemical_formula_sum   'Er16 In4 Pd1 Ru2 Rh1'
_cell_volume   622.65689958
_cell_formula_units_Z   1
loop_
 _symmetry_equiv_pos_site_id
 _symmetry_equiv_pos_as_xyz
  1  'x, y, z'
loop_
 _atom_site_type_symbol
 _atom_site_label
 _atom_site_symmetry_multiplicity
 _atom_site_fract_x
 _atom_site_fract_y
 _atom_site_fract_z
 _atom_site_occupancy
  Er  Er0  1  0.195981  0.182924  0.811550  1
  Er  Er1  1  0.437315  0.061776  0.059659  1
  Er  Er2  1  0.439392  0.061372  0.439392  1
  Er  Er3  1  0.061844  0.439954  0.061844  1
  Er  Er4  1  0.649562  0.047309  0.649562  1
  Er  Er5  1  0.192321  0.810651  0.810513  1
  Er  Er6  1  0.059659  0.061776  0.437315  1
  Er  Er7  1  0.811550  0.182924  0.195981  1
  Er  Er8  1  0.810513  0.810651  0.192321  1
  Er  Er9  1  0.645176  0.652986  0.052542  1
  Er  Er10  1  0.647545  0.654763  0.647545  1
  Er  Er11  1  0.060634  0.442932  0.434864  1
  Er  Er12  1  0.052542  0.652986  0.645176  1
  Er  Er13  1  0.810422  0.186121  0.810422  1
  Er  Er14  1  0.434864  0.442932  0.060634  1
  Er  Er15  1  0.189848  0.811494  0.189848  1
  In  In16  1  0.416050  0.751588  0.416050  1
  In  In17  1  0.417562  0.416022  0.749010  1
  In  In18  1  0.749010  0.416022  0.417562  1
  In  In19  1  0.417404  0.415496  0.417404  1
  Pd  Pd20  1  0.857166  0.428960  0.857166  1
  Ru  Ru21  1  0.857710  0.856221  0.427298  1
  Ru  Ru22  1  0.427298  0.856221  0.857710  1
  Rh  Rh23  1  0.858630  0.855915  0.858630  1
