# generated using pymatgen
data_Sm2Al20ReRh3
_symmetry_space_group_name_H-M   'P 1'
_cell_length_a   6.86893148
_cell_length_b   6.88218790
_cell_length_c   9.19599946
_cell_angle_alpha   90.29419598
_cell_angle_beta   90.38364477
_cell_angle_gamma   97.19720069
_symmetry_Int_Tables_number   1
_chemical_formula_structural   Sm2Al20ReRh3
_chemical_formula_sum   'Sm2 Al20 Re1 Rh3'
_cell_volume   431.28226924
_cell_formula_units_Z   1
loop_
 _symmetry_equiv_pos_site_id
 _symmetry_equiv_pos_as_xyz
  1  'x, y, z'
loop_
 _atom_site_type_symbol
 _atom_site_label
 _atom_site_symmetry_multiplicity
 _atom_site_fract_x
 _atom_site_fract_y
 _atom_site_fract_z
 _atom_site_occupancy
  Sm  Sm0  1  0.869963  0.125308  0.749749  1
  Sm  Sm1  1  0.130037  0.874692  0.250251  1
  Al  Al2  1  0.620739  0.376205  0.548289  1
  Al  Al3  1  0.379261  0.623795  0.451711  1
  Al  Al4  1  0.378314  0.622346  0.050005  1
  Al  Al5  1  0.621686  0.377654  0.949995  1
  Al  Al6  1  0.223062  0.222759  0.499229  1
  Al  Al7  1  0.776938  0.777241  0.500771  1
  Al  Al8  1  0.775342  0.775496  0.999584  1
  Al  Al9  1  0.224658  0.224504  0.000416  1
  Al  Al10  1  0.843447  0.157868  0.103559  1
  Al  Al11  1  0.156553  0.842132  0.896441  1
  Al  Al12  1  0.156777  0.843917  0.601956  1
  Al  Al13  1  0.843223  0.156083  0.398044  1
  Al  Al14  1  0.857749  0.590335  0.749711  1
  Al  Al15  1  0.142251  0.409665  0.250289  1
  Al  Al16  1  0.409890  0.142206  0.750012  1
  Al  Al17  1  0.590110  0.857794  0.249988  1
  Al  Al18  1  0.224637  0.481398  0.750395  1
  Al  Al19  1  0.775363  0.518602  0.249605  1
  Al  Al20  1  0.518228  0.776890  0.746512  1
  Al  Al21  1  0.481772  0.223110  0.253488  1
  Re  Re22  1  0.500000  0.000000  0.500000  1
  Rh  Rh23  1  0.000000  0.500000  0.500000  1
  Rh  Rh24  1  0.000000  0.500000  0.000000  1
  Rh  Rh25  1  0.500000  0.000000  0.000000  1
