# generated using pymatgen
data_Nd6Er10Cd4PdRu3
_symmetry_space_group_name_H-M   'P 1'
_cell_length_a   9.64321578
_cell_length_b   9.75302827
_cell_length_c   9.75302900
_cell_angle_alpha   60.00000092
_cell_angle_beta   59.62258377
_cell_angle_gamma   59.62258580
_symmetry_Int_Tables_number   1
_chemical_formula_structural   Nd6Er10Cd4PdRu3
_chemical_formula_sum   'Nd6 Er10 Cd4 Pd1 Ru3'
_cell_volume   644.88859957
_cell_formula_units_Z   1
loop_
 _symmetry_equiv_pos_site_id
 _symmetry_equiv_pos_as_xyz
  1  'x, y, z'
loop_
 _atom_site_type_symbol
 _atom_site_label
 _atom_site_symmetry_multiplicity
 _atom_site_fract_x
 _atom_site_fract_y
 _atom_site_fract_z
 _atom_site_occupancy
  Nd  Nd0  1  0.936590  0.561322  0.561322  1
  Nd  Nd1  1  0.556075  0.940442  0.940442  1
  Nd  Nd2  1  0.556075  0.940442  0.563043  1
  Nd  Nd3  1  0.936590  0.561322  0.940766  1
  Nd  Nd4  1  0.556075  0.563043  0.940442  1
  Nd  Nd5  1  0.936590  0.940766  0.561322  1
  Er  Er6  1  0.342336  0.349958  0.349958  1
  Er  Er7  1  0.342336  0.349958  0.957747  1
  Er  Er8  1  0.342336  0.957747  0.349958  1
  Er  Er9  1  0.969013  0.343662  0.343662  1
  Er  Er10  1  0.819198  0.186760  0.186760  1
  Er  Er11  1  0.184719  0.814302  0.814302  1
  Er  Er12  1  0.184719  0.814302  0.186677  1
  Er  Er13  1  0.819198  0.186760  0.807283  1
  Er  Er14  1  0.184719  0.186677  0.814302  1
  Er  Er15  1  0.819198  0.807283  0.186760  1
  Cd  Cd16  1  0.579716  0.578478  0.578478  1
  Cd  Cd17  1  0.579716  0.578478  0.263327  1
  Cd  Cd18  1  0.579716  0.263327  0.578478  1
  Cd  Cd19  1  0.260545  0.579819  0.579819  1
  Pd  Pd20  1  0.575189  0.141604  0.141604  1
  Ru  Ru21  1  0.146451  0.137806  0.137806  1
  Ru  Ru22  1  0.146451  0.137806  0.577935  1
  Ru  Ru23  1  0.146451  0.577935  0.137806  1
