# generated using pymatgen
data_Nd5Tc6P12Ir13
_symmetry_space_group_name_H-M   'P 1'
_cell_length_a   12.74335100
_cell_length_b   12.74335101
_cell_length_c   4.02812300
_cell_angle_alpha   90.00000000
_cell_angle_beta   90.00000000
_cell_angle_gamma   119.99999737
_symmetry_Int_Tables_number   1
_chemical_formula_structural   Nd5Tc6P12Ir13
_chemical_formula_sum   'Nd5 Tc6 P12 Ir13'
_cell_volume   566.50097003
_cell_formula_units_Z   1
loop_
 _symmetry_equiv_pos_site_id
 _symmetry_equiv_pos_as_xyz
  1  'x, y, z'
loop_
 _atom_site_type_symbol
 _atom_site_label
 _atom_site_symmetry_multiplicity
 _atom_site_fract_x
 _atom_site_fract_y
 _atom_site_fract_z
 _atom_site_occupancy
  Nd  Nd0  1  0.333333  0.666667  0.500000  1
  Nd  Nd1  1  0.666667  0.333333  0.500000  1
  Nd  Nd2  1  0.000772  0.812181  0.000000  1
  Nd  Nd3  1  0.187819  0.188591  0.000000  1
  Nd  Nd4  1  0.811409  0.999228  0.000000  1
  Tc  Tc5  1  0.990629  0.446182  0.500000  1
  Tc  Tc6  1  0.553818  0.544448  0.500000  1
  Tc  Tc7  1  0.455552  0.009371  0.500000  1
  Tc  Tc8  1  0.619571  0.797946  0.500000  1
  Tc  Tc9  1  0.202054  0.821625  0.500000  1
  Tc  Tc10  1  0.178375  0.380429  0.500000  1
  P  P11  1  0.007265  0.636258  0.500000  1
  P  P12  1  0.363742  0.371008  0.500000  1
  P  P13  1  0.628992  0.992735  0.500000  1
  P  P14  1  0.522618  0.694588  0.000000  1
  P  P15  1  0.305412  0.828030  0.000000  1
  P  P16  1  0.171970  0.477382  0.000000  1
  P  P17  1  0.481537  0.167643  0.000000  1
  P  P18  1  0.686106  0.518463  0.000000  1
  P  P19  1  0.832357  0.313894  0.000000  1
  P  P20  1  0.003088  0.184165  0.500000  1
  P  P21  1  0.815835  0.818923  0.500000  1
  P  P22  1  0.181077  0.996912  0.500000  1
  Ir  Ir23  1  0.508126  0.876783  0.000000  1
  Ir  Ir24  1  0.123217  0.631344  0.000000  1
  Ir  Ir25  1  0.368656  0.491874  0.000000  1
  Ir  Ir26  1  0.492583  0.358664  0.000000  1
  Ir  Ir27  1  0.866082  0.507417  0.000000  1
  Ir  Ir28  1  0.641336  0.133918  0.000000  1
  Ir  Ir29  1  0.995569  0.283732  0.000000  1
  Ir  Ir30  1  0.716268  0.711838  0.000000  1
  Ir  Ir31  1  0.288162  0.004431  0.000000  1
  Ir  Ir32  1  0.375796  0.184604  0.500000  1
  Ir  Ir33  1  0.808808  0.624204  0.500000  1
  Ir  Ir34  1  0.815396  0.191192  0.500000  1
  Ir  Ir35  1  0.000000  0.000000  0.500000  1
