# generated using pymatgen
data_Tb4ZnCo2Bi
_symmetry_space_group_name_H-M   'P 1'
_cell_length_a   9.14893437
_cell_length_b   9.14893373
_cell_length_c   9.14893386
_cell_angle_alpha   134.43478190
_cell_angle_beta   134.43478528
_cell_angle_gamma   66.40970034
_symmetry_Int_Tables_number   1
_chemical_formula_structural   Tb4ZnCo2Bi
_chemical_formula_sum   'Tb8 Zn2 Co4 Bi2'
_cell_volume   384.32747884
_cell_formula_units_Z   2
loop_
 _symmetry_equiv_pos_site_id
 _symmetry_equiv_pos_as_xyz
  1  'x, y, z'
loop_
 _atom_site_type_symbol
 _atom_site_label
 _atom_site_symmetry_multiplicity
 _atom_site_fract_x
 _atom_site_fract_y
 _atom_site_fract_z
 _atom_site_occupancy
  Tb  Tb0  1  0.799803  0.299803  0.863778  1
  Tb  Tb1  1  0.200197  0.700197  0.136222  1
  Tb  Tb2  1  0.436025  0.936025  0.136222  1
  Tb  Tb3  1  0.299803  0.436025  0.500000  1
  Tb  Tb4  1  0.063975  0.200197  0.500000  1
  Tb  Tb5  1  0.563975  0.063975  0.863778  1
  Tb  Tb6  1  0.700197  0.563975  0.500000  1
  Tb  Tb7  1  0.936025  0.799803  0.500000  1
  Zn  Zn8  1  0.000000  0.000000  0.000000  1
  Zn  Zn9  1  0.500000  0.500000  0.000000  1
  Co  Co10  1  0.116466  0.616466  0.732933  1
  Co  Co11  1  0.883534  0.383534  0.267067  1
  Co  Co12  1  0.616466  0.883534  0.500000  1
  Co  Co13  1  0.383534  0.116466  0.500000  1
  Bi  Bi14  1  0.250000  0.250000  0.000000  1
  Bi  Bi15  1  0.750000  0.750000  0.000000  1
