# generated using pymatgen
data_Hf18CrRe7Rh2
_symmetry_space_group_name_H-M   'P 1'
_cell_length_a   8.62254500
_cell_length_b   8.62254524
_cell_length_c   8.49017200
_cell_angle_alpha   90.00000000
_cell_angle_beta   90.00000000
_cell_angle_gamma   120.00000293
_symmetry_Int_Tables_number   1
_chemical_formula_structural   Hf18CrRe7Rh2
_chemical_formula_sum   'Hf18 Cr1 Re7 Rh2'
_cell_volume   546.66095855
_cell_formula_units_Z   1
loop_
 _symmetry_equiv_pos_site_id
 _symmetry_equiv_pos_as_xyz
  1  'x, y, z'
loop_
 _atom_site_type_symbol
 _atom_site_label
 _atom_site_symmetry_multiplicity
 _atom_site_fract_x
 _atom_site_fract_y
 _atom_site_fract_z
 _atom_site_occupancy
  Hf  Hf0  1  0.194686  0.805314  0.445949  1
  Hf  Hf1  1  0.194686  0.389370  0.445949  1
  Hf  Hf2  1  0.610630  0.805314  0.445949  1
  Hf  Hf3  1  0.805314  0.194686  0.554051  1
  Hf  Hf4  1  0.805314  0.610630  0.554051  1
  Hf  Hf5  1  0.389370  0.194686  0.554051  1
  Hf  Hf6  1  0.804087  0.195913  0.945872  1
  Hf  Hf7  1  0.804087  0.608176  0.945872  1
  Hf  Hf8  1  0.391824  0.195913  0.945872  1
  Hf  Hf9  1  0.195913  0.804087  0.054128  1
  Hf  Hf10  1  0.195913  0.391824  0.054128  1
  Hf  Hf11  1  0.608176  0.804087  0.054128  1
  Hf  Hf12  1  0.542421  0.457579  0.250322  1
  Hf  Hf13  1  0.542421  0.084843  0.250322  1
  Hf  Hf14  1  0.915157  0.457579  0.250322  1
  Hf  Hf15  1  0.457579  0.542421  0.749678  1
  Hf  Hf16  1  0.457579  0.915157  0.749678  1
  Hf  Hf17  1  0.084843  0.542421  0.749678  1
  Cr  Cr18  1  0.000000  0.000000  0.500000  1
  Re  Re19  1  0.890772  0.109228  0.254010  1
  Re  Re20  1  0.890772  0.781544  0.254010  1
  Re  Re21  1  0.218456  0.109228  0.254010  1
  Re  Re22  1  0.109228  0.890772  0.745990  1
  Re  Re23  1  0.109228  0.218456  0.745990  1
  Re  Re24  1  0.781544  0.890772  0.745990  1
  Re  Re25  1  0.000000  0.000000  0.000000  1
  Rh  Rh26  1  0.333333  0.666667  0.250384  1
  Rh  Rh27  1  0.666667  0.333333  0.749616  1
