# generated using pymatgen
data_RbTb2DyS5
_symmetry_space_group_name_H-M   'P 1'
_cell_length_a   4.02206200
_cell_length_b   12.05959500
_cell_length_c   21.45132500
_cell_angle_alpha   90.00000000
_cell_angle_beta   90.00000000
_cell_angle_gamma   90.00000000
_symmetry_Int_Tables_number   1
_chemical_formula_structural   RbTb2DyS5
_chemical_formula_sum   'Rb4 Tb8 Dy4 S20'
_cell_volume   1040.48448032
_cell_formula_units_Z   4
loop_
 _symmetry_equiv_pos_site_id
 _symmetry_equiv_pos_as_xyz
  1  'x, y, z'
loop_
 _atom_site_type_symbol
 _atom_site_label
 _atom_site_symmetry_multiplicity
 _atom_site_fract_x
 _atom_site_fract_y
 _atom_site_fract_z
 _atom_site_occupancy
  Rb  Rb0  1  0.250000  0.842513  0.104840  1
  Rb  Rb1  1  0.750000  0.157487  0.895160  1
  Rb  Rb2  1  0.750000  0.342513  0.395160  1
  Rb  Rb3  1  0.250000  0.657487  0.604840  1
  Tb  Tb4  1  0.750000  0.802708  0.828597  1
  Tb  Tb5  1  0.250000  0.197292  0.171403  1
  Tb  Tb6  1  0.250000  0.302708  0.671403  1
  Tb  Tb7  1  0.750000  0.697292  0.328597  1
  Tb  Tb8  1  0.250000  0.962863  0.697927  1
  Tb  Tb9  1  0.750000  0.037137  0.302073  1
  Tb  Tb10  1  0.750000  0.462863  0.802073  1
  Tb  Tb11  1  0.250000  0.537137  0.197927  1
  Dy  Dy12  1  0.750000  0.388292  0.051020  1
  Dy  Dy13  1  0.250000  0.611708  0.948980  1
  Dy  Dy14  1  0.250000  0.888292  0.448980  1
  Dy  Dy15  1  0.750000  0.111708  0.551020  1
  S  S16  1  0.250000  0.953857  0.569264  1
  S  S17  1  0.750000  0.046143  0.430736  1
  S  S18  1  0.750000  0.453857  0.930736  1
  S  S19  1  0.250000  0.546143  0.069264  1
  S  S20  1  0.750000  0.762756  0.954646  1
  S  S21  1  0.250000  0.237244  0.045354  1
  S  S22  1  0.250000  0.262756  0.545354  1
  S  S23  1  0.750000  0.737244  0.454646  1
  S  S24  1  0.250000  0.953137  0.826068  1
  S  S25  1  0.750000  0.046863  0.173932  1
  S  S26  1  0.750000  0.453137  0.673932  1
  S  S27  1  0.250000  0.546863  0.326068  1
  S  S28  1  0.750000  0.130748  0.681106  1
  S  S29  1  0.250000  0.869252  0.318894  1
  S  S30  1  0.250000  0.630748  0.818894  1
  S  S31  1  0.750000  0.369252  0.181106  1
  S  S32  1  0.750000  0.685733  0.200462  1
  S  S33  1  0.250000  0.314267  0.799538  1
  S  S34  1  0.250000  0.185733  0.299538  1
  S  S35  1  0.750000  0.814267  0.700462  1
