# generated using pymatgen
data_V4Co4SiP3
_symmetry_space_group_name_H-M   'P 1'
_cell_length_a   3.50194100
_cell_length_b   5.90106613
_cell_length_c   6.73103448
_cell_angle_alpha   90.09793067
_cell_angle_beta   90.00000000
_cell_angle_gamma   90.00000000
_symmetry_Int_Tables_number   1
_chemical_formula_structural   V4Co4SiP3
_chemical_formula_sum   'V4 Co4 Si1 P3'
_cell_volume   139.09787258
_cell_formula_units_Z   1
loop_
 _symmetry_equiv_pos_site_id
 _symmetry_equiv_pos_as_xyz
  1  'x, y, z'
loop_
 _atom_site_type_symbol
 _atom_site_label
 _atom_site_symmetry_multiplicity
 _atom_site_fract_x
 _atom_site_fract_y
 _atom_site_fract_z
 _atom_site_occupancy
  V  V0  1  0.750000  0.471857  0.668947  1
  V  V1  1  0.250000  0.031807  0.170406  1
  V  V2  1  0.750000  0.973333  0.827219  1
  V  V3  1  0.250000  0.526475  0.333301  1
  Co  Co4  1  0.250000  0.640364  0.933780  1
  Co  Co5  1  0.250000  0.144251  0.561526  1
  Co  Co6  1  0.750000  0.860292  0.445026  1
  Co  Co7  1  0.750000  0.352080  0.059517  1
  Si  Si8  1  0.750000  0.731994  0.126585  1
  P  P9  1  0.250000  0.766328  0.624822  1
  P  P10  1  0.250000  0.267805  0.874774  1
  P  P11  1  0.750000  0.233414  0.374096  1
