# generated using pymatgen
data_LiYb3IrO6
_symmetry_space_group_name_H-M   'P 1'
_cell_length_a   6.34692367
_cell_length_b   6.34692377
_cell_length_c   6.34692421
_cell_angle_alpha   91.50113135
_cell_angle_beta   91.50112975
_cell_angle_gamma   91.50113154
_symmetry_Int_Tables_number   1
_chemical_formula_structural   LiYb3IrO6
_chemical_formula_sum   'Li2 Yb6 Ir2 O12'
_cell_volume   255.40801563
_cell_formula_units_Z   2
loop_
 _symmetry_equiv_pos_site_id
 _symmetry_equiv_pos_as_xyz
  1  'x, y, z'
loop_
 _atom_site_type_symbol
 _atom_site_label
 _atom_site_symmetry_multiplicity
 _atom_site_fract_x
 _atom_site_fract_y
 _atom_site_fract_z
 _atom_site_occupancy
  Li  Li0  1  0.750000  0.750000  0.750000  1
  Li  Li1  1  0.250000  0.250000  0.250000  1
  Yb  Yb2  1  0.388959  0.111041  0.750000  1
  Yb  Yb3  1  0.111041  0.750000  0.388959  1
  Yb  Yb4  1  0.250000  0.611041  0.888959  1
  Yb  Yb5  1  0.888959  0.250000  0.611041  1
  Yb  Yb6  1  0.611041  0.888959  0.250000  1
  Yb  Yb7  1  0.750000  0.388959  0.111041  1
  Ir  Ir8  1  0.500000  0.500000  0.500000  1
  Ir  Ir9  1  0.000000  0.000000  0.000000  1
  O  O10  1  0.296473  0.946670  0.082094  1
  O  O11  1  0.417906  0.553330  0.203527  1
  O  O12  1  0.203527  0.417906  0.553330  1
  O  O13  1  0.553330  0.203527  0.417906  1
  O  O14  1  0.082094  0.296473  0.946670  1
  O  O15  1  0.946670  0.082094  0.296473  1
  O  O16  1  0.917906  0.703527  0.053330  1
  O  O17  1  0.053330  0.917906  0.703527  1
  O  O18  1  0.446670  0.796473  0.582094  1
  O  O19  1  0.796473  0.582094  0.446670  1
  O  O20  1  0.582094  0.446670  0.796473  1
  O  O21  1  0.703527  0.053330  0.917906  1
