# generated using pymatgen
data_Tb4NdHoTa2O14
_symmetry_space_group_name_H-M   'P 1'
_cell_length_a   6.52667155
_cell_length_b   6.53108157
_cell_length_c   7.54607049
_cell_angle_alpha   89.89218954
_cell_angle_beta   90.07409281
_cell_angle_gamma   108.74498485
_symmetry_Int_Tables_number   1
_chemical_formula_structural   Tb4NdHoTa2O14
_chemical_formula_sum   'Tb4 Nd1 Ho1 Ta2 O14'
_cell_volume   304.59844168
_cell_formula_units_Z   1
loop_
 _symmetry_equiv_pos_site_id
 _symmetry_equiv_pos_as_xyz
  1  'x, y, z'
loop_
 _atom_site_type_symbol
 _atom_site_label
 _atom_site_symmetry_multiplicity
 _atom_site_fract_x
 _atom_site_fract_y
 _atom_site_fract_z
 _atom_site_occupancy
  Tb  Tb0  1  0.461892  0.460699  0.000353  1
  Tb  Tb1  1  0.999219  0.535620  0.240560  1
  Tb  Tb2  1  0.999263  0.465410  0.744198  1
  Tb  Tb3  1  0.534512  0.999111  0.759201  1
  Nd  Nd4  1  0.519742  0.520138  0.499424  1
  Ho  Ho5  1  0.466306  0.998926  0.255507  1
  Ta  Ta6  1  0.001784  0.001956  0.499337  1
  Ta  Ta7  1  0.997496  0.997680  0.000423  1
  O  O8  1  0.934014  0.064791  0.749637  1
  O  O9  1  0.066728  0.934406  0.250308  1
  O  O10  1  0.359429  0.643217  0.242455  1
  O  O11  1  0.640036  0.358946  0.757589  1
  O  O12  1  0.367764  0.631193  0.757077  1
  O  O13  1  0.629322  0.364070  0.243733  1
  O  O14  1  0.326864  0.080232  0.976914  1
  O  O15  1  0.675751  0.925629  0.472052  1
  O  O16  1  0.311928  0.057029  0.540025  1
  O  O17  1  0.694473  0.953716  0.044863  1
  O  O18  1  0.058618  0.311998  0.458744  1
  O  O19  1  0.950394  0.693459  0.957794  1
  O  O20  1  0.922700  0.675264  0.525314  1
  O  O21  1  0.081765  0.326509  0.024492  1
