# generated using pymatgen
data_YbTh3(Tc3Ge4)2
_symmetry_space_group_name_H-M   'P 1'
_cell_length_a   8.39090474
_cell_length_b   5.81831487
_cell_length_c   7.05772000
_cell_angle_alpha   76.32690822
_cell_angle_beta   90.20121734
_cell_angle_gamma   90.06328053
_symmetry_Int_Tables_number   1
_chemical_formula_structural   YbTh3(Tc3Ge4)2
_chemical_formula_sum   'Yb1 Th3 Tc6 Ge8'
_cell_volume   334.79747385
_cell_formula_units_Z   1
loop_
 _symmetry_equiv_pos_site_id
 _symmetry_equiv_pos_as_xyz
  1  'x, y, z'
loop_
 _atom_site_type_symbol
 _atom_site_label
 _atom_site_symmetry_multiplicity
 _atom_site_fract_x
 _atom_site_fract_y
 _atom_site_fract_z
 _atom_site_occupancy
  Yb  Yb0  1  0.940394  0.572868  0.247486  1
  Th  Th1  1  0.557636  0.076509  0.248987  1
  Th  Th2  1  0.056164  0.423556  0.752396  1
  Th  Th3  1  0.440218  0.922617  0.751209  1
  Tc  Tc4  1  0.211227  0.115681  0.112026  1
  Tc  Tc5  1  0.708946  0.384352  0.890276  1
  Tc  Tc6  1  0.789716  0.891925  0.885530  1
  Tc  Tc7  1  0.297898  0.618121  0.106296  1
  Tc  Tc8  1  0.000095  0.999365  0.501747  1
  Tc  Tc9  1  0.499188  0.500379  0.500625  1
  Ge  Ge10  1  0.906547  0.114471  0.131825  1
  Ge  Ge11  1  0.405264  0.382092  0.872127  1
  Ge  Ge12  1  0.090337  0.875571  0.884198  1
  Ge  Ge13  1  0.603390  0.618293  0.128069  1
  Ge  Ge14  1  0.749784  0.225564  0.580843  1
  Ge  Ge15  1  0.243274  0.286240  0.411149  1
  Ge  Ge16  1  0.245610  0.772689  0.412983  1
  Ge  Ge17  1  0.754313  0.719708  0.582227  1
