# generated using pymatgen
data_Nb3Co(BOs2)2
_symmetry_space_group_name_H-M   'P 1'
_cell_length_a   9.35708200
_cell_length_b   9.35708200
_cell_length_c   3.04388400
_cell_angle_alpha   90.00000000
_cell_angle_beta   90.00000000
_cell_angle_gamma   90.00000000
_symmetry_Int_Tables_number   1
_chemical_formula_structural   Nb3Co(BOs2)2
_chemical_formula_sum   'Nb6 Co2 B4 Os8'
_cell_volume   266.50721356
_cell_formula_units_Z   2
loop_
 _symmetry_equiv_pos_site_id
 _symmetry_equiv_pos_as_xyz
  1  'x, y, z'
loop_
 _atom_site_type_symbol
 _atom_site_label
 _atom_site_symmetry_multiplicity
 _atom_site_fract_x
 _atom_site_fract_y
 _atom_site_fract_z
 _atom_site_occupancy
  Nb  Nb0  1  0.825220  0.674780  0.000000  1
  Nb  Nb1  1  0.174780  0.325220  0.000000  1
  Nb  Nb2  1  0.325220  0.825220  0.000000  1
  Nb  Nb3  1  0.674780  0.174780  0.000000  1
  Nb  Nb4  1  0.500000  0.500000  0.000000  1
  Nb  Nb5  1  0.000000  0.000000  0.000000  1
  Co  Co6  1  0.500000  0.000000  0.500000  1
  Co  Co7  1  0.000000  0.500000  0.500000  1
  B  B8  1  0.606936  0.893064  0.000000  1
  B  B9  1  0.393064  0.106936  0.000000  1
  B  B10  1  0.106936  0.606936  0.000000  1
  B  B11  1  0.893064  0.393064  0.000000  1
  Os  Os12  1  0.565791  0.726162  0.500000  1
  Os  Os13  1  0.434209  0.273838  0.500000  1
  Os  Os14  1  0.065791  0.773838  0.500000  1
  Os  Os15  1  0.934209  0.226162  0.500000  1
  Os  Os16  1  0.273838  0.565791  0.500000  1
  Os  Os17  1  0.726162  0.434209  0.500000  1
  Os  Os18  1  0.226162  0.065791  0.500000  1
  Os  Os19  1  0.773838  0.934209  0.500000  1
