# generated using pymatgen
data_Pa2InCoRh
_symmetry_space_group_name_H-M   'P 1'
_cell_length_a   7.59090284
_cell_length_b   7.59090284
_cell_length_c   3.51347900
_cell_angle_alpha   90.00000000
_cell_angle_beta   90.00000000
_cell_angle_gamma   91.07310819
_symmetry_Int_Tables_number   1
_chemical_formula_structural   Pa2InCoRh
_chemical_formula_sum   'Pa4 In2 Co2 Rh2'
_cell_volume   202.41749757
_cell_formula_units_Z   2
loop_
 _symmetry_equiv_pos_site_id
 _symmetry_equiv_pos_as_xyz
  1  'x, y, z'
loop_
 _atom_site_type_symbol
 _atom_site_label
 _atom_site_symmetry_multiplicity
 _atom_site_fract_x
 _atom_site_fract_y
 _atom_site_fract_z
 _atom_site_occupancy
  Pa  Pa0  1  0.678070  0.178070  0.500000  1
  Pa  Pa1  1  0.321930  0.821930  0.500000  1
  Pa  Pa2  1  0.160383  0.339617  0.500000  1
  Pa  Pa3  1  0.839617  0.660383  0.500000  1
  In  In4  1  0.000000  0.000000  0.000000  1
  In  In5  1  0.500000  0.500000  0.000000  1
  Co  Co6  1  0.131761  0.631761  0.000000  1
  Co  Co7  1  0.868239  0.368239  0.000000  1
  Rh  Rh8  1  0.635085  0.864915  0.000000  1
  Rh  Rh9  1  0.364915  0.135085  0.000000  1
