# generated using pymatgen
data_Ho3Er3(Si3Ru)8
_symmetry_space_group_name_H-M   'P 1'
_cell_length_a   10.10277489
_cell_length_b   10.10277462
_cell_length_c   8.13108635
_cell_angle_alpha   89.96914665
_cell_angle_beta   90.03085291
_cell_angle_gamma   132.59261676
_symmetry_Int_Tables_number   1
_chemical_formula_structural   Ho3Er3(Si3Ru)8
_chemical_formula_sum   'Ho3 Er3 Si24 Ru8'
_cell_volume   610.96508582
_cell_formula_units_Z   1
loop_
 _symmetry_equiv_pos_site_id
 _symmetry_equiv_pos_as_xyz
  1  'x, y, z'
loop_
 _atom_site_type_symbol
 _atom_site_label
 _atom_site_symmetry_multiplicity
 _atom_site_fract_x
 _atom_site_fract_y
 _atom_site_fract_z
 _atom_site_occupancy
  Ho  Ho0  1  0.997029  0.497029  0.250000  1
  Ho  Ho1  1  0.497025  0.997025  0.250000  1
  Ho  Ho2  1  0.002994  0.502994  0.750000  1
  Er  Er3  1  0.500018  0.500005  0.500002  1
  Er  Er4  1  0.000005  0.000018  0.999998  1
  Er  Er5  1  0.502932  0.002932  0.750000  1
  Si  Si6  1  0.795103  0.204913  0.500142  1
  Si  Si7  1  0.295038  0.704866  0.999892  1
  Si  Si8  1  0.204866  0.795038  0.500108  1
  Si  Si9  1  0.704913  0.295103  0.999858  1
  Si  Si10  1  0.332692  0.332775  0.833312  1
  Si  Si11  1  0.667324  0.667223  0.166694  1
  Si  Si12  1  0.167223  0.167324  0.333306  1
  Si  Si13  1  0.832775  0.832692  0.666688  1
  Si  Si14  1  0.122700  0.888151  0.728724  1
  Si  Si15  1  0.111510  0.876819  0.271280  1
  Si  Si16  1  0.612026  0.377499  0.228850  1
  Si  Si17  1  0.622939  0.388420  0.771372  1
  Si  Si18  1  0.877499  0.112026  0.271150  1
  Si  Si19  1  0.888420  0.122939  0.728628  1
  Si  Si20  1  0.388151  0.622700  0.771276  1
  Si  Si21  1  0.376819  0.611510  0.228720  1
  Si  Si22  1  0.345513  0.111952  0.505867  1
  Si  Si23  1  0.887983  0.654192  0.494190  1
  Si  Si24  1  0.388009  0.154499  0.005593  1
  Si  Si25  1  0.845793  0.612013  0.994261  1
  Si  Si26  1  0.654499  0.888009  0.494407  1
  Si  Si27  1  0.112013  0.345793  0.505739  1
  Si  Si28  1  0.611952  0.845513  0.994133  1
  Si  Si29  1  0.154192  0.387983  0.005810  1
  Ru  Ru30  1  0.668907  0.330083  0.500310  1
  Ru  Ru31  1  0.169954  0.831063  0.999865  1
  Ru  Ru32  1  0.331063  0.669954  0.500135  1
  Ru  Ru33  1  0.830083  0.168907  0.999690  1
  Ru  Ru34  1  0.127046  0.127035  0.627591  1
  Ru  Ru35  1  0.872973  0.872981  0.372385  1
  Ru  Ru36  1  0.372981  0.372973  0.127615  1
  Ru  Ru37  1  0.627035  0.627046  0.872409  1
