# generated using pymatgen
data_Pr2Nd10Ru2I17
_symmetry_space_group_name_H-M   'P 1'
_cell_length_a   10.09508814
_cell_length_b   12.11185747
_cell_length_c   12.15480471
_cell_angle_alpha   93.74624165
_cell_angle_beta   104.70127223
_cell_angle_gamma   114.25843595
_symmetry_Int_Tables_number   1
_chemical_formula_structural   Pr2Nd10Ru2I17
_chemical_formula_sum   'Pr2 Nd10 Ru2 I17'
_cell_volume   1286.11933784
_cell_formula_units_Z   1
loop_
 _symmetry_equiv_pos_site_id
 _symmetry_equiv_pos_as_xyz
  1  'x, y, z'
loop_
 _atom_site_type_symbol
 _atom_site_label
 _atom_site_symmetry_multiplicity
 _atom_site_fract_x
 _atom_site_fract_y
 _atom_site_fract_z
 _atom_site_occupancy
  Pr  Pr0  1  0.776017  0.330117  0.010019  1
  Pr  Pr1  1  0.851956  0.712896  0.848967  1
  Nd  Nd2  1  0.056556  0.509634  0.322759  1
  Nd  Nd3  1  0.987120  0.811015  0.580243  1
  Nd  Nd4  1  0.644908  0.240338  0.284266  1
  Nd  Nd5  1  0.011676  0.190258  0.416586  1
  Nd  Nd6  1  0.225092  0.669822  0.991303  1
  Nd  Nd7  1  0.260507  0.988252  0.892260  1
  Nd  Nd8  1  0.349734  0.758730  0.717446  1
  Nd  Nd9  1  0.941593  0.487111  0.677012  1
  Nd  Nd10  1  0.741464  0.014371  0.108512  1
  Nd  Nd11  1  0.151975  0.287602  0.151047  1
  Ru  Ru12  1  0.103675  0.738368  0.785742  1
  Ru  Ru13  1  0.896084  0.261500  0.214209  1
  I  I14  1  0.785467  0.527953  0.419431  1
  I  I15  1  0.643425  0.419033  0.757901  1
  I  I16  1  0.844218  0.896682  0.325383  1
  I  I17  1  0.326152  0.213160  0.368720  1
  I  I18  1  0.155933  0.103249  0.674367  1
  I  I19  1  0.585175  0.049845  0.844388  1
  I  I20  1  0.757687  0.185816  0.537281  1
  I  I21  1  0.548641  0.710249  0.953167  1
  I  I22  1  0.356009  0.580201  0.239636  1
  I  I23  1  0.213397  0.471919  0.581900  1
  I  I24  1  0.058041  0.369598  0.897651  1
  I  I25  1  0.448782  0.289682  0.047478  1
  I  I26  1  0.000567  0.000605  0.999765  1
  I  I27  1  0.241877  0.813347  0.463801  1
  I  I28  1  0.412945  0.948077  0.154887  1
  I  I29  1  0.674828  0.787393  0.630247  1
  I  I30  1  0.948498  0.633177  0.103627  1
