# generated using pymatgen
data_Li8Tb2Dy6Sn5Bi3
_symmetry_space_group_name_H-M   'P 1'
_cell_length_a   9.47771401
_cell_length_b   9.47685869
_cell_length_c   7.26054100
_cell_angle_alpha   90.00000126
_cell_angle_beta   90.00026715
_cell_angle_gamma   119.99701817
_symmetry_Int_Tables_number   1
_chemical_formula_structural   Li8Tb2Dy6Sn5Bi3
_chemical_formula_sum   'Li8 Tb2 Dy6 Sn5 Bi3'
_cell_volume   564.78176622
_cell_formula_units_Z   1
loop_
 _symmetry_equiv_pos_site_id
 _symmetry_equiv_pos_as_xyz
  1  'x, y, z'
loop_
 _atom_site_type_symbol
 _atom_site_label
 _atom_site_symmetry_multiplicity
 _atom_site_fract_x
 _atom_site_fract_y
 _atom_site_fract_z
 _atom_site_occupancy
  Li  Li0  1  0.167225  0.334593  0.281247  1
  Li  Li1  1  0.167225  0.832633  0.281247  1
  Li  Li2  1  0.665408  0.832705  0.281222  1
  Li  Li3  1  0.831603  0.663089  0.789534  1
  Li  Li4  1  0.831603  0.168515  0.789534  1
  Li  Li5  1  0.336835  0.168418  0.789511  1
  Li  Li6  1  0.333275  0.666638  0.668884  1
  Li  Li7  1  0.666688  0.333344  0.177534  1
  Tb  Tb8  1  0.514370  0.028733  0.488629  1
  Tb  Tb9  1  0.514370  0.485637  0.488629  1
  Dy  Dy10  1  0.971096  0.485548  0.488598  1
  Dy  Dy11  1  0.491010  0.982123  0.999604  1
  Dy  Dy12  1  0.491010  0.508888  0.999604  1
  Dy  Dy13  1  0.017869  0.508935  0.999485  1
  Dy  Dy14  1  0.000003  0.000001  0.493109  1
  Dy  Dy15  1  0.999945  0.999973  0.008732  1
  Sn  Sn16  1  0.833792  0.667224  0.232335  1
  Sn  Sn17  1  0.833792  0.166567  0.232335  1
  Sn  Sn18  1  0.332819  0.166409  0.232025  1
  Sn  Sn19  1  0.333263  0.666632  0.257753  1
  Sn  Sn20  1  0.666824  0.333412  0.760429  1
  Bi  Bi21  1  0.166654  0.333418  0.733946  1
  Bi  Bi22  1  0.166654  0.833237  0.733946  1
  Bi  Bi23  1  0.666664  0.833332  0.734126  1
