# generated using pymatgen
data_MnSb12Ru2Au
_symmetry_space_group_name_H-M   'P 1'
_cell_length_a   8.19556568
_cell_length_b   8.19704562
_cell_length_c   9.44840860
_cell_angle_alpha   54.58254602
_cell_angle_beta   54.70734522
_cell_angle_gamma   70.36449349
_symmetry_Int_Tables_number   1
_chemical_formula_structural   MnSb12Ru2Au
_chemical_formula_sum   'Mn1 Sb12 Ru2 Au1'
_cell_volume   422.21016359
_cell_formula_units_Z   1
loop_
 _symmetry_equiv_pos_site_id
 _symmetry_equiv_pos_as_xyz
  1  'x, y, z'
loop_
 _atom_site_type_symbol
 _atom_site_label
 _atom_site_symmetry_multiplicity
 _atom_site_fract_x
 _atom_site_fract_y
 _atom_site_fract_z
 _atom_site_occupancy
  Mn  Mn0  1  0.500000  0.000000  0.500000  1
  Sb  Sb1  1  0.155776  0.155977  0.175975  1
  Sb  Sb2  1  0.844224  0.844023  0.824025  1
  Sb  Sb3  1  0.838104  0.858141  0.500027  1
  Sb  Sb4  1  0.161896  0.141859  0.499973  1
  Sb  Sb5  1  0.805991  0.503008  0.335708  1
  Sb  Sb6  1  0.194009  0.496992  0.664292  1
  Sb  Sb7  1  0.506370  0.821284  0.335462  1
  Sb  Sb8  1  0.493630  0.178716  0.664538  1
  Sb  Sb9  1  0.644679  0.335152  0.858932  1
  Sb  Sb10  1  0.355321  0.664848  0.141068  1
  Sb  Sb11  1  0.665374  0.337040  0.156369  1
  Sb  Sb12  1  0.334626  0.662960  0.843631  1
  Ru  Ru13  1  0.000000  0.500000  0.000000  1
  Ru  Ru14  1  0.500000  0.000000  0.000000  1
  Au  Au15  1  0.000000  0.500000  0.500000  1
