# generated using pymatgen
data_TbDy3ReB12Ru
_symmetry_space_group_name_H-M   'P 1'
_cell_length_a   3.67901900
_cell_length_b   9.16681634
_cell_length_c   11.55786006
_cell_angle_alpha   90.20861084
_cell_angle_beta   90.00000000
_cell_angle_gamma   90.00000000
_symmetry_Int_Tables_number   1
_chemical_formula_structural   TbDy3ReB12Ru
_chemical_formula_sum   'Tb2 Dy6 Re2 B24 Ru2'
_cell_volume   389.78499286
_cell_formula_units_Z   2
loop_
 _symmetry_equiv_pos_site_id
 _symmetry_equiv_pos_as_xyz
  1  'x, y, z'
loop_
 _atom_site_type_symbol
 _atom_site_label
 _atom_site_symmetry_multiplicity
 _atom_site_fract_x
 _atom_site_fract_y
 _atom_site_fract_z
 _atom_site_occupancy
  Tb  Tb0  1  0.000000  0.321413  0.412474  1
  Tb  Tb1  1  0.000000  0.678587  0.587526  1
  Dy  Dy2  1  0.000000  0.825043  0.084495  1
  Dy  Dy3  1  0.000000  0.174957  0.915505  1
  Dy  Dy4  1  0.000000  0.942867  0.370320  1
  Dy  Dy5  1  0.000000  0.057133  0.629680  1
  Dy  Dy6  1  0.000000  0.442962  0.129351  1
  Dy  Dy7  1  0.000000  0.557038  0.870649  1
  Re  Re8  1  0.000000  0.138549  0.179498  1
  Re  Re9  1  0.000000  0.861451  0.820502  1
  B  B10  1  0.500000  0.554243  0.432625  1
  B  B11  1  0.500000  0.445757  0.567375  1
  B  B12  1  0.500000  0.053294  0.066921  1
  B  B13  1  0.500000  0.946706  0.933079  1
  B  B14  1  0.500000  0.748358  0.418610  1
  B  B15  1  0.500000  0.251642  0.581390  1
  B  B16  1  0.500000  0.248708  0.081150  1
  B  B17  1  0.500000  0.751292  0.918850  1
  B  B18  1  0.500000  0.790498  0.266032  1
  B  B19  1  0.500000  0.209502  0.733968  1
  B  B20  1  0.500000  0.291482  0.234420  1
  B  B21  1  0.500000  0.708518  0.765580  1
  B  B22  1  0.500000  0.631371  0.186295  1
  B  B23  1  0.500000  0.368629  0.813705  1
  B  B24  1  0.500000  0.131543  0.314425  1
  B  B25  1  0.500000  0.868457  0.685575  1
  B  B26  1  0.500000  0.983231  0.212299  1
  B  B27  1  0.500000  0.016769  0.787701  1
  B  B28  1  0.500000  0.484080  0.288109  1
  B  B29  1  0.500000  0.515920  0.711891  1
  B  B30  1  0.500000  0.603769  0.028838  1
  B  B31  1  0.500000  0.396231  0.971162  1
  B  B32  1  0.500000  0.104077  0.471276  1
  B  B33  1  0.500000  0.895923  0.528724  1
  Ru  Ru34  1  0.000000  0.638077  0.321491  1
  Ru  Ru35  1  0.000000  0.361923  0.678509  1
