# generated using pymatgen
data_Li2V3Co9P7
_symmetry_space_group_name_H-M   'P 1'
_cell_length_a   8.96173000
_cell_length_b   8.96173064
_cell_length_c   3.53371900
_cell_angle_alpha   90.00000000
_cell_angle_beta   90.00000000
_cell_angle_gamma   120.00000503
_symmetry_Int_Tables_number   1
_chemical_formula_structural   Li2V3Co9P7
_chemical_formula_sum   'Li2 V3 Co9 P7'
_cell_volume   245.77989976
_cell_formula_units_Z   1
loop_
 _symmetry_equiv_pos_site_id
 _symmetry_equiv_pos_as_xyz
  1  'x, y, z'
loop_
 _atom_site_type_symbol
 _atom_site_label
 _atom_site_symmetry_multiplicity
 _atom_site_fract_x
 _atom_site_fract_y
 _atom_site_fract_z
 _atom_site_occupancy
  Li  Li0  1  0.333333  0.666667  0.000000  1
  Li  Li1  1  0.000000  0.000000  0.500000  1
  V  V2  1  0.763822  0.553282  0.500000  1
  V  V3  1  0.446718  0.210539  0.500000  1
  V  V4  1  0.789461  0.236178  0.500000  1
  Co  Co5  1  0.276380  0.380248  0.500000  1
  Co  Co6  1  0.619752  0.896132  0.500000  1
  Co  Co7  1  0.103868  0.723620  0.500000  1
  Co  Co8  1  0.504334  0.449937  0.000000  1
  Co  Co9  1  0.550063  0.054397  0.000000  1
  Co  Co10  1  0.945603  0.495666  0.000000  1
  Co  Co11  1  0.723363  0.763184  0.000000  1
  Co  Co12  1  0.236816  0.960179  0.000000  1
  Co  Co13  1  0.039821  0.276637  0.000000  1
  P  P14  1  0.965720  0.755145  0.000000  1
  P  P15  1  0.244855  0.210575  0.000000  1
  P  P16  1  0.789425  0.034280  0.000000  1
  P  P17  1  0.666667  0.333333  0.000000  1
  P  P18  1  0.537687  0.621475  0.500000  1
  P  P19  1  0.378525  0.916212  0.500000  1
  P  P20  1  0.083788  0.462313  0.500000  1
