# generated using pymatgen
data_Ca5La8Ho7Si16
_symmetry_space_group_name_H-M   'P 1'
_cell_length_a   7.54483767
_cell_length_b   7.92885199
_cell_length_c   15.06210785
_cell_angle_alpha   89.96178068
_cell_angle_beta   90.13325870
_cell_angle_gamma   90.10932076
_symmetry_Int_Tables_number   1
_chemical_formula_structural   Ca5La8Ho7Si16
_chemical_formula_sum   'Ca5 La8 Ho7 Si16'
_cell_volume   901.03965235
_cell_formula_units_Z   1
loop_
 _symmetry_equiv_pos_site_id
 _symmetry_equiv_pos_as_xyz
  1  'x, y, z'
loop_
 _atom_site_type_symbol
 _atom_site_label
 _atom_site_symmetry_multiplicity
 _atom_site_fract_x
 _atom_site_fract_y
 _atom_site_fract_z
 _atom_site_occupancy
  Ca  Ca0  1  0.651180  0.990225  0.250392  1
  Ca  Ca1  1  0.150983  0.509670  0.250183  1
  Ca  Ca2  1  0.848329  0.492001  0.750574  1
  Ca  Ca3  1  0.351002  0.008665  0.750397  1
  Ca  Ca4  1  0.680863  0.820994  0.878559  1
  La  La5  1  0.976230  0.820024  0.098772  1
  La  La6  1  0.475860  0.679077  0.401795  1
  La  La7  1  0.524592  0.320231  0.901326  1
  La  La8  1  0.023954  0.179588  0.597288  1
  La  La9  1  0.024416  0.180224  0.901176  1
  La  La10  1  0.524244  0.320115  0.598189  1
  La  La11  1  0.475317  0.680545  0.098958  1
  La  La12  1  0.975742  0.820015  0.401152  1
  Ho  Ho13  1  0.178586  0.681422  0.622274  1
  Ho  Ho14  1  0.819729  0.320238  0.123360  1
  Ho  Ho15  1  0.320064  0.180077  0.377469  1
  Ho  Ho16  1  0.320399  0.179921  0.123839  1
  Ho  Ho17  1  0.820132  0.319653  0.377256  1
  Ho  Ho18  1  0.179451  0.679620  0.876564  1
  Ho  Ho19  1  0.679731  0.819210  0.622268  1
  Si  Si20  1  0.764470  0.608524  0.250099  1
  Si  Si21  1  0.263353  0.891695  0.250312  1
  Si  Si22  1  0.739030  0.113400  0.747373  1
  Si  Si23  1  0.235229  0.390986  0.749301  1
  Si  Si24  1  0.029635  0.111517  0.249960  1
  Si  Si25  1  0.529679  0.389350  0.250104  1
  Si  Si26  1  0.466833  0.606177  0.747772  1
  Si  Si27  1  0.972590  0.890635  0.747320  1
  Si  Si28  1  0.860316  0.525540  0.964319  1
  Si  Si29  1  0.354364  0.967858  0.535791  1
  Si  Si30  1  0.641449  0.034810  0.039179  1
  Si  Si31  1  0.146157  0.467497  0.464422  1
  Si  Si32  1  0.147255  0.466929  0.036406  1
  Si  Si33  1  0.646327  0.031910  0.464224  1
  Si  Si34  1  0.348888  0.968571  0.966229  1
  Si  Si35  1  0.853622  0.533084  0.535397  1
