# generated using pymatgen
data_Lu2Si(PRu2)6
_symmetry_space_group_name_H-M   'P 1'
_cell_length_a   9.39849300
_cell_length_b   9.39849251
_cell_length_c   3.94519900
_cell_angle_alpha   90.00000000
_cell_angle_beta   90.00000000
_cell_angle_gamma   119.99999115
_symmetry_Int_Tables_number   1
_chemical_formula_structural   Lu2Si(PRu2)6
_chemical_formula_sum   'Lu2 Si1 P6 Ru12'
_cell_volume   301.79775644
_cell_formula_units_Z   1
loop_
 _symmetry_equiv_pos_site_id
 _symmetry_equiv_pos_as_xyz
  1  'x, y, z'
loop_
 _atom_site_type_symbol
 _atom_site_label
 _atom_site_symmetry_multiplicity
 _atom_site_fract_x
 _atom_site_fract_y
 _atom_site_fract_z
 _atom_site_occupancy
  Lu  Lu0  1  0.666667  0.333333  0.500000  1
  Lu  Lu1  1  0.333333  0.666667  0.000000  1
  Si  Si2  1  0.000000  0.000000  0.000000  1
  P  P3  1  0.600614  0.719894  0.500000  1
  P  P4  1  0.280106  0.880721  0.500000  1
  P  P5  1  0.119279  0.399386  0.500000  1
  P  P6  1  0.885046  0.574515  0.000000  1
  P  P7  1  0.425485  0.310530  0.000000  1
  P  P8  1  0.689470  0.114954  0.000000  1
  Ru  Ru9  1  0.553114  0.948864  0.500000  1
  Ru  Ru10  1  0.395752  0.446886  0.500000  1
  Ru  Ru11  1  0.912656  0.121339  0.500000  1
  Ru  Ru12  1  0.208684  0.087344  0.500000  1
  Ru  Ru13  1  0.878661  0.791316  0.500000  1
  Ru  Ru14  1  0.719212  0.886465  0.000000  1
  Ru  Ru15  1  0.113535  0.832746  0.000000  1
  Ru  Ru16  1  0.167254  0.280788  0.000000  1
  Ru  Ru17  1  0.426225  0.068798  0.000000  1
  Ru  Ru18  1  0.931202  0.357428  0.000000  1
  Ru  Ru19  1  0.642572  0.573775  0.000000  1
  Ru  Ru20  1  0.051136  0.604248  0.500000  1
