# generated using pymatgen
data_Ac3Tl4Pb
_symmetry_space_group_name_H-M   'P 1'
_cell_length_a   9.16396965
_cell_length_b   9.15586915
_cell_length_c   9.20777654
_cell_angle_alpha   119.75192951
_cell_angle_beta   119.84274470
_cell_angle_gamma   90.00000459
_symmetry_Int_Tables_number   1
_chemical_formula_structural   Ac3Tl4Pb
_chemical_formula_sum   'Ac6 Tl8 Pb2'
_cell_volume   549.61913959
_cell_formula_units_Z   2
loop_
 _symmetry_equiv_pos_site_id
 _symmetry_equiv_pos_as_xyz
  1  'x, y, z'
loop_
 _atom_site_type_symbol
 _atom_site_label
 _atom_site_symmetry_multiplicity
 _atom_site_fract_x
 _atom_site_fract_y
 _atom_site_fract_z
 _atom_site_occupancy
  Ac  Ac0  1  0.837167  0.662348  0.999555  1
  Ac  Ac1  1  0.662388  0.162348  0.999555  1
  Ac  Ac2  1  0.249378  0.250000  0.500000  1
  Ac  Ac3  1  0.750622  0.750000  0.500000  1
  Ac  Ac4  1  0.337612  0.837652  0.000445  1
  Ac  Ac5  1  0.162833  0.337652  0.000445  1
  Tl  Tl6  1  0.038299  0.538421  0.358529  1
  Tl  Tl7  1  0.679990  0.179887  0.641904  1
  Tl  Tl8  1  0.320010  0.820113  0.358096  1
  Tl  Tl9  1  0.538086  0.320113  0.358096  1
  Tl  Tl10  1  0.820230  0.038421  0.358529  1
  Tl  Tl11  1  0.461914  0.679887  0.641904  1
  Tl  Tl12  1  0.179770  0.961579  0.641471  1
  Tl  Tl13  1  0.961701  0.461579  0.641471  1
  Pb  Pb14  1  0.500000  0.500000  0.000000  1
  Pb  Pb15  1  0.000000  0.000000  0.000000  1
