# generated using pymatgen
data_Rb8In3Ge43
_symmetry_space_group_name_H-M   'P 1'
_cell_length_a   11.12688414
_cell_length_b   11.12688429
_cell_length_c   11.12688300
_cell_angle_alpha   90.00921727
_cell_angle_beta   90.00921727
_cell_angle_gamma   90.00922093
_symmetry_Int_Tables_number   1
_chemical_formula_structural   Rb8In3Ge43
_chemical_formula_sum   'Rb8 In3 Ge43'
_cell_volume   1377.59209610
_cell_formula_units_Z   1
loop_
 _symmetry_equiv_pos_site_id
 _symmetry_equiv_pos_as_xyz
  1  'x, y, z'
loop_
 _atom_site_type_symbol
 _atom_site_label
 _atom_site_symmetry_multiplicity
 _atom_site_fract_x
 _atom_site_fract_y
 _atom_site_fract_z
 _atom_site_occupancy
  Rb  Rb0  1  0.249889  0.249889  0.249889  1
  Rb  Rb1  1  0.750111  0.750111  0.750111  1
  Rb  Rb2  1  0.500000  0.249721  0.750279  1
  Rb  Rb3  1  0.249721  0.750279  0.500000  1
  Rb  Rb4  1  0.750279  0.500000  0.249721  1
  Rb  Rb5  1  0.000000  0.249806  0.750194  1
  Rb  Rb6  1  0.249806  0.750194  0.000000  1
  Rb  Rb7  1  0.750194  0.000000  0.249806  1
  In  In8  1  0.750336  0.249664  0.000000  1
  In  In9  1  0.249664  0.000000  0.750336  1
  In  In10  1  0.000000  0.750336  0.249664  1
  Ge  Ge11  1  0.555718  0.250355  0.369277  1
  Ge  Ge12  1  0.250355  0.369277  0.555718  1
  Ge  Ge13  1  0.369277  0.555718  0.250355  1
  Ge  Ge14  1  0.950272  0.250023  0.136158  1
  Ge  Ge15  1  0.250023  0.136158  0.950272  1
  Ge  Ge16  1  0.136158  0.950272  0.250023  1
  Ge  Ge17  1  0.250392  0.368739  0.944553  1
  Ge  Ge18  1  0.136390  0.549830  0.249943  1
  Ge  Ge19  1  0.249943  0.136390  0.549830  1
  Ge  Ge20  1  0.368739  0.944553  0.250392  1
  Ge  Ge21  1  0.549830  0.249943  0.136390  1
  Ge  Ge22  1  0.944553  0.250392  0.368739  1
  Ge  Ge23  1  0.630723  0.749645  0.444282  1
  Ge  Ge24  1  0.450170  0.863610  0.750057  1
  Ge  Ge25  1  0.749608  0.055447  0.631261  1
  Ge  Ge26  1  0.863842  0.749977  0.049728  1
  Ge  Ge27  1  0.055447  0.631261  0.749608  1
  Ge  Ge28  1  0.750057  0.450170  0.863610  1
  Ge  Ge29  1  0.049728  0.863842  0.749977  1
  Ge  Ge30  1  0.749977  0.049728  0.863842  1
  Ge  Ge31  1  0.444282  0.630723  0.749645  1
  Ge  Ge32  1  0.749645  0.444282  0.630723  1
  Ge  Ge33  1  0.863610  0.750057  0.450170  1
  Ge  Ge34  1  0.631261  0.749608  0.055447  1
  Ge  Ge35  1  0.434665  0.434665  0.434665  1
  Ge  Ge36  1  0.065976  0.065976  0.065976  1
  Ge  Ge37  1  0.066020  0.434198  0.065801  1
  Ge  Ge38  1  0.434707  0.065531  0.434146  1
  Ge  Ge39  1  0.434198  0.065801  0.066020  1
  Ge  Ge40  1  0.065531  0.434146  0.434707  1
  Ge  Ge41  1  0.065801  0.066020  0.434198  1
  Ge  Ge42  1  0.434146  0.434707  0.065531  1
  Ge  Ge43  1  0.565854  0.934469  0.565293  1
  Ge  Ge44  1  0.934199  0.565802  0.933980  1
  Ge  Ge45  1  0.934024  0.934024  0.934024  1
  Ge  Ge46  1  0.565335  0.565335  0.565335  1
  Ge  Ge47  1  0.934469  0.565293  0.565854  1
  Ge  Ge48  1  0.565802  0.933980  0.934199  1
  Ge  Ge49  1  0.565293  0.565854  0.934469  1
  Ge  Ge50  1  0.933980  0.934199  0.565802  1
  Ge  Ge51  1  0.750693  0.249307  0.500000  1
  Ge  Ge52  1  0.249307  0.500000  0.750693  1
  Ge  Ge53  1  0.500000  0.750693  0.249307  1
