# generated using pymatgen
data_Pr8MgCdIr2
_symmetry_space_group_name_H-M   'P 1'
_cell_length_a   10.07383491
_cell_length_b   10.07383480
_cell_length_c   10.06661400
_cell_angle_alpha   60.02371487
_cell_angle_beta   60.02371524
_cell_angle_gamma   60.00890571
_symmetry_Int_Tables_number   1
_chemical_formula_structural   Pr8MgCdIr2
_chemical_formula_sum   'Pr16 Mg2 Cd2 Ir4'
_cell_volume   722.67477497
_cell_formula_units_Z   2
loop_
 _symmetry_equiv_pos_site_id
 _symmetry_equiv_pos_as_xyz
  1  'x, y, z'
loop_
 _atom_site_type_symbol
 _atom_site_label
 _atom_site_symmetry_multiplicity
 _atom_site_fract_x
 _atom_site_fract_y
 _atom_site_fract_z
 _atom_site_occupancy
  Pr  Pr0  1  0.347220  0.347220  0.347745  1
  Pr  Pr1  1  0.347220  0.347220  0.957815  1
  Pr  Pr2  1  0.347006  0.958016  0.347488  1
  Pr  Pr3  1  0.958016  0.347006  0.347488  1
  Pr  Pr4  1  0.809903  0.189477  0.190355  1
  Pr  Pr5  1  0.189477  0.809903  0.810265  1
  Pr  Pr6  1  0.189477  0.809903  0.190355  1
  Pr  Pr7  1  0.809903  0.189477  0.810265  1
  Pr  Pr8  1  0.191276  0.191276  0.808724  1
  Pr  Pr9  1  0.811356  0.811356  0.188644  1
  Pr  Pr10  1  0.940271  0.561195  0.561222  1
  Pr  Pr11  1  0.561195  0.940271  0.937311  1
  Pr  Pr12  1  0.561195  0.940271  0.561222  1
  Pr  Pr13  1  0.940271  0.561195  0.937311  1
  Pr  Pr14  1  0.562458  0.562458  0.937542  1
  Pr  Pr15  1  0.939535  0.939535  0.560465  1
  Mg  Mg16  1  0.575978  0.575978  0.579109  1
  Mg  Mg17  1  0.575978  0.575978  0.268935  1
  Cd  Cd18  1  0.580920  0.259201  0.579939  1
  Cd  Cd19  1  0.259201  0.580920  0.579939  1
  Ir  Ir20  1  0.142121  0.142121  0.140294  1
  Ir  Ir21  1  0.142121  0.142121  0.575463  1
  Ir  Ir22  1  0.142362  0.575537  0.141050  1
  Ir  Ir23  1  0.575537  0.142362  0.141050  1
