# generated using pymatgen
data_Y2Fe3Co(NiP)6
_symmetry_space_group_name_H-M   'P 1'
_cell_length_a   3.69666100
_cell_length_b   10.29802126
_cell_length_c   11.87342047
_cell_angle_alpha   90.26614771
_cell_angle_beta   90.00000000
_cell_angle_gamma   90.00000000
_symmetry_Int_Tables_number   1
_chemical_formula_structural   Y2Fe3Co(NiP)6
_chemical_formula_sum   'Y4 Fe6 Co2 Ni12 P12'
_cell_volume   451.99597966
_cell_formula_units_Z   2
loop_
 _symmetry_equiv_pos_site_id
 _symmetry_equiv_pos_as_xyz
  1  'x, y, z'
loop_
 _atom_site_type_symbol
 _atom_site_label
 _atom_site_symmetry_multiplicity
 _atom_site_fract_x
 _atom_site_fract_y
 _atom_site_fract_z
 _atom_site_occupancy
  Y  Y0  1  0.250000  0.921357  0.205019  1
  Y  Y1  1  0.750000  0.078643  0.794981  1
  Y  Y2  1  0.750000  0.421331  0.296616  1
  Y  Y3  1  0.250000  0.578669  0.703384  1
  Fe  Fe4  1  0.250000  0.624341  0.198550  1
  Fe  Fe5  1  0.750000  0.375659  0.801450  1
  Fe  Fe6  1  0.750000  0.127227  0.298951  1
  Fe  Fe7  1  0.250000  0.872773  0.701049  1
  Fe  Fe8  1  0.250000  0.038211  0.432398  1
  Fe  Fe9  1  0.750000  0.961789  0.567602  1
  Co  Co10  1  0.750000  0.535462  0.066462  1
  Co  Co11  1  0.250000  0.464538  0.933538  1
  Ni  Ni12  1  0.250000  0.787383  0.492761  1
  Ni  Ni13  1  0.750000  0.212617  0.507239  1
  Ni  Ni14  1  0.750000  0.288092  0.010299  1
  Ni  Ni15  1  0.250000  0.711908  0.989701  1
  Ni  Ni16  1  0.250000  0.091721  0.985433  1
  Ni  Ni17  1  0.750000  0.908279  0.014567  1
  Ni  Ni18  1  0.750000  0.591727  0.513859  1
  Ni  Ni19  1  0.250000  0.408273  0.486141  1
  Ni  Ni20  1  0.250000  0.273468  0.673168  1
  Ni  Ni21  1  0.750000  0.726532  0.326832  1
  Ni  Ni22  1  0.750000  0.772576  0.828784  1
  Ni  Ni23  1  0.250000  0.227424  0.171216  1
  P  P24  1  0.250000  0.066839  0.613363  1
  P  P25  1  0.750000  0.933161  0.386637  1
  P  P26  1  0.750000  0.569869  0.886224  1
  P  P27  1  0.250000  0.430131  0.113776  1
  P  P28  1  0.250000  0.229746  0.363974  1
  P  P29  1  0.750000  0.770254  0.636026  1
  P  P30  1  0.750000  0.729664  0.135219  1
  P  P31  1  0.250000  0.270336  0.864781  1
  P  P32  1  0.250000  0.894804  0.889339  1
  P  P33  1  0.750000  0.105196  0.110661  1
  P  P34  1  0.750000  0.393759  0.611397  1
  P  P35  1  0.250000  0.606241  0.388603  1
