# generated using pymatgen
data_Er9(BiO)5
_symmetry_space_group_name_H-M   'P 1'
_cell_length_a   9.94346600
_cell_length_b   9.94346600
_cell_length_c   8.85779900
_cell_angle_alpha   90.00000000
_cell_angle_beta   90.00000000
_cell_angle_gamma   90.00000000
_symmetry_Int_Tables_number   1
_chemical_formula_structural   Er9(BiO)5
_chemical_formula_sum   'Er18 Bi10 O10'
_cell_volume   875.79287418
_cell_formula_units_Z   2
loop_
 _symmetry_equiv_pos_site_id
 _symmetry_equiv_pos_as_xyz
  1  'x, y, z'
loop_
 _atom_site_type_symbol
 _atom_site_label
 _atom_site_symmetry_multiplicity
 _atom_site_fract_x
 _atom_site_fract_y
 _atom_site_fract_z
 _atom_site_occupancy
  Er  Er0  1  0.207049  0.894637  0.335453  1
  Er  Er1  1  0.500000  0.000000  0.679532  1
  Er  Er2  1  0.292951  0.605363  0.664547  1
  Er  Er3  1  0.707049  0.394637  0.664547  1
  Er  Er4  1  0.725318  0.916189  0.002294  1
  Er  Er5  1  0.394637  0.292951  0.335453  1
  Er  Er6  1  0.105363  0.207049  0.664547  1
  Er  Er7  1  0.605363  0.707049  0.335453  1
  Er  Er8  1  0.000000  0.500000  0.320468  1
  Er  Er9  1  0.894637  0.792951  0.664547  1
  Er  Er10  1  0.274682  0.083811  0.002294  1
  Er  Er11  1  0.774682  0.583811  0.997706  1
  Er  Er12  1  0.225318  0.416189  0.997706  1
  Er  Er13  1  0.792951  0.105363  0.335453  1
  Er  Er14  1  0.583811  0.225318  0.002294  1
  Er  Er15  1  0.916189  0.274682  0.997706  1
  Er  Er16  1  0.083811  0.725318  0.997706  1
  Er  Er17  1  0.416189  0.774682  0.002294  1
  Bi  Bi18  1  0.594715  0.693867  0.696713  1
  Bi  Bi19  1  0.905285  0.806133  0.303287  1
  Bi  Bi20  1  0.693867  0.405285  0.303287  1
  Bi  Bi21  1  0.000000  0.500000  0.680725  1
  Bi  Bi22  1  0.193867  0.905285  0.696713  1
  Bi  Bi23  1  0.806133  0.094715  0.696713  1
  Bi  Bi24  1  0.306133  0.594715  0.303287  1
  Bi  Bi25  1  0.405285  0.306133  0.696713  1
  Bi  Bi26  1  0.094715  0.193867  0.303287  1
  Bi  Bi27  1  0.500000  0.000000  0.319275  1
  O  O28  1  0.225948  0.879875  0.083994  1
  O  O29  1  0.725948  0.379875  0.916006  1
  O  O30  1  0.500000  0.000000  0.936997  1
  O  O31  1  0.620125  0.725948  0.083994  1
  O  O32  1  0.000000  0.500000  0.063003  1
  O  O33  1  0.879875  0.774052  0.916006  1
  O  O34  1  0.120125  0.225948  0.916006  1
  O  O35  1  0.379875  0.274052  0.083994  1
  O  O36  1  0.774052  0.120125  0.083994  1
  O  O37  1  0.274052  0.620125  0.916006  1
