# generated using pymatgen
data_Si16Mo3Ir2Pt10W
_symmetry_space_group_name_H-M   'P 1'
_cell_length_a   3.53181300
_cell_length_b   5.52676011
_cell_length_c   24.57707648
_cell_angle_alpha   90.02268543
_cell_angle_beta   90.00000000
_cell_angle_gamma   90.00000000
_symmetry_Int_Tables_number   1
_chemical_formula_structural   Si16Mo3Ir2Pt10W
_chemical_formula_sum   'Si16 Mo3 Ir2 Pt10 W1'
_cell_volume   479.73179385
_cell_formula_units_Z   1
loop_
 _symmetry_equiv_pos_site_id
 _symmetry_equiv_pos_as_xyz
  1  'x, y, z'
loop_
 _atom_site_type_symbol
 _atom_site_label
 _atom_site_symmetry_multiplicity
 _atom_site_fract_x
 _atom_site_fract_y
 _atom_site_fract_z
 _atom_site_occupancy
  Si  Si0  1  0.250000  0.173265  0.521124  1
  Si  Si1  1  0.750000  0.326586  0.021169  1
  Si  Si2  1  0.250000  0.673109  0.981863  1
  Si  Si3  1  0.750000  0.826785  0.481811  1
  Si  Si4  1  0.750000  0.318332  0.644280  1
  Si  Si5  1  0.250000  0.182580  0.144584  1
  Si  Si6  1  0.750000  0.819847  0.854027  1
  Si  Si7  1  0.250000  0.680245  0.353848  1
  Si  Si8  1  0.250000  0.668580  0.608723  1
  Si  Si9  1  0.750000  0.831111  0.108899  1
  Si  Si10  1  0.250000  0.161708  0.890587  1
  Si  Si11  1  0.750000  0.338560  0.390507  1
  Si  Si12  1  0.750000  0.830163  0.726050  1
  Si  Si13  1  0.250000  0.670537  0.226028  1
  Si  Si14  1  0.750000  0.330393  0.774040  1
  Si  Si15  1  0.250000  0.168073  0.273750  1
  Mo  Mo16  1  0.750000  0.997697  0.209830  1
  Mo  Mo17  1  0.250000  0.005251  0.789460  1
  Mo  Mo18  1  0.750000  0.493949  0.289593  1
  Ir  Ir19  1  0.750000  0.000582  0.573517  1
  Ir  Ir20  1  0.250000  0.499275  0.073358  1
  Pt  Pt21  1  0.750000  0.503182  0.925247  1
  Pt  Pt22  1  0.250000  0.996786  0.425419  1
  Pt  Pt23  1  0.250000  0.005387  0.670500  1
  Pt  Pt24  1  0.750000  0.495317  0.170382  1
  Pt  Pt25  1  0.250000  0.504712  0.829882  1
  Pt  Pt26  1  0.750000  0.995711  0.329966  1
  Pt  Pt27  1  0.750000  0.502133  0.549289  1
  Pt  Pt28  1  0.250000  0.997900  0.049263  1
  Pt  Pt29  1  0.750000  0.004793  0.951578  1
  Pt  Pt30  1  0.250000  0.495178  0.451612  1
  W  W31  1  0.250000  0.502274  0.709809  1
