# generated using pymatgen
data_Dy3Y5(HgAu2)4
_symmetry_space_group_name_H-M   'P 1'
_cell_length_a   8.01665621
_cell_length_b   8.01734385
_cell_length_c   7.39729600
_cell_angle_alpha   89.99504034
_cell_angle_beta   90.01316494
_cell_angle_gamma   89.87921127
_symmetry_Int_Tables_number   1
_chemical_formula_structural   Dy3Y5(HgAu2)4
_chemical_formula_sum   'Dy3 Y5 Hg4 Au8'
_cell_volume   475.44007803
_cell_formula_units_Z   1
loop_
 _symmetry_equiv_pos_site_id
 _symmetry_equiv_pos_as_xyz
  1  'x, y, z'
loop_
 _atom_site_type_symbol
 _atom_site_label
 _atom_site_symmetry_multiplicity
 _atom_site_fract_x
 _atom_site_fract_y
 _atom_site_fract_z
 _atom_site_occupancy
  Dy  Dy0  1  0.316286  0.315867  0.499809  1
  Dy  Dy1  1  0.184445  0.816275  0.000108  1
  Dy  Dy2  1  0.815846  0.184037  0.000100  1
  Y  Y3  1  0.839397  0.161156  0.500453  1
  Y  Y4  1  0.160576  0.838820  0.500447  1
  Y  Y5  1  0.338995  0.339531  0.999577  1
  Y  Y6  1  0.660958  0.660425  0.999522  1
  Y  Y7  1  0.684049  0.684401  0.500037  1
  Hg  Hg8  1  0.000104  0.500013  0.249786  1
  Hg  Hg9  1  0.499947  0.000139  0.249783  1
  Hg  Hg10  1  0.000111  0.499922  0.750175  1
  Hg  Hg11  1  0.499941  0.000061  0.750180  1
  Au  Au12  1  0.625980  0.372248  0.274554  1
  Au  Au13  1  0.373150  0.626892  0.274604  1
  Au  Au14  1  0.127130  0.126361  0.774581  1
  Au  Au15  1  0.873357  0.874128  0.775560  1
  Au  Au16  1  0.373195  0.626841  0.725651  1
  Au  Au17  1  0.626032  0.372384  0.725607  1
  Au  Au18  1  0.873245  0.874191  0.224310  1
  Au  Au19  1  0.127254  0.126309  0.225158  1
