# generated using pymatgen
data_Rb4Nb2FeCuSe8
_symmetry_space_group_name_H-M   'P 1'
_cell_length_a   14.49971442
_cell_length_b   12.94695446
_cell_length_c   7.71773403
_cell_angle_alpha   85.13584527
_cell_angle_beta   62.83497631
_cell_angle_gamma   32.02917645
_symmetry_Int_Tables_number   1
_chemical_formula_structural   Rb4Nb2FeCuSe8
_chemical_formula_sum   'Rb4 Nb2 Fe1 Cu1 Se8'
_cell_volume   524.94753506
_cell_formula_units_Z   1
loop_
 _symmetry_equiv_pos_site_id
 _symmetry_equiv_pos_as_xyz
  1  'x, y, z'
loop_
 _atom_site_type_symbol
 _atom_site_label
 _atom_site_symmetry_multiplicity
 _atom_site_fract_x
 _atom_site_fract_y
 _atom_site_fract_z
 _atom_site_occupancy
  Rb  Rb0  1  0.821494  0.821494  0.178506  1
  Rb  Rb1  1  0.178506  0.178506  0.821494  1
  Rb  Rb2  1  0.071127  0.071127  0.428873  1
  Rb  Rb3  1  0.428873  0.428873  0.071127  1
  Nb  Nb4  1  0.250000  0.250000  0.250000  1
  Nb  Nb5  1  0.000000  0.000000  0.000000  1
  Fe  Fe6  1  0.750000  0.750000  0.750000  1
  Cu  Cu7  1  0.500000  0.500000  0.500000  1
  Se  Se8  1  0.711981  0.398022  0.091957  1
  Se  Se9  1  0.798040  0.091957  0.398022  1
  Se  Se10  1  0.091957  0.798040  0.711981  1
  Se  Se11  1  0.398022  0.711981  0.798040  1
  Se  Se12  1  0.149363  0.460118  0.546033  1
  Se  Se13  1  0.844486  0.546033  0.460118  1
  Se  Se14  1  0.460118  0.149363  0.844486  1
  Se  Se15  1  0.546033  0.844486  0.149363  1
