# generated using pymatgen
data_Ti11NbAl8(PtN)4
_symmetry_space_group_name_H-M   'P 1'
_cell_length_a   8.19719616
_cell_length_b   8.19719616
_cell_length_c   8.19900600
_cell_angle_alpha   59.99269612
_cell_angle_beta   59.99269614
_cell_angle_gamma   60.13187412
_symmetry_Int_Tables_number   1
_chemical_formula_structural   Ti11NbAl8(PtN)4
_chemical_formula_sum   'Ti11 Nb1 Al8 Pt4 N4'
_cell_volume   389.90587437
_cell_formula_units_Z   1
loop_
 _symmetry_equiv_pos_site_id
 _symmetry_equiv_pos_as_xyz
  1  'x, y, z'
loop_
 _atom_site_type_symbol
 _atom_site_label
 _atom_site_symmetry_multiplicity
 _atom_site_fract_x
 _atom_site_fract_y
 _atom_site_fract_z
 _atom_site_occupancy
  Ti  Ti0  1  0.067875  0.432156  0.432581  1
  Ti  Ti1  1  0.432156  0.067875  0.067388  1
  Ti  Ti2  1  0.067535  0.067535  0.432465  1
  Ti  Ti3  1  0.067875  0.432156  0.067388  1
  Ti  Ti4  1  0.432156  0.067875  0.432581  1
  Ti  Ti5  1  0.181722  0.818156  0.183492  1
  Ti  Ti6  1  0.181722  0.818156  0.816630  1
  Ti  Ti7  1  0.818156  0.181722  0.183492  1
  Ti  Ti8  1  0.818156  0.181722  0.816630  1
  Ti  Ti9  1  0.432108  0.432108  0.067892  1
  Ti  Ti10  1  0.182689  0.182689  0.817311  1
  Nb  Nb11  1  0.817223  0.817223  0.182777  1
  Al  Al12  1  0.414862  0.755660  0.414738  1
  Al  Al13  1  0.835326  0.835326  0.496254  1
  Al  Al14  1  0.494247  0.835496  0.835129  1
  Al  Al15  1  0.835326  0.835326  0.833096  1
  Al  Al16  1  0.755660  0.414862  0.414738  1
  Al  Al17  1  0.414607  0.414607  0.415540  1
  Al  Al18  1  0.414607  0.414607  0.755245  1
  Al  Al19  1  0.835496  0.494247  0.835129  1
  Pt  Pt20  1  0.624754  0.125497  0.624875  1
  Pt  Pt21  1  0.623891  0.623891  0.124600  1
  Pt  Pt22  1  0.125497  0.624754  0.624875  1
  Pt  Pt23  1  0.623891  0.623891  0.627618  1
  N  N24  1  0.131563  0.620967  0.123735  1
  N  N25  1  0.124966  0.124966  0.625446  1
  N  N26  1  0.620967  0.131563  0.123735  1
  N  N27  1  0.124966  0.124966  0.124622  1
