# generated using pymatgen
data_Nd16CoHg4Pt3
_symmetry_space_group_name_H-M   'P 1'
_cell_length_a   9.92384316
_cell_length_b   9.92384356
_cell_length_c   9.92384183
_cell_angle_alpha   60.35641064
_cell_angle_beta   60.35640691
_cell_angle_gamma   60.35641239
_symmetry_Int_Tables_number   1
_chemical_formula_structural   Nd16CoHg4Pt3
_chemical_formula_sum   'Nd16 Co1 Hg4 Pt3'
_cell_volume   696.64581109
_cell_formula_units_Z   1
loop_
 _symmetry_equiv_pos_site_id
 _symmetry_equiv_pos_as_xyz
  1  'x, y, z'
loop_
 _atom_site_type_symbol
 _atom_site_label
 _atom_site_symmetry_multiplicity
 _atom_site_fract_x
 _atom_site_fract_y
 _atom_site_fract_z
 _atom_site_occupancy
  Nd  Nd0  1  0.602488  0.602488  0.602488  1
  Nd  Nd1  1  0.597023  0.597023  0.198918  1
  Nd  Nd2  1  0.597023  0.198918  0.597023  1
  Nd  Nd3  1  0.198918  0.597023  0.597023  1
  Nd  Nd4  1  0.069755  0.439484  0.439484  1
  Nd  Nd5  1  0.440863  0.058159  0.058159  1
  Nd  Nd6  1  0.439484  0.069755  0.439484  1
  Nd  Nd7  1  0.058159  0.440863  0.058159  1
  Nd  Nd8  1  0.439484  0.439484  0.069755  1
  Nd  Nd9  1  0.058159  0.058159  0.440863  1
  Nd  Nd10  1  0.189053  0.811884  0.811884  1
  Nd  Nd11  1  0.812025  0.185875  0.185875  1
  Nd  Nd12  1  0.811884  0.189053  0.811884  1
  Nd  Nd13  1  0.185875  0.812025  0.185875  1
  Nd  Nd14  1  0.811884  0.811884  0.189053  1
  Nd  Nd15  1  0.185875  0.185875  0.812025  1
  Co  Co16  1  0.392560  0.392560  0.392560  1
  Hg  Hg17  1  0.833694  0.833694  0.833694  1
  Hg  Hg18  1  0.835305  0.835305  0.496130  1
  Hg  Hg19  1  0.835305  0.496130  0.835305  1
  Hg  Hg20  1  0.496130  0.835305  0.835305  1
  Pt  Pt21  1  0.394224  0.394224  0.820602  1
  Pt  Pt22  1  0.394224  0.820602  0.394224  1
  Pt  Pt23  1  0.820602  0.394224  0.394224  1
