# generated using pymatgen
data_TbTh3(CoB4)4
_symmetry_space_group_name_H-M   'P 1'
_cell_length_a   6.90816568
_cell_length_b   6.90816592
_cell_length_c   6.90816618
_cell_angle_alpha   112.46614759
_cell_angle_beta   112.46615118
_cell_angle_gamma   103.63435723
_symmetry_Int_Tables_number   1
_chemical_formula_structural   TbTh3(CoB4)4
_chemical_formula_sum   'Tb1 Th3 Co4 B16'
_cell_volume   251.83723749
_cell_formula_units_Z   1
loop_
 _symmetry_equiv_pos_site_id
 _symmetry_equiv_pos_as_xyz
  1  'x, y, z'
loop_
 _atom_site_type_symbol
 _atom_site_label
 _atom_site_symmetry_multiplicity
 _atom_site_fract_x
 _atom_site_fract_y
 _atom_site_fract_z
 _atom_site_occupancy
  Tb  Tb0  1  0.250000  0.750000  0.500000  1
  Th  Th1  1  0.212976  0.212976  0.000000  1
  Th  Th2  1  0.787024  0.787024  0.000000  1
  Th  Th3  1  0.750000  0.250000  0.500000  1
  Co  Co4  1  0.499962  0.269868  0.769906  1
  Co  Co5  1  0.499962  0.730056  0.230094  1
  Co  Co6  1  0.730132  0.500038  0.230094  1
  Co  Co7  1  0.269944  0.500038  0.769906  1
  B  B8  1  0.111715  0.276772  0.388554  1
  B  B9  1  0.888218  0.723161  0.611446  1
  B  B10  1  0.888218  0.276772  0.165058  1
  B  B11  1  0.111715  0.723161  0.834942  1
  B  B12  1  0.723228  0.888285  0.611446  1
  B  B13  1  0.276839  0.111782  0.388554  1
  B  B14  1  0.723228  0.111782  0.834942  1
  B  B15  1  0.276839  0.888285  0.165058  1
  B  B16  1  0.417516  0.419419  0.536870  1
  B  B17  1  0.882549  0.880646  0.463130  1
  B  B18  1  0.580581  0.117451  0.998096  1
  B  B19  1  0.119354  0.582484  0.001904  1
  B  B20  1  0.580581  0.582484  0.463130  1
  B  B21  1  0.119354  0.117451  0.536870  1
  B  B22  1  0.882549  0.419419  0.001904  1
  B  B23  1  0.417516  0.880646  0.998096  1
