# generated using pymatgen
data_Gd7Tm5Os4
_symmetry_space_group_name_H-M   'P 1'
_cell_length_a   7.39754877
_cell_length_b   8.99655344
_cell_length_c   6.31223900
_cell_angle_alpha   89.76248739
_cell_angle_beta   89.88943665
_cell_angle_gamma   89.82211150
_symmetry_Int_Tables_number   1
_chemical_formula_structural   Gd7Tm5Os4
_chemical_formula_sum   'Gd7 Tm5 Os4'
_cell_volume   420.08851928
_cell_formula_units_Z   1
loop_
 _symmetry_equiv_pos_site_id
 _symmetry_equiv_pos_as_xyz
  1  'x, y, z'
loop_
 _atom_site_type_symbol
 _atom_site_label
 _atom_site_symmetry_multiplicity
 _atom_site_fract_x
 _atom_site_fract_y
 _atom_site_fract_z
 _atom_site_occupancy
  Gd  Gd0  1  0.038827  0.253620  0.629338  1
  Gd  Gd1  1  0.960191  0.746701  0.369983  1
  Gd  Gd2  1  0.461057  0.746442  0.129718  1
  Gd  Gd3  1  0.539642  0.253427  0.871762  1
  Gd  Gd4  1  0.175926  0.064593  0.168283  1
  Gd  Gd5  1  0.823865  0.936357  0.832650  1
  Gd  Gd6  1  0.325918  0.936231  0.666255  1
  Tm  Tm7  1  0.825332  0.561582  0.834090  1
  Tm  Tm8  1  0.674424  0.064854  0.332758  1
  Tm  Tm9  1  0.174229  0.438502  0.165749  1
  Tm  Tm10  1  0.674845  0.437336  0.334535  1
  Tm  Tm11  1  0.325860  0.561496  0.665473  1
  Os  Os12  1  0.383793  0.253668  0.457875  1
  Os  Os13  1  0.617505  0.747367  0.540259  1
  Os  Os14  1  0.116953  0.744047  0.957357  1
  Os  Os15  1  0.881633  0.253775  0.043913  1
