# generated using pymatgen
data_Dy4AlTc2Ru5
_symmetry_space_group_name_H-M   'P 1'
_cell_length_a   5.46391820
_cell_length_b   5.14489447
_cell_length_c   8.98276000
_cell_angle_alpha   90.00000000
_cell_angle_beta   90.00000000
_cell_angle_gamma   120.09391481
_symmetry_Int_Tables_number   1
_chemical_formula_structural   Dy4AlTc2Ru5
_chemical_formula_sum   'Dy4 Al1 Tc2 Ru5'
_cell_volume   218.47880732
_cell_formula_units_Z   1
loop_
 _symmetry_equiv_pos_site_id
 _symmetry_equiv_pos_as_xyz
  1  'x, y, z'
loop_
 _atom_site_type_symbol
 _atom_site_label
 _atom_site_symmetry_multiplicity
 _atom_site_fract_x
 _atom_site_fract_y
 _atom_site_fract_z
 _atom_site_occupancy
  Dy  Dy0  1  0.674155  0.343050  0.565310  1
  Dy  Dy1  1  0.329350  0.664933  0.435040  1
  Dy  Dy2  1  0.329350  0.664933  0.064960  1
  Dy  Dy3  1  0.674155  0.343050  0.934690  1
  Al  Al4  1  0.835784  0.673716  0.250000  1
  Tc  Tc5  1  0.153215  0.306554  0.750000  1
  Tc  Tc6  1  0.174119  0.817203  0.750000  1
  Ru  Ru7  1  0.011186  0.015232  0.498624  1
  Ru  Ru8  1  0.011186  0.015232  0.001376  1
  Ru  Ru9  1  0.643571  0.821466  0.750000  1
  Ru  Ru10  1  0.818438  0.168004  0.250000  1
  Ru  Ru11  1  0.345491  0.166627  0.250000  1
