# generated using pymatgen
data_LuTa8CdS16
_symmetry_space_group_name_H-M   'P 1'
_cell_length_a   6.70222500
_cell_length_b   6.70222429
_cell_length_c   13.76493300
_cell_angle_alpha   90.00000000
_cell_angle_beta   90.00000000
_cell_angle_gamma   120.00000845
_symmetry_Int_Tables_number   1
_chemical_formula_structural   LuTa8CdS16
_chemical_formula_sum   'Lu1 Ta8 Cd1 S16'
_cell_volume   535.47926323
_cell_formula_units_Z   1
loop_
 _symmetry_equiv_pos_site_id
 _symmetry_equiv_pos_as_xyz
  1  'x, y, z'
loop_
 _atom_site_type_symbol
 _atom_site_label
 _atom_site_symmetry_multiplicity
 _atom_site_fract_x
 _atom_site_fract_y
 _atom_site_fract_z
 _atom_site_occupancy
  Lu  Lu0  1  0.000000  0.000000  0.000000  1
  Ta  Ta1  1  0.505510  0.494490  0.754436  1
  Ta  Ta2  1  0.011019  0.505510  0.245564  1
  Ta  Ta3  1  0.494490  0.988981  0.245564  1
  Ta  Ta4  1  0.505510  0.011019  0.754436  1
  Ta  Ta5  1  0.988981  0.494490  0.754436  1
  Ta  Ta6  1  0.494490  0.505510  0.245564  1
  Ta  Ta7  1  0.000000  0.000000  0.756927  1
  Ta  Ta8  1  0.000000  0.000000  0.243073  1
  Cd  Cd9  1  0.000000  0.000000  0.500000  1
  S  S10  1  0.833379  0.166621  0.357303  1
  S  S11  1  0.833379  0.666758  0.357303  1
  S  S12  1  0.333242  0.166621  0.357303  1
  S  S13  1  0.661526  0.830763  0.868773  1
  S  S14  1  0.166621  0.333242  0.642697  1
  S  S15  1  0.169237  0.830763  0.868773  1
  S  S16  1  0.169237  0.338474  0.868773  1
  S  S17  1  0.830763  0.169237  0.131227  1
  S  S18  1  0.338474  0.169237  0.131227  1
  S  S19  1  0.666758  0.833379  0.642697  1
  S  S20  1  0.333333  0.666667  0.128803  1
  S  S21  1  0.666667  0.333333  0.638701  1
  S  S22  1  0.666667  0.333333  0.871197  1
  S  S23  1  0.333333  0.666667  0.361299  1
  S  S24  1  0.830763  0.661526  0.131227  1
  S  S25  1  0.166621  0.833379  0.642697  1
