# generated using pymatgen
data_Ba2AsPtI
_symmetry_space_group_name_H-M   'P 1'
_cell_length_a   4.52173700
_cell_length_b   4.52173802
_cell_length_c   18.35115300
_cell_angle_alpha   90.00000000
_cell_angle_beta   90.00000000
_cell_angle_gamma   119.99999986
_symmetry_Int_Tables_number   1
_chemical_formula_structural   Ba2AsPtI
_chemical_formula_sum   'Ba4 As2 Pt2 I2'
_cell_volume   324.94112795
_cell_formula_units_Z   2
loop_
 _symmetry_equiv_pos_site_id
 _symmetry_equiv_pos_as_xyz
  1  'x, y, z'
loop_
 _atom_site_type_symbol
 _atom_site_label
 _atom_site_symmetry_multiplicity
 _atom_site_fract_x
 _atom_site_fract_y
 _atom_site_fract_z
 _atom_site_occupancy
  Ba  Ba0  1  0.000000  0.000000  0.109478  1
  Ba  Ba1  1  0.000000  0.000000  0.390522  1
  Ba  Ba2  1  0.000000  0.000000  0.610176  1
  Ba  Ba3  1  0.000000  0.000000  0.889824  1
  As  As4  1  0.666666  0.333334  0.501876  1
  As  As5  1  0.666666  0.333334  0.998124  1
  Pt  Pt6  1  0.333334  0.666667  0.001224  1
  Pt  Pt7  1  0.333334  0.666667  0.498776  1
  I  I8  1  0.666666  0.333334  0.250000  1
  I  I9  1  0.333334  0.666667  0.750000  1
