# generated using pymatgen
data_Lu12Co2TcNi2Bi
_symmetry_space_group_name_H-M   'P 1'
_cell_length_a   8.15005923
_cell_length_b   8.15005979
_cell_length_c   8.15005921
_cell_angle_alpha   109.96069393
_cell_angle_beta   111.86058274
_cell_angle_gamma   106.63509347
_symmetry_Int_Tables_number   1
_chemical_formula_structural   Lu12Co2TcNi2Bi
_chemical_formula_sum   'Lu12 Co2 Tc1 Ni2 Bi1'
_cell_volume   415.85376710
_cell_formula_units_Z   1
loop_
 _symmetry_equiv_pos_site_id
 _symmetry_equiv_pos_as_xyz
  1  'x, y, z'
loop_
 _atom_site_type_symbol
 _atom_site_label
 _atom_site_symmetry_multiplicity
 _atom_site_fract_x
 _atom_site_fract_y
 _atom_site_fract_z
 _atom_site_occupancy
  Lu  Lu0  1  0.279685  0.179579  0.459263  1
  Lu  Lu1  1  0.720315  0.820421  0.540737  1
  Lu  Lu2  1  0.279685  0.820421  0.100107  1
  Lu  Lu3  1  0.720315  0.179579  0.899893  1
  Lu  Lu4  1  0.622740  0.312572  0.310168  1
  Lu  Lu5  1  0.377260  0.687428  0.689832  1
  Lu  Lu6  1  0.002404  0.312572  0.689832  1
  Lu  Lu7  1  0.997596  0.687428  0.310168  1
  Lu  Lu8  1  0.221301  0.416271  0.194969  1
  Lu  Lu9  1  0.778699  0.583729  0.805031  1
  Lu  Lu10  1  0.221301  0.026332  0.805031  1
  Lu  Lu11  1  0.778699  0.973668  0.194969  1
  Co  Co12  1  0.386654  0.886654  0.500000  1
  Co  Co13  1  0.613346  0.113346  0.500000  1
  Tc  Tc14  1  0.000000  0.000000  0.000000  1
  Ni  Ni15  1  0.000000  0.357706  0.357706  1
  Ni  Ni16  1  0.000000  0.642294  0.642294  1
  Bi  Bi17  1  0.500000  0.500000  0.000000  1
