# generated using pymatgen
data_Sc10SiBi5
_symmetry_space_group_name_H-M   'P 1'
_cell_length_a   7.68528600
_cell_length_b   8.89093600
_cell_length_c   11.28192100
_cell_angle_alpha   90.00000000
_cell_angle_beta   90.00000000
_cell_angle_gamma   90.00000000
_symmetry_Int_Tables_number   1
_chemical_formula_structural   Sc10SiBi5
_chemical_formula_sum   'Sc20 Si2 Bi10'
_cell_volume   770.88673447
_cell_formula_units_Z   2
loop_
 _symmetry_equiv_pos_site_id
 _symmetry_equiv_pos_as_xyz
  1  'x, y, z'
loop_
 _atom_site_type_symbol
 _atom_site_label
 _atom_site_symmetry_multiplicity
 _atom_site_fract_x
 _atom_site_fract_y
 _atom_site_fract_z
 _atom_site_occupancy
  Sc  Sc0  1  0.189624  0.043175  0.938331  1
  Sc  Sc1  1  0.310376  0.043175  0.438331  1
  Sc  Sc2  1  0.310376  0.456825  0.438331  1
  Sc  Sc3  1  0.328685  0.750000  0.715884  1
  Sc  Sc4  1  0.462645  0.750000  0.003630  1
  Sc  Sc5  1  0.162552  0.250000  0.217717  1
  Sc  Sc6  1  0.818742  0.925373  0.060876  1
  Sc  Sc7  1  0.642327  0.750000  0.296567  1
  Sc  Sc8  1  0.037355  0.750000  0.503630  1
  Sc  Sc9  1  0.681258  0.925373  0.560876  1
  Sc  Sc10  1  0.189624  0.456825  0.938331  1
  Sc  Sc11  1  0.337448  0.250000  0.717717  1
  Sc  Sc12  1  0.171315  0.750000  0.215884  1
  Sc  Sc13  1  0.984021  0.250000  0.493212  1
  Sc  Sc14  1  0.681258  0.574627  0.560876  1
  Sc  Sc15  1  0.680081  0.250000  0.269645  1
  Sc  Sc16  1  0.818742  0.574627  0.060876  1
  Sc  Sc17  1  0.515979  0.250000  0.993212  1
  Sc  Sc18  1  0.819919  0.250000  0.769645  1
  Sc  Sc19  1  0.857673  0.750000  0.796567  1
  Si  Si20  1  0.406777  0.750000  0.478248  1
  Si  Si21  1  0.093223  0.750000  0.978248  1
  Bi  Bi22  1  0.062517  0.491044  0.675785  1
  Bi  Bi23  1  0.564410  0.511737  0.824220  1
  Bi  Bi24  1  0.935590  0.988263  0.324220  1
  Bi  Bi25  1  0.437483  0.008956  0.175785  1
  Bi  Bi26  1  0.564410  0.988263  0.824220  1
  Bi  Bi27  1  0.437483  0.491044  0.175785  1
  Bi  Bi28  1  0.062517  0.008956  0.675785  1
  Bi  Bi29  1  0.935590  0.511737  0.324220  1
  Bi  Bi30  1  0.595788  0.250000  0.526673  1
  Bi  Bi31  1  0.904212  0.250000  0.026673  1
