# generated using pymatgen
data_LaThAl2Ga7Ir3
_symmetry_space_group_name_H-M   'P 1'
_cell_length_a   7.68879662
_cell_length_b   7.69118404
_cell_length_c   9.56618200
_cell_angle_alpha   90.00000000
_cell_angle_beta   90.00000000
_cell_angle_gamma   119.57265931
_symmetry_Int_Tables_number   1
_chemical_formula_structural   LaThAl2Ga7Ir3
_chemical_formula_sum   'La2 Th2 Al4 Ga14 Ir6'
_cell_volume   492.01113614
_cell_formula_units_Z   2
loop_
 _symmetry_equiv_pos_site_id
 _symmetry_equiv_pos_as_xyz
  1  'x, y, z'
loop_
 _atom_site_type_symbol
 _atom_site_label
 _atom_site_symmetry_multiplicity
 _atom_site_fract_x
 _atom_site_fract_y
 _atom_site_fract_z
 _atom_site_occupancy
  La  La0  1  0.669388  0.997679  0.250000  1
  La  La1  1  0.330612  0.002321  0.750000  1
  Th  Th2  1  0.998742  0.670165  0.250000  1
  Th  Th3  1  0.001258  0.329835  0.750000  1
  Al  Al4  1  0.335025  0.334071  0.549632  1
  Al  Al5  1  0.664975  0.665929  0.450368  1
  Al  Al6  1  0.664975  0.665929  0.049632  1
  Al  Al7  1  0.335025  0.334071  0.950368  1
  Ga  Ga8  1  0.131444  0.130693  0.250000  1
  Ga  Ga9  1  0.868556  0.869307  0.750000  1
  Ga  Ga10  1  0.002943  0.333568  0.078552  1
  Ga  Ga11  1  0.997057  0.666432  0.921448  1
  Ga  Ga12  1  0.997057  0.666432  0.578552  1
  Ga  Ga13  1  0.336767  0.004430  0.422887  1
  Ga  Ga14  1  0.002943  0.333568  0.421448  1
  Ga  Ga15  1  0.663233  0.995570  0.577113  1
  Ga  Ga16  1  0.663233  0.995570  0.922887  1
  Ga  Ga17  1  0.336767  0.004430  0.077113  1
  Ga  Ga18  1  0.345866  0.546890  0.250000  1
  Ga  Ga19  1  0.654134  0.453110  0.750000  1
  Ga  Ga20  1  0.547505  0.346861  0.250000  1
  Ga  Ga21  1  0.452495  0.653139  0.750000  1
  Ir  Ir22  1  0.672150  0.333716  0.000011  1
  Ir  Ir23  1  0.327850  0.666284  0.999989  1
  Ir  Ir24  1  0.327850  0.666284  0.500011  1
  Ir  Ir25  1  0.672150  0.333716  0.499989  1
  Ir  Ir26  1  0.000000  0.000000  0.000000  1
  Ir  Ir27  1  0.000000  0.000000  0.500000  1
