# generated using pymatgen
data_Li2CaSb2Pb
_symmetry_space_group_name_H-M   'P 1'
_cell_length_a   4.73666700
_cell_length_b   7.65738200
_cell_length_c   8.46684600
_cell_angle_alpha   90.00000000
_cell_angle_beta   90.00000000
_cell_angle_gamma   90.00000000
_symmetry_Int_Tables_number   1
_chemical_formula_structural   Li2CaSb2Pb
_chemical_formula_sum   'Li4 Ca2 Sb4 Pb2'
_cell_volume   307.09647220
_cell_formula_units_Z   2
loop_
 _symmetry_equiv_pos_site_id
 _symmetry_equiv_pos_as_xyz
  1  'x, y, z'
loop_
 _atom_site_type_symbol
 _atom_site_label
 _atom_site_symmetry_multiplicity
 _atom_site_fract_x
 _atom_site_fract_y
 _atom_site_fract_z
 _atom_site_occupancy
  Li  Li0  1  0.750000  0.858305  0.436483  1
  Li  Li1  1  0.250000  0.147335  0.583784  1
  Li  Li2  1  0.250000  0.647335  0.916216  1
  Li  Li3  1  0.750000  0.358305  0.063517  1
  Ca  Ca4  1  0.250000  0.506963  0.292840  1
  Ca  Ca5  1  0.250000  0.006963  0.207160  1
  Sb  Sb6  1  0.750000  0.734962  0.110574  1
  Sb  Sb7  1  0.250000  0.263829  0.913150  1
  Sb  Sb8  1  0.750000  0.234962  0.389426  1
  Sb  Sb9  1  0.250000  0.763829  0.586850  1
  Pb  Pb10  1  0.750000  0.488606  0.680788  1
  Pb  Pb11  1  0.750000  0.988606  0.819212  1
