# generated using pymatgen
data_Dy17Er(TmSn8)2
_symmetry_space_group_name_H-M   'P 1'
_cell_length_a   8.02913402
_cell_length_b   8.15497102
_cell_length_c   15.44246600
_cell_angle_alpha   90.00000000
_cell_angle_beta   90.00000000
_cell_angle_gamma   89.99251584
_symmetry_Int_Tables_number   1
_chemical_formula_structural   Dy17Er(TmSn8)2
_chemical_formula_sum   'Dy17 Er1 Tm2 Sn16'
_cell_volume   1011.13182289
_cell_formula_units_Z   1
loop_
 _symmetry_equiv_pos_site_id
 _symmetry_equiv_pos_as_xyz
  1  'x, y, z'
loop_
 _atom_site_type_symbol
 _atom_site_label
 _atom_site_symmetry_multiplicity
 _atom_site_fract_x
 _atom_site_fract_y
 _atom_site_fract_z
 _atom_site_occupancy
  Dy  Dy0  1  0.367628  0.837243  0.877554  1
  Dy  Dy1  1  0.867629  0.662766  0.622435  1
  Dy  Dy2  1  0.632455  0.162921  0.378067  1
  Dy  Dy3  1  0.132348  0.337165  0.121931  1
  Dy  Dy4  1  0.632455  0.162921  0.121933  1
  Dy  Dy5  1  0.132348  0.337165  0.378069  1
  Dy  Dy6  1  0.367628  0.837243  0.622446  1
  Dy  Dy7  1  0.867629  0.662766  0.877565  1
  Dy  Dy8  1  0.520728  0.320725  0.902410  1
  Dy  Dy9  1  0.020742  0.179266  0.597597  1
  Dy  Dy10  1  0.479412  0.679249  0.402763  1
  Dy  Dy11  1  0.979358  0.820703  0.097232  1
  Dy  Dy12  1  0.479412  0.679249  0.097237  1
  Dy  Dy13  1  0.979358  0.820703  0.402768  1
  Dy  Dy14  1  0.520728  0.320725  0.597590  1
  Dy  Dy15  1  0.020742  0.179266  0.902403  1
  Dy  Dy16  1  0.301120  0.002869  0.250000  1
  Er  Er17  1  0.800961  0.497125  0.250000  1
  Tm  Tm18  1  0.198827  0.502934  0.750000  1
  Tm  Tm19  1  0.698828  0.997052  0.750000  1
  Sn  Sn20  1  0.292898  0.036779  0.041508  1
  Sn  Sn21  1  0.792896  0.463218  0.458406  1
  Sn  Sn22  1  0.707350  0.963677  0.542485  1
  Sn  Sn23  1  0.207344  0.536335  0.957515  1
  Sn  Sn24  1  0.707350  0.963677  0.957515  1
  Sn  Sn25  1  0.207344  0.536335  0.542485  1
  Sn  Sn26  1  0.292898  0.036779  0.458492  1
  Sn  Sn27  1  0.792896  0.463218  0.041594  1
  Sn  Sn28  1  0.564473  0.618341  0.750000  1
  Sn  Sn29  1  0.064440  0.881642  0.750000  1
  Sn  Sn30  1  0.434887  0.381188  0.250000  1
  Sn  Sn31  1  0.934618  0.118985  0.250000  1
  Sn  Sn32  1  0.330129  0.148993  0.750000  1
  Sn  Sn33  1  0.830091  0.351052  0.750000  1
  Sn  Sn34  1  0.670077  0.852108  0.250000  1
  Sn  Sn35  1  0.169975  0.647615  0.250000  1
