# generated using pymatgen
data_CsRb15(HfSe4)4
_symmetry_space_group_name_H-M   'P 1'
_cell_length_a   8.99738787
_cell_length_b   10.65350353
_cell_length_c   15.83708400
_cell_angle_alpha   89.46372407
_cell_angle_beta   89.65844783
_cell_angle_gamma   90.32130390
_symmetry_Int_Tables_number   1
_chemical_formula_structural   CsRb15(HfSe4)4
_chemical_formula_sum   'Cs1 Rb15 Hf4 Se16'
_cell_volume   1517.92533810
_cell_formula_units_Z   1
loop_
 _symmetry_equiv_pos_site_id
 _symmetry_equiv_pos_as_xyz
  1  'x, y, z'
loop_
 _atom_site_type_symbol
 _atom_site_label
 _atom_site_symmetry_multiplicity
 _atom_site_fract_x
 _atom_site_fract_y
 _atom_site_fract_z
 _atom_site_occupancy
  Cs  Cs0  1  0.340033  0.558378  0.218642  1
  Rb  Rb1  1  0.999249  0.999957  0.999968  1
  Rb  Rb2  1  0.500584  0.999995  0.499897  1
  Rb  Rb3  1  0.001307  0.499292  0.999089  1
  Rb  Rb4  1  0.499577  0.499659  0.500575  1
  Rb  Rb5  1  0.981649  0.749627  0.429869  1
  Rb  Rb6  1  0.482697  0.249896  0.069681  1
  Rb  Rb7  1  0.017279  0.249468  0.571443  1
  Rb  Rb8  1  0.518370  0.749638  0.929764  1
  Rb  Rb9  1  0.843965  0.054385  0.277201  1
  Rb  Rb10  1  0.344302  0.947121  0.223450  1
  Rb  Rb11  1  0.154598  0.555063  0.722552  1
  Rb  Rb12  1  0.656052  0.444481  0.778020  1
  Rb  Rb13  1  0.155572  0.945505  0.722832  1
  Rb  Rb14  1  0.655452  0.054447  0.776398  1
  Rb  Rb15  1  0.844746  0.444633  0.277608  1
  Hf  Hf16  1  0.753236  0.750054  0.666999  1
  Hf  Hf17  1  0.245444  0.248195  0.334211  1
  Hf  Hf18  1  0.747355  0.751660  0.166187  1
  Hf  Hf19  1  0.253720  0.249913  0.833172  1
  Se  Se20  1  0.972270  0.248979  0.824994  1
  Se  Se21  1  0.526801  0.248268  0.324391  1
  Se  Se22  1  0.471682  0.750635  0.676034  1
  Se  Se23  1  0.027386  0.757376  0.174101  1
  Se  Se24  1  0.667210  0.554941  0.091000  1
  Se  Se25  1  0.156910  0.441694  0.409887  1
  Se  Se26  1  0.341242  0.054140  0.907819  1
  Se  Se27  1  0.842178  0.946247  0.591694  1
  Se  Se28  1  0.341418  0.445099  0.907605  1
  Se  Se29  1  0.840467  0.554851  0.592823  1
  Se  Se30  1  0.656648  0.946228  0.091562  1
  Se  Se31  1  0.158702  0.051406  0.409067  1
  Se  Se32  1  0.639637  0.750149  0.314923  1
  Se  Se33  1  0.134764  0.247843  0.186766  1
  Se  Se34  1  0.364462  0.251529  0.685180  1
  Se  Se35  1  0.863038  0.749252  0.814597  1
