# generated using pymatgen
data_DyMg(AlPt)2
_symmetry_space_group_name_H-M   'P 1'
_cell_length_a   4.20560500
_cell_length_b   6.77587384
_cell_length_c   7.85138400
_cell_angle_alpha   85.07789541
_cell_angle_beta   90.00000000
_cell_angle_gamma   90.00000000
_symmetry_Int_Tables_number   1
_chemical_formula_structural   DyMg(AlPt)2
_chemical_formula_sum   'Dy2 Mg2 Al4 Pt4'
_cell_volume   222.91304695
_cell_formula_units_Z   2
loop_
 _symmetry_equiv_pos_site_id
 _symmetry_equiv_pos_as_xyz
  1  'x, y, z'
loop_
 _atom_site_type_symbol
 _atom_site_label
 _atom_site_symmetry_multiplicity
 _atom_site_fract_x
 _atom_site_fract_y
 _atom_site_fract_z
 _atom_site_occupancy
  Dy  Dy0  1  0.750000  0.030401  0.683577  1
  Dy  Dy1  1  0.250000  0.969599  0.316423  1
  Mg  Mg2  1  0.250000  0.469957  0.168528  1
  Mg  Mg3  1  0.750000  0.530043  0.831472  1
  Al  Al4  1  0.250000  0.846729  0.938865  1
  Al  Al5  1  0.750000  0.153271  0.061135  1
  Al  Al6  1  0.750000  0.635537  0.443711  1
  Al  Al7  1  0.250000  0.364463  0.556289  1
  Pt  Pt8  1  0.250000  0.719761  0.632772  1
  Pt  Pt9  1  0.750000  0.280239  0.367228  1
  Pt  Pt10  1  0.750000  0.763147  0.118454  1
  Pt  Pt11  1  0.250000  0.236853  0.881546  1
