# generated using pymatgen
data_Er10Cd3Ir
_symmetry_space_group_name_H-M   'P 1'
_cell_length_a   9.54334200
_cell_length_b   9.54334234
_cell_length_c   9.77969000
_cell_angle_alpha   90.00000000
_cell_angle_beta   90.00000000
_cell_angle_gamma   119.99999883
_symmetry_Int_Tables_number   1
_chemical_formula_structural   Er10Cd3Ir
_chemical_formula_sum   'Er20 Cd6 Ir2'
_cell_volume   771.35929327
_cell_formula_units_Z   2
loop_
 _symmetry_equiv_pos_site_id
 _symmetry_equiv_pos_as_xyz
  1  'x, y, z'
loop_
 _atom_site_type_symbol
 _atom_site_label
 _atom_site_symmetry_multiplicity
 _atom_site_fract_x
 _atom_site_fract_y
 _atom_site_fract_z
 _atom_site_occupancy
  Er  Er0  1  0.000000  0.000000  0.500000  1
  Er  Er1  1  0.000000  0.000000  0.000000  1
  Er  Er2  1  0.541059  0.458941  0.250000  1
  Er  Er3  1  0.541059  0.082119  0.250000  1
  Er  Er4  1  0.917881  0.458941  0.250000  1
  Er  Er5  1  0.458941  0.541059  0.750000  1
  Er  Er6  1  0.458941  0.917881  0.750000  1
  Er  Er7  1  0.082119  0.541059  0.750000  1
  Er  Er8  1  0.209643  0.790357  0.441464  1
  Er  Er9  1  0.209643  0.419287  0.441464  1
  Er  Er10  1  0.580713  0.790357  0.441464  1
  Er  Er11  1  0.790357  0.209643  0.558536  1
  Er  Er12  1  0.790357  0.580713  0.558536  1
  Er  Er13  1  0.419287  0.209643  0.558536  1
  Er  Er14  1  0.790357  0.209643  0.941464  1
  Er  Er15  1  0.790357  0.580713  0.941464  1
  Er  Er16  1  0.419287  0.209643  0.941464  1
  Er  Er17  1  0.209643  0.790357  0.058536  1
  Er  Er18  1  0.209643  0.419287  0.058536  1
  Er  Er19  1  0.580713  0.790357  0.058536  1
  Cd  Cd20  1  0.885428  0.114572  0.250000  1
  Cd  Cd21  1  0.885428  0.770855  0.250000  1
  Cd  Cd22  1  0.229145  0.114572  0.250000  1
  Cd  Cd23  1  0.114572  0.885428  0.750000  1
  Cd  Cd24  1  0.114572  0.229145  0.750000  1
  Cd  Cd25  1  0.770855  0.885428  0.750000  1
  Ir  Ir26  1  0.333333  0.666667  0.250000  1
  Ir  Ir27  1  0.666667  0.333333  0.750000  1
