# generated using pymatgen
data_Tb5CeZn4Pt13
_symmetry_space_group_name_H-M   'P 1'
_cell_length_a   8.29956472
_cell_length_b   8.29955992
_cell_length_c   8.29955900
_cell_angle_alpha   109.50716236
_cell_angle_beta   109.45117672
_cell_angle_gamma   109.45118540
_symmetry_Int_Tables_number   1
_chemical_formula_structural   Tb5CeZn4Pt13
_chemical_formula_sum   'Tb5 Ce1 Zn4 Pt13'
_cell_volume   440.11439822
_cell_formula_units_Z   1
loop_
 _symmetry_equiv_pos_site_id
 _symmetry_equiv_pos_as_xyz
  1  'x, y, z'
loop_
 _atom_site_type_symbol
 _atom_site_label
 _atom_site_symmetry_multiplicity
 _atom_site_fract_x
 _atom_site_fract_y
 _atom_site_fract_z
 _atom_site_occupancy
  Tb  Tb0  1  0.698331  0.698985  0.000645  1
  Tb  Tb1  1  0.301681  0.000676  0.302328  1
  Tb  Tb2  1  0.000022  0.300633  0.300633  1
  Tb  Tb3  1  0.301681  0.302328  0.000676  1
  Tb  Tb4  1  0.698331  0.000645  0.698985  1
  Ce  Ce5  1  0.999934  0.700192  0.700192  1
  Zn  Zn6  1  0.000009  0.000041  0.497466  1
  Zn  Zn7  1  0.000009  0.497466  0.000041  1
  Zn  Zn8  1  0.502564  0.000033  0.000033  1
  Zn  Zn9  1  0.497422  0.497467  0.497467  1
  Pt  Pt10  1  0.330605  0.330897  0.661506  1
  Pt  Pt11  1  0.669444  0.000294  0.330847  1
  Pt  Pt12  1  0.999997  0.669020  0.331217  1
  Pt  Pt13  1  0.669444  0.330847  0.000294  1
  Pt  Pt14  1  0.330605  0.661506  0.330897  1
  Pt  Pt15  1  0.999997  0.331217  0.669020  1
  Pt  Pt16  1  0.331749  0.669053  0.000809  1
  Pt  Pt17  1  0.331749  0.000809  0.669053  1
  Pt  Pt18  1  0.662283  0.331259  0.331259  1
  Pt  Pt19  1  0.668211  0.669028  0.337232  1
  Pt  Pt20  1  0.668211  0.337232  0.669028  1
  Pt  Pt21  1  0.337724  0.668985  0.668985  1
  Pt  Pt22  1  0.000002  0.001385  0.001385  1
