# generated using pymatgen
data_Tb9Y7CdNi4Ag3
_symmetry_space_group_name_H-M   'P 1'
_cell_length_a   9.49048331
_cell_length_b   9.52254025
_cell_length_c   9.51830100
_cell_angle_alpha   60.01472190
_cell_angle_beta   59.90298859
_cell_angle_gamma   59.96249304
_symmetry_Int_Tables_number   1
_chemical_formula_structural   Tb9Y7CdNi4Ag3
_chemical_formula_sum   'Tb9 Y7 Cd1 Ni4 Ag3'
_cell_volume   607.70286713
_cell_formula_units_Z   1
loop_
 _symmetry_equiv_pos_site_id
 _symmetry_equiv_pos_as_xyz
  1  'x, y, z'
loop_
 _atom_site_type_symbol
 _atom_site_label
 _atom_site_symmetry_multiplicity
 _atom_site_fract_x
 _atom_site_fract_y
 _atom_site_fract_z
 _atom_site_occupancy
  Tb  Tb0  1  0.600664  0.599329  0.599180  1
  Tb  Tb1  1  0.600664  0.599329  0.200827  1
  Tb  Tb2  1  0.600640  0.200900  0.599230  1
  Tb  Tb3  1  0.197075  0.601042  0.600941  1
  Tb  Tb4  1  0.060405  0.439166  0.439102  1
  Tb  Tb5  1  0.438422  0.060994  0.061284  1
  Tb  Tb6  1  0.438422  0.060994  0.439301  1
  Tb  Tb7  1  0.060405  0.439166  0.061327  1
  Tb  Tb8  1  0.438295  0.439283  0.061211  1
  Y  Y9  1  0.060479  0.061077  0.439222  1
  Y  Y10  1  0.183517  0.814298  0.814458  1
  Y  Y11  1  0.814427  0.185627  0.185693  1
  Y  Y12  1  0.814427  0.185627  0.814253  1
  Y  Y13  1  0.183517  0.814298  0.187728  1
  Y  Y14  1  0.814398  0.814142  0.185730  1
  Y  Y15  1  0.183618  0.187647  0.814368  1
  Cd  Cd16  1  0.514351  0.828600  0.828524  1
  Ni  Ni17  1  0.392283  0.392979  0.392968  1
  Ni  Ni18  1  0.392283  0.392979  0.821772  1
  Ni  Ni19  1  0.392982  0.821361  0.392830  1
  Ni  Ni20  1  0.821909  0.393278  0.392406  1
  Ag  Ag21  1  0.832289  0.832421  0.832261  1
  Ag  Ag22  1  0.832289  0.832421  0.503030  1
  Ag  Ag23  1  0.832242  0.503047  0.832355  1
