# generated using pymatgen
data_TmLu5(TcB7)2
_symmetry_space_group_name_H-M   'P 1'
_cell_length_a   7.92363802
_cell_length_b   7.92363937
_cell_length_c   9.22727200
_cell_angle_alpha   90.00000000
_cell_angle_beta   90.00000000
_cell_angle_gamma   154.61409688
_symmetry_Int_Tables_number   1
_chemical_formula_structural   TmLu5(TcB7)2
_chemical_formula_sum   'Tm1 Lu5 Tc2 B14'
_cell_volume   248.36429917
_cell_formula_units_Z   1
loop_
 _symmetry_equiv_pos_site_id
 _symmetry_equiv_pos_as_xyz
  1  'x, y, z'
loop_
 _atom_site_type_symbol
 _atom_site_label
 _atom_site_symmetry_multiplicity
 _atom_site_fract_x
 _atom_site_fract_y
 _atom_site_fract_z
 _atom_site_occupancy
  Tm  Tm0  1  0.756785  0.243215  0.750000  1
  Lu  Lu1  1  0.894719  0.105281  0.440488  1
  Lu  Lu2  1  0.105184  0.894816  0.559056  1
  Lu  Lu3  1  0.894719  0.105281  0.059512  1
  Lu  Lu4  1  0.105184  0.894816  0.940944  1
  Lu  Lu5  1  0.242684  0.757316  0.250000  1
  Tc  Tc6  1  0.052304  0.947696  0.250000  1
  Tc  Tc7  1  0.947861  0.052139  0.750000  1
  B  B8  1  0.727631  0.272369  0.465944  1
  B  B9  1  0.272434  0.727566  0.532825  1
  B  B10  1  0.727631  0.272369  0.034056  1
  B  B11  1  0.272434  0.727566  0.967175  1
  B  B12  1  0.632497  0.367503  0.150375  1
  B  B13  1  0.367635  0.632365  0.849885  1
  B  B14  1  0.632497  0.367503  0.349625  1
  B  B15  1  0.367635  0.632365  0.650115  1
  B  B16  1  0.519751  0.480249  0.094417  1
  B  B17  1  0.480279  0.519721  0.905604  1
  B  B18  1  0.519751  0.480249  0.405583  1
  B  B19  1  0.480279  0.519721  0.594396  1
  B  B20  1  0.453671  0.546329  0.250000  1
  B  B21  1  0.546435  0.453565  0.750000  1
