# generated using pymatgen
data_Li2TbY17(Cd3Ru)2
_symmetry_space_group_name_H-M   'P 1'
_cell_length_a   9.49575991
_cell_length_b   9.49576013
_cell_length_c   9.76203417
_cell_angle_alpha   90.04858208
_cell_angle_beta   89.95141675
_cell_angle_gamma   119.98704181
_symmetry_Int_Tables_number   1
_chemical_formula_structural   Li2TbY17(Cd3Ru)2
_chemical_formula_sum   'Li2 Tb1 Y17 Cd6 Ru2'
_cell_volume   762.40704645
_cell_formula_units_Z   1
loop_
 _symmetry_equiv_pos_site_id
 _symmetry_equiv_pos_as_xyz
  1  'x, y, z'
loop_
 _atom_site_type_symbol
 _atom_site_label
 _atom_site_symmetry_multiplicity
 _atom_site_fract_x
 _atom_site_fract_y
 _atom_site_fract_z
 _atom_site_occupancy
  Li  Li0  1  0.999922  0.000078  0.500045  1
  Li  Li1  1  0.999983  0.000017  0.000025  1
  Tb  Tb2  1  0.208282  0.791718  0.440969  1
  Y  Y3  1  0.208014  0.415915  0.441497  1
  Y  Y4  1  0.584085  0.791986  0.441497  1
  Y  Y5  1  0.791951  0.208049  0.558564  1
  Y  Y6  1  0.791968  0.583900  0.558567  1
  Y  Y7  1  0.416100  0.208032  0.558567  1
  Y  Y8  1  0.791953  0.208047  0.941411  1
  Y  Y9  1  0.792001  0.583942  0.941414  1
  Y  Y10  1  0.416058  0.207999  0.941414  1
  Y  Y11  1  0.208009  0.791991  0.058486  1
  Y  Y12  1  0.208052  0.416011  0.058520  1
  Y  Y13  1  0.583989  0.791948  0.058520  1
  Y  Y14  1  0.542439  0.457561  0.249925  1
  Y  Y15  1  0.542420  0.084859  0.250034  1
  Y  Y16  1  0.915141  0.457580  0.250034  1
  Y  Y17  1  0.457590  0.542410  0.750007  1
  Y  Y18  1  0.457645  0.915172  0.749979  1
  Y  Y19  1  0.084828  0.542355  0.749979  1
  Cd  Cd20  1  0.891664  0.108336  0.250042  1
  Cd  Cd21  1  0.891538  0.783200  0.249949  1
  Cd  Cd22  1  0.216800  0.108462  0.249949  1
  Cd  Cd23  1  0.108303  0.891697  0.750169  1
  Cd  Cd24  1  0.108352  0.216681  0.749992  1
  Cd  Cd25  1  0.783319  0.891648  0.749992  1
  Ru  Ru26  1  0.332918  0.667082  0.250501  1
  Ru  Ru27  1  0.666675  0.333325  0.749954  1
