# generated using pymatgen
data_KZrCrS4
_symmetry_space_group_name_H-M   'P 1'
_cell_length_a   3.67308000
_cell_length_b   7.91930184
_cell_length_c   6.11407941
_cell_angle_alpha   75.44257019
_cell_angle_beta   90.00000000
_cell_angle_gamma   90.00000000
_symmetry_Int_Tables_number   1
_chemical_formula_structural   KZrCrS4
_chemical_formula_sum   'K1 Zr1 Cr1 S4'
_cell_volume   172.13815260
_cell_formula_units_Z   1
loop_
 _symmetry_equiv_pos_site_id
 _symmetry_equiv_pos_as_xyz
  1  'x, y, z'
loop_
 _atom_site_type_symbol
 _atom_site_label
 _atom_site_symmetry_multiplicity
 _atom_site_fract_x
 _atom_site_fract_y
 _atom_site_fract_z
 _atom_site_occupancy
  K  K0  1  0.500000  0.493923  0.647787  1
  Zr  Zr1  1  0.000000  0.000067  0.002682  1
  Cr  Cr2  1  0.500000  0.001701  0.503971  1
  S  S3  1  0.000000  0.822374  0.415295  1
  S  S4  1  0.500000  0.811314  0.887868  1
  S  S5  1  0.000000  0.180550  0.589925  1
  S  S6  1  0.500000  0.189191  0.119431  1
