# generated using pymatgen
data_Cs6As4W
_symmetry_space_group_name_H-M   'P 1'
_cell_length_a   11.12951300
_cell_length_b   11.12951226
_cell_length_c   8.96239200
_cell_angle_alpha   90.00000000
_cell_angle_beta   90.00000000
_cell_angle_gamma   119.99999329
_symmetry_Int_Tables_number   1
_chemical_formula_structural   Cs6As4W
_chemical_formula_sum   'Cs12 As8 W2'
_cell_volume   961.40613611
_cell_formula_units_Z   2
loop_
 _symmetry_equiv_pos_site_id
 _symmetry_equiv_pos_as_xyz
  1  'x, y, z'
loop_
 _atom_site_type_symbol
 _atom_site_label
 _atom_site_symmetry_multiplicity
 _atom_site_fract_x
 _atom_site_fract_y
 _atom_site_fract_z
 _atom_site_occupancy
  Cs  Cs0  1  0.145810  0.291622  0.288283  1
  Cs  Cs1  1  0.854190  0.145810  0.788283  1
  Cs  Cs2  1  0.533773  0.466227  0.103185  1
  Cs  Cs3  1  0.067545  0.533773  0.603185  1
  Cs  Cs4  1  0.466227  0.932455  0.603185  1
  Cs  Cs5  1  0.533773  0.067545  0.103185  1
  Cs  Cs6  1  0.932455  0.466227  0.103185  1
  Cs  Cs7  1  0.466227  0.533773  0.603185  1
  Cs  Cs8  1  0.145810  0.854190  0.288283  1
  Cs  Cs9  1  0.708378  0.854190  0.288283  1
  Cs  Cs10  1  0.854190  0.708378  0.788283  1
  Cs  Cs11  1  0.291622  0.145810  0.788283  1
  As  As12  1  0.786903  0.573806  0.411665  1
  As  As13  1  0.426194  0.213097  0.411665  1
  As  As14  1  0.333333  0.666667  0.268169  1
  As  As15  1  0.666667  0.333333  0.768169  1
  As  As16  1  0.786903  0.213097  0.411665  1
  As  As17  1  0.213097  0.786903  0.911665  1
  As  As18  1  0.213097  0.426194  0.911665  1
  As  As19  1  0.573806  0.786903  0.911665  1
  W  W20  1  0.666667  0.333333  0.497329  1
  W  W21  1  0.333333  0.666667  0.997329  1
