# generated using pymatgen
data_Tb5Er15Co3Bi8Os
_symmetry_space_group_name_H-M   'P 1'
_cell_length_a   7.94174846
_cell_length_b   8.92478100
_cell_length_c   12.40995067
_cell_angle_alpha   90.00000000
_cell_angle_beta   90.19335549
_cell_angle_gamma   90.00000000
_symmetry_Int_Tables_number   1
_chemical_formula_structural   Tb5Er15Co3Bi8Os
_chemical_formula_sum   'Tb5 Er15 Co3 Bi8 Os1'
_cell_volume   879.59201371
_cell_formula_units_Z   1
loop_
 _symmetry_equiv_pos_site_id
 _symmetry_equiv_pos_as_xyz
  1  'x, y, z'
loop_
 _atom_site_type_symbol
 _atom_site_label
 _atom_site_symmetry_multiplicity
 _atom_site_fract_x
 _atom_site_fract_y
 _atom_site_fract_z
 _atom_site_occupancy
  Tb  Tb0  1  0.349147  0.250000  0.699944  1
  Tb  Tb1  1  0.616003  0.250000  0.312188  1
  Tb  Tb2  1  0.882454  0.250000  0.813085  1
  Tb  Tb3  1  0.056625  0.250000  0.495796  1
  Tb  Tb4  1  0.446380  0.250000  0.997294  1
  Er  Er5  1  0.846710  0.750000  0.799580  1
  Er  Er6  1  0.150089  0.250000  0.197311  1
  Er  Er7  1  0.655463  0.750000  0.293574  1
  Er  Er8  1  0.380308  0.750000  0.693351  1
  Er  Er9  1  0.115664  0.750000  0.185467  1
  Er  Er10  1  0.943796  0.750000  0.503196  1
  Er  Er11  1  0.552560  0.750000  0.002376  1
  Er  Er12  1  0.674932  0.038598  0.565031  1
  Er  Er13  1  0.325809  0.959152  0.435739  1
  Er  Er14  1  0.173323  0.961004  0.936911  1
  Er  Er15  1  0.325809  0.540848  0.435739  1
  Er  Er16  1  0.825798  0.034346  0.063618  1
  Er  Er17  1  0.674932  0.461402  0.565031  1
  Er  Er18  1  0.825798  0.465654  0.063618  1
  Er  Er19  1  0.173323  0.538996  0.936911  1
  Co  Co20  1  0.433796  0.250000  0.492509  1
  Co  Co21  1  0.060489  0.250000  0.993614  1
  Co  Co22  1  0.935968  0.750000  0.006740  1
  Bi  Bi23  1  0.571060  0.493087  0.828274  1
  Bi  Bi24  1  0.427865  0.509033  0.173067  1
  Bi  Bi25  1  0.070453  0.509295  0.673671  1
  Bi  Bi26  1  0.427865  0.990967  0.173067  1
  Bi  Bi27  1  0.932121  0.492850  0.326000  1
  Bi  Bi28  1  0.571060  0.006913  0.828274  1
  Bi  Bi29  1  0.932121  0.007150  0.326000  1
  Bi  Bi30  1  0.070453  0.990705  0.673671  1
  Os  Os31  1  0.571831  0.750000  0.509352  1
