# generated using pymatgen
data_Pa6BeFe17P12
_symmetry_space_group_name_H-M   'P 1'
_cell_length_a   3.73063500
_cell_length_b   10.57093500
_cell_length_c   12.18284800
_cell_angle_alpha   90.00000000
_cell_angle_beta   90.00000000
_cell_angle_gamma   90.00000000
_symmetry_Int_Tables_number   1
_chemical_formula_structural   Pa6BeFe17P12
_chemical_formula_sum   'Pa6 Be1 Fe17 P12'
_cell_volume   480.44644972
_cell_formula_units_Z   1
loop_
 _symmetry_equiv_pos_site_id
 _symmetry_equiv_pos_as_xyz
  1  'x, y, z'
loop_
 _atom_site_type_symbol
 _atom_site_label
 _atom_site_symmetry_multiplicity
 _atom_site_fract_x
 _atom_site_fract_y
 _atom_site_fract_z
 _atom_site_occupancy
  Pa  Pa0  1  0.000000  0.500000  0.524770  1
  Pa  Pa1  1  0.500000  0.000000  0.482040  1
  Pa  Pa2  1  0.500000  0.812255  0.203131  1
  Pa  Pa3  1  0.500000  0.187745  0.203131  1
  Pa  Pa4  1  0.000000  0.682159  0.793613  1
  Pa  Pa5  1  0.000000  0.317841  0.793613  1
  Be  Be6  1  0.000000  0.000000  0.297806  1
  Fe  Fe7  1  0.500000  0.500000  0.151625  1
  Fe  Fe8  1  0.000000  0.000000  0.850482  1
  Fe  Fe9  1  0.500000  0.500000  0.700255  1
  Fe  Fe10  1  0.000000  0.500000  0.984025  1
  Fe  Fe11  1  0.500000  0.000000  0.016950  1
  Fe  Fe12  1  0.500000  0.333392  0.992024  1
  Fe  Fe13  1  0.500000  0.666608  0.992024  1
  Fe  Fe14  1  0.000000  0.165478  0.011262  1
  Fe  Fe15  1  0.000000  0.834522  0.011262  1
  Fe  Fe16  1  0.500000  0.300012  0.427062  1
  Fe  Fe17  1  0.500000  0.699988  0.427062  1
  Fe  Fe18  1  0.000000  0.193035  0.569214  1
  Fe  Fe19  1  0.000000  0.806965  0.569214  1
  Fe  Fe20  1  0.500000  0.879644  0.716999  1
  Fe  Fe21  1  0.500000  0.120356  0.716999  1
  Fe  Fe22  1  0.000000  0.622915  0.282550  1
  Fe  Fe23  1  0.000000  0.377085  0.282550  1
  P  P24  1  0.500000  0.500000  0.884404  1
  P  P25  1  0.000000  0.000000  0.119481  1
  P  P26  1  0.500000  0.500000  0.338169  1
  P  P27  1  0.000000  0.000000  0.665809  1
  P  P28  1  0.500000  0.302653  0.611965  1
  P  P29  1  0.500000  0.697347  0.611965  1
  P  P30  1  0.000000  0.191464  0.384942  1
  P  P31  1  0.000000  0.808536  0.384942  1
  P  P32  1  0.500000  0.847657  0.899382  1
  P  P33  1  0.500000  0.152343  0.899382  1
  P  P34  1  0.000000  0.650311  0.099947  1
  P  P35  1  0.000000  0.349689  0.099947  1
