# generated using pymatgen
data_ReIr4Ru2W
_symmetry_space_group_name_H-M   'P 1'
_cell_length_a   5.52966807
_cell_length_b   5.52966784
_cell_length_c   4.40087900
_cell_angle_alpha   90.00000000
_cell_angle_beta   90.00000000
_cell_angle_gamma   120.40224183
_symmetry_Int_Tables_number   1
_chemical_formula_structural   ReIr4Ru2W
_chemical_formula_sum   'Re1 Ir4 Ru2 W1'
_cell_volume   116.06293578
_cell_formula_units_Z   1
loop_
 _symmetry_equiv_pos_site_id
 _symmetry_equiv_pos_as_xyz
  1  'x, y, z'
loop_
 _atom_site_type_symbol
 _atom_site_label
 _atom_site_symmetry_multiplicity
 _atom_site_fract_x
 _atom_site_fract_y
 _atom_site_fract_z
 _atom_site_occupancy
  Re  Re0  1  0.667594  0.332406  0.250000  1
  Ir  Ir1  1  0.164664  0.330802  0.250000  1
  Ir  Ir2  1  0.669198  0.835336  0.250000  1
  Ir  Ir3  1  0.833120  0.664216  0.750000  1
  Ir  Ir4  1  0.335784  0.166880  0.750000  1
  Ru  Ru5  1  0.165851  0.834149  0.250000  1
  Ru  Ru6  1  0.831490  0.168510  0.750000  1
  W  W7  1  0.332298  0.667702  0.750000  1
