# generated using pymatgen
data_Li4Ca2Dy2Si7Ge
_symmetry_space_group_name_H-M   'P 1'
_cell_length_a   3.80288300
_cell_length_b   7.80761221
_cell_length_c   10.44827327
_cell_angle_alpha   89.37433216
_cell_angle_beta   90.00000000
_cell_angle_gamma   90.00000000
_symmetry_Int_Tables_number   1
_chemical_formula_structural   Li4Ca2Dy2Si7Ge
_chemical_formula_sum   'Li4 Ca2 Dy2 Si7 Ge1'
_cell_volume   310.20573842
_cell_formula_units_Z   1
loop_
 _symmetry_equiv_pos_site_id
 _symmetry_equiv_pos_as_xyz
  1  'x, y, z'
loop_
 _atom_site_type_symbol
 _atom_site_label
 _atom_site_symmetry_multiplicity
 _atom_site_fract_x
 _atom_site_fract_y
 _atom_site_fract_z
 _atom_site_occupancy
  Li  Li0  1  0.250000  0.998534  0.390587  1
  Li  Li1  1  0.750000  0.000876  0.610146  1
  Li  Li2  1  0.250000  0.492427  0.110738  1
  Li  Li3  1  0.750000  0.510340  0.888815  1
  Ca  Ca4  1  0.250000  0.636355  0.634369  1
  Ca  Ca5  1  0.750000  0.363534  0.366359  1
  Dy  Dy6  1  0.250000  0.128219  0.863115  1
  Dy  Dy7  1  0.750000  0.868878  0.135200  1
  Si  Si8  1  0.250000  0.738246  0.937623  1
  Si  Si9  1  0.750000  0.773038  0.426220  1
  Si  Si10  1  0.250000  0.226863  0.573874  1
  Si  Si11  1  0.750000  0.843020  0.826702  1
  Si  Si12  1  0.250000  0.153942  0.176365  1
  Si  Si13  1  0.750000  0.331021  0.683957  1
  Si  Si14  1  0.250000  0.668436  0.316444  1
  Ge  Ge15  1  0.750000  0.266270  0.059486  1
