# generated using pymatgen
data_DyHo2Zn2B4Ir9
_symmetry_space_group_name_H-M   'P 1'
_cell_length_a   5.53567500
_cell_length_b   5.53567510
_cell_length_c   10.12075300
_cell_angle_alpha   90.00000000
_cell_angle_beta   90.00000000
_cell_angle_gamma   120.00000540
_symmetry_Int_Tables_number   1
_chemical_formula_structural   DyHo2Zn2B4Ir9
_chemical_formula_sum   'Dy1 Ho2 Zn2 B4 Ir9'
_cell_volume   268.58676663
_cell_formula_units_Z   1
loop_
 _symmetry_equiv_pos_site_id
 _symmetry_equiv_pos_as_xyz
  1  'x, y, z'
loop_
 _atom_site_type_symbol
 _atom_site_label
 _atom_site_symmetry_multiplicity
 _atom_site_fract_x
 _atom_site_fract_y
 _atom_site_fract_z
 _atom_site_occupancy
  Dy  Dy0  1  0.000000  0.000000  0.000000  1
  Ho  Ho1  1  0.000000  0.000000  0.659802  1
  Ho  Ho2  1  0.000000  0.000000  0.340198  1
  Zn  Zn3  1  0.333333  0.666667  0.000000  1
  Zn  Zn4  1  0.666667  0.333333  0.000000  1
  B  B5  1  0.333333  0.666667  0.653130  1
  B  B6  1  0.666667  0.333333  0.653130  1
  B  B7  1  0.666667  0.333333  0.346870  1
  B  B8  1  0.333333  0.666667  0.346870  1
  Ir  Ir9  1  0.500000  0.500000  0.500000  1
  Ir  Ir10  1  0.000000  0.500000  0.500000  1
  Ir  Ir11  1  0.500000  0.000000  0.208144  1
  Ir  Ir12  1  0.500000  0.500000  0.208144  1
  Ir  Ir13  1  0.000000  0.500000  0.208144  1
  Ir  Ir14  1  0.500000  0.000000  0.791856  1
  Ir  Ir15  1  0.500000  0.500000  0.791856  1
  Ir  Ir16  1  0.000000  0.500000  0.791856  1
  Ir  Ir17  1  0.500000  0.000000  0.500000  1
