# generated using pymatgen
data_Cs2Er7BCl18
_symmetry_space_group_name_H-M   'P 1'
_cell_length_a   10.07541676
_cell_length_b   10.07541637
_cell_length_c   10.90133200
_cell_angle_alpha   117.52390604
_cell_angle_beta   62.47609510
_cell_angle_gamma   119.99999985
_symmetry_Int_Tables_number   1
_chemical_formula_structural   Cs2Er7BCl18
_chemical_formula_sum   'Cs2 Er7 B1 Cl18'
_cell_volume   810.52932769
_cell_formula_units_Z   1
loop_
 _symmetry_equiv_pos_site_id
 _symmetry_equiv_pos_as_xyz
  1  'x, y, z'
loop_
 _atom_site_type_symbol
 _atom_site_label
 _atom_site_symmetry_multiplicity
 _atom_site_fract_x
 _atom_site_fract_y
 _atom_site_fract_z
 _atom_site_occupancy
  Cs  Cs0  1  0.222349  0.777651  0.332958  1
  Cs  Cs1  1  0.777652  0.222348  0.667042  1
  Er  Er2  1  0.771184  0.111676  0.160162  1
  Er  Er3  1  0.888323  0.819670  0.160162  1
  Er  Er4  1  0.180331  0.228816  0.160162  1
  Er  Er5  1  0.500000  0.500000  0.500000  1
  Er  Er6  1  0.819670  0.771185  0.839838  1
  Er  Er7  1  0.111676  0.180329  0.839838  1
  Er  Er8  1  0.228815  0.888322  0.839838  1
  B  B9  1  0.000000  0.000000  0.000000  1
  Cl  Cl10  1  0.285159  0.422554  0.007934  1
  Cl  Cl11  1  0.577444  0.870539  0.007934  1
  Cl  Cl12  1  0.129462  0.714842  0.007934  1
  Cl  Cl13  1  0.946780  0.347185  0.332476  1
  Cl  Cl14  1  0.067929  0.053220  0.332476  1
  Cl  Cl15  1  0.652814  0.932071  0.332476  1
  Cl  Cl16  1  0.522498  0.216626  0.336133  1
  Cl  Cl17  1  0.783373  0.642004  0.336133  1
  Cl  Cl18  1  0.357996  0.477501  0.336133  1
  Cl  Cl19  1  0.642004  0.522499  0.663867  1
  Cl  Cl20  1  0.216628  0.357998  0.663867  1
  Cl  Cl21  1  0.477501  0.783373  0.663867  1
  Cl  Cl22  1  0.347185  0.067928  0.667523  1
  Cl  Cl23  1  0.932072  0.946779  0.667523  1
  Cl  Cl24  1  0.053220  0.652814  0.667523  1
  Cl  Cl25  1  0.870540  0.285159  0.992066  1
  Cl  Cl26  1  0.422554  0.129460  0.992066  1
  Cl  Cl27  1  0.714841  0.577446  0.992066  1
