# generated using pymatgen
data_SrLa6MnBr12
_symmetry_space_group_name_H-M   'P 1'
_cell_length_a   9.60360997
_cell_length_b   9.60360889
_cell_length_c   9.60360900
_cell_angle_alpha   106.49536885
_cell_angle_beta   106.49537317
_cell_angle_gamma   106.49537472
_symmetry_Int_Tables_number   1
_chemical_formula_structural   SrLa6MnBr12
_chemical_formula_sum   'Sr1 La6 Mn1 Br12'
_cell_volume   747.56982283
_cell_formula_units_Z   1
loop_
 _symmetry_equiv_pos_site_id
 _symmetry_equiv_pos_as_xyz
  1  'x, y, z'
loop_
 _atom_site_type_symbol
 _atom_site_label
 _atom_site_symmetry_multiplicity
 _atom_site_fract_x
 _atom_site_fract_y
 _atom_site_fract_z
 _atom_site_occupancy
  Sr  Sr0  1  0.000000  0.000000  0.000000  1
  La  La1  1  0.810844  0.523886  0.602380  1
  La  La2  1  0.523886  0.602380  0.810844  1
  La  La3  1  0.189156  0.476114  0.397620  1
  La  La4  1  0.476114  0.397620  0.189156  1
  La  La5  1  0.602380  0.810844  0.523886  1
  La  La6  1  0.397620  0.189156  0.476114  1
  Mn  Mn7  1  0.500000  0.500000  0.500000  1
  Br  Br8  1  0.724787  0.182607  0.574152  1
  Br  Br9  1  0.953771  0.874234  0.652893  1
  Br  Br10  1  0.574152  0.724787  0.182607  1
  Br  Br11  1  0.125766  0.347107  0.046229  1
  Br  Br12  1  0.652893  0.953771  0.874234  1
  Br  Br13  1  0.874234  0.652893  0.953771  1
  Br  Br14  1  0.046229  0.125766  0.347107  1
  Br  Br15  1  0.817393  0.425848  0.275213  1
  Br  Br16  1  0.347107  0.046229  0.125766  1
  Br  Br17  1  0.275213  0.817393  0.425848  1
  Br  Br18  1  0.182607  0.574152  0.724787  1
  Br  Br19  1  0.425848  0.275213  0.817393  1
