# generated using pymatgen
data_Nd2PaAlIn2Pt3
_symmetry_space_group_name_H-M   'P 1'
_cell_length_a   7.69217920
_cell_length_b   7.54268327
_cell_length_c   3.98938100
_cell_angle_alpha   90.00000000
_cell_angle_beta   90.00000000
_cell_angle_gamma   119.35914639
_symmetry_Int_Tables_number   1
_chemical_formula_structural   Nd2PaAlIn2Pt3
_chemical_formula_sum   'Nd2 Pa1 Al1 In2 Pt3'
_cell_volume   201.73435901
_cell_formula_units_Z   1
loop_
 _symmetry_equiv_pos_site_id
 _symmetry_equiv_pos_as_xyz
  1  'x, y, z'
loop_
 _atom_site_type_symbol
 _atom_site_label
 _atom_site_symmetry_multiplicity
 _atom_site_fract_x
 _atom_site_fract_y
 _atom_site_fract_z
 _atom_site_occupancy
  Nd  Nd0  1  0.595940  0.007794  0.500000  1
  Nd  Nd1  1  0.404060  0.411854  0.500000  1
  Pa  Pa2  1  0.000000  0.578436  0.500000  1
  Al  Al3  1  0.000000  0.236381  0.000000  1
  In  In4  1  0.255586  0.005848  0.000000  1
  In  In5  1  0.744414  0.750263  0.000000  1
  Pt  Pt6  1  0.000000  0.013843  0.500000  1
  Pt  Pt7  1  0.709703  0.352640  0.000000  1
  Pt  Pt8  1  0.290297  0.642938  0.000000  1
