# generated using pymatgen
data_Y4CoTe2
_symmetry_space_group_name_H-M   'P 1'
_cell_length_a   15.59094800
_cell_length_b   4.12881500
_cell_length_c   11.79358600
_cell_angle_alpha   90.00000000
_cell_angle_beta   90.00000000
_cell_angle_gamma   90.00000000
_symmetry_Int_Tables_number   1
_chemical_formula_structural   Y4CoTe2
_chemical_formula_sum   'Y16 Co4 Te8'
_cell_volume   759.17836870
_cell_formula_units_Z   4
loop_
 _symmetry_equiv_pos_site_id
 _symmetry_equiv_pos_as_xyz
  1  'x, y, z'
loop_
 _atom_site_type_symbol
 _atom_site_label
 _atom_site_symmetry_multiplicity
 _atom_site_fract_x
 _atom_site_fract_y
 _atom_site_fract_z
 _atom_site_occupancy
  Y  Y0  1  0.896710  0.249999  0.033477  1
  Y  Y1  1  0.603289  0.750000  0.533477  1
  Y  Y2  1  0.396711  0.249999  0.466524  1
  Y  Y3  1  0.220007  0.750000  0.627084  1
  Y  Y4  1  0.279993  0.249999  0.127084  1
  Y  Y5  1  0.958801  0.750000  0.303405  1
  Y  Y6  1  0.541200  0.249999  0.803405  1
  Y  Y7  1  0.458801  0.750000  0.196595  1
  Y  Y8  1  0.041199  0.249999  0.696595  1
  Y  Y9  1  0.867268  0.750000  0.583529  1
  Y  Y10  1  0.632731  0.249999  0.083529  1
  Y  Y11  1  0.367269  0.750000  0.916471  1
  Y  Y12  1  0.132731  0.249999  0.416471  1
  Y  Y13  1  0.103290  0.750000  0.966524  1
  Y  Y14  1  0.720007  0.750000  0.872916  1
  Y  Y15  1  0.779993  0.249999  0.372916  1
  Co  Co16  1  0.959047  0.249999  0.477334  1
  Co  Co17  1  0.540953  0.750000  0.977334  1
  Co  Co18  1  0.459047  0.249999  0.022666  1
  Co  Co19  1  0.040953  0.750000  0.522666  1
  Te  Te20  1  0.717338  0.249999  0.659144  1
  Te  Te21  1  0.782662  0.750000  0.159144  1
  Te  Te22  1  0.217338  0.249999  0.840855  1
  Te  Te23  1  0.282663  0.750000  0.340856  1
  Te  Te24  1  0.925705  0.750000  0.844379  1
  Te  Te25  1  0.574296  0.249999  0.344380  1
  Te  Te26  1  0.425705  0.750000  0.655621  1
  Te  Te27  1  0.074295  0.249999  0.155621  1
