# generated using pymatgen
data_Hf14ZnPd16Au3
_symmetry_space_group_name_H-M   'P 1'
_cell_length_a   8.12895745
_cell_length_b   8.12895801
_cell_length_c   9.69578822
_cell_angle_alpha   90.43440520
_cell_angle_beta   90.43440104
_cell_angle_gamma   106.69820925
_symmetry_Int_Tables_number   1
_chemical_formula_structural   Hf14ZnPd16Au3
_chemical_formula_sum   'Hf14 Zn1 Pd16 Au3'
_cell_volume   613.63048073
_cell_formula_units_Z   1
loop_
 _symmetry_equiv_pos_site_id
 _symmetry_equiv_pos_as_xyz
  1  'x, y, z'
loop_
 _atom_site_type_symbol
 _atom_site_label
 _atom_site_symmetry_multiplicity
 _atom_site_fract_x
 _atom_site_fract_y
 _atom_site_fract_z
 _atom_site_occupancy
  Hf  Hf0  1  0.697019  0.304818  0.000847  1
  Hf  Hf1  1  0.304818  0.697019  0.000847  1
  Hf  Hf2  1  0.798944  0.193502  0.501684  1
  Hf  Hf3  1  0.193502  0.798944  0.501684  1
  Hf  Hf4  1  0.000504  0.000504  0.000018  1
  Hf  Hf5  1  0.501216  0.501216  0.498591  1
  Hf  Hf6  1  0.001541  0.502477  0.249831  1
  Hf  Hf7  1  0.999842  0.496504  0.749929  1
  Hf  Hf8  1  0.496504  0.999842  0.749929  1
  Hf  Hf9  1  0.502477  0.001541  0.249831  1
  Hf  Hf10  1  0.318518  0.318518  0.182629  1
  Hf  Hf11  1  0.688686  0.688686  0.810869  1
  Hf  Hf12  1  0.183091  0.183091  0.689746  1
  Hf  Hf13  1  0.812769  0.812769  0.316900  1
  Zn  Zn14  1  0.108749  0.108749  0.391186  1
  Pd  Pd15  1  0.866082  0.145761  0.212650  1
  Pd  Pd16  1  0.144034  0.850724  0.794295  1
  Pd  Pd17  1  0.645010  0.352966  0.705225  1
  Pd  Pd18  1  0.647793  0.350581  0.293148  1
  Pd  Pd19  1  0.350581  0.647793  0.293148  1
  Pd  Pd20  1  0.352966  0.645010  0.705225  1
  Pd  Pd21  1  0.850724  0.144034  0.794295  1
  Pd  Pd22  1  0.145761  0.866082  0.212650  1
  Pd  Pd23  1  0.939968  0.647151  0.001098  1
  Pd  Pd24  1  0.061002  0.354356  0.000184  1
  Pd  Pd25  1  0.558282  0.855703  0.501532  1
  Pd  Pd26  1  0.145585  0.425692  0.494994  1
  Pd  Pd27  1  0.425692  0.145585  0.494994  1
  Pd  Pd28  1  0.855703  0.558282  0.501532  1
  Pd  Pd29  1  0.354356  0.061002  0.000184  1
  Pd  Pd30  1  0.647151  0.939968  0.001098  1
  Au  Au31  1  0.899620  0.899620  0.599766  1
  Au  Au32  1  0.394615  0.394615  0.892582  1
  Au  Au33  1  0.606896  0.606896  0.106879  1
