# generated using pymatgen
data_Ho5Er15(SiBi2)4
_symmetry_space_group_name_H-M   'P 1'
_cell_length_a   8.00790501
_cell_length_b   9.13059100
_cell_length_c   11.96117902
_cell_angle_alpha   89.99769097
_cell_angle_beta   89.99439305
_cell_angle_gamma   90.00072880
_symmetry_Int_Tables_number   1
_chemical_formula_structural   Ho5Er15(SiBi2)4
_chemical_formula_sum   'Ho5 Er15 Si4 Bi8'
_cell_volume   874.56439000
_cell_formula_units_Z   1
loop_
 _symmetry_equiv_pos_site_id
 _symmetry_equiv_pos_as_xyz
  1  'x, y, z'
loop_
 _atom_site_type_symbol
 _atom_site_label
 _atom_site_symmetry_multiplicity
 _atom_site_fract_x
 _atom_site_fract_y
 _atom_site_fract_z
 _atom_site_occupancy
  Ho  Ho0  1  0.679292  0.553336  0.562707  1
  Ho  Ho1  1  0.636954  0.750048  0.295323  1
  Ho  Ho2  1  0.863030  0.750038  0.795434  1
  Ho  Ho3  1  0.362989  0.250010  0.704622  1
  Ho  Ho4  1  0.137001  0.250020  0.204625  1
  Er  Er5  1  0.820925  0.553416  0.062696  1
  Er  Er6  1  0.679092  0.946604  0.562668  1
  Er  Er7  1  0.179082  0.053389  0.937314  1
  Er  Er8  1  0.320892  0.446548  0.437308  1
  Er  Er9  1  0.179087  0.446616  0.937320  1
  Er  Er10  1  0.320893  0.053436  0.437325  1
  Er  Er11  1  0.820913  0.946577  0.062727  1
  Er  Er12  1  0.166687  0.750006  0.211492  1
  Er  Er13  1  0.333289  0.750042  0.711480  1
  Er  Er14  1  0.833320  0.249991  0.788493  1
  Er  Er15  1  0.666677  0.250001  0.288557  1
  Er  Er16  1  0.461273  0.750002  0.001544  1
  Er  Er17  1  0.038789  0.750010  0.501527  1
  Er  Er18  1  0.538737  0.250004  0.998480  1
  Er  Er19  1  0.961322  0.249964  0.498438  1
  Si  Si20  1  0.411374  0.750176  0.478898  1
  Si  Si21  1  0.088504  0.750003  0.978939  1
  Si  Si22  1  0.588418  0.249702  0.521000  1
  Si  Si23  1  0.911505  0.250003  0.021062  1
  Bi  Bi24  1  0.933247  0.511106  0.325400  1
  Bi  Bi25  1  0.566724  0.988903  0.825432  1
  Bi  Bi26  1  0.066731  0.011132  0.674562  1
  Bi  Bi27  1  0.433256  0.488886  0.174549  1
  Bi  Bi28  1  0.066785  0.488891  0.674600  1
  Bi  Bi29  1  0.433269  0.011116  0.174556  1
  Bi  Bi30  1  0.933272  0.988911  0.325428  1
  Bi  Bi31  1  0.566671  0.511113  0.825494  1
