# generated using pymatgen
data_Ac5Sn4
_symmetry_space_group_name_H-M   'P 1'
_cell_length_a   8.82880500
_cell_length_b   8.92773800
_cell_length_c   17.08168600
_cell_angle_alpha   90.00000000
_cell_angle_beta   90.00000000
_cell_angle_gamma   90.00000000
_symmetry_Int_Tables_number   1
_chemical_formula_structural   Ac5Sn4
_chemical_formula_sum   'Ac20 Sn16'
_cell_volume   1346.39997745
_cell_formula_units_Z   4
loop_
 _symmetry_equiv_pos_site_id
 _symmetry_equiv_pos_as_xyz
  1  'x, y, z'
loop_
 _atom_site_type_symbol
 _atom_site_label
 _atom_site_symmetry_multiplicity
 _atom_site_fract_x
 _atom_site_fract_y
 _atom_site_fract_z
 _atom_site_occupancy
  Ac  Ac0  1  0.370489  0.840219  0.882245  1
  Ac  Ac1  1  0.870489  0.659781  0.617755  1
  Ac  Ac2  1  0.629511  0.159781  0.382245  1
  Ac  Ac3  1  0.129511  0.340219  0.117755  1
  Ac  Ac4  1  0.629511  0.159781  0.117755  1
  Ac  Ac5  1  0.129511  0.340219  0.382245  1
  Ac  Ac6  1  0.370489  0.840219  0.617755  1
  Ac  Ac7  1  0.870489  0.659781  0.882245  1
  Ac  Ac8  1  0.518911  0.320386  0.900883  1
  Ac  Ac9  1  0.018911  0.179614  0.599117  1
  Ac  Ac10  1  0.481089  0.679614  0.400883  1
  Ac  Ac11  1  0.981089  0.820386  0.099117  1
  Ac  Ac12  1  0.481089  0.679614  0.099117  1
  Ac  Ac13  1  0.981089  0.820386  0.400883  1
  Ac  Ac14  1  0.518911  0.320386  0.599117  1
  Ac  Ac15  1  0.018911  0.179614  0.900883  1
  Ac  Ac16  1  0.200150  0.500690  0.750000  1
  Ac  Ac17  1  0.700150  0.999310  0.750000  1
  Ac  Ac18  1  0.799850  0.499310  0.250000  1
  Ac  Ac19  1  0.299850  0.000690  0.250000  1
  Sn  Sn20  1  0.286922  0.034774  0.043119  1
  Sn  Sn21  1  0.786922  0.465226  0.456881  1
  Sn  Sn22  1  0.713078  0.965226  0.543119  1
  Sn  Sn23  1  0.213078  0.534774  0.956881  1
  Sn  Sn24  1  0.713078  0.965226  0.956881  1
  Sn  Sn25  1  0.213078  0.534774  0.543119  1
  Sn  Sn26  1  0.286922  0.034774  0.456881  1
  Sn  Sn27  1  0.786922  0.465226  0.043119  1
  Sn  Sn28  1  0.571952  0.611393  0.750000  1
  Sn  Sn29  1  0.071952  0.888607  0.750000  1
  Sn  Sn30  1  0.428048  0.388607  0.250000  1
  Sn  Sn31  1  0.928048  0.111393  0.250000  1
  Sn  Sn32  1  0.320024  0.140078  0.750000  1
  Sn  Sn33  1  0.820024  0.359922  0.750000  1
  Sn  Sn34  1  0.679976  0.859922  0.250000  1
  Sn  Sn35  1  0.179976  0.640078  0.250000  1
