# generated using pymatgen
data_Li3Co3Ni6As7Rh2
_symmetry_space_group_name_H-M   'P 1'
_cell_length_a   9.48001175
_cell_length_b   9.44625613
_cell_length_c   3.69078600
_cell_angle_alpha   90.00000000
_cell_angle_beta   90.00000000
_cell_angle_gamma   120.24009473
_symmetry_Int_Tables_number   1
_chemical_formula_structural   Li3Co3Ni6As7Rh2
_chemical_formula_sum   'Li3 Co3 Ni6 As7 Rh2'
_cell_volume   285.53692905
_cell_formula_units_Z   1
loop_
 _symmetry_equiv_pos_site_id
 _symmetry_equiv_pos_as_xyz
  1  'x, y, z'
loop_
 _atom_site_type_symbol
 _atom_site_label
 _atom_site_symmetry_multiplicity
 _atom_site_fract_x
 _atom_site_fract_y
 _atom_site_fract_z
 _atom_site_occupancy
  Li  Li0  1  0.790486  0.235421  0.500000  1
  Li  Li1  1  0.333451  0.665007  0.000000  1
  Li  Li2  1  0.994324  0.002942  0.500000  1
  Co  Co3  1  0.281294  0.381274  0.500000  1
  Co  Co4  1  0.501546  0.451888  0.000000  1
  Co  Co5  1  0.548719  0.048347  0.000000  1
  Ni  Ni6  1  0.620810  0.899012  0.500000  1
  Ni  Ni7  1  0.105755  0.720574  0.500000  1
  Ni  Ni8  1  0.949444  0.496331  0.000000  1
  Ni  Ni9  1  0.722442  0.765865  0.000000  1
  Ni  Ni10  1  0.234827  0.958870  0.000000  1
  Ni  Ni11  1  0.044249  0.281726  0.000000  1
  As  As12  1  0.960469  0.754433  0.000000  1
  As  As13  1  0.246478  0.211774  0.000000  1
  As  As14  1  0.792737  0.037694  0.000000  1
  As  As15  1  0.661378  0.332615  0.000000  1
  As  As16  1  0.534976  0.618173  0.500000  1
  As  As17  1  0.379996  0.916587  0.500000  1
  As  As18  1  0.091208  0.463125  0.500000  1
  Rh  Rh19  1  0.761488  0.553976  0.500000  1
  Rh  Rh20  1  0.443926  0.204364  0.500000  1
