# generated using pymatgen
data_Lu12In2Tc2Ir
_symmetry_space_group_name_H-M   'P 1'
_cell_length_a   8.28247884
_cell_length_b   8.28248028
_cell_length_c   8.28247999
_cell_angle_alpha   109.53317784
_cell_angle_beta   109.53317877
_cell_angle_gamma   109.34737430
_symmetry_Int_Tables_number   1
_chemical_formula_structural   Lu12In2Tc2Ir
_chemical_formula_sum   'Lu12 In2 Tc2 Ir1'
_cell_volume   437.37881082
_cell_formula_units_Z   1
loop_
 _symmetry_equiv_pos_site_id
 _symmetry_equiv_pos_as_xyz
  1  'x, y, z'
loop_
 _atom_site_type_symbol
 _atom_site_label
 _atom_site_symmetry_multiplicity
 _atom_site_fract_x
 _atom_site_fract_y
 _atom_site_fract_z
 _atom_site_occupancy
  Lu  Lu0  1  0.313042  0.313042  0.629665  1
  Lu  Lu1  1  0.683377  0.683377  0.370335  1
  Lu  Lu2  1  0.683377  0.313042  0.000000  1
  Lu  Lu3  1  0.313042  0.683377  0.000000  1
  Lu  Lu4  1  0.187183  0.429227  0.242044  1
  Lu  Lu5  1  0.814381  0.571873  0.757491  1
  Lu  Lu6  1  0.187183  0.945137  0.757956  1
  Lu  Lu7  1  0.945137  0.187183  0.757956  1
  Lu  Lu8  1  0.814381  0.056891  0.242509  1
  Lu  Lu9  1  0.056891  0.814381  0.242509  1
  Lu  Lu10  1  0.429227  0.187183  0.242044  1
  Lu  Lu11  1  0.571873  0.814381  0.757491  1
  In  In12  1  0.000281  0.500281  0.500000  1
  In  In13  1  0.500281  0.000281  0.500000  1
  Tc  Tc14  1  0.348536  0.348536  0.000000  1
  Tc  Tc15  1  0.999167  0.999167  0.000000  1
  Ir  Ir16  1  0.652640  0.652640  0.000000  1
