# generated using pymatgen
data_Nd12CdCo6
_symmetry_space_group_name_H-M   'P 1'
_cell_length_a   8.72954587
_cell_length_b   8.72954519
_cell_length_c   8.72954500
_cell_angle_alpha   109.47121788
_cell_angle_beta   109.47121629
_cell_angle_gamma   109.47122329
_symmetry_Int_Tables_number   1
_chemical_formula_structural   Nd12CdCo6
_chemical_formula_sum   'Nd12 Cd1 Co6'
_cell_volume   512.09791804
_cell_formula_units_Z   1
loop_
 _symmetry_equiv_pos_site_id
 _symmetry_equiv_pos_as_xyz
  1  'x, y, z'
loop_
 _atom_site_type_symbol
 _atom_site_label
 _atom_site_symmetry_multiplicity
 _atom_site_fract_x
 _atom_site_fract_y
 _atom_site_fract_z
 _atom_site_occupancy
  Nd  Nd0  1  0.807542  0.692728  0.500271  1
  Nd  Nd1  1  0.192458  0.307272  0.499729  1
  Nd  Nd2  1  0.192458  0.692728  0.885186  1
  Nd  Nd3  1  0.807542  0.307272  0.114814  1
  Nd  Nd4  1  0.692728  0.500271  0.807542  1
  Nd  Nd5  1  0.307272  0.499729  0.192458  1
  Nd  Nd6  1  0.692728  0.885186  0.192458  1
  Nd  Nd7  1  0.307272  0.114814  0.807542  1
  Nd  Nd8  1  0.500271  0.807542  0.692728  1
  Nd  Nd9  1  0.499729  0.192458  0.307272  1
  Nd  Nd10  1  0.114814  0.807542  0.307272  1
  Nd  Nd11  1  0.885186  0.192458  0.692728  1
  Cd  Cd12  1  0.000000  0.000000  0.000000  1
  Co  Co13  1  0.888762  0.388762  0.500000  1
  Co  Co14  1  0.111238  0.611238  0.500000  1
  Co  Co15  1  0.388762  0.500000  0.888762  1
  Co  Co16  1  0.611238  0.500000  0.111238  1
  Co  Co17  1  0.500000  0.888762  0.388762  1
  Co  Co18  1  0.500000  0.111238  0.611238  1
