# generated using pymatgen
data_Dy2Cr2Co10As7
_symmetry_space_group_name_H-M   'P 1'
_cell_length_a   3.74712600
_cell_length_b   9.37989335
_cell_length_c   9.42074301
_cell_angle_alpha   119.87157878
_cell_angle_beta   90.00000000
_cell_angle_gamma   90.00000000
_symmetry_Int_Tables_number   1
_chemical_formula_structural   Dy2Cr2Co10As7
_chemical_formula_sum   'Dy2 Cr2 Co10 As7'
_cell_volume   287.12600892
_cell_formula_units_Z   1
loop_
 _symmetry_equiv_pos_site_id
 _symmetry_equiv_pos_as_xyz
  1  'x, y, z'
loop_
 _atom_site_type_symbol
 _atom_site_label
 _atom_site_symmetry_multiplicity
 _atom_site_fract_x
 _atom_site_fract_y
 _atom_site_fract_z
 _atom_site_occupancy
  Dy  Dy0  1  0.000000  0.671660  0.337476  1
  Dy  Dy1  1  0.500000  0.331937  0.666649  1
  Cr  Cr2  1  0.500000  0.774866  0.892568  1
  Cr  Cr3  1  0.500000  0.120676  0.223342  1
  Co  Co4  1  0.000000  0.568960  0.941291  1
  Co  Co5  1  0.000000  0.370848  0.430845  1
  Co  Co6  1  0.000000  0.058594  0.628409  1
  Co  Co7  1  0.500000  0.095721  0.878524  1
  Co  Co8  1  0.000000  0.879399  0.156163  1
  Co  Co9  1  0.000000  0.281392  0.123072  1
  Co  Co10  1  0.000000  0.841972  0.721670  1
  Co  Co11  1  0.500000  0.948167  0.381594  1
  Co  Co12  1  0.500000  0.432667  0.048885  1
  Co  Co13  1  0.500000  0.618439  0.565889  1
  As  As14  1  0.000000  0.002497  0.998588  1
  As  As15  1  0.500000  0.707797  0.116950  1
  As  As16  1  0.500000  0.412408  0.291945  1
  As  As17  1  0.500000  0.887738  0.596265  1
  As  As18  1  0.000000  0.585951  0.701357  1
  As  As19  1  0.000000  0.113969  0.413014  1
  As  As20  1  0.000000  0.294338  0.885503  1
