# generated using pymatgen
data_La2Tb3ErOsI10
_symmetry_space_group_name_H-M   'P 1'
_cell_length_a   7.90238524
_cell_length_b   9.96752036
_cell_length_c   9.89482371
_cell_angle_alpha   106.82386963
_cell_angle_beta   95.45833803
_cell_angle_gamma   105.64084687
_symmetry_Int_Tables_number   1
_chemical_formula_structural   La2Tb3ErOsI10
_chemical_formula_sum   'La2 Tb3 Er1 Os1 I10'
_cell_volume   705.61423886
_cell_formula_units_Z   1
loop_
 _symmetry_equiv_pos_site_id
 _symmetry_equiv_pos_as_xyz
  1  'x, y, z'
loop_
 _atom_site_type_symbol
 _atom_site_label
 _atom_site_symmetry_multiplicity
 _atom_site_fract_x
 _atom_site_fract_y
 _atom_site_fract_z
 _atom_site_occupancy
  La  La0  1  0.383335  0.956757  0.729550  1
  La  La1  1  0.614380  0.042246  0.269459  1
  Tb  Tb2  1  0.471270  0.289558  0.587786  1
  Tb  Tb3  1  0.527445  0.710223  0.411339  1
  Tb  Tb4  1  0.852930  0.128370  0.666821  1
  Er  Er5  1  0.151195  0.872823  0.335034  1
  Os  Os6  1  0.499705  0.000037  0.499922  1
  I  I7  1  0.417474  0.623015  0.674117  1
  I  I8  1  0.582410  0.377063  0.325411  1
  I  I9  1  0.277593  0.263789  0.842269  1
  I  I10  1  0.727881  0.738261  0.160435  1
  I  I11  1  0.849823  0.447699  0.767283  1
  I  I12  1  0.148054  0.554752  0.232667  1
  I  I13  1  0.052639  0.177985  0.411079  1
  I  I14  1  0.229209  0.910145  0.047904  1
  I  I15  1  0.767441  0.088035  0.953362  1
  I  I16  1  0.947218  0.819245  0.585562  1
