# generated using pymatgen
data_NdTh2(AlIr)3
_symmetry_space_group_name_H-M   'P 1'
_cell_length_a   7.16074400
_cell_length_b   7.24390306
_cell_length_c   4.15222600
_cell_angle_alpha   90.00000000
_cell_angle_beta   90.00000000
_cell_angle_gamma   119.62097004
_symmetry_Int_Tables_number   1
_chemical_formula_structural   NdTh2(AlIr)3
_chemical_formula_sum   'Nd1 Th2 Al3 Ir3'
_cell_volume   187.23562304
_cell_formula_units_Z   1
loop_
 _symmetry_equiv_pos_site_id
 _symmetry_equiv_pos_as_xyz
  1  'x, y, z'
loop_
 _atom_site_type_symbol
 _atom_site_label
 _atom_site_symmetry_multiplicity
 _atom_site_fract_x
 _atom_site_fract_y
 _atom_site_fract_z
 _atom_site_occupancy
  Nd  Nd0  1  0.417160  0.000000  0.500000  1
  Th  Th1  1  0.001242  0.418965  0.500000  1
  Th  Th2  1  0.582276  0.581035  0.500000  1
  Al  Al3  1  0.762950  0.000000  0.000000  1
  Al  Al4  1  0.004650  0.775439  0.000000  1
  Al  Al5  1  0.229211  0.224561  0.000000  1
  Ir  Ir6  1  0.328954  0.644307  0.000000  1
  Ir  Ir7  1  0.684648  0.355693  0.000000  1
  Ir  Ir8  1  0.988909  0.000000  0.500000  1
