# generated using pymatgen
data_TbYbIr2O7
_symmetry_space_group_name_H-M   'P 1'
_cell_length_a   7.23558596
_cell_length_b   7.23558505
_cell_length_c   7.23617200
_cell_angle_alpha   59.99731653
_cell_angle_beta   59.99732068
_cell_angle_gamma   59.98492389
_symmetry_Int_Tables_number   1
_chemical_formula_structural   TbYbIr2O7
_chemical_formula_sum   'Tb2 Yb2 Ir4 O14'
_cell_volume   267.83919898
_cell_formula_units_Z   2
loop_
 _symmetry_equiv_pos_site_id
 _symmetry_equiv_pos_as_xyz
  1  'x, y, z'
loop_
 _atom_site_type_symbol
 _atom_site_label
 _atom_site_symmetry_multiplicity
 _atom_site_fract_x
 _atom_site_fract_y
 _atom_site_fract_z
 _atom_site_occupancy
  Tb  Tb0  1  0.625000  0.125000  0.125000  1
  Tb  Tb1  1  0.125000  0.625000  0.125000  1
  Yb  Yb2  1  0.125000  0.125000  0.125000  1
  Yb  Yb3  1  0.125000  0.125000  0.625000  1
  Ir  Ir4  1  0.625000  0.625000  0.625000  1
  Ir  Ir5  1  0.125000  0.625000  0.625000  1
  Ir  Ir6  1  0.625000  0.625000  0.125000  1
  Ir  Ir7  1  0.625000  0.125000  0.625000  1
  O  O8  1  0.996390  0.996390  0.003610  1
  O  O9  1  0.253610  0.253610  0.246390  1
  O  O10  1  0.296552  0.296552  0.703448  1
  O  O11  1  0.542232  0.542232  0.957768  1
  O  O12  1  0.702798  0.294411  0.709041  1
  O  O13  1  0.702798  0.294411  0.293750  1
  O  O14  1  0.294411  0.702798  0.709041  1
  O  O15  1  0.294411  0.702798  0.293750  1
  O  O16  1  0.707768  0.707768  0.292232  1
  O  O17  1  0.955589  0.547202  0.540959  1
  O  O18  1  0.547202  0.955589  0.956250  1
  O  O19  1  0.953448  0.953448  0.546552  1
  O  O20  1  0.955589  0.547202  0.956250  1
  O  O21  1  0.547202  0.955589  0.540959  1
