# generated using pymatgen
data_CsLiNpS3
_symmetry_space_group_name_H-M   'P 1'
_cell_length_a   4.11444800
_cell_length_b   7.88468225
_cell_length_c   10.47521400
_cell_angle_alpha   90.00000000
_cell_angle_beta   90.00000000
_cell_angle_gamma   74.87569730
_symmetry_Int_Tables_number   1
_chemical_formula_structural   CsLiNpS3
_chemical_formula_sum   'Cs2 Li2 Np2 S6'
_cell_volume   328.05669012
_cell_formula_units_Z   2
loop_
 _symmetry_equiv_pos_site_id
 _symmetry_equiv_pos_as_xyz
  1  'x, y, z'
loop_
 _atom_site_type_symbol
 _atom_site_label
 _atom_site_symmetry_multiplicity
 _atom_site_fract_x
 _atom_site_fract_y
 _atom_site_fract_z
 _atom_site_occupancy
  Cs  Cs0  1  0.739384  0.521232  0.250000  1
  Cs  Cs1  1  0.260617  0.478768  0.750000  1
  Li  Li2  1  0.467271  0.065460  0.250000  1
  Li  Li3  1  0.532730  0.934539  0.750000  1
  Np  Np4  1  0.000000  0.000000  0.000000  1
  Np  Np5  1  0.000000  0.000000  0.500000  1
  S  S6  1  0.390034  0.219933  0.050367  1
  S  S7  1  0.048284  0.903434  0.250000  1
  S  S8  1  0.390034  0.219933  0.449632  1
  S  S9  1  0.609966  0.780067  0.550368  1
  S  S10  1  0.951717  0.096566  0.750000  1
  S  S11  1  0.609966  0.780067  0.949632  1
