# generated using pymatgen
data_Li4DyY2HoSi8
_symmetry_space_group_name_H-M   'P 1'
_cell_length_a   3.79239500
_cell_length_b   7.58545403
_cell_length_c   10.17925802
_cell_angle_alpha   89.99060831
_cell_angle_beta   90.00000000
_cell_angle_gamma   90.00000000
_symmetry_Int_Tables_number   1
_chemical_formula_structural   Li4DyY2HoSi8
_chemical_formula_sum   'Li4 Dy1 Y2 Ho1 Si8'
_cell_volume   292.82709797
_cell_formula_units_Z   1
loop_
 _symmetry_equiv_pos_site_id
 _symmetry_equiv_pos_as_xyz
  1  'x, y, z'
loop_
 _atom_site_type_symbol
 _atom_site_label
 _atom_site_symmetry_multiplicity
 _atom_site_fract_x
 _atom_site_fract_y
 _atom_site_fract_z
 _atom_site_occupancy
  Li  Li0  1  0.250000  0.990942  0.391138  1
  Li  Li1  1  0.750000  0.009056  0.608739  1
  Li  Li2  1  0.250000  0.489623  0.108094  1
  Li  Li3  1  0.750000  0.510424  0.891968  1
  Dy  Dy4  1  0.250000  0.139059  0.863923  1
  Y  Y5  1  0.250000  0.639469  0.636197  1
  Y  Y6  1  0.750000  0.360464  0.363757  1
  Ho  Ho7  1  0.750000  0.861346  0.136145  1
  Si  Si8  1  0.750000  0.266989  0.067474  1
  Si  Si9  1  0.250000  0.732818  0.933229  1
  Si  Si10  1  0.750000  0.769219  0.430933  1
  Si  Si11  1  0.250000  0.231132  0.568579  1
  Si  Si12  1  0.750000  0.843561  0.821562  1
  Si  Si13  1  0.250000  0.155661  0.178721  1
  Si  Si14  1  0.750000  0.342568  0.679968  1
  Si  Si15  1  0.250000  0.657669  0.319574  1
