# generated using pymatgen
data_K(CaB8)3
_symmetry_space_group_name_H-M   'P 1'
_cell_length_a   4.17003700
_cell_length_b   4.17003700
_cell_length_c   16.66059600
_cell_angle_alpha   90.00000000
_cell_angle_beta   90.00000000
_cell_angle_gamma   90.00000000
_symmetry_Int_Tables_number   1
_chemical_formula_structural   K(CaB8)3
_chemical_formula_sum   'K1 Ca3 B24'
_cell_volume   289.71457893
_cell_formula_units_Z   1
loop_
 _symmetry_equiv_pos_site_id
 _symmetry_equiv_pos_as_xyz
  1  'x, y, z'
loop_
 _atom_site_type_symbol
 _atom_site_label
 _atom_site_symmetry_multiplicity
 _atom_site_fract_x
 _atom_site_fract_y
 _atom_site_fract_z
 _atom_site_occupancy
  K  K0  1  0.000000  0.000000  0.000000  1
  Ca  Ca1  1  0.000000  0.000000  0.242149  1
  Ca  Ca2  1  0.000000  0.000000  0.500000  1
  Ca  Ca3  1  0.000000  0.000000  0.757851  1
  B  B4  1  0.201014  0.500000  0.127167  1
  B  B5  1  0.201191  0.500000  0.375335  1
  B  B6  1  0.201191  0.500000  0.624665  1
  B  B7  1  0.201014  0.500000  0.872833  1
  B  B8  1  0.500000  0.500000  0.201448  1
  B  B9  1  0.500000  0.500000  0.449948  1
  B  B10  1  0.500000  0.500000  0.699123  1
  B  B11  1  0.500000  0.500000  0.948837  1
  B  B12  1  0.500000  0.201014  0.127167  1
  B  B13  1  0.500000  0.201191  0.375335  1
  B  B14  1  0.500000  0.201191  0.624665  1
  B  B15  1  0.500000  0.201014  0.872833  1
  B  B16  1  0.500000  0.500000  0.051163  1
  B  B17  1  0.500000  0.500000  0.300877  1
  B  B18  1  0.500000  0.500000  0.550052  1
  B  B19  1  0.500000  0.500000  0.798552  1
  B  B20  1  0.500000  0.798986  0.127167  1
  B  B21  1  0.500000  0.798809  0.375335  1
  B  B22  1  0.500000  0.798809  0.624665  1
  B  B23  1  0.500000  0.798986  0.872833  1
  B  B24  1  0.798986  0.500000  0.127167  1
  B  B25  1  0.798809  0.500000  0.375335  1
  B  B26  1  0.798809  0.500000  0.624665  1
  B  B27  1  0.798986  0.500000  0.872833  1
