# generated using pymatgen
data_Yb10Ag2PtAu3
_symmetry_space_group_name_H-M   'P 1'
_cell_length_a   9.10664517
_cell_length_b   9.10664024
_cell_length_c   9.11352400
_cell_angle_alpha   129.04828064
_cell_angle_beta   129.04815826
_cell_angle_gamma   74.87692023
_symmetry_Int_Tables_number   1
_chemical_formula_structural   Yb10Ag2PtAu3
_chemical_formula_sum   'Yb10 Ag2 Pt1 Au3'
_cell_volume   444.10796154
_cell_formula_units_Z   1
loop_
 _symmetry_equiv_pos_site_id
 _symmetry_equiv_pos_as_xyz
  1  'x, y, z'
loop_
 _atom_site_type_symbol
 _atom_site_label
 _atom_site_symmetry_multiplicity
 _atom_site_fract_x
 _atom_site_fract_y
 _atom_site_fract_z
 _atom_site_occupancy
  Yb  Yb0  1  0.494875  0.502239  0.997115  1
  Yb  Yb1  1  0.002239  0.994875  0.997116  1
  Yb  Yb2  1  0.528791  0.028791  0.835837  1
  Yb  Yb3  1  0.189534  0.689535  0.152484  1
  Yb  Yb4  1  0.030799  0.200925  0.506326  1
  Yb  Yb5  1  0.700924  0.530798  0.506324  1
  Yb  Yb6  1  0.462946  0.962946  0.152497  1
  Yb  Yb7  1  0.807058  0.307057  0.835842  1
  Yb  Yb8  1  0.975518  0.805397  0.506314  1
  Yb  Yb9  1  0.305397  0.475518  0.506315  1
  Ag  Ag10  1  0.250926  0.250933  0.001853  1
  Ag  Ag11  1  0.750930  0.750928  0.001853  1
  Pt  Pt12  1  0.132328  0.632329  0.764650  1
  Au  Au13  1  0.867771  0.367770  0.235545  1
  Au  Au14  1  0.633231  0.866728  0.499962  1
  Au  Au15  1  0.366731  0.133230  0.499964  1
