# generated using pymatgen
data_TbHo2MoO7
_symmetry_space_group_name_H-M   'P 1'
_cell_length_a   6.43390757
_cell_length_b   6.43390769
_cell_length_c   7.50229800
_cell_angle_alpha   90.00000000
_cell_angle_beta   90.00000000
_cell_angle_gamma   109.29067605
_symmetry_Int_Tables_number   1
_chemical_formula_structural   TbHo2MoO7
_chemical_formula_sum   'Tb2 Ho4 Mo2 O14'
_cell_volume   293.12246746
_cell_formula_units_Z   2
loop_
 _symmetry_equiv_pos_site_id
 _symmetry_equiv_pos_as_xyz
  1  'x, y, z'
loop_
 _atom_site_type_symbol
 _atom_site_label
 _atom_site_symmetry_multiplicity
 _atom_site_fract_x
 _atom_site_fract_y
 _atom_site_fract_z
 _atom_site_occupancy
  Tb  Tb0  1  0.500000  0.500000  0.500000  1
  Tb  Tb1  1  0.500000  0.500000  0.000000  1
  Ho  Ho2  1  0.535211  0.000838  0.750000  1
  Ho  Ho3  1  0.000838  0.535211  0.250000  1
  Ho  Ho4  1  0.464789  0.999162  0.250000  1
  Ho  Ho5  1  0.999162  0.464789  0.750000  1
  Mo  Mo6  1  0.000000  0.000000  0.500000  1
  Mo  Mo7  1  0.000000  0.000000  0.000000  1
  O  O8  1  0.676932  0.925579  0.469683  1
  O  O9  1  0.925579  0.676932  0.530317  1
  O  O10  1  0.676932  0.925579  0.030317  1
  O  O11  1  0.925579  0.676932  0.969683  1
  O  O12  1  0.323068  0.074421  0.530317  1
  O  O13  1  0.074421  0.323068  0.469683  1
  O  O14  1  0.323068  0.074421  0.969683  1
  O  O15  1  0.074421  0.323068  0.030317  1
  O  O16  1  0.926483  0.073517  0.750000  1
  O  O17  1  0.073517  0.926483  0.250000  1
  O  O18  1  0.367683  0.632317  0.750000  1
  O  O19  1  0.632317  0.367683  0.250000  1
  O  O20  1  0.637585  0.362415  0.750000  1
  O  O21  1  0.362415  0.637585  0.250000  1
