# generated using pymatgen
data_TmLu7Nb11Si16Mo
_symmetry_space_group_name_H-M   'P 1'
_cell_length_a   6.79876995
_cell_length_b   7.00994747
_cell_length_c   13.27898622
_cell_angle_alpha   89.99129023
_cell_angle_beta   89.93829272
_cell_angle_gamma   89.88282614
_symmetry_Int_Tables_number   1
_chemical_formula_structural   TmLu7Nb11Si16Mo
_chemical_formula_sum   'Tm1 Lu7 Nb11 Si16 Mo1'
_cell_volume   632.86177548
_cell_formula_units_Z   1
loop_
 _symmetry_equiv_pos_site_id
 _symmetry_equiv_pos_as_xyz
  1  'x, y, z'
loop_
 _atom_site_type_symbol
 _atom_site_label
 _atom_site_symmetry_multiplicity
 _atom_site_fract_x
 _atom_site_fract_y
 _atom_site_fract_z
 _atom_site_occupancy
  Tm  Tm0  1  0.503360  0.327872  0.095589  1
  Lu  Lu1  1  0.001208  0.173198  0.404381  1
  Lu  Lu2  1  0.496988  0.672640  0.595334  1
  Lu  Lu3  1  0.998090  0.827506  0.903859  1
  Lu  Lu4  1  0.497150  0.672342  0.903338  1
  Lu  Lu5  1  0.997954  0.827340  0.595517  1
  Lu  Lu6  1  0.502689  0.327520  0.405542  1
  Lu  Lu7  1  0.003032  0.172819  0.095958  1
  Nb  Nb8  1  0.838053  0.325043  0.624418  1
  Nb  Nb9  1  0.337409  0.174356  0.873496  1
  Nb  Nb10  1  0.163148  0.675249  0.125530  1
  Nb  Nb11  1  0.661089  0.826832  0.375606  1
  Nb  Nb12  1  0.165047  0.675566  0.376523  1
  Nb  Nb13  1  0.663428  0.825345  0.125480  1
  Nb  Nb14  1  0.836708  0.324429  0.873367  1
  Nb  Nb15  1  0.662322  0.007047  0.748870  1
  Nb  Nb16  1  0.162034  0.493053  0.748949  1
  Nb  Nb17  1  0.337397  0.994738  0.250885  1
  Nb  Nb18  1  0.837901  0.506614  0.250469  1
  Si  Si19  1  0.660752  0.036337  0.542039  1
  Si  Si20  1  0.164315  0.464349  0.958856  1
  Si  Si21  1  0.335311  0.964195  0.040483  1
  Si  Si22  1  0.835565  0.535823  0.459118  1
  Si  Si23  1  0.333209  0.966530  0.461981  1
  Si  Si24  1  0.836156  0.535601  0.040049  1
  Si  Si25  1  0.664806  0.034884  0.959275  1
  Si  Si26  1  0.166685  0.459920  0.541984  1
  Si  Si27  1  0.538319  0.378080  0.747786  1
  Si  Si28  1  0.042906  0.120595  0.748489  1
  Si  Si29  1  0.460318  0.620275  0.250580  1
  Si  Si30  1  0.959730  0.879499  0.250681  1
  Si  Si31  1  0.794053  0.630529  0.749420  1
  Si  Si32  1  0.296348  0.870081  0.749229  1
  Si  Si33  1  0.205071  0.369610  0.250825  1
  Si  Si34  1  0.704791  0.131239  0.250287  1
  Mo  Mo35  1  0.336658  0.172946  0.625811  1
