# generated using pymatgen
data_Ho5Tm15(Cd3Fe)2
_symmetry_space_group_name_H-M   'P 1'
_cell_length_a   9.48774700
_cell_length_b   9.48728782
_cell_length_c   9.63414000
_cell_angle_alpha   90.00000000
_cell_angle_beta   90.00000000
_cell_angle_gamma   119.99839674
_symmetry_Int_Tables_number   1
_chemical_formula_structural   Ho5Tm15(Cd3Fe)2
_chemical_formula_sum   'Ho5 Tm15 Cd6 Fe2'
_cell_volume   751.02738346
_cell_formula_units_Z   1
loop_
 _symmetry_equiv_pos_site_id
 _symmetry_equiv_pos_as_xyz
  1  'x, y, z'
loop_
 _atom_site_type_symbol
 _atom_site_label
 _atom_site_symmetry_multiplicity
 _atom_site_fract_x
 _atom_site_fract_y
 _atom_site_fract_z
 _atom_site_occupancy
  Ho  Ho0  1  0.540794  0.459006  0.250000  1
  Ho  Ho1  1  0.540794  0.081789  0.250000  1
  Ho  Ho2  1  0.917884  0.458943  0.250000  1
  Ho  Ho3  1  0.458624  0.540980  0.750000  1
  Ho  Ho4  1  0.458624  0.917644  0.750000  1
  Tm  Tm5  1  0.999992  0.999996  0.500017  1
  Tm  Tm6  1  0.999992  0.999996  0.999983  1
  Tm  Tm7  1  0.081716  0.540858  0.750000  1
  Tm  Tm8  1  0.211868  0.787560  0.436831  1
  Tm  Tm9  1  0.211868  0.424308  0.436831  1
  Tm  Tm10  1  0.575741  0.787870  0.436702  1
  Tm  Tm11  1  0.788348  0.212543  0.563662  1
  Tm  Tm12  1  0.788348  0.575805  0.563662  1
  Tm  Tm13  1  0.424293  0.212147  0.563511  1
  Tm  Tm14  1  0.788348  0.212543  0.936338  1
  Tm  Tm15  1  0.788348  0.575805  0.936338  1
  Tm  Tm16  1  0.424293  0.212147  0.936489  1
  Tm  Tm17  1  0.211868  0.787560  0.063169  1
  Tm  Tm18  1  0.211868  0.424308  0.063169  1
  Tm  Tm19  1  0.575741  0.787870  0.063298  1
  Cd  Cd20  1  0.885877  0.114476  0.250000  1
  Cd  Cd21  1  0.885877  0.771401  0.250000  1
  Cd  Cd22  1  0.228550  0.114275  0.250000  1
  Cd  Cd23  1  0.114253  0.884908  0.750000  1
  Cd  Cd24  1  0.114253  0.229344  0.750000  1
  Cd  Cd25  1  0.771123  0.885562  0.750000  1
  Fe  Fe26  1  0.333680  0.666841  0.250000  1
  Fe  Fe27  1  0.667034  0.333516  0.750000  1
