# generated using pymatgen
data_La6Cr3MoC12
_symmetry_space_group_name_H-M   'P 1'
_cell_length_a   8.43372500
_cell_length_b   8.43372466
_cell_length_c   5.33050800
_cell_angle_alpha   90.00000000
_cell_angle_beta   90.00000000
_cell_angle_gamma   119.99999739
_symmetry_Int_Tables_number   1
_chemical_formula_structural   La6Cr3MoC12
_chemical_formula_sum   'La6 Cr3 Mo1 C12'
_cell_volume   328.35081372
_cell_formula_units_Z   1
loop_
 _symmetry_equiv_pos_site_id
 _symmetry_equiv_pos_as_xyz
  1  'x, y, z'
loop_
 _atom_site_type_symbol
 _atom_site_label
 _atom_site_symmetry_multiplicity
 _atom_site_fract_x
 _atom_site_fract_y
 _atom_site_fract_z
 _atom_site_occupancy
  La  La0  1  0.611862  0.689263  0.750479  1
  La  La1  1  0.922599  0.611862  0.249521  1
  La  La2  1  0.689263  0.077401  0.249521  1
  La  La3  1  0.310737  0.922599  0.750479  1
  La  La4  1  0.077401  0.388138  0.750479  1
  La  La5  1  0.388138  0.310737  0.249521  1
  Cr  Cr6  1  0.000000  0.000000  0.000000  1
  Cr  Cr7  1  0.666667  0.333333  0.749892  1
  Cr  Cr8  1  0.333333  0.666667  0.250108  1
  Mo  Mo9  1  0.000000  0.000000  0.500000  1
  C  C10  1  0.951112  0.767600  0.750001  1
  C  C11  1  0.183512  0.951112  0.249999  1
  C  C12  1  0.767600  0.816488  0.249999  1
  C  C13  1  0.232400  0.183512  0.750001  1
  C  C14  1  0.816488  0.048888  0.750001  1
  C  C15  1  0.048888  0.232400  0.249999  1
  C  C16  1  0.853024  0.578086  0.751464  1
  C  C17  1  0.274937  0.853024  0.248536  1
  C  C18  1  0.578086  0.725063  0.248536  1
  C  C19  1  0.421914  0.274937  0.751464  1
  C  C20  1  0.146976  0.421914  0.248536  1
  C  C21  1  0.725063  0.146976  0.751464  1
