# generated using pymatgen
data_LaScB6Ru
_symmetry_space_group_name_H-M   'P 1'
_cell_length_a   3.65838800
_cell_length_b   9.12132900
_cell_length_c   11.58382900
_cell_angle_alpha   90.00000000
_cell_angle_beta   90.00000000
_cell_angle_gamma   90.00000000
_symmetry_Int_Tables_number   1
_chemical_formula_structural   LaScB6Ru
_chemical_formula_sum   'La4 Sc4 B24 Ru4'
_cell_volume   386.54496654
_cell_formula_units_Z   4
loop_
 _symmetry_equiv_pos_site_id
 _symmetry_equiv_pos_as_xyz
  1  'x, y, z'
loop_
 _atom_site_type_symbol
 _atom_site_label
 _atom_site_symmetry_multiplicity
 _atom_site_fract_x
 _atom_site_fract_y
 _atom_site_fract_z
 _atom_site_occupancy
  La  La0  1  0.000000  0.322508  0.415244  1
  La  La1  1  0.000000  0.677492  0.584756  1
  La  La2  1  0.000000  0.822508  0.084756  1
  La  La3  1  0.000000  0.177492  0.915244  1
  Sc  Sc4  1  0.000000  0.946040  0.373864  1
  Sc  Sc5  1  0.000000  0.053960  0.626136  1
  Sc  Sc6  1  0.000000  0.446040  0.126136  1
  Sc  Sc7  1  0.000000  0.553960  0.873864  1
  B  B8  1  0.500000  0.559529  0.426726  1
  B  B9  1  0.500000  0.440471  0.573274  1
  B  B10  1  0.500000  0.059529  0.073274  1
  B  B11  1  0.500000  0.940471  0.926726  1
  B  B12  1  0.500000  0.754730  0.414844  1
  B  B13  1  0.500000  0.245270  0.585156  1
  B  B14  1  0.500000  0.254730  0.085156  1
  B  B15  1  0.500000  0.745270  0.914844  1
  B  B16  1  0.500000  0.793933  0.265921  1
  B  B17  1  0.500000  0.206067  0.734079  1
  B  B18  1  0.500000  0.293933  0.234079  1
  B  B19  1  0.500000  0.706067  0.765921  1
  B  B20  1  0.500000  0.629122  0.182553  1
  B  B21  1  0.500000  0.370878  0.817447  1
  B  B22  1  0.500000  0.129122  0.317447  1
  B  B23  1  0.500000  0.870878  0.682553  1
  B  B24  1  0.500000  0.985956  0.216836  1
  B  B25  1  0.500000  0.014044  0.783164  1
  B  B26  1  0.500000  0.485956  0.283164  1
  B  B27  1  0.500000  0.514044  0.716836  1
  B  B28  1  0.500000  0.596342  0.025374  1
  B  B29  1  0.500000  0.403658  0.974626  1
  B  B30  1  0.500000  0.096342  0.474626  1
  B  B31  1  0.500000  0.903658  0.525374  1
  Ru  Ru32  1  0.000000  0.642579  0.316064  1
  Ru  Ru33  1  0.000000  0.357421  0.683936  1
  Ru  Ru34  1  0.000000  0.142579  0.183936  1
  Ru  Ru35  1  0.000000  0.857421  0.816064  1
