# generated using pymatgen
data_Y2Er4TaMoO14
_symmetry_space_group_name_H-M   'P 1'
_cell_length_a   6.45043522
_cell_length_b   6.45043413
_cell_length_c   7.43298301
_cell_angle_alpha   90.27029298
_cell_angle_beta   89.72970985
_cell_angle_gamma   108.48166482
_symmetry_Int_Tables_number   1
_chemical_formula_structural   Y2Er4TaMoO14
_chemical_formula_sum   'Y2 Er4 Ta1 Mo1 O14'
_cell_volume   293.31672316
_cell_formula_units_Z   1
loop_
 _symmetry_equiv_pos_site_id
 _symmetry_equiv_pos_as_xyz
  1  'x, y, z'
loop_
 _atom_site_type_symbol
 _atom_site_label
 _atom_site_symmetry_multiplicity
 _atom_site_fract_x
 _atom_site_fract_y
 _atom_site_fract_z
 _atom_site_occupancy
  Y  Y0  1  0.467935  0.467935  0.000000  1
  Y  Y1  1  0.533970  0.533970  0.500000  1
  Er  Er2  1  0.000638  0.536189  0.242884  1
  Er  Er3  1  0.998646  0.465539  0.741158  1
  Er  Er4  1  0.536189  0.000638  0.757116  1
  Er  Er5  1  0.465539  0.998646  0.258842  1
  Ta  Ta6  1  0.002418  0.002418  0.500000  1
  Mo  Mo7  1  0.000100  0.000100  0.000000  1
  O  O8  1  0.927983  0.073675  0.749616  1
  O  O9  1  0.073675  0.927983  0.250384  1
  O  O10  1  0.359429  0.640859  0.249363  1
  O  O11  1  0.640859  0.359429  0.750637  1
  O  O12  1  0.368067  0.631027  0.750013  1
  O  O13  1  0.631027  0.368067  0.249987  1
  O  O14  1  0.328513  0.081422  0.975626  1
  O  O15  1  0.670769  0.918580  0.474765  1
  O  O16  1  0.309888  0.050458  0.545226  1
  O  O17  1  0.689127  0.944767  0.039964  1
  O  O18  1  0.050458  0.309888  0.454774  1
  O  O19  1  0.944767  0.689127  0.960036  1
  O  O20  1  0.918580  0.670769  0.525235  1
  O  O21  1  0.081422  0.328513  0.024374  1
