# generated using pymatgen
data_Ir4Pd(RhS3)4
_symmetry_space_group_name_H-M   'P 1'
_cell_length_a   7.60104679
_cell_length_b   7.59182864
_cell_length_c   6.34319500
_cell_angle_alpha   77.19557482
_cell_angle_beta   77.02628211
_cell_angle_gamma   91.88557103
_symmetry_Int_Tables_number   1
_chemical_formula_structural   Ir4Pd(RhS3)4
_chemical_formula_sum   'Ir4 Pd1 Rh4 S12'
_cell_volume   346.50690846
_cell_formula_units_Z   1
loop_
 _symmetry_equiv_pos_site_id
 _symmetry_equiv_pos_as_xyz
  1  'x, y, z'
loop_
 _atom_site_type_symbol
 _atom_site_label
 _atom_site_symmetry_multiplicity
 _atom_site_fract_x
 _atom_site_fract_y
 _atom_site_fract_z
 _atom_site_occupancy
  Ir  Ir0  1  0.163566  0.839349  0.999697  1
  Ir  Ir1  1  0.838823  0.161878  0.999956  1
  Ir  Ir2  1  0.002711  0.001394  0.499129  1
  Ir  Ir3  1  0.348513  0.348633  0.946634  1
  Pd  Pd4  1  0.774433  0.490274  0.452489  1
  Rh  Rh5  1  0.650313  0.648874  0.054761  1
  Rh  Rh6  1  0.506806  0.218146  0.548911  1
  Rh  Rh7  1  0.218728  0.509996  0.548691  1
  Rh  Rh8  1  0.488117  0.779873  0.452455  1
  S  S9  1  0.857575  0.439188  0.094175  1
  S  S10  1  0.560432  0.142439  0.900006  1
  S  S11  1  0.145304  0.561392  0.897269  1
  S  S12  1  0.439251  0.854710  0.103169  1
  S  S13  1  0.115988  0.116231  0.110025  1
  S  S14  1  0.886368  0.885232  0.889605  1
  S  S15  1  0.035906  0.720371  0.386261  1
  S  S16  1  0.285945  0.969399  0.611377  1
  S  S17  1  0.971218  0.280921  0.613954  1
  S  S18  1  0.577830  0.585810  0.736164  1
  S  S19  1  0.413890  0.414826  0.268457  1
  S  S20  1  0.718286  0.031068  0.386814  1
