# generated using pymatgen
data_Ca2Pr3Nd3(ReC2)4
_symmetry_space_group_name_H-M   'P 1'
_cell_length_a   5.34067000
_cell_length_b   6.66637022
_cell_length_c   10.41981734
_cell_angle_alpha   90.02926348
_cell_angle_beta   90.00000000
_cell_angle_gamma   90.00000000
_symmetry_Int_Tables_number   1
_chemical_formula_structural   Ca2Pr3Nd3(ReC2)4
_chemical_formula_sum   'Ca2 Pr3 Nd3 Re4 C8'
_cell_volume   370.97549371
_cell_formula_units_Z   1
loop_
 _symmetry_equiv_pos_site_id
 _symmetry_equiv_pos_as_xyz
  1  'x, y, z'
loop_
 _atom_site_type_symbol
 _atom_site_label
 _atom_site_symmetry_multiplicity
 _atom_site_fract_x
 _atom_site_fract_y
 _atom_site_fract_z
 _atom_site_occupancy
  Ca  Ca0  1  0.250000  0.468168  0.777758  1
  Ca  Ca1  1  0.750000  0.031806  0.278034  1
  Pr  Pr2  1  0.250000  0.970585  0.721207  1
  Pr  Pr3  1  0.750000  0.529317  0.221685  1
  Pr  Pr4  1  0.250000  0.806698  0.049684  1
  Nd  Nd5  1  0.750000  0.691921  0.550458  1
  Nd  Nd6  1  0.250000  0.305609  0.449289  1
  Nd  Nd7  1  0.750000  0.194737  0.949100  1
  Re  Re8  1  0.250000  0.270024  0.145215  1
  Re  Re9  1  0.750000  0.230017  0.644993  1
  Re  Re10  1  0.250000  0.771727  0.354849  1
  Re  Re11  1  0.750000  0.728414  0.854363  1
  C  C12  1  0.250000  0.701256  0.531911  1
  C  C13  1  0.750000  0.798615  0.031487  1
  C  C14  1  0.250000  0.187760  0.968937  1
  C  C15  1  0.750000  0.313304  0.469001  1
  C  C16  1  0.250000  0.035014  0.258741  1
  C  C17  1  0.750000  0.465308  0.758327  1
  C  C18  1  0.250000  0.533691  0.242814  1
  C  C19  1  0.750000  0.966031  0.742146  1
