# generated using pymatgen
data_LaYCCl
_symmetry_space_group_name_H-M   'P 1'
_cell_length_a   7.41242383
_cell_length_b   7.41242388
_cell_length_c   7.41242305
_cell_angle_alpha   29.30000124
_cell_angle_beta   29.29999837
_cell_angle_gamma   29.29999615
_symmetry_Int_Tables_number   1
_chemical_formula_structural   LaYCCl
_chemical_formula_sum   'La1 Y1 C1 Cl1'
_cell_volume   86.30948710
_cell_formula_units_Z   1
loop_
 _symmetry_equiv_pos_site_id
 _symmetry_equiv_pos_as_xyz
  1  'x, y, z'
loop_
 _atom_site_type_symbol
 _atom_site_label
 _atom_site_symmetry_multiplicity
 _atom_site_fract_x
 _atom_site_fract_y
 _atom_site_fract_z
 _atom_site_occupancy
  La  La0  1  0.769807  0.769807  0.769807  1
  Y  Y1  1  0.231013  0.231013  0.231013  1
  C  C2  1  0.506833  0.506833  0.506833  1
  Cl  Cl3  1  0.992347  0.992347  0.992347  1
