# generated using pymatgen
data_Ba4AsP3Ir4
_symmetry_space_group_name_H-M   'P 1'
_cell_length_a   6.60110064
_cell_length_b   6.60110064
_cell_length_c   6.60110064
_cell_angle_alpha   89.64755749
_cell_angle_beta   90.35244251
_cell_angle_gamma   89.64755749
_symmetry_Int_Tables_number   1
_chemical_formula_structural   Ba4AsP3Ir4
_chemical_formula_sum   'Ba4 As1 P3 Ir4'
_cell_volume   287.62346234
_cell_formula_units_Z   1
loop_
 _symmetry_equiv_pos_site_id
 _symmetry_equiv_pos_as_xyz
  1  'x, y, z'
loop_
 _atom_site_type_symbol
 _atom_site_label
 _atom_site_symmetry_multiplicity
 _atom_site_fract_x
 _atom_site_fract_y
 _atom_site_fract_z
 _atom_site_occupancy
  Ba  Ba0  1  0.628371  0.373890  0.874810  1
  Ba  Ba1  1  0.374810  0.871629  0.626110  1
  Ba  Ba2  1  0.126110  0.125190  0.128371  1
  Ba  Ba3  1  0.872480  0.627520  0.372480  1
  As  As4  1  0.157356  0.342644  0.657356  1
  P  P5  1  0.653975  0.151058  0.341629  1
  P  P6  1  0.348942  0.658371  0.153975  1
  P  P7  1  0.841629  0.846025  0.848942  1
  Ir  Ir8  1  0.595551  0.904449  0.095551  1
  Ir  Ir9  1  0.094641  0.608458  0.914593  1
  Ir  Ir10  1  0.414593  0.405359  0.391542  1
  Ir  Ir11  1  0.891542  0.085407  0.594641  1
