# generated using pymatgen
data_MgZn2ReN4
_symmetry_space_group_name_H-M   'P 1'
_cell_length_a   6.66650700
_cell_length_b   5.70929900
_cell_length_c   5.40320200
_cell_angle_alpha   90.00000000
_cell_angle_beta   90.00000000
_cell_angle_gamma   90.00000000
_symmetry_Int_Tables_number   1
_chemical_formula_structural   MgZn2ReN4
_chemical_formula_sum   'Mg2 Zn4 Re2 N8'
_cell_volume   205.65171303
_cell_formula_units_Z   2
loop_
 _symmetry_equiv_pos_site_id
 _symmetry_equiv_pos_as_xyz
  1  'x, y, z'
loop_
 _atom_site_type_symbol
 _atom_site_label
 _atom_site_symmetry_multiplicity
 _atom_site_fract_x
 _atom_site_fract_y
 _atom_site_fract_z
 _atom_site_occupancy
  Mg  Mg0  1  0.000000  0.333171  0.725601  1
  Mg  Mg1  1  0.500000  0.666829  0.225601  1
  Zn  Zn2  1  0.250033  0.830202  0.730024  1
  Zn  Zn3  1  0.249967  0.169798  0.230024  1
  Zn  Zn4  1  0.749967  0.830202  0.730024  1
  Zn  Zn5  1  0.750033  0.169798  0.230024  1
  Re  Re6  1  0.000000  0.672459  0.229531  1
  Re  Re7  1  0.500000  0.327541  0.729531  1
  N  N8  1  0.770097  0.827279  0.113381  1
  N  N9  1  0.729903  0.172721  0.613381  1
  N  N10  1  0.229903  0.827279  0.113381  1
  N  N11  1  0.270097  0.172721  0.613381  1
  N  N12  1  0.000000  0.360153  0.120575  1
  N  N13  1  0.500000  0.639847  0.620575  1
  N  N14  1  0.000000  0.675011  0.576742  1
  N  N15  1  0.500000  0.324989  0.076742  1
