# generated using pymatgen
data_NaPr5DyIrBr12
_symmetry_space_group_name_H-M   'P 1'
_cell_length_a   9.57339328
_cell_length_b   9.64888435
_cell_length_c   9.54085344
_cell_angle_alpha   107.47816813
_cell_angle_beta   107.22903194
_cell_angle_gamma   106.68362230
_symmetry_Int_Tables_number   1
_chemical_formula_structural   NaPr5DyIrBr12
_chemical_formula_sum   'Na1 Pr5 Dy1 Ir1 Br12'
_cell_volume   731.31360609
_cell_formula_units_Z   1
loop_
 _symmetry_equiv_pos_site_id
 _symmetry_equiv_pos_as_xyz
  1  'x, y, z'
loop_
 _atom_site_type_symbol
 _atom_site_label
 _atom_site_symmetry_multiplicity
 _atom_site_fract_x
 _atom_site_fract_y
 _atom_site_fract_z
 _atom_site_occupancy
  Na  Na0  1  0.500338  0.499013  0.501342  1
  Pr  Pr1  1  0.114955  0.330355  0.031838  1
  Pr  Pr2  1  0.316210  0.029669  0.109998  1
  Pr  Pr3  1  0.030104  0.107882  0.317905  1
  Pr  Pr4  1  0.967738  0.885834  0.679478  1
  Pr  Pr5  1  0.683652  0.972372  0.889340  1
  Dy  Dy6  1  0.887844  0.680600  0.968277  1
  Ir  Ir7  1  0.999293  0.000058  0.998251  1
  Br  Br8  1  0.206812  0.684738  0.070098  1
  Br  Br9  1  0.453594  0.371285  0.155345  1
  Br  Br10  1  0.684481  0.073787  0.220545  1
  Br  Br11  1  0.923372  0.772554  0.302767  1
  Br  Br12  1  0.155565  0.452499  0.374553  1
  Br  Br13  1  0.373191  0.155646  0.456041  1
  Br  Br14  1  0.625942  0.841948  0.542838  1
  Br  Br15  1  0.845794  0.545652  0.639370  1
  Br  Br16  1  0.072656  0.216384  0.682839  1
  Br  Br17  1  0.314800  0.924358  0.778152  1
  Br  Br18  1  0.559674  0.629692  0.852244  1
  Br  Br19  1  0.783988  0.325676  0.928784  1
