# generated using pymatgen
data_Na11Cd2P5
_symmetry_space_group_name_H-M   'P 1'
_cell_length_a   8.44002039
_cell_length_b   9.97287985
_cell_length_c   10.87839769
_cell_angle_alpha   103.18500534
_cell_angle_beta   97.34928542
_cell_angle_gamma   107.17662214
_symmetry_Int_Tables_number   1
_chemical_formula_structural   Na11Cd2P5
_chemical_formula_sum   'Na22 Cd4 P10'
_cell_volume   832.76904275
_cell_formula_units_Z   2
loop_
 _symmetry_equiv_pos_site_id
 _symmetry_equiv_pos_as_xyz
  1  'x, y, z'
loop_
 _atom_site_type_symbol
 _atom_site_label
 _atom_site_symmetry_multiplicity
 _atom_site_fract_x
 _atom_site_fract_y
 _atom_site_fract_z
 _atom_site_occupancy
  Na  Na0  1  0.848664  0.569948  0.963151  1
  Na  Na1  1  0.151336  0.430052  0.036849  1
  Na  Na2  1  0.306713  0.894990  0.776790  1
  Na  Na3  1  0.693287  0.105010  0.223210  1
  Na  Na4  1  0.631055  0.165399  0.533876  1
  Na  Na5  1  0.368945  0.834601  0.466124  1
  Na  Na6  1  0.628140  0.671426  0.556884  1
  Na  Na7  1  0.371860  0.328574  0.443116  1
  Na  Na8  1  0.211328  0.559912  0.574023  1
  Na  Na9  1  0.788672  0.440088  0.425977  1
  Na  Na10  1  0.050479  0.703973  0.260497  1
  Na  Na11  1  0.949521  0.296027  0.739503  1
  Na  Na12  1  0.210820  0.082763  0.573929  1
  Na  Na13  1  0.789180  0.917237  0.426071  1
  Na  Na14  1  0.868227  0.094995  0.980845  1
  Na  Na15  1  0.131773  0.905005  0.019155  1
  Na  Na16  1  0.580441  0.225755  0.860096  1
  Na  Na17  1  0.419559  0.774245  0.139904  1
  Na  Na18  1  0.402725  0.250240  0.143338  1
  Na  Na19  1  0.597275  0.749760  0.856662  1
  Na  Na20  1  0.345454  0.411908  0.793212  1
  Na  Na21  1  0.654546  0.588092  0.206788  1
  Cd  Cd22  1  0.943148  0.957619  0.719324  1
  Cd  Cd23  1  0.056852  0.042381  0.280676  1
  Cd  Cd24  1  0.943447  0.624173  0.715485  1
  Cd  Cd25  1  0.056553  0.375827  0.284515  1
  P  P26  1  0.005338  0.761300  0.533991  1
  P  P27  1  0.994662  0.238700  0.466009  1
  P  P28  1  0.639819  0.448013  0.689907  1
  P  P29  1  0.360181  0.551987  0.310093  1
  P  P30  1  0.640258  0.967643  0.698250  1
  P  P31  1  0.359742  0.032357  0.301750  1
  P  P32  1  0.202793  0.155166  0.878711  1
  P  P33  1  0.797207  0.844834  0.121289  1
  P  P34  1  0.202047  0.636735  0.877001  1
  P  P35  1  0.797953  0.363265  0.122999  1
