# generated using pymatgen
data_HoMgZnNi2
_symmetry_space_group_name_H-M   'P 1'
_cell_length_a   5.16670879
_cell_length_b   5.16670958
_cell_length_c   5.16670988
_cell_angle_alpha   133.76828339
_cell_angle_beta   119.81442660
_cell_angle_gamma   79.10930762
_symmetry_Int_Tables_number   1
_chemical_formula_structural   HoMgZnNi2
_chemical_formula_sum   'Ho1 Mg1 Zn1 Ni2'
_cell_volume   83.73236000
_cell_formula_units_Z   1
loop_
 _symmetry_equiv_pos_site_id
 _symmetry_equiv_pos_as_xyz
  1  'x, y, z'
loop_
 _atom_site_type_symbol
 _atom_site_label
 _atom_site_symmetry_multiplicity
 _atom_site_fract_x
 _atom_site_fract_y
 _atom_site_fract_z
 _atom_site_occupancy
  Ho  Ho0  1  0.300377  0.800377  0.500000  1
  Mg  Mg1  1  0.697041  0.197041  0.500000  1
  Zn  Zn2  1  0.005133  0.005133  0.000000  1
  Ni  Ni3  1  0.733452  0.498724  0.234728  1
  Ni  Ni4  1  0.263997  0.498724  0.765272  1
