# generated using pymatgen
data_Na4Ca2CrAs4
_symmetry_space_group_name_H-M   'P 1'
_cell_length_a   9.41936326
_cell_length_b   9.41936203
_cell_length_c   7.23188957
_cell_angle_alpha   88.95465969
_cell_angle_beta   88.95466187
_cell_angle_gamma   119.71967007
_symmetry_Int_Tables_number   1
_chemical_formula_structural   Na4Ca2CrAs4
_chemical_formula_sum   'Na8 Ca4 Cr2 As8'
_cell_volume   556.87596952
_cell_formula_units_Z   2
loop_
 _symmetry_equiv_pos_site_id
 _symmetry_equiv_pos_as_xyz
  1  'x, y, z'
loop_
 _atom_site_type_symbol
 _atom_site_label
 _atom_site_symmetry_multiplicity
 _atom_site_fract_x
 _atom_site_fract_y
 _atom_site_fract_z
 _atom_site_occupancy
  Na  Na0  1  0.474475  0.944739  0.383650  1
  Na  Na1  1  0.944739  0.474475  0.883650  1
  Na  Na2  1  0.862804  0.720975  0.183612  1
  Na  Na3  1  0.282416  0.134966  0.219179  1
  Na  Na4  1  0.852565  0.138816  0.200291  1
  Na  Na5  1  0.134966  0.282416  0.719179  1
  Na  Na6  1  0.720975  0.862804  0.683612  1
  Na  Na7  1  0.138816  0.852565  0.700291  1
  Ca  Ca8  1  0.054212  0.528193  0.384911  1
  Ca  Ca9  1  0.477617  0.529721  0.380029  1
  Ca  Ca10  1  0.528193  0.054212  0.884911  1
  Ca  Ca11  1  0.529721  0.477617  0.880029  1
  Cr  Cr12  1  0.664076  0.329017  0.495741  1
  Cr  Cr13  1  0.329017  0.664076  0.995741  1
  As  As14  1  0.200074  0.387397  0.118713  1
  As  As15  1  0.612073  0.803406  0.086295  1
  As  As16  1  0.199273  0.810059  0.102421  1
  As  As17  1  0.803406  0.612073  0.586295  1
  As  As18  1  0.387397  0.200074  0.618713  1
  As  As19  1  0.810059  0.199273  0.602421  1
  As  As20  1  0.658721  0.334254  0.165136  1
  As  As21  1  0.334254  0.658721  0.665136  1
