# generated using pymatgen
data_DyEr3Pu2O12
_symmetry_space_group_name_H-M   'P 1'
_cell_length_a   5.50246400
_cell_length_b   7.79686366
_cell_length_c   11.79585000
_cell_angle_alpha   73.66560531
_cell_angle_beta   90.00000000
_cell_angle_gamma   90.00000000
_symmetry_Int_Tables_number   1
_chemical_formula_structural   DyEr3Pu2O12
_chemical_formula_sum   'Dy2 Er6 Pu4 O24'
_cell_volume   485.63861286
_cell_formula_units_Z   2
loop_
 _symmetry_equiv_pos_site_id
 _symmetry_equiv_pos_as_xyz
  1  'x, y, z'
loop_
 _atom_site_type_symbol
 _atom_site_label
 _atom_site_symmetry_multiplicity
 _atom_site_fract_x
 _atom_site_fract_y
 _atom_site_fract_z
 _atom_site_occupancy
  Dy  Dy0  1  0.693411  0.500000  0.750000  1
  Dy  Dy1  1  0.306589  0.500000  0.250000  1
  Er  Er2  1  0.744745  0.000000  0.750000  1
  Er  Er3  1  0.255255  0.000000  0.250000  1
  Er  Er4  1  0.182453  0.795176  0.578808  1
  Er  Er5  1  0.817547  0.795176  0.078808  1
  Er  Er6  1  0.182453  0.204824  0.921192  1
  Er  Er7  1  0.817547  0.204824  0.421192  1
  Pu  Pu8  1  0.255768  0.722930  0.885124  1
  Pu  Pu9  1  0.744232  0.722930  0.385124  1
  Pu  Pu10  1  0.255768  0.277070  0.614876  1
  Pu  Pu11  1  0.744232  0.277070  0.114876  1
  O  O12  1  0.039361  0.945813  0.897326  1
  O  O13  1  0.554001  0.849752  0.932177  1
  O  O14  1  0.960639  0.945813  0.397326  1
  O  O15  1  0.450431  0.801696  0.725134  1
  O  O16  1  0.445999  0.849752  0.432177  1
  O  O17  1  0.962282  0.714443  0.765279  1
  O  O18  1  0.549569  0.801696  0.225134  1
  O  O19  1  0.868177  0.629705  0.553832  1
  O  O20  1  0.380522  0.479919  0.882189  1
  O  O21  1  0.037718  0.714443  0.265279  1
  O  O22  1  0.380522  0.520081  0.617811  1
  O  O23  1  0.868177  0.370295  0.946168  1
  O  O24  1  0.131823  0.629705  0.053832  1
  O  O25  1  0.619478  0.479919  0.382189  1
  O  O26  1  0.962282  0.285557  0.734721  1
  O  O27  1  0.619478  0.520081  0.117811  1
  O  O28  1  0.131823  0.370295  0.446168  1
  O  O29  1  0.450431  0.198304  0.774866  1
  O  O30  1  0.037718  0.285557  0.234721  1
  O  O31  1  0.554001  0.150248  0.567823  1
  O  O32  1  0.549569  0.198304  0.274866  1
  O  O33  1  0.039361  0.054187  0.602674  1
  O  O34  1  0.445999  0.150248  0.067823  1
  O  O35  1  0.960639  0.054187  0.102674  1
