# generated using pymatgen
data_Ca6La5Pr(BO3)10
_symmetry_space_group_name_H-M   'P 1'
_cell_length_a   6.44066323
_cell_length_b   10.60511749
_cell_length_c   10.60511769
_cell_angle_alpha   119.96826725
_cell_angle_beta   90.02624787
_cell_angle_gamma   89.97374899
_symmetry_Int_Tables_number   1
_chemical_formula_structural   Ca6La5Pr(BO3)10
_chemical_formula_sum   'Ca6 La5 Pr1 B10 O30'
_cell_volume   627.52483735
_cell_formula_units_Z   1
loop_
 _symmetry_equiv_pos_site_id
 _symmetry_equiv_pos_as_xyz
  1  'x, y, z'
loop_
 _atom_site_type_symbol
 _atom_site_label
 _atom_site_symmetry_multiplicity
 _atom_site_fract_x
 _atom_site_fract_y
 _atom_site_fract_z
 _atom_site_occupancy
  Ca  Ca0  1  0.764274  0.472995  0.527005  1
  Ca  Ca1  1  0.264049  0.946083  0.473224  1
  Ca  Ca2  1  0.264049  0.526776  0.053917  1
  Ca  Ca3  1  0.764589  0.472535  0.945747  1
  Ca  Ca4  1  0.764589  0.054253  0.527465  1
  Ca  Ca5  1  0.264135  0.527134  0.472866  1
  La  La6  1  0.579744  0.311095  0.155374  1
  La  La7  1  0.579744  0.844626  0.688905  1
  La  La8  1  0.079629  0.155606  0.310948  1
  La  La9  1  0.079629  0.689052  0.844394  1
  La  La10  1  0.579583  0.844374  0.155626  1
  Pr  Pr11  1  0.079405  0.155671  0.844329  1
  B  B12  1  0.747155  0.000129  0.999871  1
  B  B13  1  0.098363  0.333027  0.666973  1
  B  B14  1  0.598488  0.666610  0.333390  1
  B  B15  1  0.245113  0.000434  0.999566  1
  B  B16  1  0.047773  0.802031  0.197969  1
  B  B17  1  0.547748  0.604149  0.802093  1
  B  B18  1  0.547748  0.197907  0.395851  1
  B  B19  1  0.048169  0.802886  0.604913  1
  B  B20  1  0.048169  0.395087  0.197114  1
  B  B21  1  0.547350  0.197670  0.802330  1
  O  O22  1  0.097599  0.180680  0.591264  1
  O  O23  1  0.597551  0.590397  0.409603  1
  O  O24  1  0.097599  0.408736  0.819320  1
  O  O25  1  0.597968  0.590330  0.180887  1
  O  O26  1  0.597968  0.819113  0.409670  1
  O  O27  1  0.097726  0.409350  0.590650  1
  O  O28  1  0.745227  0.225325  0.774675  1
  O  O29  1  0.245000  0.451858  0.225891  1
  O  O30  1  0.245000  0.774109  0.548142  1
  O  O31  1  0.245152  0.774028  0.225972  1
  O  O32  1  0.745043  0.225948  0.451930  1
  O  O33  1  0.745043  0.548070  0.774052  1
  O  O34  1  0.446149  0.628192  0.928406  1
  O  O35  1  0.946015  0.700223  0.628331  1
  O  O36  1  0.946234  0.928427  0.300160  1
  O  O37  1  0.444601  0.071779  0.700359  1
  O  O38  1  0.446108  0.300090  0.371539  1
  O  O39  1  0.947297  0.370240  0.070187  1
  O  O40  1  0.444601  0.299641  0.928221  1
  O  O41  1  0.446108  0.628461  0.699910  1
  O  O42  1  0.446149  0.071594  0.371808  1
  O  O43  1  0.947297  0.929813  0.629760  1
  O  O44  1  0.946234  0.699840  0.071573  1
  O  O45  1  0.946015  0.371669  0.299777  1
  O  O46  1  0.742797  0.075471  0.924529  1
  O  O47  1  0.238019  0.150919  0.074422  1
  O  O48  1  0.238019  0.925578  0.849081  1
  O  O49  1  0.739285  0.075318  0.150398  1
  O  O50  1  0.739285  0.849602  0.924682  1
  O  O51  1  0.239620  0.925064  0.074936  1
