# generated using pymatgen
data_Ti5Nb7Al8(AuC)4
_symmetry_space_group_name_H-M   'P 1'
_cell_length_a   8.39847282
_cell_length_b   8.40941061
_cell_length_c   8.40100969
_cell_angle_alpha   59.95837117
_cell_angle_beta   60.00704545
_cell_angle_gamma   59.95634070
_symmetry_Int_Tables_number   1
_chemical_formula_structural   Ti5Nb7Al8(AuC)4
_chemical_formula_sum   'Ti5 Nb7 Al8 Au4 C4'
_cell_volume   419.30034955
_cell_formula_units_Z   1
loop_
 _symmetry_equiv_pos_site_id
 _symmetry_equiv_pos_as_xyz
  1  'x, y, z'
loop_
 _atom_site_type_symbol
 _atom_site_label
 _atom_site_symmetry_multiplicity
 _atom_site_fract_x
 _atom_site_fract_y
 _atom_site_fract_z
 _atom_site_occupancy
  Ti  Ti0  1  0.570763  0.927396  0.930686  1
  Ti  Ti1  1  0.929782  0.572329  0.570158  1
  Ti  Ti2  1  0.929077  0.571034  0.929643  1
  Ti  Ti3  1  0.320601  0.322858  0.678924  1
  Ti  Ti4  1  0.570722  0.571484  0.930359  1
  Nb  Nb5  1  0.931103  0.928370  0.569706  1
  Nb  Nb6  1  0.681423  0.320777  0.318896  1
  Nb  Nb7  1  0.318298  0.680016  0.680120  1
  Nb  Nb8  1  0.679877  0.678888  0.319169  1
  Nb  Nb9  1  0.680870  0.319162  0.679942  1
  Nb  Nb10  1  0.318856  0.681452  0.319484  1
  Nb  Nb11  1  0.570356  0.929858  0.569529  1
  Al  Al12  1  0.911804  0.262810  0.913107  1
  Al  Al13  1  0.335429  0.336191  0.991183  1
  Al  Al14  1  0.993379  0.335252  0.335392  1
  Al  Al15  1  0.336381  0.336032  0.337335  1
  Al  Al16  1  0.260593  0.911652  0.914755  1
  Al  Al17  1  0.912823  0.912050  0.913839  1
  Al  Al18  1  0.914616  0.912816  0.258561  1
  Al  Al19  1  0.335420  0.992441  0.336284  1
  Au  Au20  1  0.125409  0.624175  0.125283  1
  Au  Au21  1  0.124570  0.127609  0.626875  1
  Au  Au22  1  0.624822  0.126074  0.123035  1
  Au  Au23  1  0.126789  0.126711  0.120374  1
  C  C24  1  0.617942  0.125663  0.631217  1
  C  C25  1  0.627902  0.627593  0.115336  1
  C  C26  1  0.122074  0.616996  0.630672  1
  C  C27  1  0.628320  0.622312  0.630134  1
