# generated using pymatgen
data_Sm2Lu3Pb4
_symmetry_space_group_name_H-M   'P 1'
_cell_length_a   8.18002800
_cell_length_b   8.26117500
_cell_length_c   15.55353600
_cell_angle_alpha   90.00000000
_cell_angle_beta   90.00000000
_cell_angle_gamma   90.00000000
_symmetry_Int_Tables_number   1
_chemical_formula_structural   Sm2Lu3Pb4
_chemical_formula_sum   'Sm8 Lu12 Pb16'
_cell_volume   1051.05574675
_cell_formula_units_Z   4
loop_
 _symmetry_equiv_pos_site_id
 _symmetry_equiv_pos_as_xyz
  1  'x, y, z'
loop_
 _atom_site_type_symbol
 _atom_site_label
 _atom_site_symmetry_multiplicity
 _atom_site_fract_x
 _atom_site_fract_y
 _atom_site_fract_z
 _atom_site_occupancy
  Sm  Sm0  1  0.467061  0.677750  0.598762  1
  Sm  Sm1  1  0.967061  0.822250  0.901238  1
  Sm  Sm2  1  0.532939  0.322250  0.098762  1
  Sm  Sm3  1  0.032939  0.177750  0.401238  1
  Sm  Sm4  1  0.532939  0.322250  0.401238  1
  Sm  Sm5  1  0.032939  0.177750  0.098762  1
  Sm  Sm6  1  0.467061  0.677750  0.901238  1
  Sm  Sm7  1  0.967061  0.822250  0.598762  1
  Lu  Lu8  1  0.626818  0.158609  0.622015  1
  Lu  Lu9  1  0.126818  0.341391  0.877985  1
  Lu  Lu10  1  0.373182  0.841391  0.122015  1
  Lu  Lu11  1  0.873182  0.658609  0.377985  1
  Lu  Lu12  1  0.373182  0.841391  0.377985  1
  Lu  Lu13  1  0.873182  0.658609  0.122015  1
  Lu  Lu14  1  0.626818  0.158609  0.877985  1
  Lu  Lu15  1  0.126818  0.341391  0.622015  1
  Lu  Lu16  1  0.794673  0.493676  0.750000  1
  Lu  Lu17  1  0.294673  0.006324  0.750000  1
  Lu  Lu18  1  0.205327  0.506324  0.250000  1
  Lu  Lu19  1  0.705327  0.993676  0.250000  1
  Pb  Pb20  1  0.712582  0.962822  0.456904  1
  Pb  Pb21  1  0.212582  0.537178  0.043096  1
  Pb  Pb22  1  0.287418  0.037178  0.956904  1
  Pb  Pb23  1  0.787418  0.462822  0.543096  1
  Pb  Pb24  1  0.287418  0.037178  0.543096  1
  Pb  Pb25  1  0.787418  0.462822  0.956904  1
  Pb  Pb26  1  0.712582  0.962822  0.043096  1
  Pb  Pb27  1  0.212582  0.537178  0.456904  1
  Pb  Pb28  1  0.431767  0.370467  0.750000  1
  Pb  Pb29  1  0.931767  0.129533  0.750000  1
  Pb  Pb30  1  0.568233  0.629533  0.250000  1
  Pb  Pb31  1  0.068233  0.870467  0.250000  1
  Pb  Pb32  1  0.657034  0.848433  0.750000  1
  Pb  Pb33  1  0.157034  0.651567  0.750000  1
  Pb  Pb34  1  0.342966  0.151567  0.250000  1
  Pb  Pb35  1  0.842966  0.348433  0.250000  1
