# generated using pymatgen
data_ErIn(Pd2Au)2
_symmetry_space_group_name_H-M   'P 1'
_cell_length_a   5.97043400
_cell_length_b   5.96998900
_cell_length_c   7.90403600
_cell_angle_alpha   90.00000000
_cell_angle_beta   90.00016825
_cell_angle_gamma   90.00000000
_symmetry_Int_Tables_number   1
_chemical_formula_structural   ErIn(Pd2Au)2
_chemical_formula_sum   'Er2 In2 Pd8 Au4'
_cell_volume   281.72691678
_cell_formula_units_Z   2
loop_
 _symmetry_equiv_pos_site_id
 _symmetry_equiv_pos_as_xyz
  1  'x, y, z'
loop_
 _atom_site_type_symbol
 _atom_site_label
 _atom_site_symmetry_multiplicity
 _atom_site_fract_x
 _atom_site_fract_y
 _atom_site_fract_z
 _atom_site_occupancy
  Er  Er0  1  0.250210  0.250001  0.999995  1
  Er  Er1  1  0.749790  0.750000  0.000005  1
  In  In2  1  0.249476  0.250001  0.500008  1
  In  In3  1  0.750524  0.750000  0.499992  1
  Pd  Pd4  1  0.999997  0.000008  0.252192  1
  Pd  Pd5  1  0.999997  0.500000  0.252192  1
  Pd  Pd6  1  0.499980  0.999995  0.252509  1
  Pd  Pd7  1  0.499980  0.499998  0.252509  1
  Pd  Pd8  1  0.500020  0.000005  0.747490  1
  Pd  Pd9  1  0.500020  0.500003  0.747490  1
  Pd  Pd10  1  0.000003  0.999992  0.747808  1
  Pd  Pd11  1  0.000003  0.500001  0.747808  1
  Au  Au12  1  0.749966  0.250001  0.000002  1
  Au  Au13  1  0.250034  0.750000  0.999998  1
  Au  Au14  1  0.749903  0.250001  0.499992  1
  Au  Au15  1  0.250097  0.750000  0.500008  1
