# generated using pymatgen
data_Lu4Hf4PtRh3
_symmetry_space_group_name_H-M   'P 1'
_cell_length_a   4.60677000
_cell_length_b   6.94534382
_cell_length_c   8.21465100
_cell_angle_alpha   89.83495155
_cell_angle_beta   90.00000000
_cell_angle_gamma   90.00000000
_symmetry_Int_Tables_number   1
_chemical_formula_structural   Lu4Hf4PtRh3
_chemical_formula_sum   'Lu4 Hf4 Pt1 Rh3'
_cell_volume   262.83160963
_cell_formula_units_Z   1
loop_
 _symmetry_equiv_pos_site_id
 _symmetry_equiv_pos_as_xyz
  1  'x, y, z'
loop_
 _atom_site_type_symbol
 _atom_site_label
 _atom_site_symmetry_multiplicity
 _atom_site_fract_x
 _atom_site_fract_y
 _atom_site_fract_z
 _atom_site_occupancy
  Lu  Lu0  1  0.250000  0.981894  0.321997  1
  Lu  Lu1  1  0.250000  0.484239  0.176068  1
  Lu  Lu2  1  0.750000  0.016617  0.678942  1
  Lu  Lu3  1  0.750000  0.518178  0.825258  1
  Hf  Hf4  1  0.250000  0.358577  0.576494  1
  Hf  Hf5  1  0.250000  0.858369  0.926294  1
  Hf  Hf6  1  0.750000  0.646929  0.427083  1
  Hf  Hf7  1  0.750000  0.140979  0.073965  1
  Pt  Pt8  1  0.750000  0.264100  0.403411  1
  Rh  Rh9  1  0.250000  0.232719  0.907206  1
  Rh  Rh10  1  0.250000  0.731463  0.591517  1
  Rh  Rh11  1  0.750000  0.765938  0.091765  1
