# generated using pymatgen
data_TmScB6Mo
_symmetry_space_group_name_H-M   'P 1'
_cell_length_a   3.49431500
_cell_length_b   9.14221100
_cell_length_c   11.50520400
_cell_angle_alpha   90.00000000
_cell_angle_beta   90.00000000
_cell_angle_gamma   90.00000000
_symmetry_Int_Tables_number   1
_chemical_formula_structural   TmScB6Mo
_chemical_formula_sum   'Tm4 Sc4 B24 Mo4'
_cell_volume   367.54254361
_cell_formula_units_Z   4
loop_
 _symmetry_equiv_pos_site_id
 _symmetry_equiv_pos_as_xyz
  1  'x, y, z'
loop_
 _atom_site_type_symbol
 _atom_site_label
 _atom_site_symmetry_multiplicity
 _atom_site_fract_x
 _atom_site_fract_y
 _atom_site_fract_z
 _atom_site_occupancy
  Tm  Tm0  1  0.500000  0.320565  0.414011  1
  Tm  Tm1  1  0.500000  0.679435  0.585989  1
  Tm  Tm2  1  0.500000  0.179435  0.914011  1
  Tm  Tm3  1  0.500000  0.820565  0.085989  1
  Sc  Sc4  1  0.500000  0.445114  0.127809  1
  Sc  Sc5  1  0.500000  0.554886  0.872191  1
  Sc  Sc6  1  0.500000  0.054886  0.627809  1
  Sc  Sc7  1  0.500000  0.945114  0.372191  1
  B  B8  1  0.000000  0.096053  0.473503  1
  B  B9  1  0.000000  0.903947  0.526497  1
  B  B10  1  0.000000  0.403947  0.973503  1
  B  B11  1  0.000000  0.596053  0.026497  1
  B  B12  1  0.000000  0.129823  0.319823  1
  B  B13  1  0.000000  0.870177  0.680177  1
  B  B14  1  0.000000  0.370177  0.819823  1
  B  B15  1  0.000000  0.629823  0.180177  1
  B  B16  1  0.000000  0.052154  0.065042  1
  B  B17  1  0.000000  0.947846  0.934958  1
  B  B18  1  0.000000  0.447846  0.565042  1
  B  B19  1  0.000000  0.552154  0.434958  1
  B  B20  1  0.000000  0.478437  0.285717  1
  B  B21  1  0.000000  0.521563  0.714283  1
  B  B22  1  0.000000  0.021563  0.785717  1
  B  B23  1  0.000000  0.978437  0.214283  1
  B  B24  1  0.000000  0.256553  0.078287  1
  B  B25  1  0.000000  0.743447  0.921713  1
  B  B26  1  0.000000  0.243447  0.578287  1
  B  B27  1  0.000000  0.756553  0.421713  1
  B  B28  1  0.000000  0.298061  0.236472  1
  B  B29  1  0.000000  0.701939  0.763528  1
  B  B30  1  0.000000  0.201939  0.736472  1
  B  B31  1  0.000000  0.798061  0.263528  1
  Mo  Mo32  1  0.500000  0.141675  0.181187  1
  Mo  Mo33  1  0.500000  0.858325  0.818813  1
  Mo  Mo34  1  0.500000  0.358325  0.681187  1
  Mo  Mo35  1  0.500000  0.641675  0.318813  1
