# generated using pymatgen
data_Rb8Li4HoTm3As8
_symmetry_space_group_name_H-M   'P 1'
_cell_length_a   10.58646217
_cell_length_b   10.58646241
_cell_length_c   6.81436110
_cell_angle_alpha   90.01489025
_cell_angle_beta   89.98510638
_cell_angle_gamma   99.90485624
_symmetry_Int_Tables_number   1
_chemical_formula_structural   Rb8Li4HoTm3As8
_chemical_formula_sum   'Rb8 Li4 Ho1 Tm3 As8'
_cell_volume   752.32385545
_cell_formula_units_Z   1
loop_
 _symmetry_equiv_pos_site_id
 _symmetry_equiv_pos_as_xyz
  1  'x, y, z'
loop_
 _atom_site_type_symbol
 _atom_site_label
 _atom_site_symmetry_multiplicity
 _atom_site_fract_x
 _atom_site_fract_y
 _atom_site_fract_z
 _atom_site_occupancy
  Rb  Rb0  1  0.568522  0.931597  0.750113  1
  Rb  Rb1  1  0.931597  0.568522  0.249887  1
  Rb  Rb2  1  0.431611  0.068146  0.249891  1
  Rb  Rb3  1  0.068146  0.431611  0.750109  1
  Rb  Rb4  1  0.677788  0.322486  0.786177  1
  Rb  Rb5  1  0.822471  0.177503  0.286121  1
  Rb  Rb6  1  0.322486  0.677788  0.213823  1
  Rb  Rb7  1  0.177503  0.822471  0.713879  1
  Li  Li8  1  0.618577  0.618577  0.000000  1
  Li  Li9  1  0.881603  0.881603  0.500000  1
  Li  Li10  1  0.381630  0.381630  0.000000  1
  Li  Li11  1  0.118061  0.118061  0.500000  1
  Ho  Ho12  1  0.367625  0.367625  0.500000  1
  Tm  Tm13  1  0.868087  0.868087  0.000000  1
  Tm  Tm14  1  0.632354  0.632354  0.500000  1
  Tm  Tm15  1  0.131513  0.131513  0.000000  1
  As  As16  1  0.341792  0.156777  0.751789  1
  As  As17  1  0.156777  0.341792  0.248211  1
  As  As18  1  0.658416  0.841771  0.250022  1
  As  As19  1  0.841771  0.658416  0.749978  1
  As  As20  1  0.910348  0.089458  0.767071  1
  As  As21  1  0.590890  0.410974  0.266138  1
  As  As22  1  0.089458  0.910348  0.232929  1
  As  As23  1  0.410974  0.590890  0.733862  1
