# generated using pymatgen
data_Sr2Mo3P7Rh9
_symmetry_space_group_name_H-M   'P 1'
_cell_length_a   9.63964200
_cell_length_b   9.63964213
_cell_length_c   3.96851400
_cell_angle_alpha   90.00000000
_cell_angle_beta   90.00000000
_cell_angle_gamma   119.99999957
_symmetry_Int_Tables_number   1
_chemical_formula_structural   Sr2Mo3P7Rh9
_chemical_formula_sum   'Sr2 Mo3 P7 Rh9'
_cell_volume   319.35988736
_cell_formula_units_Z   1
loop_
 _symmetry_equiv_pos_site_id
 _symmetry_equiv_pos_as_xyz
  1  'x, y, z'
loop_
 _atom_site_type_symbol
 _atom_site_label
 _atom_site_symmetry_multiplicity
 _atom_site_fract_x
 _atom_site_fract_y
 _atom_site_fract_z
 _atom_site_occupancy
  Sr  Sr0  1  0.000000  0.000000  0.765032  1
  Sr  Sr1  1  0.333333  0.666667  0.263476  1
  Mo  Mo2  1  0.790003  0.547134  0.763627  1
  Mo  Mo3  1  0.452866  0.242869  0.763627  1
  Mo  Mo4  1  0.757131  0.209997  0.763627  1
  P  P5  1  0.666667  0.333333  0.261811  1
  P  P6  1  0.066126  0.622842  0.763828  1
  P  P7  1  0.377158  0.443285  0.763828  1
  P  P8  1  0.556715  0.933874  0.763828  1
  P  P9  1  0.257346  0.037919  0.264212  1
  P  P10  1  0.962081  0.219427  0.264212  1
  P  P11  1  0.780573  0.742654  0.264212  1
  Rh  Rh12  1  0.508857  0.061810  0.263421  1
  Rh  Rh13  1  0.938190  0.447047  0.263421  1
  Rh  Rh14  1  0.552953  0.491143  0.263421  1
  Rh  Rh15  1  0.101608  0.380583  0.763920  1
  Rh  Rh16  1  0.619417  0.721025  0.763920  1
  Rh  Rh17  1  0.278975  0.898392  0.763920  1
  Rh  Rh18  1  0.233956  0.269377  0.264198  1
  Rh  Rh19  1  0.730623  0.964579  0.264198  1
  Rh  Rh20  1  0.035421  0.766044  0.264198  1
