# generated using pymatgen
data_Th4Mn(Al3Pt)8
_symmetry_space_group_name_H-M   'P 1'
_cell_length_a   7.59342429
_cell_length_b   7.63226373
_cell_length_c   13.25140867
_cell_angle_alpha   84.60101538
_cell_angle_beta   79.03187433
_cell_angle_gamma   59.81416604
_symmetry_Int_Tables_number   1
_chemical_formula_structural   Th4Mn(Al3Pt)8
_chemical_formula_sum   'Th4 Mn1 Al24 Pt8'
_cell_volume   651.71862703
_cell_formula_units_Z   1
loop_
 _symmetry_equiv_pos_site_id
 _symmetry_equiv_pos_as_xyz
  1  'x, y, z'
loop_
 _atom_site_type_symbol
 _atom_site_label
 _atom_site_symmetry_multiplicity
 _atom_site_fract_x
 _atom_site_fract_y
 _atom_site_fract_z
 _atom_site_occupancy
  Th  Th0  1  0.391327  0.169732  0.808841  1
  Th  Th1  1  0.608673  0.830268  0.191159  1
  Th  Th2  1  0.735554  0.497939  0.808608  1
  Th  Th3  1  0.264446  0.502061  0.191392  1
  Mn  Mn4  1  0.000000  0.500000  0.000000  1
  Al  Al5  1  0.695245  0.824478  0.948892  1
  Al  Al6  1  0.304755  0.175522  0.051108  1
  Al  Al7  1  0.146553  0.832590  0.560448  1
  Al  Al8  1  0.853447  0.167410  0.439552  1
  Al  Al9  1  0.481872  0.166064  0.557725  1
  Al  Al10  1  0.518128  0.833936  0.442275  1
  Al  Al11  1  0.212329  0.164848  0.334174  1
  Al  Al12  1  0.787671  0.835152  0.665826  1
  Al  Al13  1  0.435300  0.510698  0.666208  1
  Al  Al14  1  0.564700  0.489302  0.333792  1
  Al  Al15  1  0.112034  0.156134  0.663373  1
  Al  Al16  1  0.887966  0.843866  0.336627  1
  Al  Al17  1  0.339158  0.502676  0.948578  1
  Al  Al18  1  0.660842  0.497324  0.051422  1
  Al  Al19  1  0.013003  0.174473  0.960495  1
  Al  Al20  1  0.986997  0.825527  0.039505  1
  Al  Al21  1  0.186321  0.499793  0.443016  1
  Al  Al22  1  0.813679  0.500207  0.556984  1
  Al  Al23  1  0.739446  0.162916  0.183002  1
  Al  Al24  1  0.260554  0.837084  0.816998  1
  Al  Al25  1  0.059275  0.631530  0.821404  1
  Al  Al26  1  0.940725  0.368470  0.178596  1
  Al  Al27  1  0.860621  0.037375  0.816587  1
  Al  Al28  1  0.139379  0.962625  0.183414  1
  Pt  Pt29  1  0.120331  0.492282  0.638935  1
  Pt  Pt30  1  0.879669  0.507718  0.361065  1
  Pt  Pt31  1  0.655898  0.172096  0.999824  1
  Pt  Pt32  1  0.344102  0.827904  0.000176  1
  Pt  Pt33  1  0.536877  0.167196  0.362558  1
  Pt  Pt34  1  0.463123  0.832804  0.637442  1
  Pt  Pt35  1  0.779201  0.175068  0.636501  1
  Pt  Pt36  1  0.220799  0.824932  0.363499  1
