# generated using pymatgen
data_Tm20Ru7Au5
_symmetry_space_group_name_H-M   'P 1'
_cell_length_a   10.93244606
_cell_length_b   10.93244680
_cell_length_c   6.35286315
_cell_angle_alpha   89.84122901
_cell_angle_beta   89.84122468
_cell_angle_gamma   88.94475833
_symmetry_Int_Tables_number   1
_chemical_formula_structural   Tm20Ru7Au5
_chemical_formula_sum   'Tm20 Ru7 Au5'
_cell_volume   759.14944736
_cell_formula_units_Z   1
loop_
 _symmetry_equiv_pos_site_id
 _symmetry_equiv_pos_as_xyz
  1  'x, y, z'
loop_
 _atom_site_type_symbol
 _atom_site_label
 _atom_site_symmetry_multiplicity
 _atom_site_fract_x
 _atom_site_fract_y
 _atom_site_fract_z
 _atom_site_occupancy
  Tm  Tm0  1  0.300063  0.088810  0.362603  1
  Tm  Tm1  1  0.300918  0.908621  0.861439  1
  Tm  Tm2  1  0.695363  0.078080  0.859179  1
  Tm  Tm3  1  0.697370  0.907651  0.359783  1
  Tm  Tm4  1  0.579923  0.785632  0.870229  1
  Tm  Tm5  1  0.573364  0.204437  0.360727  1
  Tm  Tm6  1  0.419320  0.790873  0.370474  1
  Tm  Tm7  1  0.411499  0.205049  0.875881  1
  Tm  Tm8  1  0.214368  0.420077  0.629771  1
  Tm  Tm9  1  0.209127  0.580680  0.129526  1
  Tm  Tm10  1  0.795563  0.426636  0.139273  1
  Tm  Tm11  1  0.794951  0.588501  0.624119  1
  Tm  Tm12  1  0.911190  0.699937  0.137397  1
  Tm  Tm13  1  0.921920  0.304637  0.640821  1
  Tm  Tm14  1  0.091379  0.699082  0.638561  1
  Tm  Tm15  1  0.092349  0.302630  0.140217  1
  Tm  Tm16  1  0.997862  0.000939  0.499098  1
  Tm  Tm17  1  0.999061  0.002138  0.000902  1
  Tm  Tm18  1  0.495482  0.502249  0.002680  1
  Tm  Tm19  1  0.497751  0.504518  0.497320  1
  Ru  Ru20  1  0.654570  0.651680  0.248744  1
  Ru  Ru21  1  0.348320  0.345430  0.251256  1
  Ru  Ru22  1  0.345140  0.654860  0.750000  1
  Ru  Ru23  1  0.499042  0.998623  0.114687  1
  Ru  Ru24  1  0.499020  0.997972  0.617302  1
  Ru  Ru25  1  0.002028  0.500980  0.882698  1
  Ru  Ru26  1  0.001377  0.500958  0.385313  1
  Au  Au27  1  0.841369  0.158631  0.250000  1
  Au  Au28  1  0.844624  0.846518  0.751494  1
  Au  Au29  1  0.153482  0.155376  0.748506  1
  Au  Au30  1  0.155537  0.844463  0.250000  1
  Au  Au31  1  0.656664  0.343336  0.750000  1
