# generated using pymatgen
data_TbHo3Cd2(CuNi)2
_symmetry_space_group_name_H-M   'P 1'
_cell_length_a   7.48703757
_cell_length_b   7.48703741
_cell_length_c   3.63241900
_cell_angle_alpha   90.00000000
_cell_angle_beta   90.00000000
_cell_angle_gamma   89.19733523
_symmetry_Int_Tables_number   1
_chemical_formula_structural   TbHo3Cd2(CuNi)2
_chemical_formula_sum   'Tb1 Ho3 Cd2 Cu2 Ni2'
_cell_volume   203.59791971
_cell_formula_units_Z   1
loop_
 _symmetry_equiv_pos_site_id
 _symmetry_equiv_pos_as_xyz
  1  'x, y, z'
loop_
 _atom_site_type_symbol
 _atom_site_label
 _atom_site_symmetry_multiplicity
 _atom_site_fract_x
 _atom_site_fract_y
 _atom_site_fract_z
 _atom_site_occupancy
  Tb  Tb0  1  0.815212  0.684788  0.500000  1
  Ho  Ho1  1  0.665835  0.167070  0.500000  1
  Ho  Ho2  1  0.332930  0.834165  0.500000  1
  Ho  Ho3  1  0.185022  0.314978  0.500000  1
  Cd  Cd4  1  0.000546  0.000924  0.000000  1
  Cd  Cd5  1  0.499076  0.499454  0.000000  1
  Cu  Cu6  1  0.119844  0.617413  0.000000  1
  Cu  Cu7  1  0.882587  0.380156  0.000000  1
  Ni  Ni8  1  0.617924  0.882076  0.000000  1
  Ni  Ni9  1  0.381024  0.118976  0.000000  1
