# generated using pymatgen
data_ErPa3Co2(NiGe2)2
_symmetry_space_group_name_H-M   'P 1'
_cell_length_a   4.23526600
_cell_length_b   6.95348590
_cell_length_c   7.21213486
_cell_angle_alpha   90.56851437
_cell_angle_beta   90.00000000
_cell_angle_gamma   90.00000000
_symmetry_Int_Tables_number   1
_chemical_formula_structural   ErPa3Co2(NiGe2)2
_chemical_formula_sum   'Er1 Pa3 Co2 Ni2 Ge4'
_cell_volume   212.38592372
_cell_formula_units_Z   1
loop_
 _symmetry_equiv_pos_site_id
 _symmetry_equiv_pos_as_xyz
  1  'x, y, z'
loop_
 _atom_site_type_symbol
 _atom_site_label
 _atom_site_symmetry_multiplicity
 _atom_site_fract_x
 _atom_site_fract_y
 _atom_site_fract_z
 _atom_site_occupancy
  Er  Er0  1  0.750000  0.488040  0.288931  1
  Pa  Pa1  1  0.250000  0.008897  0.798829  1
  Pa  Pa2  1  0.250000  0.515841  0.716363  1
  Pa  Pa3  1  0.750000  0.993325  0.202613  1
  Co  Co4  1  0.250000  0.258829  0.068167  1
  Co  Co5  1  0.750000  0.721086  0.915136  1
  Ni  Ni6  1  0.250000  0.795688  0.421274  1
  Ni  Ni7  1  0.750000  0.201287  0.584970  1
  Ge  Ge8  1  0.250000  0.202632  0.410539  1
  Ge  Ge9  1  0.250000  0.698340  0.094045  1
  Ge  Ge10  1  0.750000  0.802864  0.584623  1
  Ge  Ge11  1  0.750000  0.313171  0.914511  1
