# generated using pymatgen
data_Nb12AlCo12W
_symmetry_space_group_name_H-M   'P 1'
_cell_length_a   4.93691793
_cell_length_b   4.93691679
_cell_length_c   17.57833968
_cell_angle_alpha   98.07251299
_cell_angle_beta   98.07251081
_cell_angle_gamma   59.99999709
_symmetry_Int_Tables_number   1
_chemical_formula_structural   Nb12AlCo12W
_chemical_formula_sum   'Nb12 Al1 Co12 W1'
_cell_volume   366.12922643
_cell_formula_units_Z   1
loop_
 _symmetry_equiv_pos_site_id
 _symmetry_equiv_pos_as_xyz
  1  'x, y, z'
loop_
 _atom_site_type_symbol
 _atom_site_label
 _atom_site_symmetry_multiplicity
 _atom_site_fract_x
 _atom_site_fract_y
 _atom_site_fract_z
 _atom_site_occupancy
  Nb  Nb0  1  0.416119  0.416119  0.248359  1
  Nb  Nb1  1  0.917383  0.917383  0.752148  1
  Nb  Nb2  1  0.082617  0.082617  0.247852  1
  Nb  Nb3  1  0.583881  0.583881  0.751641  1
  Nb  Nb4  1  0.773634  0.773634  0.320904  1
  Nb  Nb5  1  0.275596  0.275596  0.826789  1
  Nb  Nb6  1  0.724404  0.724404  0.173211  1
  Nb  Nb7  1  0.226366  0.226366  0.679096  1
  Nb  Nb8  1  0.826124  0.826124  0.478371  1
  Nb  Nb9  1  0.327432  0.327432  0.982296  1
  Nb  Nb10  1  0.672568  0.672568  0.017704  1
  Nb  Nb11  1  0.173876  0.173876  0.521629  1
  Al  Al12  1  0.000000  0.000000  0.000000  1
  Co  Co13  1  0.702715  0.205793  0.114301  1
  Co  Co14  1  0.197196  0.709250  0.615698  1
  Co  Co15  1  0.205793  0.205793  0.114301  1
  Co  Co16  1  0.709250  0.709250  0.615698  1
  Co  Co17  1  0.205793  0.702715  0.114301  1
  Co  Co18  1  0.709250  0.197196  0.615698  1
  Co  Co19  1  0.802804  0.290750  0.384302  1
  Co  Co20  1  0.297285  0.794207  0.885699  1
  Co  Co21  1  0.290750  0.290750  0.384302  1
  Co  Co22  1  0.794207  0.794207  0.885699  1
  Co  Co23  1  0.290750  0.802804  0.384302  1
  Co  Co24  1  0.794207  0.297285  0.885699  1
  W  W25  1  0.500000  0.500000  0.500000  1
