# generated using pymatgen
data_Tm2CrSnF14
_symmetry_space_group_name_H-M   'P 1'
_cell_length_a   5.46738300
_cell_length_b   8.75654630
_cell_length_c   11.76299900
_cell_angle_alpha   62.96852704
_cell_angle_beta   90.00000000
_cell_angle_gamma   90.00000000
_symmetry_Int_Tables_number   1
_chemical_formula_structural   Tm2CrSnF14
_chemical_formula_sum   'Tm4 Cr2 Sn2 F28'
_cell_volume   501.63710786
_cell_formula_units_Z   2
loop_
 _symmetry_equiv_pos_site_id
 _symmetry_equiv_pos_as_xyz
  1  'x, y, z'
loop_
 _atom_site_type_symbol
 _atom_site_label
 _atom_site_symmetry_multiplicity
 _atom_site_fract_x
 _atom_site_fract_y
 _atom_site_fract_z
 _atom_site_occupancy
  Tm  Tm0  1  0.759143  0.810885  0.762163  1
  Tm  Tm1  1  0.259143  0.189115  0.737837  1
  Tm  Tm2  1  0.238857  0.188237  0.228594  1
  Tm  Tm3  1  0.738857  0.811763  0.271406  1
  Cr  Cr4  1  0.756545  0.275280  0.954291  1
  Cr  Cr5  1  0.256545  0.724720  0.545709  1
  Sn  Sn6  1  0.244103  0.729694  0.041703  1
  Sn  Sn7  1  0.744103  0.270306  0.458297  1
  F  F8  1  0.444423  0.701754  0.911154  1
  F  F9  1  0.944423  0.298246  0.588846  1
  F  F10  1  0.552098  0.292655  0.073123  1
  F  F11  1  0.052098  0.707345  0.426877  1
  F  F12  1  0.432996  0.279737  0.544860  1
  F  F13  1  0.932996  0.720263  0.955140  1
  F  F14  1  0.540691  0.718669  0.454493  1
  F  F15  1  0.040691  0.281331  0.045507  1
  F  F16  1  0.771477  0.510698  0.862217  1
  F  F17  1  0.271477  0.489302  0.637783  1
  F  F18  1  0.228432  0.476634  0.144502  1
  F  F19  1  0.728432  0.523366  0.355498  1
  F  F20  1  0.755790  0.041833  0.045292  1
  F  F21  1  0.255790  0.958167  0.454708  1
  F  F22  1  0.242655  0.983728  0.946713  1
  F  F23  1  0.742655  0.016272  0.553287  1
  F  F24  1  0.984960  0.725048  0.644202  1
  F  F25  1  0.484960  0.274952  0.855798  1
  F  F26  1  0.043283  0.266058  0.362347  1
  F  F27  1  0.543283  0.733942  0.137653  1
  F  F28  1  0.049500  0.752474  0.177973  1
  F  F29  1  0.549500  0.247526  0.322027  1
  F  F30  1  0.956198  0.258024  0.831965  1
  F  F31  1  0.456198  0.741976  0.668035  1
  F  F32  1  0.419867  0.972605  0.229497  1
  F  F33  1  0.919867  0.027395  0.270503  1
  F  F34  1  0.578980  0.027349  0.765535  1
  F  F35  1  0.078980  0.972651  0.734465  1
