# generated using pymatgen
data_Y6Er10CdIn3Ir4
_symmetry_space_group_name_H-M   'P 1'
_cell_length_a   9.61604851
_cell_length_b   9.61929753
_cell_length_c   9.61929700
_cell_angle_alpha   59.99999839
_cell_angle_beta   59.98882095
_cell_angle_gamma   59.98882238
_symmetry_Int_Tables_number   1
_chemical_formula_structural   Y6Er10CdIn3Ir4
_chemical_formula_sum   'Y6 Er10 Cd1 In3 Ir4'
_cell_volume   629.06414914
_cell_formula_units_Z   1
loop_
 _symmetry_equiv_pos_site_id
 _symmetry_equiv_pos_as_xyz
  1  'x, y, z'
loop_
 _atom_site_type_symbol
 _atom_site_label
 _atom_site_symmetry_multiplicity
 _atom_site_fract_x
 _atom_site_fract_y
 _atom_site_fract_z
 _atom_site_occupancy
  Y  Y0  1  0.940050  0.561060  0.561060  1
  Y  Y1  1  0.561193  0.939528  0.939528  1
  Y  Y2  1  0.561193  0.939528  0.559752  1
  Y  Y3  1  0.940050  0.561060  0.937830  1
  Y  Y4  1  0.561193  0.559752  0.939528  1
  Y  Y5  1  0.940050  0.937830  0.561060  1
  Er  Er6  1  0.349247  0.349102  0.349102  1
  Er  Er7  1  0.349247  0.349102  0.952550  1
  Er  Er8  1  0.349247  0.952550  0.349102  1
  Er  Er9  1  0.952745  0.349085  0.349085  1
  Er  Er10  1  0.809394  0.190327  0.190327  1
  Er  Er11  1  0.189367  0.810780  0.810780  1
  Er  Er12  1  0.189367  0.810780  0.189072  1
  Er  Er13  1  0.809394  0.190327  0.809953  1
  Er  Er14  1  0.189367  0.189072  0.810780  1
  Er  Er15  1  0.809394  0.809953  0.190327  1
  Cd  Cd16  1  0.254081  0.581973  0.581973  1
  In  In17  1  0.582035  0.583351  0.583351  1
  In  In18  1  0.582035  0.583351  0.251265  1
  In  In19  1  0.582035  0.251265  0.583351  1
  Ir  Ir20  1  0.141467  0.141210  0.141210  1
  Ir  Ir21  1  0.141467  0.141210  0.576114  1
  Ir  Ir22  1  0.141467  0.576114  0.141210  1
  Ir  Ir23  1  0.574921  0.141693  0.141693  1
