# generated using pymatgen
data_Tb12ZnInCo4
_symmetry_space_group_name_H-M   'P 1'
_cell_length_a   8.37078171
_cell_length_b   8.37078049
_cell_length_c   8.37078156
_cell_angle_alpha   112.13614647
_cell_angle_beta   109.51407859
_cell_angle_gamma   106.80725150
_symmetry_Int_Tables_number   1
_chemical_formula_structural   Tb12ZnInCo4
_chemical_formula_sum   'Tb12 Zn1 In1 Co4'
_cell_volume   450.54307057
_cell_formula_units_Z   1
loop_
 _symmetry_equiv_pos_site_id
 _symmetry_equiv_pos_as_xyz
  1  'x, y, z'
loop_
 _atom_site_type_symbol
 _atom_site_label
 _atom_site_symmetry_multiplicity
 _atom_site_fract_x
 _atom_site_fract_y
 _atom_site_fract_z
 _atom_site_occupancy
  Tb  Tb0  1  0.429245  0.231502  0.197743  1
  Tb  Tb1  1  0.570755  0.768498  0.802257  1
  Tb  Tb2  1  0.033761  0.231502  0.802257  1
  Tb  Tb3  1  0.966239  0.768498  0.197743  1
  Tb  Tb4  1  0.180175  0.282939  0.463114  1
  Tb  Tb5  1  0.819825  0.717061  0.536886  1
  Tb  Tb6  1  0.180175  0.717061  0.897236  1
  Tb  Tb7  1  0.819825  0.282939  0.102764  1
  Tb  Tb8  1  0.325021  0.638760  0.313740  1
  Tb  Tb9  1  0.674979  0.361240  0.686260  1
  Tb  Tb10  1  0.325021  0.011282  0.686260  1
  Tb  Tb11  1  0.674979  0.988718  0.313740  1
  Zn  Zn12  1  0.000000  0.000000  0.000000  1
  In  In13  1  0.500000  0.500000  0.000000  1
  Co  Co14  1  0.336278  0.000000  0.336278  1
  Co  Co15  1  0.663722  0.000000  0.663722  1
  Co  Co16  1  0.113669  0.613669  0.500000  1
  Co  Co17  1  0.886331  0.386331  0.500000  1
