# generated using pymatgen
data_Dy2NpO6
_symmetry_space_group_name_H-M   'P 1'
_cell_length_a   5.53300800
_cell_length_b   7.84050415
_cell_length_c   11.87142624
_cell_angle_alpha   73.79794051
_cell_angle_beta   90.00000000
_cell_angle_gamma   90.00000000
_symmetry_Int_Tables_number   1
_chemical_formula_structural   Dy2NpO6
_chemical_formula_sum   'Dy8 Np4 O24'
_cell_volume   494.54717266
_cell_formula_units_Z   4
loop_
 _symmetry_equiv_pos_site_id
 _symmetry_equiv_pos_as_xyz
  1  'x, y, z'
loop_
 _atom_site_type_symbol
 _atom_site_label
 _atom_site_symmetry_multiplicity
 _atom_site_fract_x
 _atom_site_fract_y
 _atom_site_fract_z
 _atom_site_occupancy
  Dy  Dy0  1  0.743805  0.000000  0.750000  1
  Dy  Dy1  1  0.256195  0.000000  0.250000  1
  Dy  Dy2  1  0.187760  0.795147  0.579503  1
  Dy  Dy3  1  0.812240  0.795147  0.079503  1
  Dy  Dy4  1  0.698181  0.500000  0.750000  1
  Dy  Dy5  1  0.301819  0.500000  0.250000  1
  Dy  Dy6  1  0.187760  0.204853  0.920497  1
  Dy  Dy7  1  0.812240  0.204853  0.420497  1
  Np  Np8  1  0.254946  0.720289  0.886979  1
  Np  Np9  1  0.745054  0.720289  0.386979  1
  Np  Np10  1  0.254946  0.279711  0.613021  1
  Np  Np11  1  0.745054  0.279711  0.113021  1
  O  O12  1  0.043745  0.943848  0.896362  1
  O  O13  1  0.551658  0.850066  0.931309  1
  O  O14  1  0.956255  0.943848  0.396362  1
  O  O15  1  0.449735  0.800237  0.727078  1
  O  O16  1  0.448342  0.850066  0.431309  1
  O  O17  1  0.963847  0.713090  0.766873  1
  O  O18  1  0.550265  0.800237  0.227078  1
  O  O19  1  0.875296  0.627530  0.554963  1
  O  O20  1  0.389508  0.480961  0.883752  1
  O  O21  1  0.036153  0.713090  0.266873  1
  O  O22  1  0.389508  0.519039  0.616248  1
  O  O23  1  0.875296  0.372470  0.945037  1
  O  O24  1  0.124704  0.627530  0.054963  1
  O  O25  1  0.610492  0.480961  0.383752  1
  O  O26  1  0.963847  0.286910  0.733127  1
  O  O27  1  0.610492  0.519039  0.116248  1
  O  O28  1  0.124704  0.372470  0.445037  1
  O  O29  1  0.449735  0.199763  0.772922  1
  O  O30  1  0.036153  0.286910  0.233127  1
  O  O31  1  0.551658  0.149934  0.568691  1
  O  O32  1  0.550265  0.199763  0.272922  1
  O  O33  1  0.043745  0.056152  0.603638  1
  O  O34  1  0.448342  0.149934  0.068691  1
  O  O35  1  0.956255  0.056152  0.103638  1
