# generated using pymatgen
data_LiPaPt6
_symmetry_space_group_name_H-M   'P 1'
_cell_length_a   5.72527228
_cell_length_b   5.72527217
_cell_length_c   4.05618900
_cell_angle_alpha   90.00000000
_cell_angle_beta   90.00000000
_cell_angle_gamma   90.05137866
_symmetry_Int_Tables_number   1
_chemical_formula_structural   LiPaPt6
_chemical_formula_sum   'Li1 Pa1 Pt6'
_cell_volume   132.95671955
_cell_formula_units_Z   1
loop_
 _symmetry_equiv_pos_site_id
 _symmetry_equiv_pos_as_xyz
  1  'x, y, z'
loop_
 _atom_site_type_symbol
 _atom_site_label
 _atom_site_symmetry_multiplicity
 _atom_site_fract_x
 _atom_site_fract_y
 _atom_site_fract_z
 _atom_site_occupancy
  Li  Li0  1  0.626620  0.373380  0.000000  1
  Pa  Pa1  1  0.124636  0.875364  0.000000  1
  Pt  Pt2  1  0.624554  0.874733  0.000000  1
  Pt  Pt3  1  0.125267  0.375446  0.000000  1
  Pt  Pt4  1  0.869187  0.619764  0.500000  1
  Pt  Pt5  1  0.380236  0.130813  0.500000  1
  Pt  Pt6  1  0.869932  0.130068  0.500000  1
  Pt  Pt7  1  0.379570  0.620430  0.500000  1
