# generated using pymatgen
data_La5Pr(Sn6Ir)2
_symmetry_space_group_name_H-M   'P 1'
_cell_length_a   8.79445514
_cell_length_b   8.79445398
_cell_length_c   13.57108700
_cell_angle_alpha   90.00000000
_cell_angle_beta   90.00000000
_cell_angle_gamma   148.38070840
_symmetry_Int_Tables_number   1
_chemical_formula_structural   La5Pr(Sn6Ir)2
_chemical_formula_sum   'La5 Pr1 Sn12 Ir2'
_cell_volume   550.28751462
_cell_formula_units_Z   1
loop_
 _symmetry_equiv_pos_site_id
 _symmetry_equiv_pos_as_xyz
  1  'x, y, z'
loop_
 _atom_site_type_symbol
 _atom_site_label
 _atom_site_symmetry_multiplicity
 _atom_site_fract_x
 _atom_site_fract_y
 _atom_site_fract_z
 _atom_site_occupancy
  La  La0  1  0.397313  0.602687  0.750000  1
  La  La1  1  0.399424  0.600576  0.404294  1
  La  La2  1  0.600595  0.399405  0.595709  1
  La  La3  1  0.399424  0.600576  0.095706  1
  La  La4  1  0.600595  0.399405  0.904291  1
  Pr  Pr5  1  0.602530  0.397470  0.250000  1
  Sn  Sn6  1  0.926931  0.073069  0.923675  1
  Sn  Sn7  1  0.073131  0.926869  0.076782  1
  Sn  Sn8  1  0.926931  0.073069  0.576325  1
  Sn  Sn9  1  0.073131  0.926869  0.423218  1
  Sn  Sn10  1  0.960504  0.039496  0.250000  1
  Sn  Sn11  1  0.039891  0.960109  0.750000  1
  Sn  Sn12  1  0.745727  0.254274  0.433931  1
  Sn  Sn13  1  0.254161  0.745839  0.565873  1
  Sn  Sn14  1  0.745727  0.254274  0.066069  1
  Sn  Sn15  1  0.254161  0.745839  0.934127  1
  Sn  Sn16  1  0.231810  0.768190  0.250000  1
  Sn  Sn17  1  0.768007  0.231993  0.750000  1
  Ir  Ir18  1  0.801900  0.198100  0.250000  1
  Ir  Ir19  1  0.198110  0.801890  0.750000  1
