# generated using pymatgen
data_Mn6Cr2PbO16
_symmetry_space_group_name_H-M   'P 1'
_cell_length_a   5.88224261
_cell_length_b   7.16495500
_cell_length_c   7.22757722
_cell_angle_alpha   88.06344088
_cell_angle_beta   78.24050713
_cell_angle_gamma   78.23176598
_symmetry_Int_Tables_number   1
_chemical_formula_structural   Mn6Cr2PbO16
_chemical_formula_sum   'Mn6 Cr2 Pb1 O16'
_cell_volume   291.94217393
_cell_formula_units_Z   1
loop_
 _symmetry_equiv_pos_site_id
 _symmetry_equiv_pos_as_xyz
  1  'x, y, z'
loop_
 _atom_site_type_symbol
 _atom_site_label
 _atom_site_symmetry_multiplicity
 _atom_site_fract_x
 _atom_site_fract_y
 _atom_site_fract_z
 _atom_site_occupancy
  Mn  Mn0  1  0.169668  0.821558  0.515018  1
  Mn  Mn1  1  0.667661  0.820441  0.524262  1
  Mn  Mn2  1  0.337125  0.187423  0.481350  1
  Mn  Mn3  1  0.835440  0.187628  0.484815  1
  Mn  Mn4  1  0.427930  0.485554  0.818906  1
  Mn  Mn5  1  0.927250  0.488605  0.818907  1
  Cr  Cr6  1  0.578736  0.519472  0.185206  1
  Cr  Cr7  1  0.080276  0.506696  0.186022  1
  Pb  Pb8  1  0.031236  0.933968  0.986748  1
  O  O9  1  0.838376  0.650803  0.041803  1
  O  O10  1  0.324904  0.649432  0.041814  1
  O  O11  1  0.978218  0.716695  0.378842  1
  O  O12  1  0.480479  0.714856  0.385718  1
  O  O13  1  0.858096  0.956258  0.648640  1
  O  O14  1  0.346984  0.957589  0.647810  1
  O  O15  1  0.341775  0.369518  0.292526  1
  O  O16  1  0.836614  0.365673  0.290015  1
  O  O17  1  0.166072  0.637477  0.717339  1
  O  O18  1  0.669300  0.626544  0.710695  1
  O  O19  1  0.149866  0.047511  0.358086  1
  O  O20  1  0.653829  0.045538  0.363647  1
  O  O21  1  0.026055  0.298018  0.618088  1
  O  O22  1  0.523934  0.296728  0.618969  1
  O  O23  1  0.177649  0.355518  0.941097  1
  O  O24  1  0.679627  0.360495  0.943675  1
