# generated using pymatgen
data_Ca(AlBr4)2
_symmetry_space_group_name_H-M   'P 1'
_cell_length_a   7.75238700
_cell_length_b   7.78352476
_cell_length_c   14.31075430
_cell_angle_alpha   87.79498168
_cell_angle_beta   90.00000000
_cell_angle_gamma   90.00000000
_symmetry_Int_Tables_number   1
_chemical_formula_structural   Ca(AlBr4)2
_chemical_formula_sum   'Ca2 Al4 Br16'
_cell_volume   862.88434294
_cell_formula_units_Z   2
loop_
 _symmetry_equiv_pos_site_id
 _symmetry_equiv_pos_as_xyz
  1  'x, y, z'
loop_
 _atom_site_type_symbol
 _atom_site_label
 _atom_site_symmetry_multiplicity
 _atom_site_fract_x
 _atom_site_fract_y
 _atom_site_fract_z
 _atom_site_occupancy
  Ca  Ca0  1  0.742885  0.998132  0.505597  1
  Ca  Ca1  1  0.257115  0.998132  0.005597  1
  Al  Al2  1  0.923627  0.435324  0.541243  1
  Al  Al3  1  0.434495  0.853858  0.240401  1
  Al  Al4  1  0.565505  0.853858  0.740401  1
  Al  Al5  1  0.076373  0.435324  0.041243  1
  Br  Br6  1  0.927924  0.464154  0.175821  1
  Br  Br7  1  0.072076  0.464154  0.675821  1
  Br  Br8  1  0.634755  0.347055  0.558916  1
  Br  Br9  1  0.365245  0.347055  0.058916  1
  Br  Br10  1  0.931156  0.690402  0.445957  1
  Br  Br11  1  0.068844  0.690402  0.945957  1
  Br  Br12  1  0.434070  0.846404  0.591628  1
  Br  Br13  1  0.565930  0.846404  0.091628  1
  Br  Br14  1  0.043388  0.213981  0.453005  1
  Br  Br15  1  0.956612  0.213981  0.953005  1
  Br  Br16  1  0.152983  0.949288  0.204207  1
  Br  Br17  1  0.847017  0.949288  0.704207  1
  Br  Br18  1  0.438245  0.599085  0.322146  1
  Br  Br19  1  0.561755  0.599085  0.822146  1
  Br  Br20  1  0.580137  0.070917  0.320079  1
  Br  Br21  1  0.419863  0.070917  0.820079  1
