# generated using pymatgen
data_Tb2Th2Pd7Pt5
_symmetry_space_group_name_H-M   'P 1'
_cell_length_a   5.89780100
_cell_length_b   5.90666504
_cell_length_c   9.68495503
_cell_angle_alpha   90.04560347
_cell_angle_beta   90.00000000
_cell_angle_gamma   119.95036455
_symmetry_Int_Tables_number   1
_chemical_formula_structural   Tb2Th2Pd7Pt5
_chemical_formula_sum   'Tb2 Th2 Pd7 Pt5'
_cell_volume   292.33277853
_cell_formula_units_Z   1
loop_
 _symmetry_equiv_pos_site_id
 _symmetry_equiv_pos_as_xyz
  1  'x, y, z'
loop_
 _atom_site_type_symbol
 _atom_site_label
 _atom_site_symmetry_multiplicity
 _atom_site_fract_x
 _atom_site_fract_y
 _atom_site_fract_z
 _atom_site_occupancy
  Tb  Tb0  1  0.333038  0.666077  0.250180  1
  Tb  Tb1  1  0.666962  0.333923  0.749820  1
  Th  Th2  1  0.000000  0.000000  0.500000  1
  Th  Th3  1  0.000000  0.000000  0.000000  1
  Pd  Pd4  1  0.500000  0.000000  0.000000  1
  Pd  Pd5  1  0.825086  0.650172  0.249154  1
  Pd  Pd6  1  0.348909  0.174353  0.249613  1
  Pd  Pd7  1  0.825443  0.174353  0.249613  1
  Pd  Pd8  1  0.174914  0.349828  0.750846  1
  Pd  Pd9  1  0.651091  0.825647  0.750387  1
  Pd  Pd10  1  0.174557  0.825647  0.750387  1
  Pt  Pt11  1  0.500000  0.500000  0.500000  1
  Pt  Pt12  1  0.500000  0.000000  0.500000  1
  Pt  Pt13  1  0.000000  0.500000  0.500000  1
  Pt  Pt14  1  0.500000  0.500000  0.000000  1
  Pt  Pt15  1  0.000000  0.500000  0.000000  1
