# generated using pymatgen
data_Li6HfSc11Ir6
_symmetry_space_group_name_H-M   'P 1'
_cell_length_a   4.66814200
_cell_length_b   6.54798600
_cell_length_c   13.75814800
_cell_angle_alpha   90.00000000
_cell_angle_beta   89.99868317
_cell_angle_gamma   90.00000000
_symmetry_Int_Tables_number   1
_chemical_formula_structural   Li6HfSc11Ir6
_chemical_formula_sum   'Li6 Hf1 Sc11 Ir6'
_cell_volume   420.54432563
_cell_formula_units_Z   1
loop_
 _symmetry_equiv_pos_site_id
 _symmetry_equiv_pos_as_xyz
  1  'x, y, z'
loop_
 _atom_site_type_symbol
 _atom_site_label
 _atom_site_symmetry_multiplicity
 _atom_site_fract_x
 _atom_site_fract_y
 _atom_site_fract_z
 _atom_site_occupancy
  Li  Li0  1  0.000000  0.998720  0.000000  1
  Li  Li1  1  0.499393  0.500839  0.167018  1
  Li  Li2  1  0.999391  0.999917  0.333247  1
  Li  Li3  1  0.500000  0.499985  0.500000  1
  Li  Li4  1  0.000611  0.999917  0.666753  1
  Li  Li5  1  0.500606  0.500839  0.832982  1
  Hf  Hf6  1  0.500000  0.248723  0.000000  1
  Sc  Sc7  1  0.500000  0.750374  0.000000  1
  Sc  Sc8  1  0.999595  0.251411  0.167571  1
  Sc  Sc9  1  0.999594  0.748789  0.167258  1
  Sc  Sc10  1  0.499571  0.249462  0.333775  1
  Sc  Sc11  1  0.499577  0.751038  0.333652  1
  Sc  Sc12  1  0.000000  0.251329  0.500000  1
  Sc  Sc13  1  0.000000  0.748059  0.500000  1
  Sc  Sc14  1  0.500428  0.249462  0.666225  1
  Sc  Sc15  1  0.500422  0.751038  0.666348  1
  Sc  Sc16  1  0.000404  0.251411  0.832429  1
  Sc  Sc17  1  0.000405  0.748789  0.832742  1
  Ir  Ir18  1  0.000000  0.488426  0.000000  1
  Ir  Ir19  1  0.499593  0.005193  0.162615  1
  Ir  Ir20  1  0.999543  0.500728  0.333352  1
  Ir  Ir21  1  0.500000  0.999635  0.500000  1
  Ir  Ir22  1  0.000457  0.500728  0.666648  1
  Ir  Ir23  1  0.500409  0.005193  0.837385  1
