# generated using pymatgen
data_Y4HfTi3Ir4
_symmetry_space_group_name_H-M   'P 1'
_cell_length_a   4.37584400
_cell_length_b   6.98443805
_cell_length_c   8.24157748
_cell_angle_alpha   89.28597231
_cell_angle_beta   90.00000000
_cell_angle_gamma   90.00000000
_symmetry_Int_Tables_number   1
_chemical_formula_structural   Y4HfTi3Ir4
_chemical_formula_sum   'Y4 Hf1 Ti3 Ir4'
_cell_volume   251.86621852
_cell_formula_units_Z   1
loop_
 _symmetry_equiv_pos_site_id
 _symmetry_equiv_pos_as_xyz
  1  'x, y, z'
loop_
 _atom_site_type_symbol
 _atom_site_label
 _atom_site_symmetry_multiplicity
 _atom_site_fract_x
 _atom_site_fract_y
 _atom_site_fract_z
 _atom_site_occupancy
  Y  Y0  1  0.250000  0.981569  0.314093  1
  Y  Y1  1  0.250000  0.486312  0.180577  1
  Y  Y2  1  0.750000  0.006977  0.682431  1
  Y  Y3  1  0.750000  0.521760  0.825541  1
  Hf  Hf4  1  0.250000  0.355147  0.572474  1
  Ti  Ti5  1  0.250000  0.864313  0.935229  1
  Ti  Ti6  1  0.750000  0.637781  0.433772  1
  Ti  Ti7  1  0.750000  0.139317  0.064426  1
  Ir  Ir8  1  0.250000  0.221307  0.908574  1
  Ir  Ir9  1  0.250000  0.726389  0.591769  1
  Ir  Ir10  1  0.750000  0.782617  0.092835  1
  Ir  Ir11  1  0.750000  0.276510  0.398279  1
