# generated using pymatgen
data_Nd3Sm(TcC2)2
_symmetry_space_group_name_H-M   'P 1'
_cell_length_a   5.32018300
_cell_length_b   6.71286420
_cell_length_c   10.18201480
_cell_angle_alpha   90.11158155
_cell_angle_beta   90.00000000
_cell_angle_gamma   90.00000000
_symmetry_Int_Tables_number   1
_chemical_formula_structural   Nd3Sm(TcC2)2
_chemical_formula_sum   'Nd6 Sm2 Tc4 C8'
_cell_volume   363.63638620
_cell_formula_units_Z   2
loop_
 _symmetry_equiv_pos_site_id
 _symmetry_equiv_pos_as_xyz
  1  'x, y, z'
loop_
 _atom_site_type_symbol
 _atom_site_label
 _atom_site_symmetry_multiplicity
 _atom_site_fract_x
 _atom_site_fract_y
 _atom_site_fract_z
 _atom_site_occupancy
  Nd  Nd0  1  0.750000  0.472632  0.785709  1
  Nd  Nd1  1  0.250000  0.028586  0.289411  1
  Nd  Nd2  1  0.750000  0.971414  0.710589  1
  Nd  Nd3  1  0.250000  0.527368  0.214291  1
  Nd  Nd4  1  0.750000  0.815282  0.053091  1
  Nd  Nd5  1  0.250000  0.184718  0.946909  1
  Sm  Sm6  1  0.750000  0.318677  0.446945  1
  Sm  Sm7  1  0.250000  0.681323  0.553055  1
  Tc  Tc8  1  0.750000  0.772868  0.360442  1
  Tc  Tc9  1  0.250000  0.727009  0.856628  1
  Tc  Tc10  1  0.250000  0.227132  0.639558  1
  Tc  Tc11  1  0.750000  0.272991  0.143372  1
  C  C12  1  0.250000  0.961210  0.739845  1
  C  C13  1  0.750000  0.537860  0.244233  1
  C  C14  1  0.250000  0.462140  0.755767  1
  C  C15  1  0.750000  0.038790  0.260155  1
  C  C16  1  0.250000  0.317220  0.461453  1
  C  C17  1  0.750000  0.187964  0.964222  1
  C  C18  1  0.250000  0.812036  0.035778  1
  C  C19  1  0.750000  0.682780  0.538547  1
