# generated using pymatgen
data_Yb2Cr3Re14C3
_symmetry_space_group_name_H-M   'P 1'
_cell_length_a   6.94508658
_cell_length_b   6.94508788
_cell_length_c   6.94508763
_cell_angle_alpha   82.46589688
_cell_angle_beta   82.46589773
_cell_angle_gamma   82.46589671
_symmetry_Int_Tables_number   1
_chemical_formula_structural   Yb2Cr3Re14C3
_chemical_formula_sum   'Yb2 Cr3 Re14 C3'
_cell_volume   327.01260101
_cell_formula_units_Z   1
loop_
 _symmetry_equiv_pos_site_id
 _symmetry_equiv_pos_as_xyz
  1  'x, y, z'
loop_
 _atom_site_type_symbol
 _atom_site_label
 _atom_site_symmetry_multiplicity
 _atom_site_fract_x
 _atom_site_fract_y
 _atom_site_fract_z
 _atom_site_occupancy
  Yb  Yb0  1  0.646696  0.646696  0.646696  1
  Yb  Yb1  1  0.353304  0.353304  0.353304  1
  Cr  Cr2  1  0.000000  0.000000  0.500000  1
  Cr  Cr3  1  0.500000  0.000000  0.000000  1
  Cr  Cr4  1  0.000000  0.500000  0.000000  1
  Re  Re5  1  0.719606  0.280394  0.000000  1
  Re  Re6  1  0.000000  0.719606  0.280394  1
  Re  Re7  1  0.280394  0.000000  0.719606  1
  Re  Re8  1  0.000000  0.280394  0.719606  1
  Re  Re9  1  0.719606  0.000000  0.280394  1
  Re  Re10  1  0.280394  0.719606  0.000000  1
  Re  Re11  1  0.342303  0.342303  0.869337  1
  Re  Re12  1  0.869337  0.342303  0.342303  1
  Re  Re13  1  0.342303  0.869337  0.342303  1
  Re  Re14  1  0.657697  0.657697  0.130663  1
  Re  Re15  1  0.130663  0.657697  0.657697  1
  Re  Re16  1  0.657697  0.130663  0.657697  1
  Re  Re17  1  0.899828  0.899828  0.899828  1
  Re  Re18  1  0.100172  0.100172  0.100172  1
  C  C19  1  0.500000  0.500000  0.000000  1
  C  C20  1  0.000000  0.500000  0.500000  1
  C  C21  1  0.500000  0.000000  0.500000  1
