# generated using pymatgen
data_Tm10(TlBi)3
_symmetry_space_group_name_H-M   'P 1'
_cell_length_a   8.90667365
_cell_length_b   8.93838101
_cell_length_c   6.54248700
_cell_angle_alpha   90.00000000
_cell_angle_beta   90.00000000
_cell_angle_gamma   119.70360358
_symmetry_Int_Tables_number   1
_chemical_formula_structural   Tm10(TlBi)3
_chemical_formula_sum   'Tm10 Tl3 Bi3'
_cell_volume   452.41528749
_cell_formula_units_Z   1
loop_
 _symmetry_equiv_pos_site_id
 _symmetry_equiv_pos_as_xyz
  1  'x, y, z'
loop_
 _atom_site_type_symbol
 _atom_site_label
 _atom_site_symmetry_multiplicity
 _atom_site_fract_x
 _atom_site_fract_y
 _atom_site_fract_z
 _atom_site_occupancy
  Tm  Tm0  1  0.331606  0.678785  0.002226  1
  Tm  Tm1  1  0.667988  0.326290  0.497363  1
  Tm  Tm2  1  0.667988  0.326290  0.002637  1
  Tm  Tm3  1  0.331606  0.678785  0.497774  1
  Tm  Tm4  1  0.229708  0.990566  0.250000  1
  Tm  Tm5  1  0.766243  0.001025  0.750000  1
  Tm  Tm6  1  0.988820  0.231000  0.250000  1
  Tm  Tm7  1  0.766449  0.767658  0.250000  1
  Tm  Tm8  1  0.239947  0.230369  0.750000  1
  Tm  Tm9  1  0.011129  0.771573  0.750000  1
  Tl  Tl10  1  0.600917  0.996634  0.250000  1
  Tl  Tl11  1  0.403798  0.005393  0.750000  1
  Tl  Tl12  1  0.993128  0.600830  0.250000  1
  Bi  Bi13  1  0.387783  0.391934  0.250000  1
  Bi  Bi14  1  0.608539  0.607042  0.750000  1
  Bi  Bi15  1  0.004351  0.395825  0.750000  1
