# generated using pymatgen
data_Nd3In2SnPd2Pt
_symmetry_space_group_name_H-M   'P 1'
_cell_length_a   7.79077205
_cell_length_b   7.79297238
_cell_length_c   4.03119900
_cell_angle_alpha   90.00000000
_cell_angle_beta   90.00000000
_cell_angle_gamma   119.97773995
_symmetry_Int_Tables_number   1
_chemical_formula_structural   Nd3In2SnPd2Pt
_chemical_formula_sum   'Nd3 In2 Sn1 Pd2 Pt1'
_cell_volume   212.00488862
_cell_formula_units_Z   1
loop_
 _symmetry_equiv_pos_site_id
 _symmetry_equiv_pos_as_xyz
  1  'x, y, z'
loop_
 _atom_site_type_symbol
 _atom_site_label
 _atom_site_symmetry_multiplicity
 _atom_site_fract_x
 _atom_site_fract_y
 _atom_site_fract_z
 _atom_site_occupancy
  Nd  Nd0  1  0.591161  0.585339  0.000000  1
  Nd  Nd1  1  0.412190  0.004134  0.000000  1
  Nd  Nd2  1  0.996379  0.409557  0.000000  1
  In  In3  1  0.002493  0.746724  0.500000  1
  In  In4  1  0.252485  0.256009  0.500000  1
  Sn  Sn5  1  0.746605  0.997312  0.500000  1
  Pd  Pd6  1  0.997353  0.999956  0.000000  1
  Pd  Pd7  1  0.334934  0.668167  0.500000  1
  Pt  Pt8  1  0.666400  0.332802  0.500000  1
