# generated using pymatgen
data_Er8Ti10Re2Si15Sn
_symmetry_space_group_name_H-M   'P 1'
_cell_length_a   7.02924230
_cell_length_b   6.97931186
_cell_length_c   12.87043866
_cell_angle_alpha   89.99817440
_cell_angle_beta   89.65749670
_cell_angle_gamma   89.94274940
_symmetry_Int_Tables_number   1
_chemical_formula_structural   Er8Ti10Re2Si15Sn
_chemical_formula_sum   'Er8 Ti10 Re2 Si15 Sn1'
_cell_volume   631.40278260
_cell_formula_units_Z   1
loop_
 _symmetry_equiv_pos_site_id
 _symmetry_equiv_pos_as_xyz
  1  'x, y, z'
loop_
 _atom_site_type_symbol
 _atom_site_label
 _atom_site_symmetry_multiplicity
 _atom_site_fract_x
 _atom_site_fract_y
 _atom_site_fract_z
 _atom_site_occupancy
  Er  Er0  1  0.342074  0.997769  0.460292  1
  Er  Er1  1  0.504806  0.835088  0.719877  1
  Er  Er2  1  0.499449  0.158903  0.217103  1
  Er  Er3  1  0.842071  0.498238  0.279501  1
  Er  Er4  1  0.159010  0.508469  0.787499  1
  Er  Er5  1  0.660851  0.997836  0.971346  1
  Er  Er6  1  0.992899  0.347782  0.525488  1
  Er  Er7  1  0.003370  0.658826  0.033820  1
  Ti  Ti8  1  0.816695  0.176542  0.753152  1
  Ti  Ti9  1  0.671644  0.672751  0.498180  1
  Ti  Ti10  1  0.153993  0.005624  0.886212  1
  Ti  Ti11  1  0.495252  0.651731  0.125152  1
  Ti  Ti12  1  0.512288  0.355019  0.627565  1
  Ti  Ti13  1  0.657248  0.494497  0.878687  1
  Ti  Ti14  1  0.346015  0.505317  0.370852  1
  Ti  Ti15  1  0.844305  0.992191  0.373912  1
  Ti  Ti16  1  0.008095  0.152190  0.124232  1
  Ti  Ti17  1  0.979577  0.836196  0.616307  1
  Re  Re18  1  0.327415  0.330175  0.003109  1
  Re  Re19  1  0.174389  0.829045  0.248034  1
  Si  Si20  1  0.372754  0.700132  0.935010  1
  Si  Si21  1  0.628249  0.297775  0.432278  1
  Si  Si22  1  0.703034  0.369714  0.068324  1
  Si  Si23  1  0.295371  0.631541  0.565268  1
  Si  Si24  1  0.800887  0.870394  0.183115  1
  Si  Si25  1  0.128441  0.199378  0.315482  1
  Si  Si26  1  0.870442  0.801203  0.816279  1
  Si  Si27  1  0.293367  0.952409  0.068653  1
  Si  Si28  1  0.547736  0.788209  0.313664  1
  Si  Si29  1  0.457355  0.209983  0.823427  1
  Si  Si30  1  0.795949  0.544511  0.686018  1
  Si  Si31  1  0.210299  0.453351  0.183782  1
  Si  Si32  1  0.702763  0.049414  0.565195  1
  Si  Si33  1  0.954495  0.291474  0.935057  1
  Si  Si34  1  0.049230  0.709175  0.428789  1
  Sn  Sn35  1  0.198180  0.127152  0.679337  1
