# generated using pymatgen
data_Tb5Ho4Er(In2Pd)4
_symmetry_space_group_name_H-M   'P 1'
_cell_length_a   3.62623100
_cell_length_b   8.17231549
_cell_length_c   18.27817601
_cell_angle_alpha   89.96401556
_cell_angle_beta   90.00000000
_cell_angle_gamma   90.00000000
_symmetry_Int_Tables_number   1
_chemical_formula_structural   Tb5Ho4Er(In2Pd)4
_chemical_formula_sum   'Tb5 Ho4 Er1 In8 Pd4'
_cell_volume   541.66822473
_cell_formula_units_Z   1
loop_
 _symmetry_equiv_pos_site_id
 _symmetry_equiv_pos_as_xyz
  1  'x, y, z'
loop_
 _atom_site_type_symbol
 _atom_site_label
 _atom_site_symmetry_multiplicity
 _atom_site_fract_x
 _atom_site_fract_y
 _atom_site_fract_z
 _atom_site_occupancy
  Tb  Tb0  1  0.000000  0.500210  0.499571  1
  Tb  Tb1  1  0.000000  0.999608  0.999943  1
  Tb  Tb2  1  0.000000  0.739292  0.281887  1
  Tb  Tb3  1  0.000000  0.261253  0.717848  1
  Tb  Tb4  1  0.000000  0.761285  0.782088  1
  Ho  Ho5  1  0.000000  0.239224  0.218461  1
  Ho  Ho6  1  0.000000  0.617943  0.084445  1
  Ho  Ho7  1  0.000000  0.381166  0.916379  1
  Ho  Ho8  1  0.000000  0.881334  0.583701  1
  Er  Er9  1  0.000000  0.118998  0.415592  1
  In  In10  1  0.500000  0.703881  0.934212  1
  In  In11  1  0.500000  0.294144  0.067070  1
  In  In12  1  0.500000  0.796516  0.433792  1
  In  In13  1  0.500000  0.204319  0.565799  1
  In  In14  1  0.500000  0.582082  0.650731  1
  In  In15  1  0.500000  0.417392  0.348858  1
  In  In16  1  0.500000  0.919720  0.150723  1
  In  In17  1  0.500000  0.082064  0.849258  1
  Pd  Pd18  1  0.500000  0.520815  0.195383  1
  Pd  Pd19  1  0.500000  0.475885  0.805214  1
  Pd  Pd20  1  0.500000  0.975958  0.694837  1
  Pd  Pd21  1  0.500000  0.026910  0.304207  1
