# generated using pymatgen
data_ErTm3(Sc3Ga4)2
_symmetry_space_group_name_H-M   'P 1'
_cell_length_a   7.23041000
_cell_length_b   7.54129500
_cell_length_c   14.39927401
_cell_angle_alpha   90.00315999
_cell_angle_beta   89.99936472
_cell_angle_gamma   89.99893725
_symmetry_Int_Tables_number   1
_chemical_formula_structural   ErTm3(Sc3Ga4)2
_chemical_formula_sum   'Er2 Tm6 Sc12 Ga16'
_cell_volume   785.14424181
_cell_formula_units_Z   2
loop_
 _symmetry_equiv_pos_site_id
 _symmetry_equiv_pos_as_xyz
  1  'x, y, z'
loop_
 _atom_site_type_symbol
 _atom_site_label
 _atom_site_symmetry_multiplicity
 _atom_site_fract_x
 _atom_site_fract_y
 _atom_site_fract_z
 _atom_site_occupancy
  Er  Er0  1  0.510534  0.319686  0.405663  1
  Er  Er1  1  0.489466  0.680314  0.594337  1
  Tm  Tm2  1  0.010547  0.180340  0.094341  1
  Tm  Tm3  1  0.989453  0.819660  0.905659  1
  Tm  Tm4  1  0.489455  0.680340  0.905655  1
  Tm  Tm5  1  0.989453  0.819659  0.594338  1
  Tm  Tm6  1  0.510545  0.319660  0.094345  1
  Tm  Tm7  1  0.010547  0.180341  0.405662  1
  Sc  Sc8  1  0.162329  0.503252  0.750008  1
  Sc  Sc9  1  0.837671  0.496748  0.249992  1
  Sc  Sc10  1  0.337644  0.003252  0.249994  1
  Sc  Sc11  1  0.662356  0.996748  0.750006  1
  Sc  Sc12  1  0.329987  0.173049  0.624698  1
  Sc  Sc13  1  0.670013  0.826951  0.375302  1
  Sc  Sc14  1  0.169983  0.673055  0.375308  1
  Sc  Sc15  1  0.670002  0.826945  0.124686  1
  Sc  Sc16  1  0.830017  0.326945  0.624692  1
  Sc  Sc17  1  0.329998  0.173055  0.875314  1
  Sc  Sc18  1  0.829998  0.326952  0.875308  1
  Sc  Sc19  1  0.170002  0.673048  0.124692  1
  Ga  Ga20  1  0.030615  0.115686  0.749998  1
  Ga  Ga21  1  0.969385  0.884314  0.250002  1
  Ga  Ga22  1  0.469385  0.615696  0.249997  1
  Ga  Ga23  1  0.530615  0.384304  0.750003  1
  Ga  Ga24  1  0.283173  0.869969  0.750006  1
  Ga  Ga25  1  0.716827  0.130031  0.249994  1
  Ga  Ga26  1  0.216793  0.369961  0.249991  1
  Ga  Ga27  1  0.783207  0.630039  0.750009  1
  Ga  Ga28  1  0.162917  0.465409  0.540408  1
  Ga  Ga29  1  0.837083  0.534591  0.459592  1
  Ga  Ga30  1  0.337025  0.965411  0.459585  1
  Ga  Ga31  1  0.837043  0.534580  0.040416  1
  Ga  Ga32  1  0.662975  0.034589  0.540415  1
  Ga  Ga33  1  0.162957  0.465420  0.959584  1
  Ga  Ga34  1  0.662961  0.034578  0.959586  1
  Ga  Ga35  1  0.337039  0.965422  0.040414  1
