# generated using pymatgen
data_Hf3MgAs6Ru7
_symmetry_space_group_name_H-M   'P 1'
_cell_length_a   7.04374835
_cell_length_b   7.04374813
_cell_length_c   7.04374850
_cell_angle_alpha   109.25340089
_cell_angle_beta   109.25340284
_cell_angle_gamma   109.25337938
_symmetry_Int_Tables_number   1
_chemical_formula_structural   Hf3MgAs6Ru7
_chemical_formula_sum   'Hf3 Mg1 As6 Ru7'
_cell_volume   271.17103409
_cell_formula_units_Z   1
loop_
 _symmetry_equiv_pos_site_id
 _symmetry_equiv_pos_as_xyz
  1  'x, y, z'
loop_
 _atom_site_type_symbol
 _atom_site_label
 _atom_site_symmetry_multiplicity
 _atom_site_fract_x
 _atom_site_fract_y
 _atom_site_fract_z
 _atom_site_occupancy
  Hf  Hf0  1  0.000000  0.000000  0.500000  1
  Hf  Hf1  1  0.500000  0.000000  0.000000  1
  Hf  Hf2  1  0.000000  0.500000  0.000000  1
  Mg  Mg3  1  0.500000  0.500000  0.500000  1
  As  As4  1  0.314557  0.005422  0.314557  1
  As  As5  1  0.005422  0.314557  0.314557  1
  As  As6  1  0.994578  0.685443  0.685443  1
  As  As7  1  0.314557  0.314557  0.005422  1
  As  As8  1  0.685443  0.685443  0.994578  1
  As  As9  1  0.685443  0.994578  0.685443  1
  Ru  Ru10  1  0.751119  0.500000  0.248881  1
  Ru  Ru11  1  0.500000  0.751119  0.248881  1
  Ru  Ru12  1  0.500000  0.248881  0.751119  1
  Ru  Ru13  1  0.751119  0.248881  0.500000  1
  Ru  Ru14  1  0.248881  0.751119  0.500000  1
  Ru  Ru15  1  0.248881  0.500000  0.751119  1
  Ru  Ru16  1  0.000000  0.000000  0.000000  1
