# generated using pymatgen
data_Tm3Th(B2Ir5)2
_symmetry_space_group_name_H-M   'P 1'
_cell_length_a   11.01704116
_cell_length_b   11.01704093
_cell_length_c   11.01704149
_cell_angle_alpha   28.77760467
_cell_angle_beta   28.77760505
_cell_angle_gamma   28.77760384
_symmetry_Int_Tables_number   1
_chemical_formula_structural   Tm3Th(B2Ir5)2
_chemical_formula_sum   'Tm3 Th1 B4 Ir10'
_cell_volume   274.01986637
_cell_formula_units_Z   1
loop_
 _symmetry_equiv_pos_site_id
 _symmetry_equiv_pos_as_xyz
  1  'x, y, z'
loop_
 _atom_site_type_symbol
 _atom_site_label
 _atom_site_symmetry_multiplicity
 _atom_site_fract_x
 _atom_site_fract_y
 _atom_site_fract_z
 _atom_site_occupancy
  Tm  Tm0  1  0.950232  0.950232  0.950232  1
  Tm  Tm1  1  0.849225  0.849225  0.849225  1
  Tm  Tm2  1  0.048347  0.048347  0.048347  1
  Th  Th3  1  0.151659  0.151659  0.151659  1
  B  B4  1  0.618071  0.618071  0.618071  1
  B  B5  1  0.716000  0.716000  0.716000  1
  B  B6  1  0.382395  0.382395  0.382395  1
  B  B7  1  0.283793  0.283793  0.283793  1
  Ir  Ir8  1  0.406904  0.899247  0.406904  1
  Ir  Ir9  1  0.899247  0.406904  0.406904  1
  Ir  Ir10  1  0.499803  0.499803  0.000318  1
  Ir  Ir11  1  0.499803  0.000318  0.499803  1
  Ir  Ir12  1  0.000318  0.499803  0.499803  1
  Ir  Ir13  1  0.500427  0.500427  0.500427  1
  Ir  Ir14  1  0.593882  0.099108  0.593882  1
  Ir  Ir15  1  0.593882  0.593882  0.099108  1
  Ir  Ir16  1  0.099108  0.593882  0.593882  1
  Ir  Ir17  1  0.406904  0.406904  0.899247  1
