# generated using pymatgen
data_SmZnPt3Au
_symmetry_space_group_name_H-M   'P 1'
_cell_length_a   5.50400172
_cell_length_b   5.50400190
_cell_length_c   5.21555473
_cell_angle_alpha   58.15302784
_cell_angle_beta   58.15302027
_cell_angle_gamma   60.00000352
_symmetry_Int_Tables_number   1
_chemical_formula_structural   SmZnPt3Au
_chemical_formula_sum   'Sm1 Zn1 Pt3 Au1'
_cell_volume   108.50173514
_cell_formula_units_Z   1
loop_
 _symmetry_equiv_pos_site_id
 _symmetry_equiv_pos_as_xyz
  1  'x, y, z'
loop_
 _atom_site_type_symbol
 _atom_site_label
 _atom_site_symmetry_multiplicity
 _atom_site_fract_x
 _atom_site_fract_y
 _atom_site_fract_z
 _atom_site_occupancy
  Sm  Sm0  1  0.004177  0.004177  0.987469  1
  Zn  Zn1  1  0.622741  0.622741  0.131776  1
  Pt  Pt2  1  0.622537  0.124964  0.629960  1
  Pt  Pt3  1  0.124964  0.622537  0.629960  1
  Pt  Pt4  1  0.622537  0.622537  0.629960  1
  Au  Au5  1  0.253042  0.253042  0.240874  1
