# generated using pymatgen
data_SrTb3(Ga8Pt3)3
_symmetry_space_group_name_H-M   'P 1'
_cell_length_a   7.54060416
_cell_length_b   7.62040387
_cell_length_c   13.46193492
_cell_angle_alpha   84.66596946
_cell_angle_beta   79.52535949
_cell_angle_gamma   60.25346570
_symmetry_Int_Tables_number   1
_chemical_formula_structural   SrTb3(Ga8Pt3)3
_chemical_formula_sum   'Sr1 Tb3 Ga24 Pt9'
_cell_volume   660.42766523
_cell_formula_units_Z   1
loop_
 _symmetry_equiv_pos_site_id
 _symmetry_equiv_pos_as_xyz
  1  'x, y, z'
loop_
 _atom_site_type_symbol
 _atom_site_label
 _atom_site_symmetry_multiplicity
 _atom_site_fract_x
 _atom_site_fract_y
 _atom_site_fract_z
 _atom_site_occupancy
  Sr  Sr0  1  0.394205  0.167918  0.810658  1
  Tb  Tb1  1  0.603881  0.832294  0.191129  1
  Tb  Tb2  1  0.731815  0.498018  0.811047  1
  Tb  Tb3  1  0.266518  0.501948  0.190203  1
  Ga  Ga4  1  0.689005  0.831975  0.943631  1
  Ga  Ga5  1  0.312651  0.166462  0.064409  1
  Ga  Ga6  1  0.146407  0.832210  0.557907  1
  Ga  Ga7  1  0.855116  0.167928  0.438904  1
  Ga  Ga8  1  0.479748  0.166668  0.554230  1
  Ga  Ga9  1  0.522158  0.832914  0.442005  1
  Ga  Ga10  1  0.222086  0.165036  0.322933  1
  Ga  Ga11  1  0.782439  0.833946  0.670285  1
  Ga  Ga12  1  0.439037  0.505265  0.668775  1
  Ga  Ga13  1  0.562469  0.496255  0.324844  1
  Ga  Ga14  1  0.107899  0.162580  0.667403  1
  Ga  Ga15  1  0.892961  0.836901  0.325771  1
  Ga  Ga16  1  0.354801  0.501611  0.944239  1
  Ga  Ga17  1  0.640746  0.503311  0.062446  1
  Ga  Ga18  1  0.015173  0.167724  0.951492  1
  Ga  Ga19  1  0.979135  0.829994  0.057892  1
  Ga  Ga20  1  0.187669  0.499010  0.441108  1
  Ga  Ga21  1  0.813355  0.501314  0.556282  1
  Ga  Ga22  1  0.734293  0.164044  0.182967  1
  Ga  Ga23  1  0.270989  0.821895  0.817745  1
  Ga  Ga24  1  0.049695  0.638022  0.816981  1
  Ga  Ga25  1  0.936186  0.369999  0.184165  1
  Ga  Ga26  1  0.865313  0.044717  0.816538  1
  Ga  Ga27  1  0.142138  0.958942  0.184440  1
  Pt  Pt28  1  0.118120  0.496109  0.636540  1
  Pt  Pt29  1  0.883567  0.504107  0.360550  1
  Pt  Pt30  1  0.659077  0.169689  0.001939  1
  Pt  Pt31  1  0.338570  0.832016  0.003436  1
  Pt  Pt32  1  0.541838  0.166782  0.360004  1
  Pt  Pt33  1  0.458506  0.833625  0.637243  1
  Pt  Pt34  1  0.780797  0.171641  0.634488  1
  Pt  Pt35  1  0.221296  0.827840  0.362329  1
  Pt  Pt36  1  0.000341  0.499286  0.003036  1
