# generated using pymatgen
data_Tb4YbCoRuO12
_symmetry_space_group_name_H-M   'P 1'
_cell_length_a   6.80593832
_cell_length_b   6.77379493
_cell_length_c   7.28717679
_cell_angle_alpha   74.39306638
_cell_angle_beta   74.44885678
_cell_angle_gamma   51.25071680
_symmetry_Int_Tables_number   1
_chemical_formula_structural   Tb4YbCoRuO12
_chemical_formula_sum   'Tb4 Yb1 Co1 Ru1 O12'
_cell_volume   250.11445035
_cell_formula_units_Z   1
loop_
 _symmetry_equiv_pos_site_id
 _symmetry_equiv_pos_as_xyz
  1  'x, y, z'
loop_
 _atom_site_type_symbol
 _atom_site_label
 _atom_site_symmetry_multiplicity
 _atom_site_fract_x
 _atom_site_fract_y
 _atom_site_fract_z
 _atom_site_occupancy
  Tb  Tb0  1  0.678111  0.711865  0.136149  1
  Tb  Tb1  1  0.999382  0.005531  0.999834  1
  Tb  Tb2  1  0.284558  0.321006  0.859605  1
  Tb  Tb3  1  0.305395  0.314677  0.328774  1
  Yb  Yb4  1  0.683844  0.693428  0.669843  1
  Co  Co5  1  0.264157  0.737108  0.500825  1
  Ru  Ru6  1  0.771945  0.227552  0.502956  1
  O  O7  1  0.392729  0.918197  0.924763  1
  O  O8  1  0.582795  0.103125  0.577214  1
  O  O9  1  0.895747  0.418390  0.418409  1
  O  O10  1  0.086961  0.601394  0.080356  1
  O  O11  1  0.020306  0.978683  0.329209  1
  O  O12  1  0.498384  0.500529  0.677268  1
  O  O13  1  0.896150  0.403113  0.932876  1
  O  O14  1  0.106590  0.573314  0.577468  1
  O  O15  1  0.419194  0.902818  0.416527  1
  O  O16  1  0.593465  0.108751  0.072446  1
  O  O17  1  0.501793  0.498959  0.319511  1
  O  O18  1  0.018494  0.981561  0.675967  1
