# generated using pymatgen
data_Nd3In3SnIr2
_symmetry_space_group_name_H-M   'P 1'
_cell_length_a   7.86355900
_cell_length_b   7.86355974
_cell_length_c   4.11276600
_cell_angle_alpha   90.00000000
_cell_angle_beta   90.00000000
_cell_angle_gamma   119.99999269
_symmetry_Int_Tables_number   1
_chemical_formula_structural   Nd3In3SnIr2
_chemical_formula_sum   'Nd3 In3 Sn1 Ir2'
_cell_volume   220.24345148
_cell_formula_units_Z   1
loop_
 _symmetry_equiv_pos_site_id
 _symmetry_equiv_pos_as_xyz
  1  'x, y, z'
loop_
 _atom_site_type_symbol
 _atom_site_label
 _atom_site_symmetry_multiplicity
 _atom_site_fract_x
 _atom_site_fract_y
 _atom_site_fract_z
 _atom_site_occupancy
  Nd  Nd0  1  0.389640  0.416786  0.500000  1
  Nd  Nd1  1  0.583214  0.972853  0.500000  1
  Nd  Nd2  1  0.027147  0.610360  0.500000  1
  In  In3  1  0.748984  0.759175  0.000000  1
  In  In4  1  0.240825  0.989809  0.000000  1
  In  In5  1  0.010191  0.251016  0.000000  1
  Sn  Sn6  1  0.666667  0.333333  0.000000  1
  Ir  Ir7  1  0.000000  0.000000  0.500000  1
  Ir  Ir8  1  0.333333  0.666667  0.000000  1
