# generated using pymatgen
data_Hf5Zr5ZnPPb6
_symmetry_space_group_name_H-M   'P 1'
_cell_length_a   8.74415032
_cell_length_b   8.75670436
_cell_length_c   5.95766122
_cell_angle_alpha   89.98438699
_cell_angle_beta   90.03127085
_cell_angle_gamma   119.95258663
_symmetry_Int_Tables_number   1
_chemical_formula_structural   Hf5Zr5ZnPPb6
_chemical_formula_sum   'Hf5 Zr5 Zn1 P1 Pb6'
_cell_volume   395.25008071
_cell_formula_units_Z   1
loop_
 _symmetry_equiv_pos_site_id
 _symmetry_equiv_pos_as_xyz
  1  'x, y, z'
loop_
 _atom_site_type_symbol
 _atom_site_label
 _atom_site_symmetry_multiplicity
 _atom_site_fract_x
 _atom_site_fract_y
 _atom_site_fract_z
 _atom_site_occupancy
  Hf  Hf0  1  0.333248  0.667050  0.000335  1
  Hf  Hf1  1  0.666809  0.333526  0.499983  1
  Hf  Hf2  1  0.666200  0.332950  0.000335  1
  Hf  Hf3  1  0.333282  0.666474  0.499983  1
  Hf  Hf4  1  0.255980  0.000000  0.235681  1
  Zr  Zr5  1  0.256385  0.255782  0.762351  1
  Zr  Zr6  1  0.000602  0.744218  0.762351  1
  Zr  Zr7  1  0.999109  0.256500  0.237933  1
  Zr  Zr8  1  0.742609  0.743500  0.237933  1
  Zr  Zr9  1  0.744531  0.000000  0.762757  1
  Zn  Zn10  1  0.001194  0.000000  0.498554  1
  P  P11  1  0.001200  0.000000  0.001616  1
  Pb  Pb12  1  0.606676  0.000000  0.255013  1
  Pb  Pb13  1  0.608192  0.608027  0.745071  1
  Pb  Pb14  1  0.000166  0.391973  0.745071  1
  Pb  Pb15  1  0.000403  0.609342  0.255221  1
  Pb  Pb16  1  0.391061  0.390658  0.255221  1
  Pb  Pb17  1  0.392352  0.000000  0.744590  1
