# generated using pymatgen
data_TbHo2In3NiHgRu
_symmetry_space_group_name_H-M   'P 1'
_cell_length_a   7.72392500
_cell_length_b   7.71929719
_cell_length_c   3.77048500
_cell_angle_alpha   90.00000000
_cell_angle_beta   90.00000000
_cell_angle_gamma   120.02926800
_symmetry_Int_Tables_number   1
_chemical_formula_structural   TbHo2In3NiHgRu
_chemical_formula_sum   'Tb1 Ho2 In3 Ni1 Hg1 Ru1'
_cell_volume   194.63256203
_cell_formula_units_Z   1
loop_
 _symmetry_equiv_pos_site_id
 _symmetry_equiv_pos_as_xyz
  1  'x, y, z'
loop_
 _atom_site_type_symbol
 _atom_site_label
 _atom_site_symmetry_multiplicity
 _atom_site_fract_x
 _atom_site_fract_y
 _atom_site_fract_z
 _atom_site_occupancy
  Tb  Tb0  1  0.969945  0.578705  0.500000  1
  Ho  Ho1  1  0.420683  0.390014  0.500000  1
  Ho  Ho2  1  0.609600  0.030863  0.500000  1
  In  In3  1  0.251522  0.004316  0.000000  1
  In  In4  1  0.752438  0.749786  0.000000  1
  In  In5  1  0.996029  0.246715  0.000000  1
  Ni  Ni6  1  0.000277  0.001081  0.500000  1
  Hg  Hg7  1  0.334962  0.667190  0.000000  1
  Ru  Ru8  1  0.664543  0.331332  0.000000  1
