# generated using pymatgen
data_YEr5ReB14Ru
_symmetry_space_group_name_H-M   'P 1'
_cell_length_a   7.99738647
_cell_length_b   7.99738613
_cell_length_c   9.29588800
_cell_angle_alpha   90.00000000
_cell_angle_beta   90.00000000
_cell_angle_gamma   154.62568579
_symmetry_Int_Tables_number   1
_chemical_formula_structural   YEr5ReB14Ru
_chemical_formula_sum   'Y1 Er5 Re1 B14 Ru1'
_cell_volume   254.78179169
_cell_formula_units_Z   1
loop_
 _symmetry_equiv_pos_site_id
 _symmetry_equiv_pos_as_xyz
  1  'x, y, z'
loop_
 _atom_site_type_symbol
 _atom_site_label
 _atom_site_symmetry_multiplicity
 _atom_site_fract_x
 _atom_site_fract_y
 _atom_site_fract_z
 _atom_site_occupancy
  Y  Y0  1  0.755245  0.244755  0.750000  1
  Er  Er1  1  0.894397  0.105603  0.440241  1
  Er  Er2  1  0.105521  0.894479  0.559501  1
  Er  Er3  1  0.894397  0.105603  0.059759  1
  Er  Er4  1  0.105521  0.894479  0.940499  1
  Er  Er5  1  0.243586  0.756414  0.250000  1
  Re  Re6  1  0.947716  0.052284  0.750000  1
  B  B7  1  0.727049  0.272951  0.464091  1
  B  B8  1  0.272564  0.727436  0.531972  1
  B  B9  1  0.727049  0.272951  0.035909  1
  B  B10  1  0.272564  0.727436  0.968028  1
  B  B11  1  0.631605  0.368395  0.151602  1
  B  B12  1  0.367873  0.632127  0.849592  1
  B  B13  1  0.631605  0.368395  0.348398  1
  B  B14  1  0.367873  0.632127  0.650408  1
  B  B15  1  0.520124  0.479876  0.096127  1
  B  B16  1  0.480180  0.519820  0.905034  1
  B  B17  1  0.520124  0.479876  0.403873  1
  B  B18  1  0.480180  0.519820  0.594966  1
  B  B19  1  0.455509  0.544491  0.250000  1
  B  B20  1  0.545779  0.454221  0.750000  1
  Ru  Ru21  1  0.053540  0.946460  0.250000  1
