# generated using pymatgen
data_RbFePd3O8
_symmetry_space_group_name_H-M   'P 1'
_cell_length_a   7.45413701
_cell_length_b   7.45413718
_cell_length_c   10.27044842
_cell_angle_alpha   46.07093898
_cell_angle_beta   46.07093805
_cell_angle_gamma   24.27216870
_symmetry_Int_Tables_number   1
_chemical_formula_structural   RbFePd3O8
_chemical_formula_sum   'Rb1 Fe1 Pd3 O8'
_cell_volume   165.28393767
_cell_formula_units_Z   1
loop_
 _symmetry_equiv_pos_site_id
 _symmetry_equiv_pos_as_xyz
  1  'x, y, z'
loop_
 _atom_site_type_symbol
 _atom_site_label
 _atom_site_symmetry_multiplicity
 _atom_site_fract_x
 _atom_site_fract_y
 _atom_site_fract_z
 _atom_site_occupancy
  Rb  Rb0  1  0.004942  0.004942  0.996036  1
  Fe  Fe1  1  0.149813  0.149813  0.185905  1
  Pd  Pd2  1  0.849676  0.849676  0.815575  1
  Pd  Pd3  1  0.668833  0.668833  0.478840  1
  Pd  Pd4  1  0.332527  0.332527  0.515986  1
  O  O5  1  0.318498  0.318498  0.725058  1
  O  O6  1  0.664042  0.664042  0.290949  1
  O  O7  1  0.955391  0.955391  0.377673  1
  O  O8  1  0.047877  0.047877  0.627476  1
  O  O9  1  0.349944  0.349944  0.944427  1
  O  O10  1  0.655875  0.655875  0.046983  1
  O  O11  1  0.701629  0.701629  0.645648  1
  O  O12  1  0.300951  0.300951  0.349444  1
