# generated using pymatgen
data_Y10Ir3Os2Au
_symmetry_space_group_name_H-M   'P 1'
_cell_length_a   11.00151204
_cell_length_b   10.93558000
_cell_length_c   6.47676000
_cell_angle_alpha   90.00000000
_cell_angle_beta   89.93071807
_cell_angle_gamma   90.00000000
_symmetry_Int_Tables_number   1
_chemical_formula_structural   Y10Ir3Os2Au
_chemical_formula_sum   'Y20 Ir6 Os4 Au2'
_cell_volume   779.20492233
_cell_formula_units_Z   2
loop_
 _symmetry_equiv_pos_site_id
 _symmetry_equiv_pos_as_xyz
  1  'x, y, z'
loop_
 _atom_site_type_symbol
 _atom_site_label
 _atom_site_symmetry_multiplicity
 _atom_site_fract_x
 _atom_site_fract_y
 _atom_site_fract_z
 _atom_site_occupancy
  Y  Y0  1  0.294357  0.086811  0.376669  1
  Y  Y1  1  0.294357  0.913189  0.876669  1
  Y  Y2  1  0.697573  0.090780  0.868434  1
  Y  Y3  1  0.697573  0.909220  0.368434  1
  Y  Y4  1  0.577832  0.792457  0.879521  1
  Y  Y5  1  0.577832  0.207543  0.379521  1
  Y  Y6  1  0.410592  0.793451  0.379604  1
  Y  Y7  1  0.410592  0.206549  0.879604  1
  Y  Y8  1  0.207103  0.412671  0.619430  1
  Y  Y9  1  0.207103  0.587329  0.119430  1
  Y  Y10  1  0.792856  0.420576  0.120681  1
  Y  Y11  1  0.792856  0.579424  0.620681  1
  Y  Y12  1  0.918136  0.703244  0.134413  1
  Y  Y13  1  0.918136  0.296756  0.634413  1
  Y  Y14  1  0.093875  0.701595  0.620275  1
  Y  Y15  1  0.093875  0.298405  0.120275  1
  Y  Y16  1  0.009138  0.998652  0.500424  1
  Y  Y17  1  0.009138  0.001348  0.000424  1
  Y  Y18  1  0.499444  0.499266  0.000777  1
  Y  Y19  1  0.499444  0.500734  0.500777  1
  Ir  Ir20  1  0.152193  0.152474  0.749286  1
  Ir  Ir21  1  0.152193  0.847526  0.249286  1
  Ir  Ir22  1  0.653268  0.347520  0.748818  1
  Ir  Ir23  1  0.653268  0.652480  0.248818  1
  Ir  Ir24  1  0.348281  0.347595  0.250850  1
  Ir  Ir25  1  0.348281  0.652405  0.750850  1
  Os  Os26  1  0.499914  0.000250  0.125816  1
  Os  Os27  1  0.499914  0.999750  0.625816  1
  Os  Os28  1  0.000334  0.500939  0.874079  1
  Os  Os29  1  0.000334  0.499061  0.374079  1
  Au  Au30  1  0.845105  0.154195  0.250922  1
  Au  Au31  1  0.845105  0.845805  0.750922  1
