# generated using pymatgen
data_AcDy5(AuO7)2
_symmetry_space_group_name_H-M   'P 1'
_cell_length_a   6.53466049
_cell_length_b   6.53466006
_cell_length_c   7.51340500
_cell_angle_alpha   90.06718029
_cell_angle_beta   89.93281095
_cell_angle_gamma   108.66556552
_symmetry_Int_Tables_number   1
_chemical_formula_structural   AcDy5(AuO7)2
_chemical_formula_sum   'Ac1 Dy5 Au2 O14'
_cell_volume   303.96042056
_cell_formula_units_Z   1
loop_
 _symmetry_equiv_pos_site_id
 _symmetry_equiv_pos_as_xyz
  1  'x, y, z'
loop_
 _atom_site_type_symbol
 _atom_site_label
 _atom_site_symmetry_multiplicity
 _atom_site_fract_x
 _atom_site_fract_y
 _atom_site_fract_z
 _atom_site_occupancy
  Ac  Ac0  1  0.500000  0.500000  0.000000  1
  Dy  Dy1  1  0.001353  0.471226  0.744144  1
  Dy  Dy2  1  0.998647  0.528774  0.255856  1
  Dy  Dy3  1  0.471226  0.001353  0.255856  1
  Dy  Dy4  1  0.528774  0.998647  0.744144  1
  Dy  Dy5  1  0.500000  0.500000  0.500000  1
  Au  Au6  1  0.000000  0.000000  0.000000  1
  Au  Au7  1  0.000000  0.000000  0.500000  1
  O  O8  1  0.081705  0.327356  0.475277  1
  O  O9  1  0.922160  0.077840  0.749585  1
  O  O10  1  0.066314  0.326823  0.024395  1
  O  O11  1  0.918295  0.672644  0.524723  1
  O  O12  1  0.643437  0.356563  0.733340  1
  O  O13  1  0.672644  0.918295  0.475277  1
  O  O14  1  0.327356  0.081705  0.524723  1
  O  O15  1  0.326823  0.066314  0.975605  1
  O  O16  1  0.673177  0.933686  0.024395  1
  O  O17  1  0.933686  0.673177  0.975605  1
  O  O18  1  0.638667  0.361333  0.267457  1
  O  O19  1  0.356563  0.643437  0.266660  1
  O  O20  1  0.361333  0.638667  0.732543  1
  O  O21  1  0.077840  0.922160  0.250415  1
