# generated using pymatgen
data_Nd2DyHo5(WO6)4
_symmetry_space_group_name_H-M   'P 1'
_cell_length_a   5.43746000
_cell_length_b   7.75179964
_cell_length_c   11.53431625
_cell_angle_alpha   75.50997748
_cell_angle_beta   90.00000000
_cell_angle_gamma   90.00000000
_symmetry_Int_Tables_number   1
_chemical_formula_structural   Nd2DyHo5(WO6)4
_chemical_formula_sum   'Nd2 Dy1 Ho5 W4 O24'
_cell_volume   470.70803528
_cell_formula_units_Z   1
loop_
 _symmetry_equiv_pos_site_id
 _symmetry_equiv_pos_as_xyz
  1  'x, y, z'
loop_
 _atom_site_type_symbol
 _atom_site_label
 _atom_site_symmetry_multiplicity
 _atom_site_fract_x
 _atom_site_fract_y
 _atom_site_fract_z
 _atom_site_occupancy
  Nd  Nd0  1  0.685416  0.500000  0.750000  1
  Nd  Nd1  1  0.314534  0.500000  0.250000  1
  Dy  Dy2  1  0.740437  0.000000  0.750000  1
  Ho  Ho3  1  0.259718  0.000000  0.250000  1
  Ho  Ho4  1  0.188032  0.798520  0.577030  1
  Ho  Ho5  1  0.812028  0.798552  0.077109  1
  Ho  Ho6  1  0.188032  0.201480  0.922970  1
  Ho  Ho7  1  0.812028  0.201448  0.422891  1
  W  W8  1  0.252752  0.726667  0.885114  1
  W  W9  1  0.747238  0.726778  0.385062  1
  W  W10  1  0.252752  0.273333  0.614886  1
  W  W11  1  0.747238  0.273222  0.114938  1
  O  O12  1  0.039881  0.941062  0.896108  1
  O  O13  1  0.529923  0.848087  0.931223  1
  O  O14  1  0.960819  0.941199  0.395770  1
  O  O15  1  0.456396  0.793453  0.727617  1
  O  O16  1  0.469840  0.848325  0.430973  1
  O  O17  1  0.987036  0.718155  0.769557  1
  O  O18  1  0.542923  0.793958  0.227645  1
  O  O19  1  0.856975  0.640869  0.546183  1
  O  O20  1  0.351128  0.492204  0.888638  1
  O  O21  1  0.013100  0.718390  0.269537  1
  O  O22  1  0.351128  0.507796  0.611362  1
  O  O23  1  0.856975  0.359131  0.953817  1
  O  O24  1  0.142962  0.640803  0.046196  1
  O  O25  1  0.648916  0.492237  0.388606  1
  O  O26  1  0.987036  0.281845  0.730443  1
  O  O27  1  0.648916  0.507763  0.111394  1
  O  O28  1  0.142962  0.359197  0.453804  1
  O  O29  1  0.456396  0.206547  0.772383  1
  O  O30  1  0.013100  0.281610  0.230463  1
  O  O31  1  0.529923  0.151913  0.568777  1
  O  O32  1  0.542923  0.206042  0.272355  1
  O  O33  1  0.039881  0.058938  0.603892  1
  O  O34  1  0.469840  0.151675  0.069027  1
  O  O35  1  0.960819  0.058801  0.104230  1
