# generated using pymatgen
data_Y4Lu4Os3WC8
_symmetry_space_group_name_H-M   'P 1'
_cell_length_a   5.05356700
_cell_length_b   6.53369870
_cell_length_c   9.69810300
_cell_angle_alpha   89.69541349
_cell_angle_beta   90.00000000
_cell_angle_gamma   90.00000000
_symmetry_Int_Tables_number   1
_chemical_formula_structural   Y4Lu4Os3WC8
_chemical_formula_sum   'Y4 Lu4 Os3 W1 C8'
_cell_volume   320.21213542
_cell_formula_units_Z   1
loop_
 _symmetry_equiv_pos_site_id
 _symmetry_equiv_pos_as_xyz
  1  'x, y, z'
loop_
 _atom_site_type_symbol
 _atom_site_label
 _atom_site_symmetry_multiplicity
 _atom_site_fract_x
 _atom_site_fract_y
 _atom_site_fract_z
 _atom_site_occupancy
  Y  Y0  1  0.250000  0.534950  0.211370  1
  Y  Y1  1  0.750000  0.463061  0.783400  1
  Y  Y2  1  0.750000  0.967204  0.713043  1
  Y  Y3  1  0.250000  0.033403  0.288625  1
  Lu  Lu4  1  0.250000  0.672600  0.556498  1
  Lu  Lu5  1  0.750000  0.328931  0.442800  1
  Lu  Lu6  1  0.750000  0.829902  0.057203  1
  Lu  Lu7  1  0.250000  0.173937  0.941883  1
  Os  Os8  1  0.750000  0.280001  0.133796  1
  Os  Os9  1  0.750000  0.778528  0.365044  1
  Os  Os10  1  0.250000  0.222325  0.630832  1
  W  W11  1  0.250000  0.719569  0.869293  1
  C  C12  1  0.250000  0.449464  0.761237  1
  C  C13  1  0.750000  0.546098  0.240715  1
  C  C14  1  0.750000  0.047347  0.260480  1
  C  C15  1  0.250000  0.953966  0.738658  1
  C  C16  1  0.250000  0.832801  0.057768  1
  C  C17  1  0.750000  0.167533  0.949433  1
  C  C18  1  0.750000  0.666343  0.551316  1
  C  C19  1  0.250000  0.332034  0.446606  1
