# generated using pymatgen
data_Cs6ScTe4Br
_symmetry_space_group_name_H-M   'P 1'
_cell_length_a   12.26137200
_cell_length_b   12.26137418
_cell_length_c   9.15156200
_cell_angle_alpha   90.00000000
_cell_angle_beta   90.00000000
_cell_angle_gamma   120.00000491
_symmetry_Int_Tables_number   1
_chemical_formula_structural   Cs6ScTe4Br
_chemical_formula_sum   'Cs12 Sc2 Te8 Br2'
_cell_volume   1191.52744825
_cell_formula_units_Z   2
loop_
 _symmetry_equiv_pos_site_id
 _symmetry_equiv_pos_as_xyz
  1  'x, y, z'
loop_
 _atom_site_type_symbol
 _atom_site_label
 _atom_site_symmetry_multiplicity
 _atom_site_fract_x
 _atom_site_fract_y
 _atom_site_fract_z
 _atom_site_occupancy
  Cs  Cs0  1  0.131809  0.868191  0.515155  1
  Cs  Cs1  1  0.736381  0.868191  0.515155  1
  Cs  Cs2  1  0.949450  0.474725  0.318735  1
  Cs  Cs3  1  0.525275  0.474725  0.318735  1
  Cs  Cs4  1  0.868191  0.736381  0.015155  1
  Cs  Cs5  1  0.263619  0.131809  0.015155  1
  Cs  Cs6  1  0.525275  0.050550  0.318735  1
  Cs  Cs7  1  0.131809  0.263619  0.515155  1
  Cs  Cs8  1  0.868191  0.131809  0.015155  1
  Cs  Cs9  1  0.050550  0.525275  0.818735  1
  Cs  Cs10  1  0.474725  0.949450  0.818735  1
  Cs  Cs11  1  0.474725  0.525275  0.818735  1
  Sc  Sc12  1  0.666667  0.333333  0.710942  1
  Sc  Sc13  1  0.333333  0.666667  0.210942  1
  Te  Te14  1  0.416020  0.208010  0.610679  1
  Te  Te15  1  0.583980  0.791990  0.110679  1
  Te  Te16  1  0.666667  0.333333  0.021478  1
  Te  Te17  1  0.791990  0.583980  0.610679  1
  Te  Te18  1  0.208010  0.416020  0.110679  1
  Te  Te19  1  0.333333  0.666667  0.521478  1
  Te  Te20  1  0.208010  0.791990  0.110679  1
  Te  Te21  1  0.791990  0.208010  0.610679  1
  Br  Br22  1  0.000000  0.000000  0.274475  1
  Br  Br23  1  0.000000  0.000000  0.774475  1
