# generated using pymatgen
data_NdCu4HgO8
_symmetry_space_group_name_H-M   'P 1'
_cell_length_a   6.34256336
_cell_length_b   6.34256437
_cell_length_c   6.34256395
_cell_angle_alpha   125.21540304
_cell_angle_beta   125.21539771
_cell_angle_gamma   81.18156013
_symmetry_Int_Tables_number   1
_chemical_formula_structural   NdCu4HgO8
_chemical_formula_sum   'Nd1 Cu4 Hg1 O8'
_cell_volume   164.05104725
_cell_formula_units_Z   1
loop_
 _symmetry_equiv_pos_site_id
 _symmetry_equiv_pos_as_xyz
  1  'x, y, z'
loop_
 _atom_site_type_symbol
 _atom_site_label
 _atom_site_symmetry_multiplicity
 _atom_site_fract_x
 _atom_site_fract_y
 _atom_site_fract_z
 _atom_site_occupancy
  Nd  Nd0  1  0.750000  0.250000  0.500000  1
  Cu  Cu1  1  0.378965  0.124836  0.753026  1
  Cu  Cu2  1  0.371811  0.625939  0.246974  1
  Cu  Cu3  1  0.875164  0.628189  0.254128  1
  Cu  Cu4  1  0.374061  0.621035  0.745872  1
  Hg  Hg5  1  0.000000  0.000000  0.000000  1
  O  O6  1  0.172589  0.589053  0.861878  1
  O  O7  1  0.727175  0.310711  0.138122  1
  O  O8  1  0.572380  0.652724  0.626617  1
  O  O9  1  0.026107  0.945763  0.373383  1
  O  O10  1  0.347276  0.973893  0.919656  1
  O  O11  1  0.054237  0.427620  0.080344  1
  O  O12  1  0.689289  0.827411  0.416463  1
  O  O13  1  0.410947  0.272825  0.583537  1
