# generated using pymatgen
data_Tm4TaIO12
_symmetry_space_group_name_H-M   'P 1'
_cell_length_a   5.40967500
_cell_length_b   7.66385681
_cell_length_c   11.45115500
_cell_angle_alpha   76.25602367
_cell_angle_beta   90.00000000
_cell_angle_gamma   90.00000000
_symmetry_Int_Tables_number   1
_chemical_formula_structural   Tm4TaIO12
_chemical_formula_sum   'Tm8 Ta2 I2 O24'
_cell_volume   461.15956228
_cell_formula_units_Z   2
loop_
 _symmetry_equiv_pos_site_id
 _symmetry_equiv_pos_as_xyz
  1  'x, y, z'
loop_
 _atom_site_type_symbol
 _atom_site_label
 _atom_site_symmetry_multiplicity
 _atom_site_fract_x
 _atom_site_fract_y
 _atom_site_fract_z
 _atom_site_occupancy
  Tm  Tm0  1  0.742314  0.980368  0.759250  1
  Tm  Tm1  1  0.257686  0.980368  0.259250  1
  Tm  Tm2  1  0.188889  0.792310  0.577098  1
  Tm  Tm3  1  0.811111  0.792310  0.077098  1
  Tm  Tm4  1  0.688371  0.524109  0.744334  1
  Tm  Tm5  1  0.311629  0.524109  0.244334  1
  Tm  Tm6  1  0.193061  0.207916  0.921288  1
  Tm  Tm7  1  0.806939  0.207916  0.421288  1
  Ta  Ta8  1  0.255337  0.719223  0.888988  1
  Ta  Ta9  1  0.744663  0.719223  0.388988  1
  I  I10  1  0.254663  0.272316  0.617381  1
  I  I11  1  0.745337  0.272316  0.117381  1
  O  O12  1  0.031269  0.948684  0.902121  1
  O  O13  1  0.539045  0.850526  0.929536  1
  O  O14  1  0.968731  0.948684  0.402121  1
  O  O15  1  0.472848  0.786624  0.719259  1
  O  O16  1  0.460955  0.850526  0.429536  1
  O  O17  1  0.978206  0.719266  0.768163  1
  O  O18  1  0.527152  0.786624  0.219259  1
  O  O19  1  0.855776  0.636253  0.552470  1
  O  O20  1  0.368488  0.485233  0.878787  1
  O  O21  1  0.021794  0.719266  0.268163  1
  O  O22  1  0.377243  0.502263  0.612224  1
  O  O23  1  0.864169  0.359175  0.958314  1
  O  O24  1  0.144224  0.636253  0.052470  1
  O  O25  1  0.631512  0.485233  0.378787  1
  O  O26  1  0.983112  0.302939  0.724925  1
  O  O27  1  0.622757  0.502263  0.112224  1
  O  O28  1  0.135831  0.359175  0.458314  1
  O  O29  1  0.437370  0.193277  0.767579  1
  O  O30  1  0.016888  0.302939  0.224925  1
  O  O31  1  0.531925  0.159370  0.564838  1
  O  O32  1  0.562630  0.193277  0.267579  1
  O  O33  1  0.059253  0.060146  0.613445  1
  O  O34  1  0.468075  0.159370  0.064838  1
  O  O35  1  0.940747  0.060146  0.113445  1
