# generated using pymatgen
data_Hf16TiRh7O4
_symmetry_space_group_name_H-M   'P 1'
_cell_length_a   8.78445265
_cell_length_b   8.69884694
_cell_length_c   8.69884800
_cell_angle_alpha   60.00000356
_cell_angle_beta   60.32184991
_cell_angle_gamma   60.32184408
_symmetry_Int_Tables_number   1
_chemical_formula_structural   Hf16TiRh7O4
_chemical_formula_sum   'Hf16 Ti1 Rh7 O4'
_cell_volume   472.30096079
_cell_formula_units_Z   1
loop_
 _symmetry_equiv_pos_site_id
 _symmetry_equiv_pos_as_xyz
  1  'x, y, z'
loop_
 _atom_site_type_symbol
 _atom_site_label
 _atom_site_symmetry_multiplicity
 _atom_site_fract_x
 _atom_site_fract_y
 _atom_site_fract_z
 _atom_site_occupancy
  Hf  Hf0  1  0.127188  0.624271  0.624271  1
  Hf  Hf1  1  0.626661  0.106300  0.633520  1
  Hf  Hf2  1  0.626661  0.633520  0.106300  1
  Hf  Hf3  1  0.626661  0.633520  0.633520  1
  Hf  Hf4  1  0.813945  0.810618  0.187718  1
  Hf  Hf5  1  0.183876  0.186754  0.814685  1
  Hf  Hf6  1  0.813945  0.187718  0.810618  1
  Hf  Hf7  1  0.183876  0.814685  0.186754  1
  Hf  Hf8  1  0.183876  0.814685  0.814685  1
  Hf  Hf9  1  0.813945  0.187718  0.187718  1
  Hf  Hf10  1  0.432500  0.433614  0.066943  1
  Hf  Hf11  1  0.057897  0.072479  0.434812  1
  Hf  Hf12  1  0.432500  0.066943  0.433614  1
  Hf  Hf13  1  0.057897  0.434812  0.072479  1
  Hf  Hf14  1  0.057897  0.434812  0.434812  1
  Hf  Hf15  1  0.432500  0.066943  0.066943  1
  Ti  Ti16  1  0.746802  0.417732  0.417732  1
  Rh  Rh17  1  0.416755  0.769277  0.406983  1
  Rh  Rh18  1  0.416755  0.406983  0.769277  1
  Rh  Rh19  1  0.416755  0.406983  0.406983  1
  Rh  Rh20  1  0.460214  0.846596  0.846596  1
  Rh  Rh21  1  0.853544  0.462105  0.842176  1
  Rh  Rh22  1  0.853544  0.842176  0.462105  1
  Rh  Rh23  1  0.853544  0.842176  0.842176  1
  O  O24  1  0.620147  0.126618  0.126618  1
  O  O25  1  0.130037  0.622517  0.123723  1
  O  O26  1  0.130037  0.123723  0.622517  1
  O  O27  1  0.130037  0.123723  0.123723  1
