# generated using pymatgen
data_Ca(As3Pt2)2
_symmetry_space_group_name_H-M   'P 1'
_cell_length_a   6.04002608
_cell_length_b   6.04002637
_cell_length_c   12.12857061
_cell_angle_alpha   89.26565608
_cell_angle_beta   89.26565641
_cell_angle_gamma   88.73312563
_symmetry_Int_Tables_number   1
_chemical_formula_structural   Ca(As3Pt2)2
_chemical_formula_sum   'Ca2 As12 Pt8'
_cell_volume   442.29424853
_cell_formula_units_Z   2
loop_
 _symmetry_equiv_pos_site_id
 _symmetry_equiv_pos_as_xyz
  1  'x, y, z'
loop_
 _atom_site_type_symbol
 _atom_site_label
 _atom_site_symmetry_multiplicity
 _atom_site_fract_x
 _atom_site_fract_y
 _atom_site_fract_z
 _atom_site_occupancy
  Ca  Ca0  1  0.597137  0.402863  0.750000  1
  Ca  Ca1  1  0.402863  0.597137  0.250000  1
  As  As2  1  0.097207  0.138050  0.308288  1
  As  As3  1  0.861950  0.902793  0.191712  1
  As  As4  1  0.902793  0.861950  0.691712  1
  As  As5  1  0.138050  0.097207  0.808288  1
  As  As6  1  0.623514  0.880547  0.943278  1
  As  As7  1  0.119453  0.376486  0.556722  1
  As  As8  1  0.376486  0.119453  0.056722  1
  As  As9  1  0.880547  0.623514  0.443278  1
  As  As10  1  0.876257  0.384150  0.055082  1
  As  As11  1  0.615850  0.123743  0.444918  1
  As  As12  1  0.384150  0.876257  0.555082  1
  As  As13  1  0.123743  0.615850  0.944918  1
  Pt  Pt14  1  0.506845  0.925799  0.749596  1
  Pt  Pt15  1  0.074201  0.493155  0.750404  1
  Pt  Pt16  1  0.500000  0.500000  0.500000  1
  Pt  Pt17  1  0.500000  0.500000  0.000000  1
  Pt  Pt18  1  0.000000  0.000000  0.500000  1
  Pt  Pt19  1  0.000000  0.000000  0.000000  1
  Pt  Pt20  1  0.925799  0.506845  0.249596  1
  Pt  Pt21  1  0.493155  0.074201  0.250404  1
