# generated using pymatgen
data_TbHoFe2(WO6)2
_symmetry_space_group_name_H-M   'P 1'
_cell_length_a   5.23557024
_cell_length_b   7.44253934
_cell_length_c   11.10597100
_cell_angle_alpha   89.99993824
_cell_angle_beta   89.99994136
_cell_angle_gamma   89.96552389
_symmetry_Int_Tables_number   1
_chemical_formula_structural   TbHoFe2(WO6)2
_chemical_formula_sum   'Tb2 Ho2 Fe4 W4 O24'
_cell_volume   432.75449285
_cell_formula_units_Z   2
loop_
 _symmetry_equiv_pos_site_id
 _symmetry_equiv_pos_as_xyz
  1  'x, y, z'
loop_
 _atom_site_type_symbol
 _atom_site_label
 _atom_site_symmetry_multiplicity
 _atom_site_fract_x
 _atom_site_fract_y
 _atom_site_fract_z
 _atom_site_occupancy
  Tb  Tb0  1  0.544210  0.253264  0.544849  1
  Tb  Tb1  1  0.044214  0.753264  0.955152  1
  Ho  Ho2  1  0.953847  0.253312  0.045181  1
  Ho  Ho3  1  0.453849  0.753311  0.454817  1
  Fe  Fe4  1  0.456327  0.508017  0.139277  1
  Fe  Fe5  1  0.956323  0.008021  0.360726  1
  Fe  Fe6  1  0.042905  0.509055  0.638685  1
  Fe  Fe7  1  0.542944  0.009056  0.861321  1
  W  W8  1  0.447640  0.998080  0.142791  1
  W  W9  1  0.947646  0.498080  0.357209  1
  W  W10  1  0.051880  0.996823  0.642155  1
  W  W11  1  0.551870  0.496827  0.857847  1
  O  O12  1  0.743218  0.541963  0.020588  1
  O  O13  1  0.736386  0.959671  0.029216  1
  O  O14  1  0.324631  0.755924  0.117248  1
  O  O15  1  0.567211  0.246002  0.144125  1
  O  O16  1  0.124161  0.071716  0.206575  1
  O  O17  1  0.107290  0.436820  0.211768  1
  O  O18  1  0.607294  0.936821  0.288230  1
  O  O19  1  0.624161  0.571715  0.293426  1
  O  O20  1  0.067211  0.746003  0.355875  1
  O  O21  1  0.824630  0.255924  0.382753  1
  O  O22  1  0.236383  0.459668  0.470782  1
  O  O23  1  0.243221  0.041963  0.479412  1
  O  O24  1  0.756119  0.545025  0.519863  1
  O  O25  1  0.762766  0.957009  0.528856  1
  O  O26  1  0.179452  0.755354  0.616641  1
  O  O27  1  0.936647  0.245607  0.642845  1
  O  O28  1  0.374482  0.070074  0.707415  1
  O  O29  1  0.390808  0.436483  0.712953  1
  O  O30  1  0.890811  0.936479  0.787046  1
  O  O31  1  0.874480  0.570076  0.792586  1
  O  O32  1  0.436649  0.745608  0.857156  1
  O  O33  1  0.679454  0.255357  0.883357  1
  O  O34  1  0.262762  0.457009  0.971142  1
  O  O35  1  0.256124  0.045026  0.980136  1
