# generated using pymatgen
data_Tb3Dy9Ga2TcNi3
_symmetry_space_group_name_H-M   'P 1'
_cell_length_a   8.34065690
_cell_length_b   8.34328830
_cell_length_c   8.34327656
_cell_angle_alpha   112.81916898
_cell_angle_beta   109.72029913
_cell_angle_gamma   105.95851300
_symmetry_Int_Tables_number   1
_chemical_formula_structural   Tb3Dy9Ga2TcNi3
_chemical_formula_sum   'Tb3 Dy9 Ga2 Tc1 Ni3'
_cell_volume   445.27690105
_cell_formula_units_Z   1
loop_
 _symmetry_equiv_pos_site_id
 _symmetry_equiv_pos_as_xyz
  1  'x, y, z'
loop_
 _atom_site_type_symbol
 _atom_site_label
 _atom_site_symmetry_multiplicity
 _atom_site_fract_x
 _atom_site_fract_y
 _atom_site_fract_z
 _atom_site_occupancy
  Tb  Tb0  1  0.442438  0.248538  0.193900  1
  Tb  Tb1  1  0.573936  0.768427  0.805510  1
  Tb  Tb2  1  0.037136  0.231268  0.805870  1
  Dy  Dy3  1  0.945738  0.751133  0.194605  1
  Dy  Dy4  1  0.185346  0.280555  0.466164  1
  Dy  Dy5  1  0.826060  0.721385  0.547205  1
  Dy  Dy6  1  0.185346  0.719182  0.904791  1
  Dy  Dy7  1  0.826060  0.278857  0.104676  1
  Dy  Dy8  1  0.325312  0.638033  0.307063  1
  Dy  Dy9  1  0.669789  0.362639  0.687862  1
  Dy  Dy10  1  0.325312  0.018250  0.687279  1
  Dy  Dy11  1  0.669789  0.981926  0.307150  1
  Ga  Ga12  1  0.493754  0.500484  0.993270  1
  Ga  Ga13  1  0.017556  0.998919  0.018637  1
  Tc  Tc14  1  0.325017  0.999965  0.325052  1
  Ni  Ni15  1  0.652328  0.999996  0.652332  1
  Ni  Ni16  1  0.117072  0.618061  0.499012  1
  Ni  Ni17  1  0.882008  0.382385  0.499624  1
