# generated using pymatgen
data_Hf14Cu17Ir3
_symmetry_space_group_name_H-M   'P 1'
_cell_length_a   7.86857021
_cell_length_b   7.77821779
_cell_length_c   9.42057691
_cell_angle_alpha   90.03921914
_cell_angle_beta   89.66997175
_cell_angle_gamma   107.63720947
_symmetry_Int_Tables_number   1
_chemical_formula_structural   Hf14Cu17Ir3
_chemical_formula_sum   'Hf14 Cu17 Ir3'
_cell_volume   549.46009987
_cell_formula_units_Z   1
loop_
 _symmetry_equiv_pos_site_id
 _symmetry_equiv_pos_as_xyz
  1  'x, y, z'
loop_
 _atom_site_type_symbol
 _atom_site_label
 _atom_site_symmetry_multiplicity
 _atom_site_fract_x
 _atom_site_fract_y
 _atom_site_fract_z
 _atom_site_occupancy
  Hf  Hf0  1  0.688176  0.307628  0.998261  1
  Hf  Hf1  1  0.307395  0.694241  0.997422  1
  Hf  Hf2  1  0.809911  0.191995  0.497172  1
  Hf  Hf3  1  0.186800  0.810330  0.506295  1
  Hf  Hf4  1  0.999999  0.000332  0.000259  1
  Hf  Hf5  1  0.501340  0.499713  0.497017  1
  Hf  Hf6  1  0.011346  0.509603  0.251229  1
  Hf  Hf7  1  0.989641  0.487940  0.748141  1
  Hf  Hf8  1  0.494164  0.988274  0.748570  1
  Hf  Hf9  1  0.510547  0.011064  0.248007  1
  Hf  Hf10  1  0.305718  0.308204  0.193476  1
  Hf  Hf11  1  0.691176  0.684268  0.807407  1
  Hf  Hf12  1  0.194807  0.187330  0.695848  1
  Hf  Hf13  1  0.811231  0.815434  0.304292  1
  Cu  Cu14  1  0.656168  0.376051  0.290712  1
  Cu  Cu15  1  0.369387  0.658317  0.294781  1
  Cu  Cu16  1  0.344982  0.622080  0.706130  1
  Cu  Cu17  1  0.845581  0.124494  0.793174  1
  Cu  Cu18  1  0.160104  0.871670  0.206949  1
  Cu  Cu19  1  0.940451  0.647606  0.014448  1
  Cu  Cu20  1  0.059745  0.355824  0.989991  1
  Cu  Cu21  1  0.552096  0.850071  0.505225  1
  Cu  Cu22  1  0.152245  0.443674  0.494601  1
  Cu  Cu23  1  0.443093  0.147984  0.486613  1
  Cu  Cu24  1  0.853982  0.558467  0.500827  1
  Cu  Cu25  1  0.352867  0.058188  0.997322  1
  Cu  Cu26  1  0.647050  0.939977  0.003018  1
  Cu  Cu27  1  0.112633  0.106322  0.406521  1
  Cu  Cu28  1  0.884893  0.893814  0.594837  1
  Cu  Cu29  1  0.387863  0.395282  0.907587  1
  Cu  Cu30  1  0.602101  0.606510  0.101118  1
  Ir  Ir31  1  0.869931  0.154533  0.213259  1
  Ir  Ir32  1  0.132909  0.846123  0.787621  1
  Ir  Ir33  1  0.629666  0.346657  0.711871  1
