# generated using pymatgen
data_KGd(CN2)2
_symmetry_space_group_name_H-M   'P 1'
_cell_length_a   6.69192200
_cell_length_b   8.20365600
_cell_length_c   9.93441200
_cell_angle_alpha   90.00000000
_cell_angle_beta   90.00000000
_cell_angle_gamma   90.00000000
_symmetry_Int_Tables_number   1
_chemical_formula_structural   KGd(CN2)2
_chemical_formula_sum   'K4 Gd4 C8 N16'
_cell_volume   545.38159582
_cell_formula_units_Z   4
loop_
 _symmetry_equiv_pos_site_id
 _symmetry_equiv_pos_as_xyz
  1  'x, y, z'
loop_
 _atom_site_type_symbol
 _atom_site_label
 _atom_site_symmetry_multiplicity
 _atom_site_fract_x
 _atom_site_fract_y
 _atom_site_fract_z
 _atom_site_occupancy
  K  K0  1  0.250000  0.621155  0.000000  1
  K  K1  1  0.750000  0.878845  0.500000  1
  K  K2  1  0.750000  0.378845  0.000000  1
  K  K3  1  0.250000  0.121155  0.500000  1
  Gd  Gd4  1  0.250000  0.116521  0.000000  1
  Gd  Gd5  1  0.750000  0.383479  0.500000  1
  Gd  Gd6  1  0.750000  0.883479  0.000000  1
  Gd  Gd7  1  0.250000  0.616521  0.500000  1
  C  C8  1  0.407863  0.371046  0.744510  1
  C  C9  1  0.907863  0.128954  0.755490  1
  C  C10  1  0.592137  0.128954  0.244510  1
  C  C11  1  0.092137  0.371046  0.255490  1
  C  C12  1  0.592137  0.628954  0.255490  1
  C  C13  1  0.092137  0.871046  0.244510  1
  C  C14  1  0.407863  0.871046  0.755490  1
  C  C15  1  0.907863  0.628954  0.744510  1
  N  N16  1  0.374002  0.329421  0.860520  1
  N  N17  1  0.874002  0.170579  0.639480  1
  N  N18  1  0.625998  0.170579  0.360520  1
  N  N19  1  0.125998  0.329421  0.139480  1
  N  N20  1  0.625998  0.670579  0.139480  1
  N  N21  1  0.125998  0.829421  0.360520  1
  N  N22  1  0.374002  0.829421  0.639480  1
  N  N23  1  0.874002  0.670579  0.860520  1
  N  N24  1  0.442301  0.414211  0.626256  1
  N  N25  1  0.942301  0.085789  0.873744  1
  N  N26  1  0.557699  0.085789  0.126256  1
  N  N27  1  0.057699  0.414211  0.373744  1
  N  N28  1  0.557699  0.585789  0.373744  1
  N  N29  1  0.057699  0.914211  0.126256  1
  N  N30  1  0.442301  0.914211  0.873744  1
  N  N31  1  0.942301  0.585789  0.626256  1
