# generated using pymatgen
data_La7Yb12ErSi16
_symmetry_space_group_name_H-M   'P 1'
_cell_length_a   7.56576884
_cell_length_b   7.97223408
_cell_length_c   15.28991600
_cell_angle_alpha   89.94453137
_cell_angle_beta   89.92295199
_cell_angle_gamma   89.89508271
_symmetry_Int_Tables_number   1
_chemical_formula_structural   La7Yb12ErSi16
_chemical_formula_sum   'La7 Yb12 Er1 Si16'
_cell_volume   922.22498995
_cell_formula_units_Z   1
loop_
 _symmetry_equiv_pos_site_id
 _symmetry_equiv_pos_as_xyz
  1  'x, y, z'
loop_
 _atom_site_type_symbol
 _atom_site_label
 _atom_site_symmetry_multiplicity
 _atom_site_fract_x
 _atom_site_fract_y
 _atom_site_fract_z
 _atom_site_occupancy
  La  La0  1  0.973201  0.814629  0.098793  1
  La  La1  1  0.471769  0.686508  0.399828  1
  La  La2  1  0.525226  0.317824  0.902759  1
  La  La3  1  0.025709  0.184294  0.594350  1
  La  La4  1  0.025605  0.183139  0.902022  1
  La  La5  1  0.527505  0.317887  0.597712  1
  La  La6  1  0.471504  0.685225  0.101047  1
  Yb  Yb7  1  0.647656  0.999738  0.252206  1
  Yb  Yb8  1  0.141575  0.500099  0.252580  1
  Yb  Yb9  1  0.859066  0.498969  0.750387  1
  Yb  Yb10  1  0.353207  0.001361  0.750463  1
  Yb  Yb11  1  0.971079  0.813573  0.399938  1
  Yb  Yb12  1  0.679598  0.818772  0.877201  1
  Yb  Yb13  1  0.179834  0.684149  0.619896  1
  Yb  Yb14  1  0.820137  0.317509  0.123610  1
  Yb  Yb15  1  0.317438  0.178096  0.378440  1
  Yb  Yb16  1  0.319295  0.180634  0.124263  1
  Yb  Yb17  1  0.819581  0.319568  0.378110  1
  Yb  Yb18  1  0.180740  0.681280  0.877036  1
  Er  Er19  1  0.681041  0.817417  0.622547  1
  Si  Si20  1  0.753113  0.622584  0.248748  1
  Si  Si21  1  0.256610  0.876443  0.249142  1
  Si  Si22  1  0.742189  0.120538  0.746789  1
  Si  Si23  1  0.247670  0.379339  0.749451  1
  Si  Si24  1  0.029217  0.091234  0.250560  1
  Si  Si25  1  0.526946  0.406289  0.251532  1
  Si  Si26  1  0.474824  0.597463  0.746773  1
  Si  Si27  1  0.966866  0.904433  0.745508  1
  Si  Si28  1  0.859208  0.526667  0.962060  1
  Si  Si29  1  0.367870  0.972071  0.541023  1
  Si  Si30  1  0.641345  0.028563  0.036863  1
  Si  Si31  1  0.140287  0.471684  0.463243  1
  Si  Si32  1  0.142302  0.470547  0.036601  1
  Si  Si33  1  0.648183  0.025797  0.466484  1
  Si  Si34  1  0.358101  0.973460  0.962285  1
  Si  Si35  1  0.854502  0.532225  0.539749  1
