# generated using pymatgen
data_Ce3Y4Lu(ReB6)4
_symmetry_space_group_name_H-M   'P 1'
_cell_length_a   3.71468400
_cell_length_b   9.19991642
_cell_length_c   11.58622364
_cell_angle_alpha   90.12070777
_cell_angle_beta   90.00000000
_cell_angle_gamma   90.00000000
_symmetry_Int_Tables_number   1
_chemical_formula_structural   Ce3Y4Lu(ReB6)4
_chemical_formula_sum   'Ce3 Y4 Lu1 Re4 B24'
_cell_volume   395.95579186
_cell_formula_units_Z   1
loop_
 _symmetry_equiv_pos_site_id
 _symmetry_equiv_pos_as_xyz
  1  'x, y, z'
loop_
 _atom_site_type_symbol
 _atom_site_label
 _atom_site_symmetry_multiplicity
 _atom_site_fract_x
 _atom_site_fract_y
 _atom_site_fract_z
 _atom_site_occupancy
  Ce  Ce0  1  0.000000  0.322587  0.414501  1
  Ce  Ce1  1  0.000000  0.677569  0.586755  1
  Ce  Ce2  1  0.000000  0.823370  0.085274  1
  Y  Y3  1  0.000000  0.177585  0.913557  1
  Y  Y4  1  0.000000  0.944669  0.373045  1
  Y  Y5  1  0.000000  0.056152  0.628545  1
  Y  Y6  1  0.000000  0.443080  0.126705  1
  Lu  Lu7  1  0.000000  0.556298  0.870974  1
  Re  Re8  1  0.000000  0.638113  0.320717  1
  Re  Re9  1  0.000000  0.363915  0.679216  1
  Re  Re10  1  0.000000  0.138578  0.179080  1
  Re  Re11  1  0.000000  0.858953  0.821264  1
  B  B12  1  0.500000  0.554248  0.431539  1
  B  B13  1  0.500000  0.446393  0.569141  1
  B  B14  1  0.500000  0.053653  0.067348  1
  B  B15  1  0.500000  0.944930  0.932288  1
  B  B16  1  0.500000  0.748139  0.418398  1
  B  B17  1  0.500000  0.252028  0.582559  1
  B  B18  1  0.500000  0.248415  0.080479  1
  B  B19  1  0.500000  0.749808  0.918211  1
  B  B20  1  0.500000  0.791043  0.265759  1
  B  B21  1  0.500000  0.209019  0.735066  1
  B  B22  1  0.500000  0.291165  0.233032  1
  B  B23  1  0.500000  0.707404  0.766689  1
  B  B24  1  0.500000  0.631017  0.185438  1
  B  B25  1  0.500000  0.370197  0.815175  1
  B  B26  1  0.500000  0.132051  0.313690  1
  B  B27  1  0.500000  0.868056  0.686919  1
  B  B28  1  0.500000  0.983933  0.212158  1
  B  B29  1  0.500000  0.016803  0.788042  1
  B  B30  1  0.500000  0.483380  0.286829  1
  B  B31  1  0.500000  0.517412  0.714156  1
  B  B32  1  0.500000  0.601535  0.026576  1
  B  B33  1  0.500000  0.398296  0.969700  1
  B  B34  1  0.500000  0.108103  0.470747  1
  B  B35  1  0.500000  0.892103  0.530429  1
