# generated using pymatgen
data_Hf18V2Re6SiP
_symmetry_space_group_name_H-M   'P 1'
_cell_length_a   8.60016701
_cell_length_b   8.60009231
_cell_length_c   8.51742500
_cell_angle_alpha   90.00000000
_cell_angle_beta   90.00000000
_cell_angle_gamma   120.00425600
_symmetry_Int_Tables_number   1
_chemical_formula_structural   Hf18V2Re6SiP
_chemical_formula_sum   'Hf18 V2 Re6 Si1 P1'
_cell_volume   545.54467471
_cell_formula_units_Z   1
loop_
 _symmetry_equiv_pos_site_id
 _symmetry_equiv_pos_as_xyz
  1  'x, y, z'
loop_
 _atom_site_type_symbol
 _atom_site_label
 _atom_site_symmetry_multiplicity
 _atom_site_fract_x
 _atom_site_fract_y
 _atom_site_fract_z
 _atom_site_occupancy
  Hf  Hf0  1  0.193655  0.806335  0.451507  1
  Hf  Hf1  1  0.193673  0.387357  0.451508  1
  Hf  Hf2  1  0.612646  0.806324  0.451497  1
  Hf  Hf3  1  0.804658  0.195359  0.549700  1
  Hf  Hf4  1  0.804667  0.609315  0.549707  1
  Hf  Hf5  1  0.390678  0.195336  0.549712  1
  Hf  Hf6  1  0.804658  0.195359  0.950300  1
  Hf  Hf7  1  0.804667  0.609315  0.950293  1
  Hf  Hf8  1  0.390678  0.195336  0.950288  1
  Hf  Hf9  1  0.193655  0.806335  0.048493  1
  Hf  Hf10  1  0.193673  0.387357  0.048492  1
  Hf  Hf11  1  0.612646  0.806324  0.048503  1
  Hf  Hf12  1  0.539580  0.460416  0.250000  1
  Hf  Hf13  1  0.539544  0.079162  0.250000  1
  Hf  Hf14  1  0.920848  0.460457  0.250000  1
  Hf  Hf15  1  0.459300  0.540674  0.750000  1
  Hf  Hf16  1  0.459268  0.918632  0.750000  1
  Hf  Hf17  1  0.081361  0.540716  0.750000  1
  V  V18  1  0.000007  0.999995  0.499536  1
  V  V19  1  0.000007  0.999995  0.000464  1
  Re  Re20  1  0.890965  0.109031  0.250000  1
  Re  Re21  1  0.891002  0.781911  0.250000  1
  Re  Re22  1  0.218105  0.109000  0.250000  1
  Re  Re23  1  0.108655  0.891341  0.750000  1
  Re  Re24  1  0.108644  0.217260  0.750000  1
  Re  Re25  1  0.782752  0.891359  0.750000  1
  Si  Si26  1  0.333318  0.666681  0.250000  1
  P  P27  1  0.666689  0.333321  0.750000  1
