# generated using pymatgen
data_Yb8ErTmIr4
_symmetry_space_group_name_H-M   'P 1'
_cell_length_a   6.52792551
_cell_length_b   7.30035467
_cell_length_c   8.50329730
_cell_angle_alpha   97.24519786
_cell_angle_beta   112.57215492
_cell_angle_gamma   89.99999686
_symmetry_Int_Tables_number   1
_chemical_formula_structural   Yb8ErTmIr4
_chemical_formula_sum   'Yb8 Er1 Tm1 Ir4'
_cell_volume   370.68591399
_cell_formula_units_Z   1
loop_
 _symmetry_equiv_pos_site_id
 _symmetry_equiv_pos_as_xyz
  1  'x, y, z'
loop_
 _atom_site_type_symbol
 _atom_site_label
 _atom_site_symmetry_multiplicity
 _atom_site_fract_x
 _atom_site_fract_y
 _atom_site_fract_z
 _atom_site_occupancy
  Yb  Yb0  1  0.971763  0.922600  0.170937  1
  Yb  Yb1  1  0.800825  0.577400  0.829063  1
  Yb  Yb2  1  0.028270  0.077575  0.829088  1
  Yb  Yb3  1  0.199182  0.422425  0.170912  1
  Yb  Yb4  1  0.643189  0.819900  0.437350  1
  Yb  Yb5  1  0.205839  0.680100  0.562650  1
  Yb  Yb6  1  0.356885  0.180166  0.562801  1
  Yb  Yb7  1  0.794084  0.319834  0.437199  1
  Er  Er8  1  0.438002  0.750000  0.000000  1
  Tm  Tm9  1  0.561823  0.250000  0.000000  1
  Ir  Ir10  1  0.811673  0.573179  0.209704  1
  Ir  Ir11  1  0.601968  0.926821  0.790296  1
  Ir  Ir12  1  0.188366  0.426281  0.790234  1
  Ir  Ir13  1  0.398131  0.073719  0.209766  1
