# generated using pymatgen
data_Ca10Ir3Au
_symmetry_space_group_name_H-M   'P 1'
_cell_length_a   8.74644559
_cell_length_b   8.71305071
_cell_length_c   7.71398220
_cell_angle_alpha   82.57267391
_cell_angle_beta   82.95087284
_cell_angle_gamma   44.22844322
_symmetry_Int_Tables_number   1
_chemical_formula_structural   Ca10Ir3Au
_chemical_formula_sum   'Ca10 Ir3 Au1'
_cell_volume   406.22538168
_cell_formula_units_Z   1
loop_
 _symmetry_equiv_pos_site_id
 _symmetry_equiv_pos_as_xyz
  1  'x, y, z'
loop_
 _atom_site_type_symbol
 _atom_site_label
 _atom_site_symmetry_multiplicity
 _atom_site_fract_x
 _atom_site_fract_y
 _atom_site_fract_z
 _atom_site_occupancy
  Ca  Ca0  1  0.042349  0.786366  0.911840  1
  Ca  Ca1  1  0.198620  0.979723  0.584554  1
  Ca  Ca2  1  0.984230  0.201115  0.083127  1
  Ca  Ca3  1  0.807834  0.021822  0.429985  1
  Ca  Ca4  1  0.357246  0.199536  0.811599  1
  Ca  Ca5  1  0.795460  0.638010  0.676870  1
  Ca  Ca6  1  0.634574  0.789269  0.176867  1
  Ca  Ca7  1  0.186984  0.372201  0.332310  1
  Ca  Ca8  1  0.575503  0.432502  0.737133  1
  Ca  Ca9  1  0.419826  0.584961  0.258306  1
  Ir  Ir10  1  0.178822  0.597005  0.584207  1
  Ir  Ir11  1  0.396547  0.822198  0.917812  1
  Ir  Ir12  1  0.823775  0.395705  0.414755  1
  Au  Au13  1  0.598227  0.179588  0.080637  1
