# generated using pymatgen
data_CaLu3Al15(SiIr2)3
_symmetry_space_group_name_H-M   'P 1'
_cell_length_a   7.52112707
_cell_length_b   7.52972556
_cell_length_c   9.25418200
_cell_angle_alpha   90.00000000
_cell_angle_beta   90.00000000
_cell_angle_gamma   119.72124368
_symmetry_Int_Tables_number   1
_chemical_formula_structural   CaLu3Al15(SiIr2)3
_chemical_formula_sum   'Ca1 Lu3 Al15 Si3 Ir6'
_cell_volume   455.13874334
_cell_formula_units_Z   1
loop_
 _symmetry_equiv_pos_site_id
 _symmetry_equiv_pos_as_xyz
  1  'x, y, z'
loop_
 _atom_site_type_symbol
 _atom_site_label
 _atom_site_symmetry_multiplicity
 _atom_site_fract_x
 _atom_site_fract_y
 _atom_site_fract_z
 _atom_site_occupancy
  Ca  Ca0  1  0.999790  0.674467  0.250000  1
  Lu  Lu1  1  0.003064  0.323006  0.750000  1
  Lu  Lu2  1  0.668681  0.990186  0.250000  1
  Lu  Lu3  1  0.324213  0.004267  0.750000  1
  Al  Al4  1  0.998670  0.334625  0.078321  1
  Al  Al5  1  0.001554  0.664303  0.923243  1
  Al  Al6  1  0.001554  0.664303  0.576757  1
  Al  Al7  1  0.336003  0.003129  0.422967  1
  Al  Al8  1  0.998670  0.334625  0.421679  1
  Al  Al9  1  0.663017  0.999202  0.577458  1
  Al  Al10  1  0.663017  0.999202  0.922542  1
  Al  Al11  1  0.336003  0.003129  0.077033  1
  Al  Al12  1  0.335785  0.335512  0.562881  1
  Al  Al13  1  0.667591  0.664720  0.441828  1
  Al  Al14  1  0.667591  0.664720  0.058172  1
  Al  Al15  1  0.335785  0.335512  0.937119  1
  Al  Al16  1  0.665952  0.452840  0.750000  1
  Al  Al17  1  0.548830  0.338174  0.250000  1
  Al  Al18  1  0.448098  0.665201  0.750000  1
  Si  Si19  1  0.122046  0.127876  0.250000  1
  Si  Si20  1  0.871456  0.871587  0.750000  1
  Si  Si21  1  0.338051  0.546020  0.250000  1
  Ir  Ir22  1  0.671084  0.327617  0.999247  1
  Ir  Ir23  1  0.330218  0.670754  0.006370  1
  Ir  Ir24  1  0.330218  0.670754  0.493630  1
  Ir  Ir25  1  0.671084  0.327617  0.500753  1
  Ir  Ir26  1  0.000989  0.003327  0.998819  1
  Ir  Ir27  1  0.000989  0.003327  0.501181  1
