# generated using pymatgen
data_Sc12Si12IrAu3
_symmetry_space_group_name_H-M   'P 1'
_cell_length_a   4.05591400
_cell_length_b   10.38886515
_cell_length_c   11.77073318
_cell_angle_alpha   89.98005127
_cell_angle_beta   90.00000000
_cell_angle_gamma   90.00000000
_symmetry_Int_Tables_number   1
_chemical_formula_structural   Sc12Si12IrAu3
_chemical_formula_sum   'Sc12 Si12 Ir1 Au3'
_cell_volume   495.97562799
_cell_formula_units_Z   1
loop_
 _symmetry_equiv_pos_site_id
 _symmetry_equiv_pos_as_xyz
  1  'x, y, z'
loop_
 _atom_site_type_symbol
 _atom_site_label
 _atom_site_symmetry_multiplicity
 _atom_site_fract_x
 _atom_site_fract_y
 _atom_site_fract_z
 _atom_site_occupancy
  Sc  Sc0  1  0.250000  0.873945  0.019338  1
  Sc  Sc1  1  0.250000  0.627249  0.523118  1
  Sc  Sc2  1  0.750000  0.122332  0.976277  1
  Sc  Sc3  1  0.750000  0.373180  0.478566  1
  Sc  Sc4  1  0.250000  0.920025  0.600834  1
  Sc  Sc5  1  0.250000  0.580330  0.096642  1
  Sc  Sc6  1  0.750000  0.079015  0.402441  1
  Sc  Sc7  1  0.750000  0.420053  0.901850  1
  Sc  Sc8  1  0.250000  0.663612  0.800649  1
  Sc  Sc9  1  0.250000  0.839890  0.301854  1
  Sc  Sc10  1  0.750000  0.339942  0.197432  1
  Sc  Sc11  1  0.750000  0.152997  0.700181  1
  Si  Si12  1  0.250000  0.011338  0.824936  1
  Si  Si13  1  0.250000  0.475815  0.326729  1
  Si  Si14  1  0.750000  0.975940  0.176124  1
  Si  Si15  1  0.750000  0.526172  0.672017  1
  Si  Si16  1  0.250000  0.241457  0.847828  1
  Si  Si17  1  0.250000  0.252101  0.348853  1
  Si  Si18  1  0.750000  0.752678  0.150471  1
  Si  Si19  1  0.750000  0.753374  0.659028  1
  Si  Si20  1  0.250000  0.180892  0.541930  1
  Si  Si21  1  0.250000  0.320241  0.038749  1
  Si  Si22  1  0.750000  0.819586  0.461946  1
  Si  Si23  1  0.750000  0.694530  0.952648  1
  Ir  Ir24  1  0.750000  0.888969  0.822310  1
  Au  Au25  1  0.250000  0.385904  0.678494  1
  Au  Au26  1  0.250000  0.113752  0.176806  1
  Au  Au27  1  0.750000  0.614680  0.321948  1
