# generated using pymatgen
data_Nd3Lu(BiO4)4
_symmetry_space_group_name_H-M   'P 1'
_cell_length_a   5.61692410
_cell_length_b   7.93863808
_cell_length_c   7.92993701
_cell_angle_alpha   82.80509878
_cell_angle_beta   90.12339200
_cell_angle_gamma   91.60919794
_symmetry_Int_Tables_number   1
_chemical_formula_structural   Nd3Lu(BiO4)4
_chemical_formula_sum   'Nd3 Lu1 Bi4 O16'
_cell_volume   350.67866158
_cell_formula_units_Z   1
loop_
 _symmetry_equiv_pos_site_id
 _symmetry_equiv_pos_as_xyz
  1  'x, y, z'
loop_
 _atom_site_type_symbol
 _atom_site_label
 _atom_site_symmetry_multiplicity
 _atom_site_fract_x
 _atom_site_fract_y
 _atom_site_fract_z
 _atom_site_occupancy
  Nd  Nd0  1  0.276328  0.857688  0.891425  1
  Nd  Nd1  1  0.235670  0.870847  0.385017  1
  Nd  Nd2  1  0.757367  0.131871  0.613550  1
  Lu  Lu3  1  0.716451  0.150318  0.114909  1
  Bi  Bi4  1  0.773234  0.661293  0.682323  1
  Bi  Bi5  1  0.731623  0.661187  0.183948  1
  Bi  Bi6  1  0.264882  0.337098  0.821782  1
  Bi  Bi7  1  0.221663  0.337583  0.313335  1
  O  O8  1  0.101579  0.577960  0.812645  1
  O  O9  1  0.607351  0.671291  0.927693  1
  O  O10  1  0.397531  0.581673  0.313584  1
  O  O11  1  0.511818  0.844608  0.616093  1
  O  O12  1  0.902031  0.663808  0.430229  1
  O  O13  1  0.023539  0.822637  0.121193  1
  O  O14  1  0.999431  0.890522  0.664653  1
  O  O15  1  0.485676  0.115547  0.843832  1
  O  O16  1  0.536549  0.897877  0.166562  1
  O  O17  1  0.991975  0.111814  0.318122  1
  O  O18  1  0.975715  0.170244  0.897604  1
  O  O19  1  0.108026  0.312145  0.573907  1
  O  O20  1  0.492732  0.159545  0.374491  1
  O  O21  1  0.589232  0.423699  0.678681  1
  O  O22  1  0.407197  0.330742  0.073359  1
  O  O23  1  0.892400  0.418002  0.181065  1
