# generated using pymatgen
data_LaCeGeP3Ir4
_symmetry_space_group_name_H-M   'P 1'
_cell_length_a   4.23476000
_cell_length_b   4.23476000
_cell_length_c   9.72524200
_cell_angle_alpha   90.00000000
_cell_angle_beta   90.00000000
_cell_angle_gamma   90.00000000
_symmetry_Int_Tables_number   1
_chemical_formula_structural   LaCeGeP3Ir4
_chemical_formula_sum   'La1 Ce1 Ge1 P3 Ir4'
_cell_volume   174.40463454
_cell_formula_units_Z   1
loop_
 _symmetry_equiv_pos_site_id
 _symmetry_equiv_pos_as_xyz
  1  'x, y, z'
loop_
 _atom_site_type_symbol
 _atom_site_label
 _atom_site_symmetry_multiplicity
 _atom_site_fract_x
 _atom_site_fract_y
 _atom_site_fract_z
 _atom_site_occupancy
  La  La0  1  0.500000  0.000000  0.763203  1
  Ce  Ce1  1  0.000000  0.500000  0.238860  1
  Ge  Ge2  1  0.000000  0.500000  0.638862  1
  P  P3  1  0.000000  0.000000  0.005287  1
  P  P4  1  0.500000  0.500000  0.005287  1
  P  P5  1  0.500000  0.000000  0.361277  1
  Ir  Ir6  1  0.000000  0.000000  0.485772  1
  Ir  Ir7  1  0.500000  0.500000  0.485772  1
  Ir  Ir8  1  0.000000  0.500000  0.900017  1
  Ir  Ir9  1  0.500000  0.000000  0.115662  1
