# generated using pymatgen
data_HoTm3(CuP2)4
_symmetry_space_group_name_H-M   'P 1'
_cell_length_a   3.67649500
_cell_length_b   3.72140159
_cell_length_c   19.28310447
_cell_angle_alpha   89.89326550
_cell_angle_beta   90.00000000
_cell_angle_gamma   90.00000000
_symmetry_Int_Tables_number   1
_chemical_formula_structural   HoTm3(CuP2)4
_chemical_formula_sum   'Ho1 Tm3 Cu4 P8'
_cell_volume   263.82546944
_cell_formula_units_Z   1
loop_
 _symmetry_equiv_pos_site_id
 _symmetry_equiv_pos_as_xyz
  1  'x, y, z'
loop_
 _atom_site_type_symbol
 _atom_site_label
 _atom_site_symmetry_multiplicity
 _atom_site_fract_x
 _atom_site_fract_y
 _atom_site_fract_z
 _atom_site_occupancy
  Ho  Ho0  1  0.250000  0.719561  0.383403  1
  Tm  Tm1  1  0.250000  0.777982  0.883617  1
  Tm  Tm2  1  0.750000  0.280298  0.617522  1
  Tm  Tm3  1  0.750000  0.221634  0.115832  1
  Cu  Cu4  1  0.250000  0.217578  0.248912  1
  Cu  Cu5  1  0.750000  0.783301  0.750468  1
  Cu  Cu6  1  0.250000  0.282396  0.749877  1
  Cu  Cu7  1  0.750000  0.718824  0.249833  1
  P  P8  1  0.750000  0.796545  0.502260  1
  P  P9  1  0.750000  0.708747  0.000555  1
  P  P10  1  0.250000  0.202610  0.500050  1
  P  P11  1  0.250000  0.290438  0.998917  1
  P  P12  1  0.250000  0.720637  0.169554  1
  P  P13  1  0.750000  0.219972  0.328862  1
  P  P14  1  0.750000  0.279360  0.829994  1
  P  P15  1  0.250000  0.780116  0.670344  1
