# generated using pymatgen
data_TbDyReB6
_symmetry_space_group_name_H-M   'P 1'
_cell_length_a   3.69192700
_cell_length_b   9.19128500
_cell_length_c   11.58223000
_cell_angle_alpha   90.00000000
_cell_angle_beta   90.00000000
_cell_angle_gamma   90.00000000
_symmetry_Int_Tables_number   1
_chemical_formula_structural   TbDyReB6
_chemical_formula_sum   'Tb4 Dy4 Re4 B24'
_cell_volume   393.02621853
_cell_formula_units_Z   4
loop_
 _symmetry_equiv_pos_site_id
 _symmetry_equiv_pos_as_xyz
  1  'x, y, z'
loop_
 _atom_site_type_symbol
 _atom_site_label
 _atom_site_symmetry_multiplicity
 _atom_site_fract_x
 _atom_site_fract_y
 _atom_site_fract_z
 _atom_site_occupancy
  Tb  Tb0  1  0.000000  0.323835  0.413820  1
  Tb  Tb1  1  0.000000  0.676165  0.586180  1
  Tb  Tb2  1  0.000000  0.823835  0.086180  1
  Tb  Tb3  1  0.000000  0.176165  0.913820  1
  Dy  Dy4  1  0.000000  0.943535  0.370227  1
  Dy  Dy5  1  0.000000  0.056465  0.629773  1
  Dy  Dy6  1  0.000000  0.443535  0.129773  1
  Dy  Dy7  1  0.000000  0.556465  0.870227  1
  Re  Re8  1  0.000000  0.638901  0.320727  1
  Re  Re9  1  0.000000  0.361099  0.679273  1
  Re  Re10  1  0.000000  0.138901  0.179273  1
  Re  Re11  1  0.000000  0.861099  0.820727  1
  B  B12  1  0.500000  0.553745  0.432580  1
  B  B13  1  0.500000  0.446255  0.567420  1
  B  B14  1  0.500000  0.053745  0.067420  1
  B  B15  1  0.500000  0.946255  0.932580  1
  B  B16  1  0.500000  0.748825  0.418324  1
  B  B17  1  0.500000  0.251175  0.581676  1
  B  B18  1  0.500000  0.248825  0.081676  1
  B  B19  1  0.500000  0.751175  0.918324  1
  B  B20  1  0.500000  0.792122  0.266104  1
  B  B21  1  0.500000  0.207878  0.733896  1
  B  B22  1  0.500000  0.292122  0.233896  1
  B  B23  1  0.500000  0.707878  0.766104  1
  B  B24  1  0.500000  0.631216  0.186171  1
  B  B25  1  0.500000  0.368784  0.813829  1
  B  B26  1  0.500000  0.131216  0.313829  1
  B  B27  1  0.500000  0.868784  0.686171  1
  B  B28  1  0.500000  0.983146  0.212025  1
  B  B29  1  0.500000  0.016854  0.787975  1
  B  B30  1  0.500000  0.483146  0.287975  1
  B  B31  1  0.500000  0.516854  0.712025  1
  B  B32  1  0.500000  0.600496  0.028129  1
  B  B33  1  0.500000  0.399504  0.971871  1
  B  B34  1  0.500000  0.100496  0.471871  1
  B  B35  1  0.500000  0.899504  0.528129  1
