# generated using pymatgen
data_CrCd(HgO3)2
_symmetry_space_group_name_H-M   'P 1'
_cell_length_a   7.02051591
_cell_length_b   7.30530944
_cell_length_c   7.63234988
_cell_angle_alpha   74.99545974
_cell_angle_beta   68.82296036
_cell_angle_gamma   64.66393359
_symmetry_Int_Tables_number   1
_chemical_formula_structural   CrCd(HgO3)2
_chemical_formula_sum   'Cr2 Cd2 Hg4 O12'
_cell_volume   327.36100155
_cell_formula_units_Z   2
loop_
 _symmetry_equiv_pos_site_id
 _symmetry_equiv_pos_as_xyz
  1  'x, y, z'
loop_
 _atom_site_type_symbol
 _atom_site_label
 _atom_site_symmetry_multiplicity
 _atom_site_fract_x
 _atom_site_fract_y
 _atom_site_fract_z
 _atom_site_occupancy
  Cr  Cr0  1  0.797058  0.134402  0.313147  1
  Cr  Cr1  1  0.202942  0.865598  0.686853  1
  Cd  Cd2  1  0.333116  0.140109  0.211736  1
  Cd  Cd3  1  0.666884  0.859891  0.788264  1
  Hg  Hg4  1  0.843544  0.647058  0.209932  1
  Hg  Hg5  1  0.156456  0.352942  0.790068  1
  Hg  Hg6  1  0.658679  0.354733  0.794368  1
  Hg  Hg7  1  0.341321  0.645267  0.205632  1
  O  O8  1  0.631423  0.208821  0.173432  1
  O  O9  1  0.447733  0.197571  0.861982  1
  O  O10  1  0.940953  0.919073  0.824445  1
  O  O11  1  0.771344  0.928203  0.461530  1
  O  O12  1  0.272904  0.677292  0.568463  1
  O  O13  1  0.148169  0.482623  0.247080  1
  O  O14  1  0.228656  0.071797  0.538470  1
  O  O15  1  0.552267  0.802429  0.138018  1
  O  O16  1  0.368577  0.791179  0.826568  1
  O  O17  1  0.851831  0.517377  0.752920  1
  O  O18  1  0.727096  0.322708  0.431537  1
  O  O19  1  0.059047  0.080927  0.175555  1
