# generated using pymatgen
data_YHoCoIr3
_symmetry_space_group_name_H-M   'P 1'
_cell_length_a   5.20002171
_cell_length_b   5.20002229
_cell_length_c   5.20002212
_cell_angle_alpha   62.23946700
_cell_angle_beta   62.23945864
_cell_angle_gamma   62.23946703
_symmetry_Int_Tables_number   1
_chemical_formula_structural   YHoCoIr3
_chemical_formula_sum   'Y1 Ho1 Co1 Ir3'
_cell_volume   104.39781667
_cell_formula_units_Z   1
loop_
 _symmetry_equiv_pos_site_id
 _symmetry_equiv_pos_as_xyz
  1  'x, y, z'
loop_
 _atom_site_type_symbol
 _atom_site_label
 _atom_site_symmetry_multiplicity
 _atom_site_fract_x
 _atom_site_fract_y
 _atom_site_fract_z
 _atom_site_occupancy
  Y  Y0  1  0.998937  0.998937  0.998937  1
  Ho  Ho1  1  0.251216  0.251216  0.251216  1
  Co  Co2  1  0.625012  0.625012  0.625012  1
  Ir  Ir3  1  0.624823  0.624823  0.125191  1
  Ir  Ir4  1  0.624823  0.125191  0.624823  1
  Ir  Ir5  1  0.125191  0.624823  0.624823  1
