# generated using pymatgen
data_Dy6ScRhO12
_symmetry_space_group_name_H-M   'P 1'
_cell_length_a   6.57076648
_cell_length_b   6.57076543
_cell_length_c   6.57076615
_cell_angle_alpha   93.52066553
_cell_angle_beta   93.52066259
_cell_angle_gamma   93.52067023
_symmetry_Int_Tables_number   1
_chemical_formula_structural   Dy6ScRhO12
_chemical_formula_sum   'Dy6 Sc1 Rh1 O12'
_cell_volume   282.01724607
_cell_formula_units_Z   1
loop_
 _symmetry_equiv_pos_site_id
 _symmetry_equiv_pos_as_xyz
  1  'x, y, z'
loop_
 _atom_site_type_symbol
 _atom_site_label
 _atom_site_symmetry_multiplicity
 _atom_site_fract_x
 _atom_site_fract_y
 _atom_site_fract_z
 _atom_site_occupancy
  Dy  Dy0  1  0.741775  0.921646  0.432688  1
  Dy  Dy1  1  0.921646  0.432688  0.741775  1
  Dy  Dy2  1  0.432688  0.741775  0.921646  1
  Dy  Dy3  1  0.258225  0.078354  0.567312  1
  Dy  Dy4  1  0.078354  0.567312  0.258225  1
  Dy  Dy5  1  0.567312  0.258225  0.078354  1
  Sc  Sc6  1  0.000000  0.000000  0.000000  1
  Rh  Rh7  1  0.500000  0.500000  0.500000  1
  O  O8  1  0.589356  0.459822  0.805223  1
  O  O9  1  0.459822  0.805223  0.589356  1
  O  O10  1  0.805223  0.589356  0.459822  1
  O  O11  1  0.410644  0.540178  0.194777  1
  O  O12  1  0.540178  0.194777  0.410644  1
  O  O13  1  0.194777  0.410644  0.540178  1
  O  O14  1  0.068287  0.916659  0.308300  1
  O  O15  1  0.916659  0.308300  0.068287  1
  O  O16  1  0.691700  0.931713  0.083341  1
  O  O17  1  0.083341  0.691700  0.931713  1
  O  O18  1  0.931713  0.083341  0.691700  1
  O  O19  1  0.308300  0.068287  0.916659  1
