# generated using pymatgen
data_Pr2Co9ReP6
_symmetry_space_group_name_H-M   'P 1'
_cell_length_a   3.73901400
_cell_length_b   10.48516800
_cell_length_c   11.89977500
_cell_angle_alpha   90.00000000
_cell_angle_beta   90.00000000
_cell_angle_gamma   90.00000000
_symmetry_Int_Tables_number   1
_chemical_formula_structural   Pr2Co9ReP6
_chemical_formula_sum   'Pr4 Co18 Re2 P12'
_cell_volume   466.52103940
_cell_formula_units_Z   2
loop_
 _symmetry_equiv_pos_site_id
 _symmetry_equiv_pos_as_xyz
  1  'x, y, z'
loop_
 _atom_site_type_symbol
 _atom_site_label
 _atom_site_symmetry_multiplicity
 _atom_site_fract_x
 _atom_site_fract_y
 _atom_site_fract_z
 _atom_site_occupancy
  Pr  Pr0  1  0.250000  0.582789  0.701902  1
  Pr  Pr1  1  0.250000  0.917211  0.201902  1
  Pr  Pr2  1  0.750000  0.414676  0.296469  1
  Pr  Pr3  1  0.750000  0.085324  0.796469  1
  Co  Co4  1  0.750000  0.288193  0.011307  1
  Co  Co5  1  0.750000  0.211807  0.511307  1
  Co  Co6  1  0.250000  0.404974  0.490620  1
  Co  Co7  1  0.250000  0.095026  0.990620  1
  Co  Co8  1  0.750000  0.595583  0.508193  1
  Co  Co9  1  0.750000  0.904417  0.008193  1
  Co  Co10  1  0.250000  0.220055  0.175710  1
  Co  Co11  1  0.250000  0.279945  0.675710  1
  Co  Co12  1  0.750000  0.777712  0.823987  1
  Co  Co13  1  0.750000  0.722288  0.323987  1
  Co  Co14  1  0.250000  0.885894  0.699800  1
  Co  Co15  1  0.250000  0.614106  0.199800  1
  Co  Co16  1  0.750000  0.116369  0.302884  1
  Co  Co17  1  0.750000  0.383631  0.802884  1
  Co  Co18  1  0.250000  0.465948  0.933774  1
  Co  Co19  1  0.250000  0.034052  0.433774  1
  Co  Co20  1  0.750000  0.531956  0.066968  1
  Co  Co21  1  0.750000  0.968044  0.566968  1
  Re  Re22  1  0.250000  0.707331  0.988663  1
  Re  Re23  1  0.250000  0.792669  0.488663  1
  P  P24  1  0.250000  0.415823  0.109832  1
  P  P25  1  0.250000  0.084177  0.609832  1
  P  P26  1  0.750000  0.579043  0.888843  1
  P  P27  1  0.750000  0.920957  0.388843  1
  P  P28  1  0.250000  0.275404  0.868307  1
  P  P29  1  0.250000  0.224596  0.368307  1
  P  P30  1  0.750000  0.723627  0.133161  1
  P  P31  1  0.750000  0.776373  0.633161  1
  P  P32  1  0.250000  0.599190  0.393163  1
  P  P33  1  0.250000  0.900810  0.893163  1
  P  P34  1  0.750000  0.393387  0.606416  1
  P  P35  1  0.750000  0.106613  0.106416  1
