# generated using pymatgen
data_Cu2GeIr3S8
_symmetry_space_group_name_H-M   'P 1'
_cell_length_a   7.00804999
_cell_length_b   7.08788855
_cell_length_c   7.08788800
_cell_angle_alpha   60.00000257
_cell_angle_beta   59.62242377
_cell_angle_gamma   59.62242727
_symmetry_Int_Tables_number   1
_chemical_formula_structural   Cu2GeIr3S8
_chemical_formula_sum   'Cu2 Ge1 Ir3 S8'
_cell_volume   247.52192480
_cell_formula_units_Z   1
loop_
 _symmetry_equiv_pos_site_id
 _symmetry_equiv_pos_as_xyz
  1  'x, y, z'
loop_
 _atom_site_type_symbol
 _atom_site_label
 _atom_site_symmetry_multiplicity
 _atom_site_fract_x
 _atom_site_fract_y
 _atom_site_fract_z
 _atom_site_occupancy
  Cu  Cu0  1  0.000020  0.999993  0.999993  1
  Cu  Cu1  1  0.249980  0.250007  0.250007  1
  Ge  Ge2  1  0.125000  0.625000  0.625000  1
  Ir  Ir3  1  0.625000  0.625000  0.625000  1
  Ir  Ir4  1  0.625000  0.625000  0.125000  1
  Ir  Ir5  1  0.625000  0.125000  0.625000  1
  S  S6  1  0.392791  0.380706  0.845797  1
  S  S7  1  0.392791  0.380706  0.380706  1
  S  S8  1  0.857209  0.869294  0.869294  1
  S  S9  1  0.857209  0.869294  0.404203  1
  S  S10  1  0.392791  0.845797  0.380706  1
  S  S11  1  0.840663  0.386446  0.386446  1
  S  S12  1  0.409337  0.863554  0.863554  1
  S  S13  1  0.857209  0.404203  0.869294  1
