# generated using pymatgen
data_Lu10In3Tc
_symmetry_space_group_name_H-M   'P 1'
_cell_length_a   9.48435000
_cell_length_b   9.48434997
_cell_length_c   9.63627200
_cell_angle_alpha   90.00000000
_cell_angle_beta   90.00000000
_cell_angle_gamma   120.00000012
_symmetry_Int_Tables_number   1
_chemical_formula_structural   Lu10In3Tc
_chemical_formula_sum   'Lu20 In6 Tc2'
_cell_volume   750.67996402
_cell_formula_units_Z   2
loop_
 _symmetry_equiv_pos_site_id
 _symmetry_equiv_pos_as_xyz
  1  'x, y, z'
loop_
 _atom_site_type_symbol
 _atom_site_label
 _atom_site_symmetry_multiplicity
 _atom_site_fract_x
 _atom_site_fract_y
 _atom_site_fract_z
 _atom_site_occupancy
  Lu  Lu0  1  0.000000  0.000000  0.500000  1
  Lu  Lu1  1  0.000000  0.000000  0.000000  1
  Lu  Lu2  1  0.209464  0.790536  0.440777  1
  Lu  Lu3  1  0.209464  0.418930  0.440777  1
  Lu  Lu4  1  0.581070  0.790536  0.440777  1
  Lu  Lu5  1  0.790536  0.209464  0.559223  1
  Lu  Lu6  1  0.790536  0.581070  0.559223  1
  Lu  Lu7  1  0.418930  0.209464  0.559223  1
  Lu  Lu8  1  0.790536  0.209464  0.940777  1
  Lu  Lu9  1  0.790536  0.581070  0.940777  1
  Lu  Lu10  1  0.418930  0.209464  0.940777  1
  Lu  Lu11  1  0.209464  0.790536  0.059223  1
  Lu  Lu12  1  0.209464  0.418930  0.059223  1
  Lu  Lu13  1  0.581070  0.790536  0.059223  1
  Lu  Lu14  1  0.535275  0.464725  0.250000  1
  Lu  Lu15  1  0.535275  0.070551  0.250000  1
  Lu  Lu16  1  0.929449  0.464725  0.250000  1
  Lu  Lu17  1  0.464725  0.535275  0.750000  1
  Lu  Lu18  1  0.464725  0.929449  0.750000  1
  Lu  Lu19  1  0.070551  0.535275  0.750000  1
  In  In20  1  0.884158  0.115842  0.250000  1
  In  In21  1  0.884158  0.768317  0.250000  1
  In  In22  1  0.231683  0.115842  0.250000  1
  In  In23  1  0.115842  0.884158  0.750000  1
  In  In24  1  0.115842  0.231683  0.750000  1
  In  In25  1  0.768317  0.884158  0.750000  1
  Tc  Tc26  1  0.333333  0.666667  0.250000  1
  Tc  Tc27  1  0.666667  0.333333  0.750000  1
