# generated using pymatgen
data_Tm2CrCo11As7
_symmetry_space_group_name_H-M   'P 1'
_cell_length_a   3.72624000
_cell_length_b   9.34047203
_cell_length_c   9.36218125
_cell_angle_alpha   119.85025381
_cell_angle_beta   90.00000000
_cell_angle_gamma   90.00000000
_symmetry_Int_Tables_number   1
_chemical_formula_structural   Tm2CrCo11As7
_chemical_formula_sum   'Tm2 Cr1 Co11 As7'
_cell_volume   282.61855636
_cell_formula_units_Z   1
loop_
 _symmetry_equiv_pos_site_id
 _symmetry_equiv_pos_as_xyz
  1  'x, y, z'
loop_
 _atom_site_type_symbol
 _atom_site_label
 _atom_site_symmetry_multiplicity
 _atom_site_fract_x
 _atom_site_fract_y
 _atom_site_fract_z
 _atom_site_occupancy
  Tm  Tm0  1  0.000000  0.667956  0.337382  1
  Tm  Tm1  1  0.500000  0.331756  0.665870  1
  Cr  Cr2  1  0.500000  0.780847  0.897941  1
  Co  Co3  1  0.000000  0.567156  0.940509  1
  Co  Co4  1  0.000000  0.373390  0.431273  1
  Co  Co5  1  0.000000  0.059272  0.625430  1
  Co  Co6  1  0.500000  0.122914  0.222871  1
  Co  Co7  1  0.500000  0.098350  0.875050  1
  Co  Co8  1  0.000000  0.878606  0.157834  1
  Co  Co9  1  0.000000  0.279482  0.122148  1
  Co  Co10  1  0.000000  0.844605  0.723871  1
  Co  Co11  1  0.500000  0.948025  0.381837  1
  Co  Co12  1  0.500000  0.431904  0.050657  1
  Co  Co13  1  0.500000  0.618193  0.565943  1
  As  As14  1  0.000000  0.003864  0.002734  1
  As  As15  1  0.500000  0.706035  0.118338  1
  As  As16  1  0.500000  0.405794  0.291012  1
  As  As17  1  0.500000  0.886178  0.594049  1
  As  As18  1  0.000000  0.586344  0.702737  1
  As  As19  1  0.000000  0.116027  0.409559  1
  As  As20  1  0.000000  0.293300  0.882957  1
