# generated using pymatgen
data_Er4Tm4Cd2IrRu
_symmetry_space_group_name_H-M   'P 1'
_cell_length_a   9.53120411
_cell_length_b   9.53120462
_cell_length_c   9.58173900
_cell_angle_alpha   59.82445944
_cell_angle_beta   59.82445765
_cell_angle_gamma   59.71565190
_symmetry_Int_Tables_number   1
_chemical_formula_structural   Er4Tm4Cd2IrRu
_chemical_formula_sum   'Er8 Tm8 Cd4 Ir2 Ru2'
_cell_volume   612.53435854
_cell_formula_units_Z   2
loop_
 _symmetry_equiv_pos_site_id
 _symmetry_equiv_pos_as_xyz
  1  'x, y, z'
loop_
 _atom_site_type_symbol
 _atom_site_label
 _atom_site_symmetry_multiplicity
 _atom_site_fract_x
 _atom_site_fract_y
 _atom_site_fract_z
 _atom_site_occupancy
  Er  Er0  1  0.438032  0.438032  0.061968  1
  Er  Er1  1  0.059266  0.059266  0.440734  1
  Er  Er2  1  0.188460  0.809397  0.813254  1
  Er  Er3  1  0.809397  0.188460  0.188888  1
  Er  Er4  1  0.809397  0.188460  0.813254  1
  Er  Er5  1  0.188460  0.809397  0.188888  1
  Er  Er6  1  0.810586  0.810586  0.189414  1
  Er  Er7  1  0.188512  0.188512  0.811488  1
  Tm  Tm8  1  0.598379  0.598379  0.598010  1
  Tm  Tm9  1  0.598379  0.598379  0.205230  1
  Tm  Tm10  1  0.596661  0.209871  0.596734  1
  Tm  Tm11  1  0.209871  0.596661  0.596734  1
  Tm  Tm12  1  0.061753  0.437838  0.440616  1
  Tm  Tm13  1  0.437838  0.061753  0.059793  1
  Tm  Tm14  1  0.437838  0.061753  0.440616  1
  Tm  Tm15  1  0.061753  0.437838  0.059793  1
  Cd  Cd16  1  0.830520  0.830520  0.830869  1
  Cd  Cd17  1  0.830520  0.830520  0.508089  1
  Cd  Cd18  1  0.831070  0.506739  0.831095  1
  Cd  Cd19  1  0.506739  0.831070  0.831095  1
  Ir  Ir20  1  0.394909  0.827356  0.388868  1
  Ir  Ir21  1  0.827356  0.394909  0.388868  1
  Ru  Ru22  1  0.392151  0.392151  0.387499  1
  Ru  Ru23  1  0.392151  0.392151  0.828198  1
