# generated using pymatgen
data_Hf4ZnAs
_symmetry_space_group_name_H-M   'P 1'
_cell_length_a   5.37555856
_cell_length_b   5.37555860
_cell_length_c   5.37555859
_cell_angle_alpha   104.21271351
_cell_angle_beta   104.21270657
_cell_angle_gamma   120.59425725
_symmetry_Int_Tables_number   1
_chemical_formula_structural   Hf4ZnAs
_chemical_formula_sum   'Hf4 Zn1 As1'
_cell_volume   116.14291175
_cell_formula_units_Z   1
loop_
 _symmetry_equiv_pos_site_id
 _symmetry_equiv_pos_as_xyz
  1  'x, y, z'
loop_
 _atom_site_type_symbol
 _atom_site_label
 _atom_site_symmetry_multiplicity
 _atom_site_fract_x
 _atom_site_fract_y
 _atom_site_fract_z
 _atom_site_occupancy
  Hf  Hf0  1  0.653972  0.846028  0.500000  1
  Hf  Hf1  1  0.846028  0.346028  0.192055  1
  Hf  Hf2  1  0.346028  0.153972  0.500000  1
  Hf  Hf3  1  0.153972  0.653972  0.807945  1
  Zn  Zn4  1  0.250000  0.250000  0.000000  1
  As  As5  1  0.750000  0.750000  0.000000  1
