# generated using pymatgen
data_TbNd3(Sn5Rh3)2
_symmetry_space_group_name_H-M   'P 1'
_cell_length_a   13.58754869
_cell_length_b   13.58754947
_cell_length_c   7.24868583
_cell_angle_alpha   89.90045004
_cell_angle_beta   90.09954999
_cell_angle_gamma   160.82555937
_symmetry_Int_Tables_number   1
_chemical_formula_structural   TbNd3(Sn5Rh3)2
_chemical_formula_sum   'Tb1 Nd3 Sn10 Rh6'
_cell_volume   439.54561205
_cell_formula_units_Z   1
loop_
 _symmetry_equiv_pos_site_id
 _symmetry_equiv_pos_as_xyz
  1  'x, y, z'
loop_
 _atom_site_type_symbol
 _atom_site_label
 _atom_site_symmetry_multiplicity
 _atom_site_fract_x
 _atom_site_fract_y
 _atom_site_fract_z
 _atom_site_occupancy
  Tb  Tb0  1  0.524204  0.475796  0.239471  1
  Nd  Nd1  1  0.171931  0.828069  0.753037  1
  Nd  Nd2  1  0.828039  0.171961  0.253577  1
  Nd  Nd3  1  0.476548  0.523452  0.739389  1
  Sn  Sn4  1  0.878597  0.121403  0.733045  1
  Sn  Sn5  1  0.120859  0.879141  0.233601  1
  Sn  Sn6  1  0.703818  0.296182  0.047451  1
  Sn  Sn7  1  0.295702  0.704298  0.548025  1
  Sn  Sn8  1  0.596456  0.403544  0.609682  1
  Sn  Sn9  1  0.404049  0.595951  0.111028  1
  Sn  Sn10  1  0.952879  0.047121  0.400299  1
  Sn  Sn11  1  0.047916  0.952084  0.903490  1
  Sn  Sn12  1  0.290033  0.709967  0.975223  1
  Sn  Sn13  1  0.709787  0.290213  0.475021  1
  Rh  Rh14  1  0.051239  0.948761  0.515672  1
  Rh  Rh15  1  0.948972  0.051028  0.020131  1
  Rh  Rh16  1  0.776929  0.223071  0.764051  1
  Rh  Rh17  1  0.222838  0.777162  0.263986  1
  Rh  Rh18  1  0.395109  0.604891  0.483668  1
  Rh  Rh19  1  0.604095  0.395905  0.986152  1
