# generated using pymatgen
data_Ca4TbIr2
_symmetry_space_group_name_H-M   'P 1'
_cell_length_a   6.64560401
_cell_length_b   7.41705355
_cell_length_c   8.67045523
_cell_angle_alpha   97.16624342
_cell_angle_beta   112.53406142
_cell_angle_gamma   89.99999613
_symmetry_Int_Tables_number   1
_chemical_formula_structural   Ca4TbIr2
_chemical_formula_sum   'Ca8 Tb2 Ir4'
_cell_volume   391.12760884
_cell_formula_units_Z   2
loop_
 _symmetry_equiv_pos_site_id
 _symmetry_equiv_pos_as_xyz
  1  'x, y, z'
loop_
 _atom_site_type_symbol
 _atom_site_label
 _atom_site_symmetry_multiplicity
 _atom_site_fract_x
 _atom_site_fract_y
 _atom_site_fract_z
 _atom_site_occupancy
  Ca  Ca0  1  0.977644  0.919180  0.172231  1
  Ca  Ca1  1  0.805412  0.580820  0.827769  1
  Ca  Ca2  1  0.022356  0.080820  0.827769  1
  Ca  Ca3  1  0.194588  0.419180  0.172231  1
  Ca  Ca4  1  0.641989  0.820192  0.436454  1
  Ca  Ca5  1  0.205535  0.679808  0.563546  1
  Ca  Ca6  1  0.358011  0.179808  0.563546  1
  Ca  Ca7  1  0.794465  0.320192  0.436454  1
  Tb  Tb8  1  0.437533  0.750000  0.000000  1
  Tb  Tb9  1  0.562467  0.250000  0.000000  1
  Ir  Ir10  1  0.807680  0.574141  0.208577  1
  Ir  Ir11  1  0.599103  0.925859  0.791423  1
  Ir  Ir12  1  0.192320  0.425859  0.791423  1
  Ir  Ir13  1  0.400897  0.074141  0.208577  1
