# generated using pymatgen
data_PrErTcB6
_symmetry_space_group_name_H-M   'P 1'
_cell_length_a   3.73904600
_cell_length_b   9.23565900
_cell_length_c   11.70591900
_cell_angle_alpha   90.00000000
_cell_angle_beta   90.00000000
_cell_angle_gamma   90.00000000
_symmetry_Int_Tables_number   1
_chemical_formula_structural   PrErTcB6
_chemical_formula_sum   'Pr4 Er4 Tc4 B24'
_cell_volume   404.23527813
_cell_formula_units_Z   4
loop_
 _symmetry_equiv_pos_site_id
 _symmetry_equiv_pos_as_xyz
  1  'x, y, z'
loop_
 _atom_site_type_symbol
 _atom_site_label
 _atom_site_symmetry_multiplicity
 _atom_site_fract_x
 _atom_site_fract_y
 _atom_site_fract_z
 _atom_site_occupancy
  Pr  Pr0  1  0.000000  0.323557  0.414779  1
  Pr  Pr1  1  0.000000  0.676443  0.585221  1
  Pr  Pr2  1  0.000000  0.823557  0.085221  1
  Pr  Pr3  1  0.000000  0.176443  0.914779  1
  Er  Er4  1  0.000000  0.942850  0.368545  1
  Er  Er5  1  0.000000  0.057150  0.631455  1
  Er  Er6  1  0.000000  0.442850  0.131455  1
  Er  Er7  1  0.000000  0.557150  0.868545  1
  Tc  Tc8  1  0.000000  0.640619  0.318329  1
  Tc  Tc9  1  0.000000  0.359381  0.681671  1
  Tc  Tc10  1  0.000000  0.140619  0.181671  1
  Tc  Tc11  1  0.000000  0.859381  0.818329  1
  B  B12  1  0.500000  0.556260  0.429448  1
  B  B13  1  0.500000  0.443740  0.570552  1
  B  B14  1  0.500000  0.056260  0.070552  1
  B  B15  1  0.500000  0.943740  0.929448  1
  B  B16  1  0.500000  0.750724  0.415248  1
  B  B17  1  0.500000  0.249276  0.584752  1
  B  B18  1  0.500000  0.250724  0.084752  1
  B  B19  1  0.500000  0.749276  0.915248  1
  B  B20  1  0.500000  0.792048  0.266013  1
  B  B21  1  0.500000  0.207952  0.733987  1
  B  B22  1  0.500000  0.292048  0.233987  1
  B  B23  1  0.500000  0.707952  0.766013  1
  B  B24  1  0.500000  0.629888  0.186021  1
  B  B25  1  0.500000  0.370112  0.813979  1
  B  B26  1  0.500000  0.129888  0.313979  1
  B  B27  1  0.500000  0.870112  0.686021  1
  B  B28  1  0.500000  0.984823  0.213661  1
  B  B29  1  0.500000  0.015177  0.786339  1
  B  B30  1  0.500000  0.484823  0.286339  1
  B  B31  1  0.500000  0.515177  0.713661  1
  B  B32  1  0.500000  0.595296  0.026052  1
  B  B33  1  0.500000  0.404704  0.973948  1
  B  B34  1  0.500000  0.095296  0.473948  1
  B  B35  1  0.500000  0.904704  0.526052  1
