# generated using pymatgen
data_La3PrPtSe7
_symmetry_space_group_name_H-M   'P 1'
_cell_length_a   4.10342008
_cell_length_b   8.46294981
_cell_length_c   8.77970800
_cell_angle_alpha   90.03719543
_cell_angle_beta   89.98855039
_cell_angle_gamma   89.99541047
_symmetry_Int_Tables_number   1
_chemical_formula_structural   La3PrPtSe7
_chemical_formula_sum   'La3 Pr1 Pt1 Se7'
_cell_volume   304.89318383
_cell_formula_units_Z   1
loop_
 _symmetry_equiv_pos_site_id
 _symmetry_equiv_pos_as_xyz
  1  'x, y, z'
loop_
 _atom_site_type_symbol
 _atom_site_label
 _atom_site_symmetry_multiplicity
 _atom_site_fract_x
 _atom_site_fract_y
 _atom_site_fract_z
 _atom_site_occupancy
  La  La0  1  0.250640  0.625500  0.749187  1
  La  La1  1  0.749920  0.868570  0.273492  1
  La  La2  1  0.749791  0.380811  0.274285  1
  Pr  Pr3  1  0.250309  0.125400  0.700398  1
  Pt  Pt4  1  0.749295  0.125039  0.999433  1
  Se  Se5  1  0.249351  0.315796  0.996636  1
  Se  Se6  1  0.750242  0.624141  0.006753  1
  Se  Se7  1  0.750619  0.873586  0.634419  1
  Se  Se8  1  0.249973  0.624962  0.373726  1
  Se  Se9  1  0.249468  0.934441  0.996118  1
  Se  Se10  1  0.750422  0.377128  0.634801  1
  Se  Se11  1  0.249969  0.124625  0.360753  1
