# generated using pymatgen
data_SrTb5TmNiI12
_symmetry_space_group_name_H-M   'P 1'
_cell_length_a   9.80279609
_cell_length_b   9.80907970
_cell_length_c   9.80078707
_cell_angle_alpha   106.26789160
_cell_angle_beta   106.19277496
_cell_angle_gamma   106.28251968
_symmetry_Int_Tables_number   1
_chemical_formula_structural   SrTb5TmNiI12
_chemical_formula_sum   'Sr1 Tb5 Tm1 Ni1 I12'
_cell_volume   800.40640684
_cell_formula_units_Z   1
loop_
 _symmetry_equiv_pos_site_id
 _symmetry_equiv_pos_as_xyz
  1  'x, y, z'
loop_
 _atom_site_type_symbol
 _atom_site_label
 _atom_site_symmetry_multiplicity
 _atom_site_fract_x
 _atom_site_fract_y
 _atom_site_fract_z
 _atom_site_occupancy
  Sr  Sr0  1  0.499979  0.500002  0.499891  1
  Tb  Tb1  1  0.708865  0.907250  0.979056  1
  Tb  Tb2  1  0.979271  0.709078  0.906473  1
  Tb  Tb3  1  0.092470  0.020505  0.290827  1
  Tb  Tb4  1  0.290773  0.092775  0.019667  1
  Tb  Tb5  1  0.020189  0.290640  0.091587  1
  Tm  Tm6  1  0.909103  0.979431  0.714548  1
  Ni  Ni7  1  0.000024  0.999883  0.999954  1
  I  I8  1  0.925417  0.320198  0.775190  1
  I  I9  1  0.777598  0.926423  0.324613  1
  I  I10  1  0.323181  0.776943  0.925947  1
  I  I11  1  0.073931  0.677069  0.222792  1
  I  I12  1  0.219098  0.072839  0.676139  1
  I  I13  1  0.676817  0.223052  0.073973  1
  I  I14  1  0.554079  0.865241  0.630421  1
  I  I15  1  0.630716  0.550750  0.864008  1
  I  I16  1  0.864141  0.633416  0.550925  1
  I  I17  1  0.449123  0.136058  0.369169  1
  I  I18  1  0.369342  0.449264  0.135889  1
  I  I19  1  0.135883  0.369180  0.448930  1
