# generated using pymatgen
data_U2MnO6
_symmetry_space_group_name_H-M   'P 1'
_cell_length_a   4.98218300
_cell_length_b   4.98218300
_cell_length_c   10.29462700
_cell_angle_alpha   90.00000000
_cell_angle_beta   90.00000000
_cell_angle_gamma   90.00000000
_symmetry_Int_Tables_number   1
_chemical_formula_structural   U2MnO6
_chemical_formula_sum   'U4 Mn2 O12'
_cell_volume   255.53474929
_cell_formula_units_Z   2
loop_
 _symmetry_equiv_pos_site_id
 _symmetry_equiv_pos_as_xyz
  1  'x, y, z'
loop_
 _atom_site_type_symbol
 _atom_site_label
 _atom_site_symmetry_multiplicity
 _atom_site_fract_x
 _atom_site_fract_y
 _atom_site_fract_z
 _atom_site_occupancy
  U  U0  1  0.499999  0.499999  0.166847  1
  U  U1  1  0.000000  0.000000  0.333153  1
  U  U2  1  0.000000  0.000000  0.666847  1
  U  U3  1  0.499999  0.499999  0.833153  1
  Mn  Mn4  1  0.000000  0.000000  0.000000  1
  Mn  Mn5  1  0.499999  0.499999  0.500000  1
  O  O6  1  0.306744  0.306744  0.000000  1
  O  O7  1  0.693256  0.693256  0.000000  1
  O  O8  1  0.800734  0.199266  0.169471  1
  O  O9  1  0.199266  0.800734  0.169471  1
  O  O10  1  0.300733  0.300733  0.330529  1
  O  O11  1  0.699267  0.699267  0.330529  1
  O  O12  1  0.806745  0.193255  0.500000  1
  O  O13  1  0.193255  0.806745  0.500000  1
  O  O14  1  0.300733  0.300733  0.669471  1
  O  O15  1  0.699267  0.699267  0.669471  1
  O  O16  1  0.800734  0.199266  0.830529  1
  O  O17  1  0.199266  0.800734  0.830529  1
