# generated using pymatgen
data_Zr2H12S
_symmetry_space_group_name_H-M   'P 1'
_cell_length_a   3.37997175
_cell_length_b   5.64106062
_cell_length_c   11.57920807
_cell_angle_alpha   103.54220397
_cell_angle_beta   94.04066207
_cell_angle_gamma   90.73462205
_symmetry_Int_Tables_number   1
_chemical_formula_structural   Zr2H12S
_chemical_formula_sum   'Zr2 H12 S1'
_cell_volume   214.00691953
_cell_formula_units_Z   1
loop_
 _symmetry_equiv_pos_site_id
 _symmetry_equiv_pos_as_xyz
  1  'x, y, z'
loop_
 _atom_site_type_symbol
 _atom_site_label
 _atom_site_symmetry_multiplicity
 _atom_site_fract_x
 _atom_site_fract_y
 _atom_site_fract_z
 _atom_site_occupancy
  Zr  Zr0  1  0.378427  0.325539  0.603261  1
  Zr  Zr1  1  0.873780  0.810106  0.567263  1
  H  H2  1  0.797868  0.037759  0.245437  1
  H  H3  1  0.905082  0.179618  0.682740  1
  H  H4  1  0.855687  0.141198  0.504252  1
  H  H5  1  0.671228  0.323078  0.000850  1
  H  H6  1  0.618923  0.014468  0.201624  1
  H  H7  1  0.895559  0.536778  0.651174  1
  H  H8  1  0.578538  0.405162  0.051818  1
  H  H9  1  0.077294  0.891334  0.950600  1
  H  H10  1  0.998095  0.853015  0.002591  1
  H  H11  1  0.424157  0.574604  0.771237  1
  H  H12  1  0.391051  0.979301  0.626114  1
  H  H13  1  0.422743  0.447468  0.792485  1
  S  S14  1  0.335434  0.542231  0.432646  1
