# generated using pymatgen
data_LaPr(Zn9Cu2)2
_symmetry_space_group_name_H-M   'P 1'
_cell_length_a   8.21673588
_cell_length_b   8.21891104
_cell_length_c   8.21673602
_cell_angle_alpha   99.69976193
_cell_angle_beta   99.82231742
_cell_angle_gamma   131.35339862
_symmetry_Int_Tables_number   1
_chemical_formula_structural   LaPr(Zn9Cu2)2
_chemical_formula_sum   'La1 Pr1 Zn18 Cu4'
_cell_volume   379.60995498
_cell_formula_units_Z   1
loop_
 _symmetry_equiv_pos_site_id
 _symmetry_equiv_pos_as_xyz
  1  'x, y, z'
loop_
 _atom_site_type_symbol
 _atom_site_label
 _atom_site_symmetry_multiplicity
 _atom_site_fract_x
 _atom_site_fract_y
 _atom_site_fract_z
 _atom_site_occupancy
  La  La0  1  0.999709  0.999728  0.000019  1
  Pr  Pr1  1  0.250292  0.750275  0.499983  1
  Zn  Zn2  1  0.895115  0.568956  0.082400  1
  Zn  Zn3  1  0.430999  0.513472  0.326263  1
  Zn  Zn4  1  0.486555  0.568956  0.673841  1
  Zn  Zn5  1  0.430886  0.104706  0.917479  1
  Zn  Zn6  1  0.763330  0.180982  0.826067  1
  Zn  Zn7  1  0.486668  0.812762  0.917580  1
  Zn  Zn8  1  0.499979  0.499894  0.999915  1
  Zn  Zn9  1  0.763218  0.937215  0.582367  1
  Zn  Zn10  1  0.750035  0.250119  0.500085  1
  Zn  Zn11  1  0.062789  0.645256  0.826085  1
  Zn  Zn12  1  0.354915  0.180982  0.417653  1
  Zn  Zn13  1  0.819171  0.645256  0.582467  1
  Zn  Zn14  1  0.895182  0.812762  0.326095  1
  Zn  Zn15  1  0.187227  0.104706  0.673821  1
  Zn  Zn16  1  0.062808  0.236639  0.417581  1
  Zn  Zn17  1  0.354848  0.937215  0.173997  1
  Zn  Zn18  1  0.819059  0.236639  0.173832  1
  Zn  Zn19  1  0.187208  0.513472  0.082473  1
  Cu  Cu20  1  0.625040  0.875049  0.250009  1
  Cu  Cu21  1  0.124959  0.374964  0.749995  1
  Cu  Cu22  1  0.624969  0.374964  0.250005  1
  Cu  Cu23  1  0.625039  0.375029  0.749990  1
