# generated using pymatgen
data_NaSr(LaB12)2
_symmetry_space_group_name_H-M   'P 1'
_cell_length_a   7.21273308
_cell_length_b   7.21273299
_cell_length_c   5.89767700
_cell_angle_alpha   90.00000000
_cell_angle_beta   90.00000000
_cell_angle_gamma   109.42900079
_symmetry_Int_Tables_number   1
_chemical_formula_structural   NaSr(LaB12)2
_chemical_formula_sum   'Na1 Sr1 La2 B24'
_cell_volume   289.34597816
_cell_formula_units_Z   1
loop_
 _symmetry_equiv_pos_site_id
 _symmetry_equiv_pos_as_xyz
  1  'x, y, z'
loop_
 _atom_site_type_symbol
 _atom_site_label
 _atom_site_symmetry_multiplicity
 _atom_site_fract_x
 _atom_site_fract_y
 _atom_site_fract_z
 _atom_site_occupancy
  Na  Na0  1  0.000000  0.000000  0.000000  1
  Sr  Sr1  1  0.500000  0.500000  0.000000  1
  La  La2  1  0.751164  0.248836  0.500000  1
  La  La3  1  0.248836  0.751164  0.500000  1
  B  B4  1  0.175249  0.324263  0.649579  1
  B  B5  1  0.925293  0.574925  0.148828  1
  B  B6  1  0.675737  0.824751  0.649579  1
  B  B7  1  0.425075  0.074707  0.148828  1
  B  B8  1  0.175249  0.324263  0.350421  1
  B  B9  1  0.925293  0.574925  0.851172  1
  B  B10  1  0.675737  0.824751  0.350421  1
  B  B11  1  0.425075  0.074707  0.851172  1
  B  B12  1  0.399042  0.399042  0.500000  1
  B  B13  1  0.148536  0.649977  0.000000  1
  B  B14  1  0.899321  0.899321  0.500000  1
  B  B15  1  0.649977  0.148536  0.000000  1
  B  B16  1  0.324263  0.175249  0.649579  1
  B  B17  1  0.074707  0.425075  0.148828  1
  B  B18  1  0.824751  0.675737  0.649579  1
  B  B19  1  0.574925  0.925293  0.148828  1
  B  B20  1  0.100679  0.100679  0.500000  1
  B  B21  1  0.851464  0.350023  0.000000  1
  B  B22  1  0.600958  0.600958  0.500000  1
  B  B23  1  0.350023  0.851464  0.000000  1
  B  B24  1  0.324263  0.175249  0.350421  1
  B  B25  1  0.074707  0.425075  0.851172  1
  B  B26  1  0.824751  0.675737  0.350421  1
  B  B27  1  0.574925  0.925293  0.851172  1
