# generated using pymatgen
data_Dy12Si12Pt3Rh
_symmetry_space_group_name_H-M   'P 1'
_cell_length_a   4.26253200
_cell_length_b   10.67898609
_cell_length_c   12.37728767
_cell_angle_alpha   90.01823568
_cell_angle_beta   90.00000000
_cell_angle_gamma   90.00000000
_symmetry_Int_Tables_number   1
_chemical_formula_structural   Dy12Si12Pt3Rh
_chemical_formula_sum   'Dy12 Si12 Pt3 Rh1'
_cell_volume   563.40816445
_cell_formula_units_Z   1
loop_
 _symmetry_equiv_pos_site_id
 _symmetry_equiv_pos_as_xyz
  1  'x, y, z'
loop_
 _atom_site_type_symbol
 _atom_site_label
 _atom_site_symmetry_multiplicity
 _atom_site_fract_x
 _atom_site_fract_y
 _atom_site_fract_z
 _atom_site_occupancy
  Dy  Dy0  1  0.250000  0.878326  0.019827  1
  Dy  Dy1  1  0.250000  0.620473  0.521243  1
  Dy  Dy2  1  0.750000  0.120715  0.979398  1
  Dy  Dy3  1  0.750000  0.379222  0.479901  1
  Dy  Dy4  1  0.250000  0.918888  0.603369  1
  Dy  Dy5  1  0.250000  0.580795  0.102668  1
  Dy  Dy6  1  0.750000  0.080601  0.397656  1
  Dy  Dy7  1  0.750000  0.419510  0.897113  1
  Dy  Dy8  1  0.250000  0.658170  0.800319  1
  Dy  Dy9  1  0.250000  0.839780  0.301262  1
  Dy  Dy10  1  0.750000  0.339418  0.198455  1
  Dy  Dy11  1  0.750000  0.160359  0.698159  1
  Si  Si12  1  0.250000  0.016025  0.823135  1
  Si  Si13  1  0.250000  0.485043  0.322307  1
  Si  Si14  1  0.750000  0.984694  0.177314  1
  Si  Si15  1  0.750000  0.511472  0.678152  1
  Si  Si16  1  0.250000  0.247892  0.840362  1
  Si  Si17  1  0.250000  0.255118  0.343452  1
  Si  Si18  1  0.750000  0.754460  0.156829  1
  Si  Si19  1  0.750000  0.744509  0.656752  1
  Si  Si20  1  0.250000  0.199225  0.542284  1
  Si  Si21  1  0.250000  0.304210  0.039992  1
  Si  Si22  1  0.750000  0.805460  0.459592  1
  Si  Si23  1  0.750000  0.694983  0.958974  1
  Pt  Pt24  1  0.250000  0.110531  0.181285  1
  Pt  Pt25  1  0.750000  0.610537  0.319538  1
  Pt  Pt26  1  0.750000  0.889687  0.819330  1
  Rh  Rh27  1  0.250000  0.389895  0.681333  1
