# generated using pymatgen
data_Tb5Nd15(Ir2Ru)4
_symmetry_space_group_name_H-M   'P 1'
_cell_length_a   11.16486345
_cell_length_b   11.15996443
_cell_length_c   6.56399747
_cell_angle_alpha   90.07255686
_cell_angle_beta   89.97566234
_cell_angle_gamma   90.02159160
_symmetry_Int_Tables_number   1
_chemical_formula_structural   Tb5Nd15(Ir2Ru)4
_chemical_formula_sum   'Tb5 Nd15 Ir8 Ru4'
_cell_volume   817.86987678
_cell_formula_units_Z   1
loop_
 _symmetry_equiv_pos_site_id
 _symmetry_equiv_pos_as_xyz
  1  'x, y, z'
loop_
 _atom_site_type_symbol
 _atom_site_label
 _atom_site_symmetry_multiplicity
 _atom_site_fract_x
 _atom_site_fract_y
 _atom_site_fract_z
 _atom_site_occupancy
  Tb  Tb0  1  0.085851  0.293438  0.115859  1
  Tb  Tb1  1  0.000146  0.000386  0.500785  1
  Tb  Tb2  1  0.000847  0.001429  0.000951  1
  Tb  Tb3  1  0.499891  0.499586  0.000524  1
  Tb  Tb4  1  0.499392  0.499766  0.499882  1
  Nd  Nd5  1  0.290550  0.088141  0.380349  1
  Nd  Nd6  1  0.291849  0.913035  0.881220  1
  Nd  Nd7  1  0.708575  0.086889  0.881707  1
  Nd  Nd8  1  0.708313  0.913029  0.381086  1
  Nd  Nd9  1  0.586965  0.791756  0.880945  1
  Nd  Nd10  1  0.586966  0.208478  0.381126  1
  Nd  Nd11  1  0.412994  0.791757  0.381260  1
  Nd  Nd12  1  0.412624  0.208271  0.881718  1
  Nd  Nd13  1  0.207658  0.412036  0.619009  1
  Nd  Nd14  1  0.207793  0.584915  0.118897  1
  Nd  Nd15  1  0.792633  0.412329  0.118637  1
  Nd  Nd16  1  0.791872  0.586256  0.618851  1
  Nd  Nd17  1  0.913541  0.707948  0.118786  1
  Nd  Nd18  1  0.914454  0.291495  0.618691  1
  Nd  Nd19  1  0.086903  0.708127  0.618327  1
  Ir  Ir20  1  0.854516  0.150177  0.248272  1
  Ir  Ir21  1  0.851722  0.851465  0.749974  1
  Ir  Ir22  1  0.147976  0.150421  0.755218  1
  Ir  Ir23  1  0.148257  0.852216  0.250414  1
  Ir  Ir24  1  0.648055  0.351579  0.749842  1
  Ir  Ir25  1  0.648367  0.648509  0.250019  1
  Ir  Ir26  1  0.348480  0.351169  0.248450  1
  Ir  Ir27  1  0.351578  0.648113  0.750325  1
  Ru  Ru28  1  0.499758  0.000158  0.118960  1
  Ru  Ru29  1  0.499999  0.000349  0.618506  1
  Ru  Ru30  1  0.000717  0.498108  0.882409  1
  Ru  Ru31  1  0.000757  0.498671  0.379003  1
