# generated using pymatgen
data_Ho4Pa2Mn11Co7P12
_symmetry_space_group_name_H-M   'P 1'
_cell_length_a   3.68299900
_cell_length_b   10.79961500
_cell_length_c   12.25940200
_cell_angle_alpha   90.00000000
_cell_angle_beta   90.00000000
_cell_angle_gamma   90.00000000
_symmetry_Int_Tables_number   1
_chemical_formula_structural   Ho4Pa2Mn11Co7P12
_chemical_formula_sum   'Ho4 Pa2 Mn11 Co7 P12'
_cell_volume   487.61736204
_cell_formula_units_Z   1
loop_
 _symmetry_equiv_pos_site_id
 _symmetry_equiv_pos_as_xyz
  1  'x, y, z'
loop_
 _atom_site_type_symbol
 _atom_site_label
 _atom_site_symmetry_multiplicity
 _atom_site_fract_x
 _atom_site_fract_y
 _atom_site_fract_z
 _atom_site_occupancy
  Ho  Ho0  1  0.500000  0.819777  0.200101  1
  Ho  Ho1  1  0.500000  0.180223  0.200101  1
  Ho  Ho2  1  0.000000  0.679681  0.800389  1
  Ho  Ho3  1  0.000000  0.320319  0.800389  1
  Pa  Pa4  1  0.000000  0.500000  0.534913  1
  Pa  Pa5  1  0.500000  0.000000  0.464772  1
  Mn  Mn6  1  0.000000  0.500000  0.988835  1
  Mn  Mn7  1  0.500000  0.301783  0.430429  1
  Mn  Mn8  1  0.500000  0.698217  0.430429  1
  Mn  Mn9  1  0.000000  0.197835  0.569834  1
  Mn  Mn10  1  0.000000  0.802165  0.569834  1
  Mn  Mn11  1  0.500000  0.884897  0.709440  1
  Mn  Mn12  1  0.500000  0.115103  0.709440  1
  Mn  Mn13  1  0.000000  0.616805  0.291556  1
  Mn  Mn14  1  0.000000  0.383195  0.291556  1
  Mn  Mn15  1  0.500000  0.500000  0.154969  1
  Mn  Mn16  1  0.000000  0.000000  0.843425  1
  Co  Co17  1  0.500000  0.000000  0.013368  1
  Co  Co18  1  0.500000  0.331833  0.993681  1
  Co  Co19  1  0.500000  0.668167  0.993681  1
  Co  Co20  1  0.000000  0.165055  0.005803  1
  Co  Co21  1  0.000000  0.834945  0.005803  1
  Co  Co22  1  0.500000  0.500000  0.698181  1
  Co  Co23  1  0.000000  0.000000  0.300273  1
  P  P24  1  0.500000  0.310287  0.620672  1
  P  P25  1  0.500000  0.689713  0.620672  1
  P  P26  1  0.000000  0.188733  0.379464  1
  P  P27  1  0.000000  0.811267  0.379464  1
  P  P28  1  0.500000  0.500000  0.882622  1
  P  P29  1  0.000000  0.000000  0.117403  1
  P  P30  1  0.500000  0.845815  0.894949  1
  P  P31  1  0.500000  0.154185  0.894949  1
  P  P32  1  0.000000  0.655121  0.104284  1
  P  P33  1  0.000000  0.344879  0.104284  1
  P  P34  1  0.500000  0.500000  0.352122  1
  P  P35  1  0.000000  0.000000  0.647913  1
