# generated using pymatgen
data_Ce2PrMg3OsAu2
_symmetry_space_group_name_H-M   'P 1'
_cell_length_a   7.86663130
_cell_length_b   7.67046063
_cell_length_c   4.02250700
_cell_angle_alpha   90.00000000
_cell_angle_beta   90.00000000
_cell_angle_gamma   119.98947036
_symmetry_Int_Tables_number   1
_chemical_formula_structural   Ce2PrMg3OsAu2
_chemical_formula_sum   'Ce2 Pr1 Mg3 Os1 Au2'
_cell_volume   210.22470494
_cell_formula_units_Z   1
loop_
 _symmetry_equiv_pos_site_id
 _symmetry_equiv_pos_as_xyz
  1  'x, y, z'
loop_
 _atom_site_type_symbol
 _atom_site_label
 _atom_site_symmetry_multiplicity
 _atom_site_fract_x
 _atom_site_fract_y
 _atom_site_fract_z
 _atom_site_occupancy
  Ce  Ce0  1  0.404547  0.436204  0.000000  1
  Ce  Ce1  1  0.561183  0.968799  0.000000  1
  Pr  Pr2  1  0.013937  0.591199  0.000000  1
  Mg  Mg3  1  0.995895  0.245661  0.500000  1
  Mg  Mg4  1  0.247479  0.004198  0.500000  1
  Mg  Mg5  1  0.755126  0.752778  0.500000  1
  Os  Os6  1  0.363957  0.675467  0.500000  1
  Au  Au7  1  0.000422  0.001529  0.000000  1
  Au  Au8  1  0.657455  0.324165  0.500000  1
