# generated using pymatgen
data_Pa2TcSnRh
_symmetry_space_group_name_H-M   'P 1'
_cell_length_a   7.64013300
_cell_length_b   7.62605000
_cell_length_c   3.63541800
_cell_angle_alpha   90.00000000
_cell_angle_beta   90.00000000
_cell_angle_gamma   90.00000000
_symmetry_Int_Tables_number   1
_chemical_formula_structural   Pa2TcSnRh
_chemical_formula_sum   'Pa4 Tc2 Sn2 Rh2'
_cell_volume   211.81412619
_cell_formula_units_Z   2
loop_
 _symmetry_equiv_pos_site_id
 _symmetry_equiv_pos_as_xyz
  1  'x, y, z'
loop_
 _atom_site_type_symbol
 _atom_site_label
 _atom_site_symmetry_multiplicity
 _atom_site_fract_x
 _atom_site_fract_y
 _atom_site_fract_z
 _atom_site_occupancy
  Pa  Pa0  1  0.340539  0.169037  0.500000  1
  Pa  Pa1  1  0.675685  0.832812  0.500000  1
  Pa  Pa2  1  0.159461  0.669037  0.500000  1
  Pa  Pa3  1  0.824315  0.332812  0.500000  1
  Tc  Tc4  1  0.634676  0.134904  0.000000  1
  Tc  Tc5  1  0.865324  0.634904  0.000000  1
  Sn  Sn6  1  0.001298  0.001799  0.000000  1
  Sn  Sn7  1  0.498702  0.501799  0.000000  1
  Rh  Rh8  1  0.361955  0.861448  0.000000  1
  Rh  Rh9  1  0.138045  0.361448  0.000000  1
