# generated using pymatgen
data_HfTa2Nb3(B2Ru5)2
_symmetry_space_group_name_H-M   'P 1'
_cell_length_a   9.47252607
_cell_length_b   9.47252602
_cell_length_c   3.04183200
_cell_angle_alpha   90.00000000
_cell_angle_beta   90.00000000
_cell_angle_gamma   89.98966894
_symmetry_Int_Tables_number   1
_chemical_formula_structural   HfTa2Nb3(B2Ru5)2
_chemical_formula_sum   'Hf1 Ta2 Nb3 B4 Ru10'
_cell_volume   272.93977748
_cell_formula_units_Z   1
loop_
 _symmetry_equiv_pos_site_id
 _symmetry_equiv_pos_as_xyz
  1  'x, y, z'
loop_
 _atom_site_type_symbol
 _atom_site_label
 _atom_site_symmetry_multiplicity
 _atom_site_fract_x
 _atom_site_fract_y
 _atom_site_fract_z
 _atom_site_occupancy
  Hf  Hf0  1  0.824480  0.675520  0.000000  1
  Ta  Ta1  1  0.499990  0.500129  0.000000  1
  Ta  Ta2  1  0.999871  0.000010  0.000000  1
  Nb  Nb3  1  0.176156  0.323844  0.000000  1
  Nb  Nb4  1  0.324416  0.823511  0.000000  1
  Nb  Nb5  1  0.676489  0.175584  0.000000  1
  B  B6  1  0.620905  0.879095  0.000000  1
  B  B7  1  0.378577  0.121423  0.000000  1
  B  B8  1  0.121256  0.621357  0.000000  1
  B  B9  1  0.878643  0.378744  0.000000  1
  Ru  Ru10  1  0.568082  0.719667  0.500000  1
  Ru  Ru11  1  0.428240  0.281728  0.500000  1
  Ru  Ru12  1  0.073987  0.782303  0.500000  1
  Ru  Ru13  1  0.929104  0.218131  0.500000  1
  Ru  Ru14  1  0.281869  0.570896  0.500000  1
  Ru  Ru15  1  0.717697  0.426013  0.500000  1
  Ru  Ru16  1  0.218272  0.071760  0.500000  1
  Ru  Ru17  1  0.780333  0.931918  0.500000  1
  Ru  Ru18  1  0.499212  0.000788  0.500000  1
  Ru  Ru19  1  0.002422  0.497578  0.500000  1
