# generated using pymatgen
data_YbCe3Ir4F28
_symmetry_space_group_name_H-M   'P 1'
_cell_length_a   5.54629057
_cell_length_b   8.87162636
_cell_length_c   11.95922400
_cell_angle_alpha   62.71873108
_cell_angle_beta   89.97411185
_cell_angle_gamma   89.92601782
_symmetry_Int_Tables_number   1
_chemical_formula_structural   YbCe3Ir4F28
_chemical_formula_sum   'Yb1 Ce3 Ir4 F28'
_cell_volume   522.99372297
_cell_formula_units_Z   1
loop_
 _symmetry_equiv_pos_site_id
 _symmetry_equiv_pos_as_xyz
  1  'x, y, z'
loop_
 _atom_site_type_symbol
 _atom_site_label
 _atom_site_symmetry_multiplicity
 _atom_site_fract_x
 _atom_site_fract_y
 _atom_site_fract_z
 _atom_site_occupancy
  Yb  Yb0  1  0.757729  0.808248  0.764713  1
  Ce  Ce1  1  0.262609  0.181893  0.735684  1
  Ce  Ce2  1  0.242207  0.193370  0.234580  1
  Ce  Ce3  1  0.742302  0.804478  0.266060  1
  Ir  Ir4  1  0.756744  0.274734  0.956206  1
  Ir  Ir5  1  0.256374  0.727056  0.546016  1
  Ir  Ir6  1  0.242386  0.727967  0.039397  1
  Ir  Ir7  1  0.744656  0.268782  0.459058  1
  F  F8  1  0.438411  0.707604  0.912803  1
  F  F9  1  0.936044  0.298039  0.585928  1
  F  F10  1  0.563161  0.294640  0.087556  1
  F  F11  1  0.060678  0.706915  0.414400  1
  F  F12  1  0.437786  0.278474  0.539084  1
  F  F13  1  0.944406  0.723727  0.955110  1
  F  F14  1  0.557334  0.723563  0.457059  1
  F  F15  1  0.060424  0.276468  0.042981  1
  F  F16  1  0.769615  0.518751  0.859018  1
  F  F17  1  0.271702  0.479600  0.642380  1
  F  F18  1  0.226628  0.479389  0.140408  1
  F  F19  1  0.726733  0.518238  0.358490  1
  F  F20  1  0.756319  0.024426  0.053847  1
  F  F21  1  0.256679  0.975938  0.448468  1
  F  F22  1  0.242766  0.977003  0.950331  1
  F  F23  1  0.746122  0.023523  0.552664  1
  F  F24  1  0.965938  0.725888  0.635925  1
  F  F25  1  0.459900  0.276250  0.866179  1
  F  F26  1  0.042237  0.274308  0.366436  1
  F  F27  1  0.537143  0.724572  0.134761  1
  F  F28  1  0.056435  0.744194  0.175045  1
  F  F29  1  0.562540  0.250807  0.323746  1
  F  F30  1  0.944055  0.255654  0.823823  1
  F  F31  1  0.446996  0.745139  0.674799  1
  F  F32  1  0.397626  0.963352  0.229225  1
  F  F33  1  0.899241  0.036034  0.270308  1
  F  F34  1  0.593322  0.040037  0.768539  1
  F  F35  1  0.094753  0.970938  0.728974  1
