# generated using pymatgen
data_CeH5Ru
_symmetry_space_group_name_H-M   'P 1'
_cell_length_a   4.57437100
_cell_length_b   4.75331700
_cell_length_c   12.17407700
_cell_angle_alpha   90.00000000
_cell_angle_beta   90.00000000
_cell_angle_gamma   90.00000000
_symmetry_Int_Tables_number   1
_chemical_formula_structural   CeH5Ru
_chemical_formula_sum   'Ce4 H20 Ru4'
_cell_volume   264.70625727
_cell_formula_units_Z   4
loop_
 _symmetry_equiv_pos_site_id
 _symmetry_equiv_pos_as_xyz
  1  'x, y, z'
loop_
 _atom_site_type_symbol
 _atom_site_label
 _atom_site_symmetry_multiplicity
 _atom_site_fract_x
 _atom_site_fract_y
 _atom_site_fract_z
 _atom_site_occupancy
  Ce  Ce0  1  0.730900  0.337051  0.141481  1
  Ce  Ce1  1  0.230900  0.162949  0.858519  1
  Ce  Ce2  1  0.269100  0.837051  0.358519  1
  Ce  Ce3  1  0.769100  0.662949  0.641481  1
  H  H4  1  0.845238  0.347035  0.957435  1
  H  H5  1  0.427967  0.021453  0.687967  1
  H  H6  1  0.959874  0.880810  0.010163  1
  H  H7  1  0.722493  0.979305  0.838931  1
  H  H8  1  0.429667  0.348114  0.321311  1
  H  H9  1  0.777507  0.020695  0.338931  1
  H  H10  1  0.459874  0.619190  0.989837  1
  H  H11  1  0.277507  0.479305  0.661069  1
  H  H12  1  0.927967  0.478547  0.312033  1
  H  H13  1  0.654762  0.652965  0.457435  1
  H  H14  1  0.040126  0.380810  0.489837  1
  H  H15  1  0.154762  0.847035  0.542565  1
  H  H16  1  0.570333  0.848114  0.178689  1
  H  H17  1  0.929667  0.151886  0.678689  1
  H  H18  1  0.070333  0.651886  0.821311  1
  H  H19  1  0.072033  0.978547  0.187967  1
  H  H20  1  0.345238  0.152965  0.042565  1
  H  H21  1  0.572033  0.521453  0.812033  1
  H  H22  1  0.540126  0.119190  0.510163  1
  H  H23  1  0.222493  0.520695  0.161069  1
  Ru  Ru24  1  0.217632  0.169961  0.593055  1
  Ru  Ru25  1  0.282368  0.830039  0.093055  1
  Ru  Ru26  1  0.782368  0.669961  0.906945  1
  Ru  Ru27  1  0.717632  0.330039  0.406945  1
