# generated using pymatgen
data_Ho6Sc4Si5Sn
_symmetry_space_group_name_H-M   'P 1'
_cell_length_a   8.33816800
_cell_length_b   8.35301147
_cell_length_c   6.07430200
_cell_angle_alpha   90.00000000
_cell_angle_beta   90.00000000
_cell_angle_gamma   119.94123403
_symmetry_Int_Tables_number   1
_chemical_formula_structural   Ho6Sc4Si5Sn
_chemical_formula_sum   'Ho6 Sc4 Si5 Sn1'
_cell_volume   366.60433865
_cell_formula_units_Z   1
loop_
 _symmetry_equiv_pos_site_id
 _symmetry_equiv_pos_as_xyz
  1  'x, y, z'
loop_
 _atom_site_type_symbol
 _atom_site_label
 _atom_site_symmetry_multiplicity
 _atom_site_fract_x
 _atom_site_fract_y
 _atom_site_fract_z
 _atom_site_occupancy
  Ho  Ho0  1  0.989344  0.746305  0.750000  1
  Ho  Ho1  1  0.998764  0.245768  0.250000  1
  Ho  Ho2  1  0.752995  0.754232  0.250000  1
  Ho  Ho3  1  0.764425  0.000000  0.750000  1
  Ho  Ho4  1  0.243040  0.253695  0.750000  1
  Ho  Ho5  1  0.242504  0.000000  0.250000  1
  Sc  Sc6  1  0.331343  0.657474  0.496754  1
  Sc  Sc7  1  0.673871  0.342526  0.003246  1
  Sc  Sc8  1  0.673871  0.342526  0.496754  1
  Sc  Sc9  1  0.331343  0.657474  0.003246  1
  Si  Si10  1  0.397597  0.396604  0.250000  1
  Si  Si11  1  0.000992  0.603396  0.250000  1
  Si  Si12  1  0.998099  0.397957  0.750000  1
  Si  Si13  1  0.600142  0.602043  0.750000  1
  Si  Si14  1  0.601633  0.000000  0.250000  1
  Sn  Sn15  1  0.400035  0.000000  0.750000  1
