# generated using pymatgen
data_CsGePIrRh
_symmetry_space_group_name_H-M   'P 1'
_cell_length_a   8.05688493
_cell_length_b   8.05688565
_cell_length_c   8.05688511
_cell_angle_alpha   151.02272533
_cell_angle_beta   150.97289897
_cell_angle_gamma   41.47868365
_symmetry_Int_Tables_number   1
_chemical_formula_structural   CsGePIrRh
_chemical_formula_sum   'Cs1 Ge1 P1 Ir1 Rh1'
_cell_volume   122.66752702
_cell_formula_units_Z   1
loop_
 _symmetry_equiv_pos_site_id
 _symmetry_equiv_pos_as_xyz
  1  'x, y, z'
loop_
 _atom_site_type_symbol
 _atom_site_label
 _atom_site_symmetry_multiplicity
 _atom_site_fract_x
 _atom_site_fract_y
 _atom_site_fract_z
 _atom_site_occupancy
  Cs  Cs0  1  0.006889  0.006889  0.000000  1
  Ge  Ge1  1  0.340648  0.340648  0.000000  1
  P  P2  1  0.666185  0.666185  0.000000  1
  Ir  Ir3  1  0.743140  0.243140  0.500000  1
  Rh  Rh4  1  0.243139  0.743139  0.500000  1
