# generated using pymatgen
data_Ho2Ga2NiIr
_symmetry_space_group_name_H-M   'P 1'
_cell_length_a   4.31625000
_cell_length_b   6.80411100
_cell_length_c   7.54197300
_cell_angle_alpha   90.00000000
_cell_angle_beta   90.00000000
_cell_angle_gamma   90.00000000
_symmetry_Int_Tables_number   1
_chemical_formula_structural   Ho2Ga2NiIr
_chemical_formula_sum   'Ho4 Ga4 Ni2 Ir2'
_cell_volume   221.49450409
_cell_formula_units_Z   2
loop_
 _symmetry_equiv_pos_site_id
 _symmetry_equiv_pos_as_xyz
  1  'x, y, z'
loop_
 _atom_site_type_symbol
 _atom_site_label
 _atom_site_symmetry_multiplicity
 _atom_site_fract_x
 _atom_site_fract_y
 _atom_site_fract_z
 _atom_site_occupancy
  Ho  Ho0  1  0.250000  0.520853  0.691493  1
  Ho  Ho1  1  0.250000  0.020853  0.808507  1
  Ho  Ho2  1  0.750000  0.984357  0.193768  1
  Ho  Ho3  1  0.750000  0.484357  0.306232  1
  Ga  Ga4  1  0.750000  0.333758  0.916347  1
  Ga  Ga5  1  0.250000  0.170283  0.434330  1
  Ga  Ga6  1  0.750000  0.833758  0.583653  1
  Ga  Ga7  1  0.250000  0.670283  0.065670  1
  Ni  Ni8  1  0.750000  0.714820  0.898165  1
  Ni  Ni9  1  0.750000  0.214820  0.601835  1
  Ir  Ir10  1  0.250000  0.275928  0.101857  1
  Ir  Ir11  1  0.250000  0.775928  0.398143  1
