# generated using pymatgen
data_CaSe23
_symmetry_space_group_name_H-M   'P 1'
_cell_length_a   5.65670465
_cell_length_b   10.23373815
_cell_length_c   16.63650816
_cell_angle_alpha   95.07158778
_cell_angle_beta   79.47072854
_cell_angle_gamma   86.83067906
_symmetry_Int_Tables_number   1
_chemical_formula_structural   CaSe23
_chemical_formula_sum   'Ca1 Se23'
_cell_volume   940.63828696
_cell_formula_units_Z   1
loop_
 _symmetry_equiv_pos_site_id
 _symmetry_equiv_pos_as_xyz
  1  'x, y, z'
loop_
 _atom_site_type_symbol
 _atom_site_label
 _atom_site_symmetry_multiplicity
 _atom_site_fract_x
 _atom_site_fract_y
 _atom_site_fract_z
 _atom_site_occupancy
  Ca  Ca0  1  0.615281  0.323426  0.383641  1
  Se  Se1  1  0.436510  0.824418  0.394436  1
  Se  Se2  1  0.021654  0.318838  0.147703  1
  Se  Se3  1  0.901810  0.206877  0.492285  1
  Se  Se4  1  0.249194  0.791317  0.528875  1
  Se  Se5  1  0.205267  0.234285  0.013122  1
  Se  Se6  1  0.779163  0.728540  0.014881  1
  Se  Se7  1  0.124578  0.377653  0.370426  1
  Se  Se8  1  0.634531  0.616906  0.335111  1
  Se  Se9  1  0.772987  0.154811  0.206199  1
  Se  Se10  1  0.235428  0.865895  0.133998  1
  Se  Se11  1  0.754769  0.605067  0.602534  1
  Se  Se12  1  0.265275  0.372248  0.604514  1
  Se  Se13  1  0.239183  0.857165  0.852041  1
  Se  Se14  1  0.755791  0.134813  0.881224  1
  Se  Se15  1  0.016219  0.679458  0.112541  1
  Se  Se16  1  0.540115  0.813576  0.613834  1
  Se  Se17  1  0.492375  0.168130  0.529579  1
  Se  Se18  1  0.023713  0.671699  0.883401  1
  Se  Se19  1  0.984505  0.309857  0.916146  1
  Se  Se20  1  0.384050  0.487719  0.264432  1
  Se  Se21  1  0.036523  0.000011  0.252402  1
  Se  Se22  1  0.515123  0.466723  0.687110  1
  Se  Se23  1  0.015954  0.990568  0.779567  1
