# generated using pymatgen
data_ThMo3P4Rh3
_symmetry_space_group_name_H-M   'P 1'
_cell_length_a   7.11914200
_cell_length_b   7.11914302
_cell_length_c   3.82565100
_cell_angle_alpha   90.00000000
_cell_angle_beta   90.00000000
_cell_angle_gamma   119.99999527
_symmetry_Int_Tables_number   1
_chemical_formula_structural   ThMo3P4Rh3
_chemical_formula_sum   'Th1 Mo3 P4 Rh3'
_cell_volume   167.91572696
_cell_formula_units_Z   1
loop_
 _symmetry_equiv_pos_site_id
 _symmetry_equiv_pos_as_xyz
  1  'x, y, z'
loop_
 _atom_site_type_symbol
 _atom_site_label
 _atom_site_symmetry_multiplicity
 _atom_site_fract_x
 _atom_site_fract_y
 _atom_site_fract_z
 _atom_site_occupancy
  Th  Th0  1  0.333333  0.666667  0.000000  1
  Mo  Mo1  1  0.264096  0.132048  0.000000  1
  Mo  Mo2  1  0.867952  0.735904  0.000000  1
  Mo  Mo3  1  0.867952  0.132048  0.000000  1
  P  P4  1  0.666667  0.333333  0.000000  1
  P  P5  1  0.721606  0.860804  0.500000  1
  P  P6  1  0.139196  0.278394  0.500000  1
  P  P7  1  0.139196  0.860804  0.500000  1
  Rh  Rh8  1  0.945970  0.472986  0.500000  1
  Rh  Rh9  1  0.527014  0.054030  0.500000  1
  Rh  Rh10  1  0.527014  0.472986  0.500000  1
