# generated using pymatgen
data_Ca3TbYb2(Si3Ru)8
_symmetry_space_group_name_H-M   'P 1'
_cell_length_a   10.16317656
_cell_length_b   10.16356622
_cell_length_c   8.14793311
_cell_angle_alpha   89.93627701
_cell_angle_beta   90.04626037
_cell_angle_gamma   132.72646460
_symmetry_Int_Tables_number   1
_chemical_formula_structural   Ca3TbYb2(Si3Ru)8
_chemical_formula_sum   'Ca3 Tb1 Yb2 Si24 Ru8'
_cell_volume   618.26470859
_cell_formula_units_Z   1
loop_
 _symmetry_equiv_pos_site_id
 _symmetry_equiv_pos_as_xyz
  1  'x, y, z'
loop_
 _atom_site_type_symbol
 _atom_site_label
 _atom_site_symmetry_multiplicity
 _atom_site_fract_x
 _atom_site_fract_y
 _atom_site_fract_z
 _atom_site_occupancy
  Ca  Ca0  1  0.499756  0.499617  0.499730  1
  Ca  Ca1  1  0.501167  0.001039  0.750025  1
  Ca  Ca2  1  0.999197  0.499068  0.249957  1
  Tb  Tb3  1  0.000585  0.500655  0.750033  1
  Yb  Yb4  1  0.999657  0.999701  0.000288  1
  Yb  Yb5  1  0.498084  0.998185  0.249987  1
  Si  Si6  1  0.794107  0.203878  0.498216  1
  Si  Si7  1  0.295605  0.706909  0.000763  1
  Si  Si8  1  0.206732  0.795775  0.499230  1
  Si  Si9  1  0.704041  0.293864  0.001772  1
  Si  Si10  1  0.331885  0.334079  0.832426  1
  Si  Si11  1  0.664102  0.668134  0.167689  1
  Si  Si12  1  0.167759  0.163769  0.332012  1
  Si  Si13  1  0.834319  0.832375  0.667898  1
  Si  Si14  1  0.124537  0.892004  0.730528  1
  Si  Si15  1  0.109016  0.876281  0.269340  1
  Si  Si16  1  0.607629  0.374652  0.230549  1
  Si  Si17  1  0.625047  0.392757  0.770309  1
  Si  Si18  1  0.874260  0.106717  0.268876  1
  Si  Si19  1  0.893511  0.125350  0.730235  1
  Si  Si20  1  0.391197  0.624148  0.769948  1
  Si  Si21  1  0.376526  0.609732  0.230181  1
  Si  Si22  1  0.347614  0.113347  0.506615  1
  Si  Si23  1  0.887214  0.653910  0.493099  1
  Si  Si24  1  0.386106  0.153283  0.007921  1
  Si  Si25  1  0.845899  0.613740  0.990868  1
  Si  Si26  1  0.653000  0.886366  0.491353  1
  Si  Si27  1  0.113433  0.346069  0.509871  1
  Si  Si28  1  0.613705  0.847477  0.994158  1
  Si  Si29  1  0.154057  0.386834  0.006018  1
  Ru  Ru30  1  0.671760  0.331122  0.500974  1
  Ru  Ru31  1  0.168721  0.830049  0.999398  1
  Ru  Ru32  1  0.329592  0.669016  0.500631  1
  Ru  Ru33  1  0.831415  0.171328  0.999069  1
  Ru  Ru34  1  0.126467  0.125600  0.625075  1
  Ru  Ru35  1  0.873252  0.873442  0.374983  1
  Ru  Ru36  1  0.373008  0.372798  0.124668  1
  Ru  Ru37  1  0.626041  0.626925  0.875309  1
