# generated using pymatgen
data_LaYbAl16Pt9
_symmetry_space_group_name_H-M   'P 1'
_cell_length_a   11.19021165
_cell_length_b   11.19021240
_cell_length_c   11.19021232
_cell_angle_alpha   158.46608992
_cell_angle_beta   115.50168924
_cell_angle_gamma   68.85446124
_symmetry_Int_Tables_number   1
_chemical_formula_structural   LaYbAl16Pt9
_chemical_formula_sum   'La1 Yb1 Al16 Pt9'
_cell_volume   460.86731154
_cell_formula_units_Z   1
loop_
 _symmetry_equiv_pos_site_id
 _symmetry_equiv_pos_as_xyz
  1  'x, y, z'
loop_
 _atom_site_type_symbol
 _atom_site_label
 _atom_site_symmetry_multiplicity
 _atom_site_fract_x
 _atom_site_fract_y
 _atom_site_fract_z
 _atom_site_occupancy
  La  La0  1  0.227884  0.227884  0.000000  1
  Yb  Yb1  1  0.771809  0.771809  0.000000  1
  Al  Al2  1  0.273697  0.392597  0.881101  1
  Al  Al3  1  0.090171  0.919717  0.170453  1
  Al  Al4  1  0.512452  0.204268  0.308185  1
  Al  Al5  1  0.252481  0.079886  0.172595  1
  Al  Al6  1  0.913220  0.413220  0.500000  1
  Al  Al7  1  0.727209  0.608654  0.118554  1
  Al  Al8  1  0.896083  0.204268  0.691815  1
  Al  Al9  1  0.490543  0.795783  0.694759  1
  Al  Al10  1  0.384000  0.999715  0.384286  1
  Al  Al11  1  0.615429  0.999715  0.615714  1
  Al  Al12  1  0.490099  0.608654  0.881446  1
  Al  Al13  1  0.101024  0.795783  0.305241  1
  Al  Al14  1  0.907289  0.079886  0.827405  1
  Al  Al15  1  0.749264  0.919717  0.829547  1
  Al  Al16  1  0.511496  0.392597  0.118899  1
  Al  Al17  1  0.085176  0.585176  0.500000  1
  Pt  Pt18  1  0.749867  0.500282  0.249585  1
  Pt  Pt19  1  0.025895  0.339807  0.686088  1
  Pt  Pt20  1  0.624082  0.124082  0.500000  1
  Pt  Pt21  1  0.250697  0.500282  0.750415  1
  Pt  Pt22  1  0.376275  0.876275  0.500000  1
  Pt  Pt23  1  0.000426  0.000426  0.000000  1
  Pt  Pt24  1  0.653719  0.339807  0.313912  1
  Pt  Pt25  1  0.346570  0.659857  0.686713  1
  Pt  Pt26  1  0.973144  0.659857  0.313287  1
