# generated using pymatgen
data_KAlCuAu3
_symmetry_space_group_name_H-M   'P 1'
_cell_length_a   5.54035400
_cell_length_b   6.94821300
_cell_length_c   13.53597000
_cell_angle_alpha   90.00000000
_cell_angle_beta   90.00000000
_cell_angle_gamma   90.00000000
_symmetry_Int_Tables_number   1
_chemical_formula_structural   KAlCuAu3
_chemical_formula_sum   'K4 Al4 Cu4 Au12'
_cell_volume   521.07474106
_cell_formula_units_Z   4
loop_
 _symmetry_equiv_pos_site_id
 _symmetry_equiv_pos_as_xyz
  1  'x, y, z'
loop_
 _atom_site_type_symbol
 _atom_site_label
 _atom_site_symmetry_multiplicity
 _atom_site_fract_x
 _atom_site_fract_y
 _atom_site_fract_z
 _atom_site_occupancy
  K  K0  1  0.252703  0.106997  0.078416  1
  K  K1  1  0.247297  0.393003  0.578416  1
  K  K2  1  0.752703  0.893003  0.921584  1
  K  K3  1  0.747297  0.606997  0.421584  1
  Al  Al4  1  0.000466  0.100827  0.347106  1
  Al  Al5  1  0.499534  0.399173  0.847106  1
  Al  Al6  1  0.500466  0.899173  0.652894  1
  Al  Al7  1  0.999534  0.600827  0.152894  1
  Cu  Cu8  1  0.006161  0.897853  0.651836  1
  Cu  Cu9  1  0.493839  0.602147  0.151836  1
  Cu  Cu10  1  0.506161  0.102147  0.348164  1
  Cu  Cu11  1  0.993839  0.397853  0.848164  1
  Au  Au12  1  0.253078  0.108623  0.786708  1
  Au  Au13  1  0.246922  0.391377  0.286708  1
  Au  Au14  1  0.753078  0.891377  0.213292  1
  Au  Au15  1  0.746922  0.608623  0.713292  1
  Au  Au16  1  0.248949  0.697558  0.785152  1
  Au  Au17  1  0.251051  0.802442  0.285152  1
  Au  Au18  1  0.748949  0.302442  0.214848  1
  Au  Au19  1  0.751051  0.197558  0.714848  1
  Au  Au20  1  0.237082  0.573960  0.990632  1
  Au  Au21  1  0.262918  0.926040  0.490632  1
  Au  Au22  1  0.737082  0.426040  0.009368  1
  Au  Au23  1  0.762918  0.073960  0.509368  1
