# generated using pymatgen
data_YbHoZn(Co2B)3
_symmetry_space_group_name_H-M   'P 1'
_cell_length_a   5.10835604
_cell_length_b   5.10887718
_cell_length_c   12.52749700
_cell_angle_alpha   90.00000000
_cell_angle_beta   89.99997757
_cell_angle_gamma   119.97807220
_symmetry_Int_Tables_number   1
_chemical_formula_structural   YbHoZn(Co2B)3
_chemical_formula_sum   'Yb2 Ho2 Zn2 Co12 B6'
_cell_volume   283.20275828
_cell_formula_units_Z   2
loop_
 _symmetry_equiv_pos_site_id
 _symmetry_equiv_pos_as_xyz
  1  'x, y, z'
loop_
 _atom_site_type_symbol
 _atom_site_label
 _atom_site_symmetry_multiplicity
 _atom_site_fract_x
 _atom_site_fract_y
 _atom_site_fract_z
 _atom_site_occupancy
  Yb  Yb0  1  0.000000  0.000000  0.997003  1
  Yb  Yb1  1  0.000000  0.000000  0.742435  1
  Ho  Ho2  1  0.000000  0.000000  0.259595  1
  Ho  Ho3  1  0.000000  0.000000  0.503855  1
  Zn  Zn4  1  0.333342  0.666633  0.999471  1
  Zn  Zn5  1  0.666658  0.333367  0.999471  1
  Co  Co6  1  0.500000  0.000001  0.613289  1
  Co  Co7  1  0.500000  0.000000  0.835015  1
  Co  Co8  1  0.500000  0.500000  0.835050  1
  Co  Co9  1  0.500000  0.500000  0.387740  1
  Co  Co10  1  0.000000  0.500000  0.613283  1
  Co  Co11  1  0.000000  0.500000  0.163614  1
  Co  Co12  1  0.000000  0.500000  0.835006  1
  Co  Co13  1  0.500000  0.500000  0.163599  1
  Co  Co14  1  0.500000  0.000000  0.387730  1
  Co  Co15  1  0.500000  0.000000  0.163600  1
  Co  Co16  1  0.500000  0.500000  0.613290  1
  Co  Co17  1  0.000000  0.500000  0.387741  1
  B  B18  1  0.666570  0.333328  0.728752  1
  B  B19  1  0.333430  0.666672  0.728752  1
  B  B20  1  0.333274  0.666580  0.270877  1
  B  B21  1  0.666697  0.333341  0.499977  1
  B  B22  1  0.666725  0.333420  0.270877  1
  B  B23  1  0.333303  0.666658  0.499977  1
