# generated using pymatgen
data_Tb15Sm(C2Cl3)4
_symmetry_space_group_name_H-M   'P 1'
_cell_length_a   3.67226600
_cell_length_b   10.54197063
_cell_length_c   19.83053700
_cell_angle_alpha   90.13352760
_cell_angle_beta   90.00000000
_cell_angle_gamma   90.00000000
_symmetry_Int_Tables_number   1
_chemical_formula_structural   Tb15Sm(C2Cl3)4
_chemical_formula_sum   'Tb15 Sm1 C8 Cl12'
_cell_volume   767.69591381
_cell_formula_units_Z   1
loop_
 _symmetry_equiv_pos_site_id
 _symmetry_equiv_pos_as_xyz
  1  'x, y, z'
loop_
 _atom_site_type_symbol
 _atom_site_label
 _atom_site_symmetry_multiplicity
 _atom_site_fract_x
 _atom_site_fract_y
 _atom_site_fract_z
 _atom_site_occupancy
  Tb  Tb0  1  0.750000  0.137791  0.426012  1
  Tb  Tb1  1  0.750000  0.636582  0.073698  1
  Tb  Tb2  1  0.250000  0.363261  0.926719  1
  Tb  Tb3  1  0.250000  0.865337  0.744926  1
  Tb  Tb4  1  0.750000  0.134534  0.255136  1
  Tb  Tb5  1  0.750000  0.634868  0.244263  1
  Tb  Tb6  1  0.250000  0.365515  0.756041  1
  Tb  Tb7  1  0.250000  0.873374  0.164712  1
  Tb  Tb8  1  0.750000  0.126735  0.835127  1
  Tb  Tb9  1  0.750000  0.626108  0.665843  1
  Tb  Tb10  1  0.250000  0.373707  0.334569  1
  Tb  Tb11  1  0.250000  0.896998  0.332373  1
  Tb  Tb12  1  0.750000  0.103219  0.667571  1
  Tb  Tb13  1  0.750000  0.603901  0.833313  1
  Tb  Tb14  1  0.250000  0.396504  0.166813  1
  Sm  Sm15  1  0.250000  0.862323  0.572156  1
  C  C16  1  0.250000  0.613639  0.751601  1
  C  C17  1  0.750000  0.385117  0.248932  1
  C  C18  1  0.750000  0.885653  0.250164  1
  C  C19  1  0.250000  0.115500  0.749742  1
  C  C20  1  0.250000  0.633550  0.152328  1
  C  C21  1  0.750000  0.366265  0.848011  1
  C  C22  1  0.750000  0.865549  0.654331  1
  C  C23  1  0.250000  0.134533  0.347198  1
  Cl  Cl24  1  0.250000  0.607818  0.557512  1
  Cl  Cl25  1  0.750000  0.387346  0.443194  1
  Cl  Cl26  1  0.750000  0.885837  0.056029  1
  Cl  Cl27  1  0.250000  0.114249  0.944136  1
  Cl  Cl28  1  0.250000  0.623385  0.953458  1
  Cl  Cl29  1  0.750000  0.376369  0.047037  1
  Cl  Cl30  1  0.750000  0.877005  0.449667  1
  Cl  Cl31  1  0.250000  0.127553  0.546585  1
  Cl  Cl32  1  0.250000  0.636649  0.353917  1
  Cl  Cl33  1  0.750000  0.363007  0.646518  1
  Cl  Cl34  1  0.750000  0.863987  0.854997  1
  Cl  Cl35  1  0.250000  0.136232  0.145368  1
