# generated using pymatgen
data_Tb5Lu5(InSb)3
_symmetry_space_group_name_H-M   'P 1'
_cell_length_a   8.91840192
_cell_length_b   8.91315115
_cell_length_c   6.43954400
_cell_angle_alpha   90.00000000
_cell_angle_beta   90.00000000
_cell_angle_gamma   120.16207344
_symmetry_Int_Tables_number   1
_chemical_formula_structural   Tb5Lu5(InSb)3
_chemical_formula_sum   'Tb5 Lu5 In3 Sb3'
_cell_volume   442.58069560
_cell_formula_units_Z   1
loop_
 _symmetry_equiv_pos_site_id
 _symmetry_equiv_pos_as_xyz
  1  'x, y, z'
loop_
 _atom_site_type_symbol
 _atom_site_label
 _atom_site_symmetry_multiplicity
 _atom_site_fract_x
 _atom_site_fract_y
 _atom_site_fract_z
 _atom_site_occupancy
  Tb  Tb0  1  0.003740  0.241960  0.250000  1
  Tb  Tb1  1  0.763429  0.759254  0.250000  1
  Tb  Tb2  1  0.760369  0.000003  0.750000  1
  Tb  Tb3  1  0.239530  0.236613  0.750000  1
  Tb  Tb4  1  0.237493  0.999424  0.250000  1
  Lu  Lu5  1  0.003040  0.762604  0.750000  1
  Lu  Lu6  1  0.330669  0.665913  0.499291  1
  Lu  Lu7  1  0.664895  0.334414  0.000663  1
  Lu  Lu8  1  0.664895  0.334414  0.499337  1
  Lu  Lu9  1  0.330669  0.665913  0.000709  1
  In  In10  1  0.396294  0.997856  0.750000  1
  In  In11  1  0.398121  0.399335  0.250000  1
  In  In12  1  0.998558  0.600357  0.250000  1
  Sb  Sb13  1  0.997857  0.395722  0.750000  1
  Sb  Sb14  1  0.605093  0.606044  0.750000  1
  Sb  Sb15  1  0.605351  0.000174  0.250000  1
