# generated using pymatgen
data_LaGa5Cu6
_symmetry_space_group_name_H-M   'P 1'
_cell_length_a   10.46746825
_cell_length_b   8.27981749
_cell_length_c   7.98535116
_cell_angle_alpha   80.15193937
_cell_angle_beta   51.15877285
_cell_angle_gamma   48.60346950
_symmetry_Int_Tables_number   1
_chemical_formula_structural   LaGa5Cu6
_chemical_formula_sum   'La2 Ga10 Cu12'
_cell_volume   367.52211330
_cell_formula_units_Z   2
loop_
 _symmetry_equiv_pos_site_id
 _symmetry_equiv_pos_as_xyz
  1  'x, y, z'
loop_
 _atom_site_type_symbol
 _atom_site_label
 _atom_site_symmetry_multiplicity
 _atom_site_fract_x
 _atom_site_fract_y
 _atom_site_fract_z
 _atom_site_occupancy
  La  La0  1  0.999978  0.000003  0.999979  1
  La  La1  1  0.250022  0.249997  0.250021  1
  Ga  Ga2  1  0.500015  0.499990  0.500006  1
  Ga  Ga3  1  0.749985  0.750010  0.749994  1
  Ga  Ga4  1  0.757601  0.070612  0.831847  1
  Ga  Ga5  1  0.831895  0.339906  0.757528  1
  Ga  Ga6  1  0.070566  0.757592  0.339980  1
  Ga  Ga7  1  0.339973  0.831869  0.070559  1
  Ga  Ga8  1  0.492399  0.179388  0.418153  1
  Ga  Ga9  1  0.418105  0.910094  0.492472  1
  Ga  Ga10  1  0.179434  0.492408  0.910020  1
  Ga  Ga11  1  0.910027  0.418131  0.179441  1
  Cu  Cu12  1  0.625000  0.125000  0.625000  1
  Cu  Cu13  1  0.625000  0.625000  0.625000  1
  Cu  Cu14  1  0.125000  0.625000  0.625000  1
  Cu  Cu15  1  0.625000  0.625000  0.125000  1
  Cu  Cu16  1  0.485402  0.438535  0.187398  1
  Cu  Cu17  1  0.187471  0.888658  0.485348  1
  Cu  Cu18  1  0.438383  0.485501  0.888776  1
  Cu  Cu19  1  0.888700  0.187349  0.438296  1
  Cu  Cu20  1  0.764598  0.811465  0.062602  1
  Cu  Cu21  1  0.062529  0.361342  0.764652  1
  Cu  Cu22  1  0.811617  0.764499  0.361224  1
  Cu  Cu23  1  0.361300  0.062651  0.811704  1
