# generated using pymatgen
data_Er10In3Os
_symmetry_space_group_name_H-M   'P 1'
_cell_length_a   9.61862400
_cell_length_b   9.61862423
_cell_length_c   9.72283300
_cell_angle_alpha   90.00000000
_cell_angle_beta   90.00000000
_cell_angle_gamma   119.99999921
_symmetry_Int_Tables_number   1
_chemical_formula_structural   Er10In3Os
_chemical_formula_sum   'Er20 In6 Os2'
_cell_volume   779.02136438
_cell_formula_units_Z   2
loop_
 _symmetry_equiv_pos_site_id
 _symmetry_equiv_pos_as_xyz
  1  'x, y, z'
loop_
 _atom_site_type_symbol
 _atom_site_label
 _atom_site_symmetry_multiplicity
 _atom_site_fract_x
 _atom_site_fract_y
 _atom_site_fract_z
 _atom_site_occupancy
  Er  Er0  1  0.000000  0.000000  0.500000  1
  Er  Er1  1  0.000000  0.000000  0.000000  1
  Er  Er2  1  0.537969  0.462031  0.250000  1
  Er  Er3  1  0.537969  0.075938  0.250000  1
  Er  Er4  1  0.924062  0.462031  0.250000  1
  Er  Er5  1  0.462031  0.537969  0.750000  1
  Er  Er6  1  0.462031  0.924062  0.750000  1
  Er  Er7  1  0.075938  0.537969  0.750000  1
  Er  Er8  1  0.209624  0.790376  0.439359  1
  Er  Er9  1  0.209624  0.419247  0.439359  1
  Er  Er10  1  0.580753  0.790376  0.439359  1
  Er  Er11  1  0.790376  0.209624  0.560641  1
  Er  Er12  1  0.790376  0.580753  0.560641  1
  Er  Er13  1  0.419247  0.209624  0.560641  1
  Er  Er14  1  0.790376  0.209624  0.939359  1
  Er  Er15  1  0.790376  0.580753  0.939359  1
  Er  Er16  1  0.419247  0.209624  0.939359  1
  Er  Er17  1  0.209624  0.790376  0.060641  1
  Er  Er18  1  0.209624  0.419247  0.060641  1
  Er  Er19  1  0.580753  0.790376  0.060641  1
  In  In20  1  0.884732  0.115268  0.250000  1
  In  In21  1  0.884732  0.769466  0.250000  1
  In  In22  1  0.230534  0.115268  0.250000  1
  In  In23  1  0.115268  0.884732  0.750000  1
  In  In24  1  0.115268  0.230534  0.750000  1
  In  In25  1  0.769466  0.884732  0.750000  1
  Os  Os26  1  0.333333  0.666667  0.250000  1
  Os  Os27  1  0.666667  0.333333  0.750000  1
