# generated using pymatgen
data_Nd2Ga3SiRh4
_symmetry_space_group_name_H-M   'P 1'
_cell_length_a   4.26910500
_cell_length_b   4.26910500
_cell_length_c   10.12596900
_cell_angle_alpha   90.00000000
_cell_angle_beta   90.00000000
_cell_angle_gamma   90.00000000
_symmetry_Int_Tables_number   1
_chemical_formula_structural   Nd2Ga3SiRh4
_chemical_formula_sum   'Nd2 Ga3 Si1 Rh4'
_cell_volume   184.54839247
_cell_formula_units_Z   1
loop_
 _symmetry_equiv_pos_site_id
 _symmetry_equiv_pos_as_xyz
  1  'x, y, z'
loop_
 _atom_site_type_symbol
 _atom_site_label
 _atom_site_symmetry_multiplicity
 _atom_site_fract_x
 _atom_site_fract_y
 _atom_site_fract_z
 _atom_site_occupancy
  Nd  Nd0  1  0.000000  0.500000  0.244717  1
  Nd  Nd1  1  0.500000  0.000000  0.754677  1
  Ga  Ga2  1  0.000000  0.000000  0.496549  1
  Ga  Ga3  1  0.500000  0.500000  0.496549  1
  Ga  Ga4  1  0.000000  0.500000  0.876356  1
  Si  Si5  1  0.500000  0.000000  0.121810  1
  Rh  Rh6  1  0.000000  0.000000  0.010343  1
  Rh  Rh7  1  0.500000  0.500000  0.010343  1
  Rh  Rh8  1  0.000000  0.500000  0.629713  1
  Rh  Rh9  1  0.500000  0.000000  0.358940  1
