# generated using pymatgen
data_Sb(O2F7)2
_symmetry_space_group_name_H-M   'P 1'
_cell_length_a   12.86824900
_cell_length_b   6.60002828
_cell_length_c   8.78283500
_cell_angle_alpha   68.81382092
_cell_angle_beta   90.00000000
_cell_angle_gamma   90.00000000
_symmetry_Int_Tables_number   1
_chemical_formula_structural   Sb(O2F7)2
_chemical_formula_sum   'Sb2 O8 F28'
_cell_volume   695.51638702
_cell_formula_units_Z   2
loop_
 _symmetry_equiv_pos_site_id
 _symmetry_equiv_pos_as_xyz
  1  'x, y, z'
loop_
 _atom_site_type_symbol
 _atom_site_label
 _atom_site_symmetry_multiplicity
 _atom_site_fract_x
 _atom_site_fract_y
 _atom_site_fract_z
 _atom_site_occupancy
  Sb  Sb0  1  0.500000  0.500000  0.500000  1
  Sb  Sb1  1  0.000000  0.500000  0.000000  1
  O  O2  1  0.367560  0.764802  0.907824  1
  O  O3  1  0.632440  0.235198  0.092176  1
  O  O4  1  0.867560  0.235198  0.592176  1
  O  O5  1  0.132440  0.764802  0.407824  1
  O  O6  1  0.735757  0.745536  0.873508  1
  O  O7  1  0.264243  0.254464  0.126492  1
  O  O8  1  0.235757  0.254464  0.626492  1
  O  O9  1  0.764243  0.745536  0.373508  1
  F  F10  1  0.437746  0.861356  0.779352  1
  F  F11  1  0.562254  0.138644  0.220648  1
  F  F12  1  0.937746  0.138644  0.720648  1
  F  F13  1  0.062254  0.861356  0.279352  1
  F  F14  1  0.434955  0.768993  0.483511  1
  F  F15  1  0.565045  0.231007  0.516489  1
  F  F16  1  0.934955  0.231007  0.016489  1
  F  F17  1  0.065045  0.768993  0.983511  1
  F  F18  1  0.431335  0.355826  0.706133  1
  F  F19  1  0.568665  0.644174  0.293867  1
  F  F20  1  0.931335  0.644174  0.793867  1
  F  F21  1  0.068665  0.355826  0.206133  1
  F  F22  1  0.091872  0.807547  0.542895  1
  F  F23  1  0.908128  0.192453  0.457105  1
  F  F24  1  0.591872  0.192453  0.957105  1
  F  F25  1  0.408128  0.807547  0.042895  1
  F  F26  1  0.337398  0.298772  0.998440  1
  F  F27  1  0.662602  0.701228  0.001560  1
  F  F28  1  0.837398  0.701228  0.501560  1
  F  F29  1  0.162602  0.298772  0.498440  1
  F  F30  1  0.116358  0.436390  0.886889  1
  F  F31  1  0.883642  0.563610  0.113111  1
  F  F32  1  0.616358  0.563610  0.613111  1
  F  F33  1  0.383642  0.436390  0.386889  1
  F  F34  1  0.190082  0.088364  0.759959  1
  F  F35  1  0.809918  0.911636  0.240041  1
  F  F36  1  0.690082  0.911636  0.740041  1
  F  F37  1  0.309918  0.088364  0.259959  1
