# generated using pymatgen
data_Ho16Sc4Si15Ni
_symmetry_space_group_name_H-M   'P 1'
_cell_length_a   7.26510762
_cell_length_b   7.58132796
_cell_length_c   14.39609500
_cell_angle_alpha   89.77295741
_cell_angle_beta   89.75279901
_cell_angle_gamma   90.18615749
_symmetry_Int_Tables_number   1
_chemical_formula_structural   Ho16Sc4Si15Ni
_chemical_formula_sum   'Ho16 Sc4 Si15 Ni1'
_cell_volume   792.90703594
_cell_formula_units_Z   1
loop_
 _symmetry_equiv_pos_site_id
 _symmetry_equiv_pos_as_xyz
  1  'x, y, z'
loop_
 _atom_site_type_symbol
 _atom_site_label
 _atom_site_symmetry_multiplicity
 _atom_site_fract_x
 _atom_site_fract_y
 _atom_site_fract_z
 _atom_site_occupancy
  Ho  Ho0  1  0.974592  0.815542  0.098248  1
  Ho  Ho1  1  0.475833  0.684637  0.401712  1
  Ho  Ho2  1  0.532192  0.322936  0.901211  1
  Ho  Ho3  1  0.025448  0.181617  0.598124  1
  Ho  Ho4  1  0.024314  0.186197  0.901972  1
  Ho  Ho5  1  0.525946  0.314739  0.598599  1
  Ho  Ho6  1  0.473033  0.685437  0.101207  1
  Ho  Ho7  1  0.973170  0.818826  0.401023  1
  Ho  Ho8  1  0.686773  0.805351  0.881198  1
  Ho  Ho9  1  0.180054  0.677527  0.624391  1
  Ho  Ho10  1  0.814712  0.340185  0.118708  1
  Ho  Ho11  1  0.315778  0.176466  0.374138  1
  Ho  Ho12  1  0.319434  0.179821  0.124379  1
  Ho  Ho13  1  0.817833  0.324306  0.374308  1
  Ho  Ho14  1  0.175228  0.668745  0.876912  1
  Ho  Ho15  1  0.681875  0.821581  0.625014  1
  Sc  Sc16  1  0.648958  0.993167  0.248558  1
  Sc  Sc17  1  0.148870  0.513444  0.249133  1
  Sc  Sc18  1  0.848294  0.482452  0.754020  1
  Sc  Sc19  1  0.352338  0.009051  0.752884  1
  Si  Si20  1  0.770826  0.639654  0.251660  1
  Si  Si21  1  0.270015  0.867158  0.250558  1
  Si  Si22  1  0.728952  0.126941  0.750427  1
  Si  Si23  1  0.229929  0.363370  0.747366  1
  Si  Si24  1  0.011409  0.102341  0.247257  1
  Si  Si25  1  0.514824  0.404232  0.251264  1
  Si  Si26  1  0.480239  0.597937  0.748228  1
  Si  Si27  1  0.985343  0.902610  0.749874  1
  Si  Si28  1  0.351014  0.971331  0.540338  1
  Si  Si29  1  0.649417  0.029995  0.041563  1
  Si  Si30  1  0.148290  0.471518  0.458727  1
  Si  Si31  1  0.149881  0.474877  0.042796  1
  Si  Si32  1  0.647443  0.030226  0.459121  1
  Si  Si33  1  0.353286  0.969280  0.959735  1
  Si  Si34  1  0.851149  0.528302  0.540413  1
  Ni  Ni35  1  0.863308  0.518203  0.954933  1
