# generated using pymatgen
data_Yb2Dy2MnFe3B16
_symmetry_space_group_name_H-M   'P 1'
_cell_length_a   3.36370300
_cell_length_b   5.91076078
_cell_length_c   11.42953324
_cell_angle_alpha   89.95623753
_cell_angle_beta   90.00000000
_cell_angle_gamma   90.00000000
_symmetry_Int_Tables_number   1
_chemical_formula_structural   Yb2Dy2MnFe3B16
_chemical_formula_sum   'Yb2 Dy2 Mn1 Fe3 B16'
_cell_volume   227.24241386
_cell_formula_units_Z   1
loop_
 _symmetry_equiv_pos_site_id
 _symmetry_equiv_pos_as_xyz
  1  'x, y, z'
loop_
 _atom_site_type_symbol
 _atom_site_label
 _atom_site_symmetry_multiplicity
 _atom_site_fract_x
 _atom_site_fract_y
 _atom_site_fract_z
 _atom_site_occupancy
  Yb  Yb0  1  0.000000  0.625871  0.849768  1
  Yb  Yb1  1  0.000000  0.374892  0.150433  1
  Dy  Dy2  1  0.000000  0.126739  0.650669  1
  Dy  Dy3  1  0.000000  0.873512  0.348792  1
  Mn  Mn4  1  0.000000  0.127870  0.916276  1
  Fe  Fe5  1  0.000000  0.872946  0.084310  1
  Fe  Fe6  1  0.000000  0.632494  0.586535  1
  Fe  Fe7  1  0.000000  0.367137  0.413115  1
  B  B8  1  0.500000  0.362851  0.968089  1
  B  B9  1  0.500000  0.638499  0.032570  1
  B  B10  1  0.500000  0.860050  0.531915  1
  B  B11  1  0.500000  0.139885  0.468052  1
  B  B12  1  0.500000  0.475664  0.690495  1
  B  B13  1  0.500000  0.524629  0.309501  1
  B  B14  1  0.500000  0.973855  0.809622  1
  B  B15  1  0.500000  0.024169  0.189758  1
  B  B16  1  0.500000  0.282788  0.816529  1
  B  B17  1  0.500000  0.719417  0.181925  1
  B  B18  1  0.500000  0.778976  0.683830  1
  B  B19  1  0.500000  0.220785  0.316035  1
  B  B20  1  0.500000  0.389487  0.546324  1
  B  B21  1  0.500000  0.610552  0.453658  1
  B  B22  1  0.500000  0.885135  0.954886  1
  B  B23  1  0.500000  0.111798  0.046913  1
