# generated using pymatgen
data_NaCa2Mn2V3O12
_symmetry_space_group_name_H-M   'P 1'
_cell_length_a   11.06451609
_cell_length_b   11.06451609
_cell_length_c   11.06451609
_cell_angle_alpha   109.69226289
_cell_angle_beta   109.69226289
_cell_angle_gamma   109.03003490
_symmetry_Int_Tables_number   1
_chemical_formula_structural   NaCa2Mn2V3O12
_chemical_formula_sum   'Na4 Ca8 Mn8 V12 O48'
_cell_volume   1042.69211267
_cell_formula_units_Z   4
loop_
 _symmetry_equiv_pos_site_id
 _symmetry_equiv_pos_as_xyz
  1  'x, y, z'
loop_
 _atom_site_type_symbol
 _atom_site_label
 _atom_site_symmetry_multiplicity
 _atom_site_fract_x
 _atom_site_fract_y
 _atom_site_fract_z
 _atom_site_occupancy
  Na  Na0  1  0.500000  0.000000  0.500000  1
  Na  Na1  1  0.000000  0.500000  0.500000  1
  Na  Na2  1  0.750000  0.750000  0.000000  1
  Na  Na3  1  0.250000  0.250000  0.000000  1
  Ca  Ca4  1  0.625000  0.254000  0.129000  1
  Ca  Ca5  1  0.246000  0.875000  0.871000  1
  Ca  Ca6  1  0.625000  0.754000  0.629000  1
  Ca  Ca7  1  0.004000  0.375000  0.129000  1
  Ca  Ca8  1  0.746000  0.875000  0.371000  1
  Ca  Ca9  1  0.125000  0.496000  0.871000  1
  Ca  Ca10  1  0.504000  0.375000  0.629000  1
  Ca  Ca11  1  0.125000  0.996000  0.371000  1
  Mn  Mn12  1  0.375000  0.125000  0.750000  1
  Mn  Mn13  1  0.375000  0.125000  0.250000  1
  Mn  Mn14  1  0.875000  0.625000  0.750000  1
  Mn  Mn15  1  0.375000  0.625000  0.750000  1
  Mn  Mn16  1  0.375000  0.625000  0.250000  1
  Mn  Mn17  1  0.875000  0.125000  0.250000  1
  Mn  Mn18  1  0.875000  0.125000  0.750000  1
  Mn  Mn19  1  0.875000  0.625000  0.250000  1
  V  V20  1  0.752587  0.375000  0.877587  1
  V  V21  1  0.125000  0.747413  0.122413  1
  V  V22  1  0.750000  0.250000  0.500000  1
  V  V23  1  0.250000  0.750000  0.500000  1
  V  V24  1  0.625000  0.002587  0.877587  1
  V  V25  1  0.497413  0.875000  0.122413  1
  V  V26  1  0.252587  0.375000  0.377587  1
  V  V27  1  0.125000  0.247413  0.622413  1
  V  V28  1  0.500000  0.500000  0.000000  1
  V  V29  1  0.000000  0.000000  0.000000  1
  V  V30  1  0.625000  0.502587  0.377587  1
  V  V31  1  0.997413  0.875000  0.622413  1
  O  O32  1  0.573424  0.223807  0.464496  1
  O  O33  1  0.766770  0.507645  0.340028  1
  O  O34  1  0.788475  0.414596  0.058779  1
  O  O35  1  0.573259  0.233230  0.740875  1
  O  O36  1  0.266770  0.926741  0.259125  1
  O  O37  1  0.276193  0.926576  0.535504  1
  O  O38  1  0.479697  0.038475  0.873880  1
  O  O39  1  0.667616  0.007645  0.740875  1
  O  O40  1  0.770303  0.144184  0.058779  1
  O  O41  1  0.776193  0.240689  0.349617  1
  O  O42  1  0.992355  0.733230  0.659972  1
  O  O43  1  0.164596  0.605816  0.126120  1
  O  O44  1  0.461525  0.020303  0.126120  1
  O  O45  1  0.073424  0.608928  0.349617  1
  O  O46  1  0.391072  0.740689  0.464496  1
  O  O47  1  0.894184  0.335404  0.873880  1
  O  O48  1  0.259311  0.723807  0.650383  1
  O  O49  1  0.085404  0.711525  0.941221  1
  O  O50  1  0.759311  0.108928  0.535504  1
  O  O51  1  0.582384  0.823259  0.840028  1
  O  O52  1  0.676741  0.917616  0.159972  1
  O  O53  1  0.355816  0.729697  0.941221  1
  O  O54  1  0.492355  0.832384  0.259125  1
  O  O55  1  0.858928  0.823424  0.849617  1
  O  O56  1  0.257645  0.417616  0.240875  1
  O  O57  1  0.891072  0.426576  0.650383  1
  O  O58  1  0.394184  0.520303  0.558779  1
  O  O59  1  0.073259  0.332384  0.340028  1
  O  O60  1  0.167616  0.426741  0.659972  1
  O  O61  1  0.990689  0.141072  0.964496  1
  O  O62  1  0.664596  0.538475  0.558779  1
  O  O63  1  0.490689  0.526193  0.849617  1
  O  O64  1  0.855816  0.914596  0.626120  1
  O  O65  1  0.358928  0.509311  0.035504  1
  O  O66  1  0.676576  0.641072  0.150383  1
  O  O67  1  0.288475  0.229697  0.373880  1
  O  O68  1  0.585404  0.644184  0.373880  1
  O  O69  1  0.757645  0.516770  0.840028  1
  O  O70  1  0.973807  0.009311  0.150383  1
  O  O71  1  0.979697  0.105816  0.441221  1
  O  O72  1  0.082384  0.242355  0.759125  1
  O  O73  1  0.270303  0.211525  0.626120  1
  O  O74  1  0.473807  0.323424  0.964496  1
  O  O75  1  0.483230  0.323259  0.240875  1
  O  O76  1  0.176741  0.016770  0.759125  1
  O  O77  1  0.961525  0.835404  0.441221  1
  O  O78  1  0.983230  0.742355  0.159972  1
  O  O79  1  0.176576  0.026193  0.035504  1
