# generated using pymatgen
data_Ho3Er7Pt8
_symmetry_space_group_name_H-M   'P 1'
_cell_length_a   7.41891635
_cell_length_b   7.50246712
_cell_length_c   14.69072262
_cell_angle_alpha   90.01256385
_cell_angle_beta   90.03104634
_cell_angle_gamma   89.98371793
_symmetry_Int_Tables_number   1
_chemical_formula_structural   Ho3Er7Pt8
_chemical_formula_sum   'Ho6 Er14 Pt16'
_cell_volume   817.68803383
_cell_formula_units_Z   2
loop_
 _symmetry_equiv_pos_site_id
 _symmetry_equiv_pos_as_xyz
  1  'x, y, z'
loop_
 _atom_site_type_symbol
 _atom_site_label
 _atom_site_symmetry_multiplicity
 _atom_site_fract_x
 _atom_site_fract_y
 _atom_site_fract_z
 _atom_site_occupancy
  Ho  Ho0  1  0.500065  0.320809  0.092871  1
  Ho  Ho1  1  0.999786  0.179201  0.407219  1
  Ho  Ho2  1  0.500084  0.321059  0.407171  1
  Ho  Ho3  1  0.000020  0.178675  0.092570  1
  Ho  Ho4  1  0.499912  0.679456  0.907088  1
  Ho  Ho5  1  0.999883  0.820397  0.592959  1
  Er  Er6  1  0.654369  0.167603  0.622381  1
  Er  Er7  1  0.154582  0.332396  0.877656  1
  Er  Er8  1  0.345461  0.832351  0.122178  1
  Er  Er9  1  0.845593  0.667356  0.377751  1
  Er  Er10  1  0.345926  0.832336  0.377923  1
  Er  Er11  1  0.845937  0.667781  0.122074  1
  Er  Er12  1  0.654774  0.167574  0.877769  1
  Er  Er13  1  0.154607  0.332769  0.622301  1
  Er  Er14  1  0.500099  0.679676  0.593152  1
  Er  Er15  1  0.000125  0.820458  0.906989  1
  Er  Er16  1  0.817336  0.511154  0.750056  1
  Er  Er17  1  0.317352  0.989101  0.750067  1
  Er  Er18  1  0.182867  0.488816  0.249949  1
  Er  Er19  1  0.682400  0.010997  0.249976  1
  Pt  Pt20  1  0.683969  0.967002  0.458961  1
  Pt  Pt21  1  0.184231  0.533195  0.040947  1
  Pt  Pt22  1  0.314816  0.032050  0.958364  1
  Pt  Pt23  1  0.814565  0.467972  0.541948  1
  Pt  Pt24  1  0.315148  0.031909  0.542225  1
  Pt  Pt25  1  0.815673  0.467841  0.958197  1
  Pt  Pt26  1  0.684298  0.966772  0.040717  1
  Pt  Pt27  1  0.185075  0.533234  0.458744  1
  Pt  Pt28  1  0.451943  0.386689  0.750143  1
  Pt  Pt29  1  0.951657  0.112819  0.750352  1
  Pt  Pt30  1  0.549015  0.614007  0.249658  1
  Pt  Pt31  1  0.048505  0.886774  0.249818  1
  Pt  Pt32  1  0.679700  0.856551  0.750276  1
  Pt  Pt33  1  0.179520  0.644429  0.750598  1
  Pt  Pt34  1  0.319778  0.143328  0.249482  1
  Pt  Pt35  1  0.820929  0.355466  0.249470  1
