# generated using pymatgen
data_Ce2Pr4FeCo17P12
_symmetry_space_group_name_H-M   'P 1'
_cell_length_a   3.76213900
_cell_length_b   10.60793877
_cell_length_c   12.40761325
_cell_angle_alpha   90.32057949
_cell_angle_beta   90.00000000
_cell_angle_gamma   90.00000000
_symmetry_Int_Tables_number   1
_chemical_formula_structural   Ce2Pr4FeCo17P12
_chemical_formula_sum   'Ce2 Pr4 Fe1 Co17 P12'
_cell_volume   495.16198088
_cell_formula_units_Z   1
loop_
 _symmetry_equiv_pos_site_id
 _symmetry_equiv_pos_as_xyz
  1  'x, y, z'
loop_
 _atom_site_type_symbol
 _atom_site_label
 _atom_site_symmetry_multiplicity
 _atom_site_fract_x
 _atom_site_fract_y
 _atom_site_fract_z
 _atom_site_occupancy
  Ce  Ce0  1  0.500000  0.819480  0.208031  1
  Ce  Ce1  1  0.000000  0.680618  0.792521  1
  Pr  Pr2  1  0.000000  0.500059  0.519518  1
  Pr  Pr3  1  0.500000  0.999978  0.479888  1
  Pr  Pr4  1  0.500000  0.183239  0.205729  1
  Pr  Pr5  1  0.000000  0.316569  0.795057  1
  Fe  Fe6  1  0.500000  0.501302  0.155008  1
  Co  Co7  1  0.000000  0.998300  0.842502  1
  Co  Co8  1  0.500000  0.507625  0.708341  1
  Co  Co9  1  0.000000  0.992161  0.291675  1
  Co  Co10  1  0.000000  0.501806  0.987610  1
  Co  Co11  1  0.500000  0.998176  0.013045  1
  Co  Co12  1  0.500000  0.333704  0.995972  1
  Co  Co13  1  0.500000  0.667823  0.996564  1
  Co  Co14  1  0.000000  0.165748  0.004204  1
  Co  Co15  1  0.000000  0.832818  0.003235  1
  Co  Co16  1  0.500000  0.296794  0.430156  1
  Co  Co17  1  0.500000  0.702709  0.428863  1
  Co  Co18  1  0.000000  0.203168  0.570275  1
  Co  Co19  1  0.000000  0.797384  0.571536  1
  Co  Co20  1  0.500000  0.878630  0.713421  1
  Co  Co21  1  0.500000  0.117186  0.711326  1
  Co  Co22  1  0.000000  0.622203  0.286587  1
  Co  Co23  1  0.000000  0.382092  0.288842  1
  P  P24  1  0.500000  0.501412  0.888128  1
  P  P25  1  0.000000  0.998674  0.112042  1
  P  P26  1  0.500000  0.500128  0.337039  1
  P  P27  1  0.000000  0.000000  0.661832  1
  P  P28  1  0.500000  0.306716  0.614141  1
  P  P29  1  0.500000  0.694751  0.613567  1
  P  P30  1  0.000000  0.193718  0.386236  1
  P  P31  1  0.000000  0.804894  0.386735  1
  P  P32  1  0.500000  0.846629  0.895114  1
  P  P33  1  0.500000  0.150027  0.896256  1
  P  P34  1  0.000000  0.653962  0.104970  1
  P  P35  1  0.000000  0.349515  0.104037  1
