# generated using pymatgen
data_Mg3Sc4V6O24
_symmetry_space_group_name_H-M   'P 1'
_cell_length_a   6.85068092
_cell_length_b   8.30157331
_cell_length_c   10.08067748
_cell_angle_alpha   104.53547170
_cell_angle_beta   106.84414253
_cell_angle_gamma   101.26144182
_symmetry_Int_Tables_number   1
_chemical_formula_structural   Mg3Sc4V6O24
_chemical_formula_sum   'Mg3 Sc4 V6 O24'
_cell_volume   508.43295022
_cell_formula_units_Z   1
loop_
 _symmetry_equiv_pos_site_id
 _symmetry_equiv_pos_as_xyz
  1  'x, y, z'
loop_
 _atom_site_type_symbol
 _atom_site_label
 _atom_site_symmetry_multiplicity
 _atom_site_fract_x
 _atom_site_fract_y
 _atom_site_fract_z
 _atom_site_occupancy
  Mg  Mg0  1  0.000000  0.500000  0.500000  1
  Mg  Mg1  1  0.279630  0.295750  0.787435  1
  Mg  Mg2  1  0.720370  0.704250  0.212565  1
  Sc  Sc3  1  0.383398  0.950795  0.614000  1
  Sc  Sc4  1  0.616602  0.049205  0.386000  1
  Sc  Sc5  1  0.052222  0.217635  0.016384  1
  Sc  Sc6  1  0.947778  0.782365  0.983616  1
  V  V7  1  0.770113  0.345402  0.722510  1
  V  V8  1  0.229887  0.654598  0.277490  1
  V  V9  1  0.908398  0.910456  0.669383  1
  V  V10  1  0.394786  0.715214  0.872383  1
  V  V11  1  0.091602  0.089544  0.330617  1
  V  V12  1  0.605214  0.284786  0.127617  1
  O  O13  1  0.901133  0.705119  0.589481  1
  O  O14  1  0.098867  0.294881  0.410519  1
  O  O15  1  0.263591  0.513443  0.735759  1
  O  O16  1  0.736409  0.486557  0.264241  1
  O  O17  1  0.777762  0.307803  0.542557  1
  O  O18  1  0.222238  0.692197  0.457443  1
  O  O19  1  0.675011  0.961497  0.579054  1
  O  O20  1  0.324989  0.038503  0.420946  1
  O  O21  1  0.635715  0.717887  0.003814  1
  O  O22  1  0.364285  0.282113  0.996186  1
  O  O23  1  0.473613  0.769053  0.276032  1
  O  O24  1  0.526387  0.230947  0.723968  1
  O  O25  1  0.133437  0.041682  0.657554  1
  O  O26  1  0.060685  0.049185  0.144003  1
  O  O27  1  0.939315  0.950815  0.855997  1
  O  O28  1  0.554232  0.134659  0.214306  1
  O  O29  1  0.445768  0.865341  0.785694  1
  O  O30  1  0.196691  0.441397  0.197475  1
  O  O31  1  0.803309  0.558603  0.802525  1
  O  O32  1  0.984903  0.288386  0.826740  1
  O  O33  1  0.015097  0.711614  0.173260  1
  O  O34  1  0.230873  0.764407  0.966566  1
  O  O35  1  0.769127  0.235593  0.033434  1
  O  O36  1  0.866563  0.958318  0.342446  1
