# generated using pymatgen
data_Hf5Zr5GaAgSb6
_symmetry_space_group_name_H-M   'P 1'
_cell_length_a   8.67467802
_cell_length_b   8.68432550
_cell_length_c   5.85350700
_cell_angle_alpha   89.99898407
_cell_angle_beta   90.00202751
_cell_angle_gamma   119.96325068
_symmetry_Int_Tables_number   1
_chemical_formula_structural   Hf5Zr5GaAgSb6
_chemical_formula_sum   'Hf5 Zr5 Ga1 Ag1 Sb6'
_cell_volume   382.02953134
_cell_formula_units_Z   1
loop_
 _symmetry_equiv_pos_site_id
 _symmetry_equiv_pos_as_xyz
  1  'x, y, z'
loop_
 _atom_site_type_symbol
 _atom_site_label
 _atom_site_symmetry_multiplicity
 _atom_site_fract_x
 _atom_site_fract_y
 _atom_site_fract_z
 _atom_site_occupancy
  Hf  Hf0  1  0.275616  0.000000  0.239429  1
  Hf  Hf1  1  0.333110  0.666909  0.499797  1
  Hf  Hf2  1  0.665965  0.332955  0.000286  1
  Hf  Hf3  1  0.666202  0.333091  0.499797  1
  Hf  Hf4  1  0.333010  0.667045  0.000286  1
  Zr  Zr5  1  0.723759  0.724121  0.240074  1
  Zr  Zr6  1  0.725465  0.000000  0.760132  1
  Zr  Zr7  1  0.999638  0.275879  0.240074  1
  Zr  Zr8  1  0.000545  0.725578  0.760480  1
  Zr  Zr9  1  0.274967  0.274422  0.760480  1
  Ga  Ga10  1  0.000654  0.000000  0.001891  1
  Ag  Ag11  1  0.001663  0.000000  0.497207  1
  Sb  Sb12  1  0.384910  0.000000  0.746052  1
  Sb  Sb13  1  0.383579  0.382989  0.254418  1
  Sb  Sb14  1  0.000590  0.617011  0.254418  1
  Sb  Sb15  1  0.999792  0.384280  0.745613  1
  Sb  Sb16  1  0.615512  0.615720  0.745613  1
  Sb  Sb17  1  0.615020  0.000000  0.253953  1
