# generated using pymatgen
data_Ho3Er2P12Ir16Pd3
_symmetry_space_group_name_H-M   'P 1'
_cell_length_a   12.76758900
_cell_length_b   12.76758975
_cell_length_c   3.96058100
_cell_angle_alpha   90.00000000
_cell_angle_beta   90.00000000
_cell_angle_gamma   120.00000064
_symmetry_Int_Tables_number   1
_chemical_formula_structural   Ho3Er2P12Ir16Pd3
_chemical_formula_sum   'Ho3 Er2 P12 Ir16 Pd3'
_cell_volume   559.12297984
_cell_formula_units_Z   1
loop_
 _symmetry_equiv_pos_site_id
 _symmetry_equiv_pos_as_xyz
  1  'x, y, z'
loop_
 _atom_site_type_symbol
 _atom_site_label
 _atom_site_symmetry_multiplicity
 _atom_site_fract_x
 _atom_site_fract_y
 _atom_site_fract_z
 _atom_site_occupancy
  Ho  Ho0  1  0.186592  0.186592  0.500000  1
  Ho  Ho1  1  0.813408  0.000000  0.500000  1
  Ho  Ho2  1  0.000000  0.813408  0.500000  1
  Er  Er3  1  0.333333  0.666667  0.000000  1
  Er  Er4  1  0.666667  0.333333  0.000000  1
  P  P5  1  0.821424  0.821424  0.000000  1
  P  P6  1  0.178576  0.000000  0.000000  1
  P  P7  1  0.000000  0.178576  0.000000  1
  P  P8  1  0.174045  0.482919  0.500000  1
  P  P9  1  0.517081  0.691125  0.500000  1
  P  P10  1  0.308875  0.825955  0.500000  1
  P  P11  1  0.691125  0.517081  0.500000  1
  P  P12  1  0.825955  0.308875  0.500000  1
  P  P13  1  0.482919  0.174045  0.500000  1
  P  P14  1  0.362126  0.362126  0.000000  1
  P  P15  1  0.637874  0.000000  0.000000  1
  P  P16  1  0.000000  0.637874  0.000000  1
  Ir  Ir17  1  0.718128  0.718128  0.500000  1
  Ir  Ir18  1  0.281872  0.000000  0.500000  1
  Ir  Ir19  1  0.000000  0.281872  0.500000  1
  Ir  Ir20  1  0.182001  0.372914  0.000000  1
  Ir  Ir21  1  0.627086  0.809088  0.000000  1
  Ir  Ir22  1  0.190912  0.817999  0.000000  1
  Ir  Ir23  1  0.809088  0.627086  0.000000  1
  Ir  Ir24  1  0.817999  0.190912  0.000000  1
  Ir  Ir25  1  0.372914  0.182001  0.000000  1
  Ir  Ir26  1  0.361664  0.495642  0.500000  1
  Ir  Ir27  1  0.504358  0.866023  0.500000  1
  Ir  Ir28  1  0.133977  0.638336  0.500000  1
  Ir  Ir29  1  0.866023  0.504358  0.500000  1
  Ir  Ir30  1  0.638336  0.133977  0.500000  1
  Ir  Ir31  1  0.495642  0.361664  0.500000  1
  Ir  Ir32  1  0.000000  0.000000  0.000000  1
  Pd  Pd33  1  0.545518  0.545518  0.000000  1
  Pd  Pd34  1  0.454482  0.000000  0.000000  1
  Pd  Pd35  1  0.000000  0.454482  0.000000  1
