# generated using pymatgen
data_Ta2Be12Nb4Co6Si3Ni2
_symmetry_space_group_name_H-M   'P 1'
_cell_length_a   7.65064048
_cell_length_b   7.64864108
_cell_length_c   7.64103400
_cell_angle_alpha   59.77587603
_cell_angle_beta   59.74826246
_cell_angle_gamma   59.90705961
_symmetry_Int_Tables_number   1
_chemical_formula_structural   Ta2Be12Nb4Co6Si3Ni2
_chemical_formula_sum   'Ta2 Be12 Nb4 Co6 Si3 Ni2'
_cell_volume   314.80682125
_cell_formula_units_Z   1
loop_
 _symmetry_equiv_pos_site_id
 _symmetry_equiv_pos_as_xyz
  1  'x, y, z'
loop_
 _atom_site_type_symbol
 _atom_site_label
 _atom_site_symmetry_multiplicity
 _atom_site_fract_x
 _atom_site_fract_y
 _atom_site_fract_z
 _atom_site_occupancy
  Ta  Ta0  1  0.291331  0.299504  0.708457  1
  Ta  Ta1  1  0.708669  0.700496  0.291543  1
  Be  Be2  1  0.331047  0.332489  0.315715  1
  Be  Be3  1  0.668953  0.667511  0.684285  1
  Be  Be4  1  0.325529  0.327535  0.018211  1
  Be  Be5  1  0.320861  0.019778  0.322173  1
  Be  Be6  1  0.674471  0.672465  0.981789  1
  Be  Be7  1  0.679139  0.980222  0.677827  1
  Be  Be8  1  0.020724  0.321833  0.321072  1
  Be  Be9  1  0.979276  0.678167  0.678928  1
  Be  Be10  1  0.500000  0.000000  0.000000  1
  Be  Be11  1  0.000000  0.500000  0.000000  1
  Be  Be12  1  0.000000  0.000000  0.500000  1
  Be  Be13  1  0.500000  0.500000  0.000000  1
  Nb  Nb14  1  0.710287  0.296179  0.292996  1
  Nb  Nb15  1  0.289713  0.703821  0.707004  1
  Nb  Nb16  1  0.292520  0.706465  0.297882  1
  Nb  Nb17  1  0.707480  0.293535  0.702118  1
  Co  Co18  1  0.125555  0.122727  0.120888  1
  Co  Co19  1  0.874445  0.877274  0.879112  1
  Co  Co20  1  0.124834  0.122706  0.628375  1
  Co  Co21  1  0.124949  0.629637  0.120805  1
  Co  Co22  1  0.875166  0.877295  0.371625  1
  Co  Co23  1  0.875051  0.370363  0.879194  1
  Si  Si24  1  0.000000  0.500000  0.500000  1
  Si  Si25  1  0.500000  0.000000  0.500000  1
  Si  Si26  1  0.000000  0.000000  0.000000  1
  Ni  Ni27  1  0.627333  0.124434  0.121624  1
  Ni  Ni28  1  0.372667  0.875566  0.878376  1
