# generated using pymatgen
data_Ho5ErLu4(Si5Ir2)4
_symmetry_space_group_name_H-M   'P 1'
_cell_length_a   12.58943900
_cell_length_b   12.58943900
_cell_length_c   4.22652300
_cell_angle_alpha   90.00000000
_cell_angle_beta   90.00000000
_cell_angle_gamma   90.00000000
_symmetry_Int_Tables_number   1
_chemical_formula_structural   Ho5ErLu4(Si5Ir2)4
_chemical_formula_sum   'Ho5 Er1 Lu4 Si20 Ir8'
_cell_volume   669.87842789
_cell_formula_units_Z   1
loop_
 _symmetry_equiv_pos_site_id
 _symmetry_equiv_pos_as_xyz
  1  'x, y, z'
loop_
 _atom_site_type_symbol
 _atom_site_label
 _atom_site_symmetry_multiplicity
 _atom_site_fract_x
 _atom_site_fract_y
 _atom_site_fract_z
 _atom_site_occupancy
  Ho  Ho0  1  0.000000  0.000000  0.000000  1
  Ho  Ho1  1  0.883693  0.383725  0.500000  1
  Ho  Ho2  1  0.116307  0.616275  0.500000  1
  Ho  Ho3  1  0.383725  0.116307  0.500000  1
  Ho  Ho4  1  0.616275  0.883693  0.500000  1
  Er  Er5  1  0.500000  0.500000  0.000000  1
  Lu  Lu6  1  0.675661  0.175764  0.500000  1
  Lu  Lu7  1  0.324339  0.824236  0.500000  1
  Lu  Lu8  1  0.175764  0.324339  0.500000  1
  Lu  Lu9  1  0.824236  0.675661  0.500000  1
  Si  Si10  1  0.565894  0.065956  0.000000  1
  Si  Si11  1  0.434106  0.934044  0.000000  1
  Si  Si12  1  0.065956  0.434106  0.000000  1
  Si  Si13  1  0.934044  0.565894  0.000000  1
  Si  Si14  1  0.663694  0.700887  0.000000  1
  Si  Si15  1  0.336306  0.299113  0.000000  1
  Si  Si16  1  0.163707  0.799089  0.000000  1
  Si  Si17  1  0.836293  0.200911  0.000000  1
  Si  Si18  1  0.299113  0.663694  0.000000  1
  Si  Si19  1  0.700887  0.336306  0.000000  1
  Si  Si20  1  0.200911  0.163707  0.000000  1
  Si  Si21  1  0.799089  0.836293  0.000000  1
  Si  Si22  1  0.656160  0.503232  0.500000  1
  Si  Si23  1  0.343840  0.496768  0.500000  1
  Si  Si24  1  0.156519  0.996761  0.500000  1
  Si  Si25  1  0.843481  0.003239  0.500000  1
  Si  Si26  1  0.496768  0.656160  0.500000  1
  Si  Si27  1  0.503232  0.343840  0.500000  1
  Si  Si28  1  0.003239  0.156519  0.500000  1
  Si  Si29  1  0.996761  0.843481  0.500000  1
  Ir  Ir30  1  0.745996  0.521635  0.000000  1
  Ir  Ir31  1  0.254004  0.478365  0.000000  1
  Ir  Ir32  1  0.246274  0.978334  0.000000  1
  Ir  Ir33  1  0.753726  0.021666  0.000000  1
  Ir  Ir34  1  0.478365  0.745996  0.000000  1
  Ir  Ir35  1  0.521635  0.254004  0.000000  1
  Ir  Ir36  1  0.021666  0.246274  0.000000  1
  Ir  Ir37  1  0.978334  0.753726  0.000000  1
