# generated using pymatgen
data_AgAuF6
_symmetry_space_group_name_H-M   'P 1'
_cell_length_a   5.50734100
_cell_length_b   5.49082966
_cell_length_c   10.61163041
_cell_angle_alpha   75.08069277
_cell_angle_beta   75.01208724
_cell_angle_gamma   59.82535388
_symmetry_Int_Tables_number   1
_chemical_formula_structural   AgAuF6
_chemical_formula_sum   'Ag2 Au2 F12'
_cell_volume   264.83462309
_cell_formula_units_Z   2
loop_
 _symmetry_equiv_pos_site_id
 _symmetry_equiv_pos_as_xyz
  1  'x, y, z'
loop_
 _atom_site_type_symbol
 _atom_site_label
 _atom_site_symmetry_multiplicity
 _atom_site_fract_x
 _atom_site_fract_y
 _atom_site_fract_z
 _atom_site_occupancy
  Ag  Ag0  1  0.500000  0.500000  0.500000  1
  Ag  Ag1  1  0.000000  0.000000  0.000000  1
  Au  Au2  1  0.248957  0.251791  0.249886  1
  Au  Au3  1  0.751043  0.748209  0.750114  1
  F  F4  1  0.249819  0.486022  0.366111  1
  F  F5  1  0.750181  0.513978  0.633889  1
  F  F6  1  0.898686  0.253442  0.366134  1
  F  F7  1  0.101314  0.746558  0.633866  1
  F  F8  1  0.598716  0.251097  0.133318  1
  F  F9  1  0.401284  0.748903  0.866682  1
  F  F10  1  0.247169  0.018980  0.133423  1
  F  F11  1  0.752831  0.981020  0.866577  1
  F  F12  1  0.986367  0.396516  0.865843  1
  F  F13  1  0.013633  0.603484  0.134157  1
  F  F14  1  0.517365  0.099088  0.633691  1
  F  F15  1  0.482635  0.900912  0.366309  1
