# generated using pymatgen
data_Ho6Ti2Al5Pt16
_symmetry_space_group_name_H-M   'P 1'
_cell_length_a   8.97513169
_cell_length_b   9.00334426
_cell_length_c   9.00340602
_cell_angle_alpha   60.09218401
_cell_angle_beta   60.10399111
_cell_angle_gamma   60.10327203
_symmetry_Int_Tables_number   1
_chemical_formula_structural   Ho6Ti2Al5Pt16
_chemical_formula_sum   'Ho6 Ti2 Al5 Pt16'
_cell_volume   515.60559675
_cell_formula_units_Z   1
loop_
 _symmetry_equiv_pos_site_id
 _symmetry_equiv_pos_as_xyz
  1  'x, y, z'
loop_
 _atom_site_type_symbol
 _atom_site_label
 _atom_site_symmetry_multiplicity
 _atom_site_fract_x
 _atom_site_fract_y
 _atom_site_fract_z
 _atom_site_occupancy
  Ho  Ho0  1  0.713597  0.286400  0.286404  1
  Ho  Ho1  1  0.716203  0.288669  0.711329  1
  Ho  Ho2  1  0.716200  0.711333  0.288669  1
  Ho  Ho3  1  0.286403  0.713600  0.713596  1
  Ho  Ho4  1  0.283797  0.711331  0.288671  1
  Ho  Ho5  1  0.283800  0.288667  0.711331  1
  Ti  Ti6  1  0.000000  0.000000  0.000000  1
  Ti  Ti7  1  0.500000  0.000000  0.000000  1
  Al  Al8  1  0.500000  0.000000  0.500000  1
  Al  Al9  1  0.500000  0.500000  0.000000  1
  Al  Al10  1  0.000000  0.500000  0.500000  1
  Al  Al11  1  0.000000  0.500000  0.000000  1
  Al  Al12  1  0.000000  0.000000  0.500000  1
  Pt  Pt13  1  0.640613  0.118055  0.118055  1
  Pt  Pt14  1  0.119877  0.641913  0.118335  1
  Pt  Pt15  1  0.119874  0.118337  0.641914  1
  Pt  Pt16  1  0.123274  0.118056  0.118055  1
  Pt  Pt17  1  0.359387  0.881945  0.881945  1
  Pt  Pt18  1  0.880123  0.358087  0.881665  1
  Pt  Pt19  1  0.880126  0.881663  0.358086  1
  Pt  Pt20  1  0.876726  0.881944  0.881945  1
  Pt  Pt21  1  0.985939  0.337546  0.337549  1
  Pt  Pt22  1  0.338158  0.982983  0.340701  1
  Pt  Pt23  1  0.338159  0.340703  0.982982  1
  Pt  Pt24  1  0.338966  0.337550  0.337545  1
  Pt  Pt25  1  0.014061  0.662454  0.662451  1
  Pt  Pt26  1  0.661842  0.017017  0.659299  1
  Pt  Pt27  1  0.661841  0.659297  0.017018  1
  Pt  Pt28  1  0.661034  0.662450  0.662455  1
