# generated using pymatgen
data_Ho3Zn3NiPt2
_symmetry_space_group_name_H-M   'P 1'
_cell_length_a   7.15964300
_cell_length_b   7.15964349
_cell_length_c   3.84281200
_cell_angle_alpha   90.00000000
_cell_angle_beta   90.00000000
_cell_angle_gamma   120.00000234
_symmetry_Int_Tables_number   1
_chemical_formula_structural   Ho3Zn3NiPt2
_chemical_formula_sum   'Ho3 Zn3 Ni1 Pt2'
_cell_volume   170.59351782
_cell_formula_units_Z   1
loop_
 _symmetry_equiv_pos_site_id
 _symmetry_equiv_pos_as_xyz
  1  'x, y, z'
loop_
 _atom_site_type_symbol
 _atom_site_label
 _atom_site_symmetry_multiplicity
 _atom_site_fract_x
 _atom_site_fract_y
 _atom_site_fract_z
 _atom_site_occupancy
  Ho  Ho0  1  0.000000  0.401103  0.500000  1
  Ho  Ho1  1  0.598897  0.598897  0.500000  1
  Ho  Ho2  1  0.401103  0.000000  0.500000  1
  Zn  Zn3  1  0.000000  0.763977  0.000000  1
  Zn  Zn4  1  0.236023  0.236023  0.000000  1
  Zn  Zn5  1  0.763977  0.000000  0.000000  1
  Ni  Ni6  1  0.000000  0.000000  0.500000  1
  Pt  Pt7  1  0.333333  0.666667  0.000000  1
  Pt  Pt8  1  0.666667  0.333333  0.000000  1
