# generated using pymatgen
data_Y8Re3B24Ir
_symmetry_space_group_name_H-M   'P 1'
_cell_length_a   3.68096100
_cell_length_b   9.18973767
_cell_length_c   11.57664769
_cell_angle_alpha   89.85183100
_cell_angle_beta   90.00000000
_cell_angle_gamma   90.00000000
_symmetry_Int_Tables_number   1
_chemical_formula_structural   Y8Re3B24Ir
_chemical_formula_sum   'Y8 Re3 B24 Ir1'
_cell_volume   391.60271570
_cell_formula_units_Z   1
loop_
 _symmetry_equiv_pos_site_id
 _symmetry_equiv_pos_as_xyz
  1  'x, y, z'
loop_
 _atom_site_type_symbol
 _atom_site_label
 _atom_site_symmetry_multiplicity
 _atom_site_fract_x
 _atom_site_fract_y
 _atom_site_fract_z
 _atom_site_occupancy
  Y  Y0  1  0.000000  0.818285  0.084389  1
  Y  Y1  1  0.000000  0.178623  0.908811  1
  Y  Y2  1  0.000000  0.326901  0.418634  1
  Y  Y3  1  0.000000  0.677150  0.587275  1
  Y  Y4  1  0.000000  0.443950  0.129498  1
  Y  Y5  1  0.000000  0.556184  0.871160  1
  Y  Y6  1  0.000000  0.940660  0.371774  1
  Y  Y7  1  0.000000  0.056962  0.628257  1
  Re  Re8  1  0.000000  0.863094  0.822563  1
  Re  Re9  1  0.000000  0.637984  0.320139  1
  Re  Re10  1  0.000000  0.361988  0.678950  1
  B  B11  1  0.500000  0.053759  0.066491  1
  B  B12  1  0.500000  0.946886  0.933163  1
  B  B13  1  0.500000  0.553182  0.433146  1
  B  B14  1  0.500000  0.447050  0.567432  1
  B  B15  1  0.500000  0.248645  0.080138  1
  B  B16  1  0.500000  0.751245  0.918701  1
  B  B17  1  0.500000  0.748230  0.418515  1
  B  B18  1  0.500000  0.252287  0.581374  1
  B  B19  1  0.500000  0.290544  0.234713  1
  B  B20  1  0.500000  0.709098  0.765911  1
  B  B21  1  0.500000  0.791043  0.265096  1
  B  B22  1  0.500000  0.208750  0.734052  1
  B  B23  1  0.500000  0.131576  0.315383  1
  B  B24  1  0.500000  0.869446  0.686199  1
  B  B25  1  0.500000  0.630892  0.185454  1
  B  B26  1  0.500000  0.368542  0.814197  1
  B  B27  1  0.500000  0.483078  0.288094  1
  B  B28  1  0.500000  0.517277  0.712751  1
  B  B29  1  0.500000  0.982982  0.212013  1
  B  B30  1  0.500000  0.018118  0.787731  1
  B  B31  1  0.500000  0.104282  0.470369  1
  B  B32  1  0.500000  0.896529  0.528407  1
  B  B33  1  0.500000  0.602868  0.029145  1
  B  B34  1  0.500000  0.394564  0.971482  1
  Ir  Ir35  1  0.000000  0.137349  0.178594  1
