# generated using pymatgen
data_NbV(PO4)3
_symmetry_space_group_name_H-M   'P 1'
_cell_length_a   8.63067192
_cell_length_b   8.60495106
_cell_length_c   8.93886700
_cell_angle_alpha   90.16371860
_cell_angle_beta   118.69225434
_cell_angle_gamma   119.79048022
_symmetry_Int_Tables_number   1
_chemical_formula_structural   NbV(PO4)3
_chemical_formula_sum   'Nb2 V2 P6 O24'
_cell_volume   479.30769417
_cell_formula_units_Z   2
loop_
 _symmetry_equiv_pos_site_id
 _symmetry_equiv_pos_as_xyz
  1  'x, y, z'
loop_
 _atom_site_type_symbol
 _atom_site_label
 _atom_site_symmetry_multiplicity
 _atom_site_fract_x
 _atom_site_fract_y
 _atom_site_fract_z
 _atom_site_occupancy
  Nb  Nb0  1  0.220092  0.861251  0.080993  1
  Nb  Nb1  1  0.217926  0.360820  0.576404  1
  V  V2  1  0.792574  0.644460  0.434374  1
  V  V3  1  0.788147  0.142474  0.930104  1
  P  P4  1  0.984194  0.960335  0.246193  1
  P  P5  1  0.989468  0.026700  0.750254  1
  P  P6  1  0.722536  0.258561  0.252375  1
  P  P7  1  0.286609  0.763445  0.744379  1
  P  P8  1  0.284495  0.523380  0.247397  1
  P  P9  1  0.726047  0.463686  0.748859  1
  O  O10  1  0.136049  0.009758  0.926443  1
  O  O11  1  0.262673  0.505129  0.410278  1
  O  O12  1  0.855041  0.993095  0.073218  1
  O  O13  1  0.512982  0.092243  0.229037  1
  O  O14  1  0.840856  0.062671  0.763968  1
  O  O15  1  0.735595  0.442269  0.284748  1
  O  O16  1  0.140786  0.142305  0.408201  1
  O  O17  1  0.744746  0.485281  0.588714  1
  O  O18  1  0.719701  0.223840  0.084495  1
  O  O19  1  0.275683  0.576780  0.722243  1
  O  O20  1  0.100315  0.746865  0.575240  1
  O  O21  1  0.297208  0.707603  0.218744  1
  O  O22  1  0.488698  0.547199  0.289328  1
  O  O23  1  0.143272  0.195654  0.716983  1
  O  O24  1  0.130482  0.918557  0.226387  1
  O  O25  1  0.714300  0.285990  0.788150  1
  O  O26  1  0.496803  0.923286  0.774227  1
  O  O27  1  0.090411  0.357271  0.077194  1
  O  O28  1  0.906945  0.268260  0.421076  1
  O  O29  1  0.280355  0.790316  0.912405  1
  O  O30  1  0.852862  0.845376  0.591978  1
  O  O31  1  0.829002  0.796311  0.275449  1
  O  O32  1  0.914293  0.636964  0.918362  1
  O  O33  1  0.518852  0.441865  0.711802  1
