# generated using pymatgen
data_Ba6Fe3Pd2O15
_symmetry_space_group_name_H-M   'P 1'
_cell_length_a   7.40563284
_cell_length_b   7.42990174
_cell_length_c   7.43784740
_cell_angle_alpha   87.24764839
_cell_angle_beta   87.45162296
_cell_angle_gamma   87.51859775
_symmetry_Int_Tables_number   1
_chemical_formula_structural   Ba6Fe3Pd2O15
_chemical_formula_sum   'Ba6 Fe3 Pd2 O15'
_cell_volume   408.02966318
_cell_formula_units_Z   1
loop_
 _symmetry_equiv_pos_site_id
 _symmetry_equiv_pos_as_xyz
  1  'x, y, z'
loop_
 _atom_site_type_symbol
 _atom_site_label
 _atom_site_symmetry_multiplicity
 _atom_site_fract_x
 _atom_site_fract_y
 _atom_site_fract_z
 _atom_site_occupancy
  Ba  Ba0  1  0.328840  0.670683  0.999704  1
  Ba  Ba1  1  0.999828  0.328883  0.671052  1
  Ba  Ba2  1  0.671280  0.000594  0.329278  1
  Ba  Ba3  1  0.142196  0.857242  0.499947  1
  Ba  Ba4  1  0.500151  0.142397  0.857664  1
  Ba  Ba5  1  0.858020  0.499795  0.142865  1
  Fe  Fe6  1  0.499945  0.500004  0.499950  1
  Fe  Fe7  1  0.094222  0.096406  0.097491  1
  Fe  Fe8  1  0.905824  0.903453  0.903200  1
  Pd  Pd9  1  0.293815  0.294119  0.294144  1
  Pd  Pd10  1  0.706250  0.705957  0.705734  1
  O  O11  1  0.150224  0.998079  0.845617  1
  O  O12  1  0.848606  0.153627  0.001093  1
  O  O13  1  0.000247  0.847880  0.152431  1
  O  O14  1  0.032053  0.201663  0.341872  1
  O  O15  1  0.339523  0.033650  0.200615  1
  O  O16  1  0.201372  0.340181  0.033283  1
  O  O17  1  0.798522  0.966944  0.659399  1
  O  O18  1  0.661371  0.799602  0.965958  1
  O  O19  1  0.967643  0.658609  0.798509  1
  O  O20  1  0.381921  0.249669  0.545450  1
  O  O21  1  0.545916  0.382578  0.250182  1
  O  O22  1  0.249879  0.545139  0.381624  1
  O  O23  1  0.750274  0.618523  0.454981  1
  O  O24  1  0.454273  0.749846  0.617715  1
  O  O25  1  0.617804  0.454479  0.750242  1
