# generated using pymatgen
data_Hf3Nb2Si2GeN
_symmetry_space_group_name_H-M   'P 1'
_cell_length_a   7.77853300
_cell_length_b   7.76997610
_cell_length_c   5.43923900
_cell_angle_alpha   90.00000000
_cell_angle_beta   90.00000000
_cell_angle_gamma   120.03643240
_symmetry_Int_Tables_number   1
_chemical_formula_structural   Hf3Nb2Si2GeN
_chemical_formula_sum   'Hf6 Nb4 Si4 Ge2 N2'
_cell_volume   284.59456456
_cell_formula_units_Z   2
loop_
 _symmetry_equiv_pos_site_id
 _symmetry_equiv_pos_as_xyz
  1  'x, y, z'
loop_
 _atom_site_type_symbol
 _atom_site_label
 _atom_site_symmetry_multiplicity
 _atom_site_fract_x
 _atom_site_fract_y
 _atom_site_fract_z
 _atom_site_occupancy
  Hf  Hf0  1  0.233883  0.000000  0.250000  1
  Hf  Hf1  1  0.766117  0.000000  0.750000  1
  Hf  Hf2  1  0.003008  0.238128  0.250000  1
  Hf  Hf3  1  0.996992  0.761872  0.750000  1
  Hf  Hf4  1  0.764880  0.761872  0.250000  1
  Hf  Hf5  1  0.235120  0.238128  0.750000  1
  Nb  Nb6  1  0.331165  0.662331  0.000000  1
  Nb  Nb7  1  0.668835  0.337669  0.000000  1
  Nb  Nb8  1  0.668835  0.337669  0.500000  1
  Nb  Nb9  1  0.331165  0.662331  0.500000  1
  Si  Si10  1  0.001073  0.592530  0.250000  1
  Si  Si11  1  0.998927  0.407470  0.750000  1
  Si  Si12  1  0.408543  0.407470  0.250000  1
  Si  Si13  1  0.591457  0.592530  0.750000  1
  Ge  Ge14  1  0.594034  0.000000  0.250000  1
  Ge  Ge15  1  0.405966  0.000000  0.750000  1
  N  N16  1  0.000000  0.000000  0.000000  1
  N  N17  1  0.000000  0.000000  0.500000  1
