# generated using pymatgen
data_PuU3(Si5Pt3)2
_symmetry_space_group_name_H-M   'P 1'
_cell_length_a   8.15863405
_cell_length_b   8.17698990
_cell_length_c   8.17698971
_cell_angle_alpha   136.00088399
_cell_angle_beta   104.84645755
_cell_angle_gamma   91.43548620
_symmetry_Int_Tables_number   1
_chemical_formula_structural   PuU3(Si5Pt3)2
_chemical_formula_sum   'Pu1 U3 Si10 Pt6'
_cell_volume   348.02591945
_cell_formula_units_Z   1
loop_
 _symmetry_equiv_pos_site_id
 _symmetry_equiv_pos_as_xyz
  1  'x, y, z'
loop_
 _atom_site_type_symbol
 _atom_site_label
 _atom_site_symmetry_multiplicity
 _atom_site_fract_x
 _atom_site_fract_y
 _atom_site_fract_z
 _atom_site_occupancy
  Pu  Pu0  1  0.358556  0.630202  0.728354  1
  U  U1  1  0.098507  0.868327  0.230180  1
  U  U2  1  0.900308  0.130649  0.769659  1
  U  U3  1  0.641125  0.370443  0.270682  1
  Si  Si4  1  0.000409  0.748897  0.749314  1
  Si  Si5  1  0.000409  0.251095  0.251513  1
  Si  Si6  1  0.273933  0.023669  0.750570  1
  Si  Si7  1  0.725667  0.477810  0.750413  1
  Si  Si8  1  0.725667  0.975254  0.247857  1
  Si  Si9  1  0.273933  0.523363  0.250264  1
  Si  Si10  1  0.761660  0.610860  0.150800  1
  Si  Si11  1  0.237708  0.388828  0.848880  1
  Si  Si12  1  0.459951  0.111791  0.348160  1
  Si  Si13  1  0.540846  0.888653  0.652194  1
  Pt  Pt14  1  0.500191  0.751916  0.252395  1
  Pt  Pt15  1  0.500191  0.247796  0.748275  1
  Pt  Pt16  1  0.027610  0.638049  0.389560  1
  Pt  Pt17  1  0.971032  0.360801  0.610231  1
  Pt  Pt18  1  0.248425  0.138267  0.110157  1
  Pt  Pt19  1  0.753870  0.863329  0.890542  1
