# generated using pymatgen
data_Tm10Pt17Rh
_symmetry_space_group_name_H-M   'P 1'
_cell_length_a   9.66811476
_cell_length_b   9.66811476
_cell_length_c   5.75026561
_cell_angle_alpha   90.18991680
_cell_angle_beta   89.81008320
_cell_angle_gamma   90.06045281
_symmetry_Int_Tables_number   1
_chemical_formula_structural   Tm10Pt17Rh
_chemical_formula_sum   'Tm10 Pt17 Rh1'
_cell_volume   537.48517597
_cell_formula_units_Z   1
loop_
 _symmetry_equiv_pos_site_id
 _symmetry_equiv_pos_as_xyz
  1  'x, y, z'
loop_
 _atom_site_type_symbol
 _atom_site_label
 _atom_site_symmetry_multiplicity
 _atom_site_fract_x
 _atom_site_fract_y
 _atom_site_fract_z
 _atom_site_occupancy
  Tm  Tm0  1  0.450986  0.809505  0.002113  1
  Tm  Tm1  1  0.546766  0.191382  0.999830  1
  Tm  Tm2  1  0.190495  0.549014  0.002113  1
  Tm  Tm3  1  0.808618  0.453234  0.999830  1
  Tm  Tm4  1  0.500015  0.499985  0.499923  1
  Tm  Tm5  1  0.307174  0.045700  0.498109  1
  Tm  Tm6  1  0.690289  0.952467  0.500199  1
  Tm  Tm7  1  0.954300  0.692826  0.498109  1
  Tm  Tm8  1  0.047533  0.309711  0.500199  1
  Tm  Tm9  1  0.001150  0.998850  0.001226  1
  Pt  Pt10  1  0.807936  0.192064  0.748859  1
  Pt  Pt11  1  0.807590  0.192410  0.250241  1
  Pt  Pt12  1  0.192790  0.807210  0.749535  1
  Pt  Pt13  1  0.440937  0.782049  0.499594  1
  Pt  Pt14  1  0.557366  0.217194  0.500188  1
  Pt  Pt15  1  0.217951  0.559063  0.499594  1
  Pt  Pt16  1  0.782806  0.442634  0.500188  1
  Pt  Pt17  1  0.307458  0.307674  0.249285  1
  Pt  Pt18  1  0.692351  0.691849  0.750786  1
  Pt  Pt19  1  0.692326  0.692542  0.249285  1
  Pt  Pt20  1  0.308151  0.307649  0.750786  1
  Pt  Pt21  1  0.282115  0.057203  0.999989  1
  Pt  Pt22  1  0.717845  0.942037  0.999658  1
  Pt  Pt23  1  0.942797  0.717885  0.999989  1
  Pt  Pt24  1  0.057963  0.282155  0.999658  1
  Pt  Pt25  1  0.001255  0.998745  0.498734  1
  Pt  Pt26  1  0.500127  0.499873  0.999794  1
  Rh  Rh27  1  0.192910  0.807090  0.252185  1
