# generated using pymatgen
data_Ho3Mg2ScRh3
_symmetry_space_group_name_H-M   'P 1'
_cell_length_a   7.31640700
_cell_length_b   7.33147490
_cell_length_c   4.06788800
_cell_angle_alpha   90.00000000
_cell_angle_beta   90.00000000
_cell_angle_gamma   119.93204114
_symmetry_Int_Tables_number   1
_chemical_formula_structural   Ho3Mg2ScRh3
_chemical_formula_sum   'Ho3 Mg2 Sc1 Rh3'
_cell_volume   189.09751637
_cell_formula_units_Z   1
loop_
 _symmetry_equiv_pos_site_id
 _symmetry_equiv_pos_as_xyz
  1  'x, y, z'
loop_
 _atom_site_type_symbol
 _atom_site_label
 _atom_site_symmetry_multiplicity
 _atom_site_fract_x
 _atom_site_fract_y
 _atom_site_fract_z
 _atom_site_occupancy
  Ho  Ho0  1  0.402072  0.000000  0.000000  1
  Ho  Ho1  1  0.006764  0.421242  0.000000  1
  Ho  Ho2  1  0.585522  0.578757  0.000000  1
  Mg  Mg3  1  0.247335  0.246984  0.500000  1
  Mg  Mg4  1  0.000351  0.753017  0.500000  1
  Sc  Sc5  1  0.754225  0.000000  0.500000  1
  Rh  Rh6  1  0.986618  0.000000  0.000000  1
  Rh  Rh7  1  0.670316  0.323518  0.500000  1
  Rh  Rh8  1  0.346798  0.676483  0.500000  1
