# generated using pymatgen
data_HoTh3InGaNi4
_symmetry_space_group_name_H-M   'P 1'
_cell_length_a   7.48414184
_cell_length_b   7.49920735
_cell_length_c   3.68255600
_cell_angle_alpha   90.00000000
_cell_angle_beta   90.00000000
_cell_angle_gamma   91.06793422
_symmetry_Int_Tables_number   1
_chemical_formula_structural   HoTh3InGaNi4
_chemical_formula_sum   'Ho1 Th3 In1 Ga1 Ni4'
_cell_volume   206.64803856
_cell_formula_units_Z   1
loop_
 _symmetry_equiv_pos_site_id
 _symmetry_equiv_pos_as_xyz
  1  'x, y, z'
loop_
 _atom_site_type_symbol
 _atom_site_label
 _atom_site_symmetry_multiplicity
 _atom_site_fract_x
 _atom_site_fract_y
 _atom_site_fract_z
 _atom_site_occupancy
  Ho  Ho0  1  0.815092  0.667004  0.500000  1
  Th  Th1  1  0.668733  0.183675  0.500000  1
  Th  Th2  1  0.336849  0.812668  0.500000  1
  Th  Th3  1  0.181544  0.335278  0.500000  1
  In  In4  1  0.996548  0.991335  0.000000  1
  Ga  Ga5  1  0.509849  0.503848  0.000000  1
  Ni  Ni6  1  0.127794  0.621652  0.000000  1
  Ni  Ni7  1  0.875152  0.374258  0.000000  1
  Ni  Ni8  1  0.616515  0.879374  0.000000  1
  Ni  Ni9  1  0.371926  0.130908  0.000000  1
