# generated using pymatgen
data_TbHo7(ZnRh)2
_symmetry_space_group_name_H-M   'P 1'
_cell_length_a   9.47160989
_cell_length_b   9.47161037
_cell_length_c   9.46371100
_cell_angle_alpha   60.02758831
_cell_angle_beta   60.02758664
_cell_angle_gamma   59.94482411
_symmetry_Int_Tables_number   1
_chemical_formula_structural   TbHo7(ZnRh)2
_chemical_formula_sum   'Tb2 Ho14 Zn4 Rh4'
_cell_volume   600.33476141
_cell_formula_units_Z   2
loop_
 _symmetry_equiv_pos_site_id
 _symmetry_equiv_pos_as_xyz
  1  'x, y, z'
loop_
 _atom_site_type_symbol
 _atom_site_label
 _atom_site_symmetry_multiplicity
 _atom_site_fract_x
 _atom_site_fract_y
 _atom_site_fract_z
 _atom_site_occupancy
  Tb  Tb0  1  0.935216  0.935216  0.564784  1
  Tb  Tb1  1  0.564784  0.564784  0.935216  1
  Ho  Ho2  1  0.691017  0.691017  0.308983  1
  Ho  Ho3  1  0.147220  0.559129  0.146826  1
  Ho  Ho4  1  0.690729  0.309271  0.690729  1
  Ho  Ho5  1  0.146826  0.146826  0.147220  1
  Ho  Ho6  1  0.559129  0.147220  0.146826  1
  Ho  Ho7  1  0.690729  0.309271  0.309271  1
  Ho  Ho8  1  0.146826  0.146826  0.559129  1
  Ho  Ho9  1  0.309271  0.690729  0.309271  1
  Ho  Ho10  1  0.309271  0.690729  0.690729  1
  Ho  Ho11  1  0.936246  0.563754  0.563754  1
  Ho  Ho12  1  0.936246  0.563754  0.936246  1
  Ho  Ho13  1  0.563754  0.936246  0.563754  1
  Ho  Ho14  1  0.563754  0.936246  0.936246  1
  Ho  Ho15  1  0.308983  0.308983  0.691017  1
  Zn  Zn16  1  0.920039  0.920039  0.239494  1
  Zn  Zn17  1  0.239494  0.920428  0.920039  1
  Zn  Zn18  1  0.920039  0.920039  0.920428  1
  Zn  Zn19  1  0.920428  0.239494  0.920039  1
  Rh  Rh20  1  0.356336  0.356336  0.929675  1
  Rh  Rh21  1  0.357651  0.929675  0.356336  1
  Rh  Rh22  1  0.929675  0.357651  0.356336  1
  Rh  Rh23  1  0.356336  0.356336  0.357651  1
