# generated using pymatgen
data_CoSn16IrPt2
_symmetry_space_group_name_H-M   'P 1'
_cell_length_a   12.61922280
_cell_length_b   12.61922330
_cell_length_c   12.62543731
_cell_angle_alpha   150.71105946
_cell_angle_beta   150.71106318
_cell_angle_gamma   41.82487731
_symmetry_Int_Tables_number   1
_chemical_formula_structural   CoSn16IrPt2
_chemical_formula_sum   'Co1 Sn16 Ir1 Pt2'
_cell_volume   480.17423393
_cell_formula_units_Z   1
loop_
 _symmetry_equiv_pos_site_id
 _symmetry_equiv_pos_as_xyz
  1  'x, y, z'
loop_
 _atom_site_type_symbol
 _atom_site_label
 _atom_site_symmetry_multiplicity
 _atom_site_fract_x
 _atom_site_fract_y
 _atom_site_fract_z
 _atom_site_occupancy
  Co  Co0  1  0.750000  0.750000  0.000000  1
  Sn  Sn1  1  0.979401  0.494582  0.849034  1
  Sn  Sn2  1  0.369633  0.854453  0.849034  1
  Sn  Sn3  1  0.005418  0.520599  0.150966  1
  Sn  Sn4  1  0.261984  0.604372  0.994238  1
  Sn  Sn5  1  0.105323  0.110362  0.342485  1
  Sn  Sn6  1  0.854055  0.005110  0.483761  1
  Sn  Sn7  1  0.521349  0.370293  0.516239  1
  Sn  Sn8  1  0.129707  0.978651  0.483761  1
  Sn  Sn9  1  0.494890  0.645945  0.516239  1
  Sn  Sn10  1  0.737162  0.732123  0.342485  1
  Sn  Sn11  1  0.389638  0.394677  0.657515  1
  Sn  Sn12  1  0.767877  0.762838  0.657515  1
  Sn  Sn13  1  0.645547  0.130367  0.150966  1
  Sn  Sn14  1  0.895628  0.238016  0.005762  1
  Sn  Sn15  1  0.232254  0.889866  0.994238  1
  Sn  Sn16  1  0.610134  0.267746  0.005762  1
  Ir  Ir17  1  0.000000  0.500000  0.500000  1
  Pt  Pt18  1  0.500000  0.000000  0.500000  1
  Pt  Pt19  1  0.250000  0.250000  0.000000  1
