# generated using pymatgen
data_Ca2YbTeO6
_symmetry_space_group_name_H-M   'P 1'
_cell_length_a   5.83737100
_cell_length_b   5.62041961
_cell_length_c   9.84598020
_cell_angle_alpha   55.25645122
_cell_angle_beta   90.00000000
_cell_angle_gamma   90.00000000
_symmetry_Int_Tables_number   1
_chemical_formula_structural   Ca2YbTeO6
_chemical_formula_sum   'Ca4 Yb2 Te2 O12'
_cell_volume   265.43864662
_cell_formula_units_Z   2
loop_
 _symmetry_equiv_pos_site_id
 _symmetry_equiv_pos_as_xyz
  1  'x, y, z'
loop_
 _atom_site_type_symbol
 _atom_site_label
 _atom_site_symmetry_multiplicity
 _atom_site_fract_x
 _atom_site_fract_y
 _atom_site_fract_z
 _atom_site_occupancy
  Ca  Ca0  1  0.444480  0.266664  0.748363  1
  Ca  Ca1  1  0.944480  0.733336  0.751637  1
  Ca  Ca2  1  0.555520  0.733336  0.251637  1
  Ca  Ca3  1  0.055520  0.266664  0.248363  1
  Yb  Yb4  1  0.500000  0.500000  0.000000  1
  Yb  Yb5  1  0.000000  0.500000  0.500000  1
  Te  Te6  1  0.500000  0.000000  0.500000  1
  Te  Te7  1  0.000000  0.000000  0.000000  1
  O  O8  1  0.181122  0.334280  0.947028  1
  O  O9  1  0.681122  0.665720  0.552972  1
  O  O10  1  0.818878  0.665720  0.052972  1
  O  O11  1  0.318878  0.334280  0.447028  1
  O  O12  1  0.278859  0.763348  0.064215  1
  O  O13  1  0.778859  0.236652  0.435785  1
  O  O14  1  0.721141  0.236652  0.935785  1
  O  O15  1  0.221141  0.763348  0.564215  1
  O  O16  1  0.047487  0.116347  0.772497  1
  O  O17  1  0.547487  0.883653  0.727503  1
  O  O18  1  0.452513  0.116347  0.272497  1
  O  O19  1  0.952513  0.883653  0.227503  1
