# generated using pymatgen
data_U3TiAs5
_symmetry_space_group_name_H-M   'P 1'
_cell_length_a   8.54143600
_cell_length_b   8.54097822
_cell_length_c   5.71608600
_cell_angle_alpha   89.99871075
_cell_angle_beta   90.00112478
_cell_angle_gamma   119.99906242
_symmetry_Int_Tables_number   1
_chemical_formula_structural   U3TiAs5
_chemical_formula_sum   'U6 Ti2 As10'
_cell_volume   361.13700714
_cell_formula_units_Z   2
loop_
 _symmetry_equiv_pos_site_id
 _symmetry_equiv_pos_as_xyz
  1  'x, y, z'
loop_
 _atom_site_type_symbol
 _atom_site_label
 _atom_site_symmetry_multiplicity
 _atom_site_fract_x
 _atom_site_fract_y
 _atom_site_fract_z
 _atom_site_occupancy
  U  U0  1  0.614056  0.000018  0.249999  1
  U  U1  1  0.614058  0.614043  0.749997  1
  U  U2  1  0.999998  0.385920  0.750001  1
  U  U3  1  0.000002  0.614080  0.249999  1
  U  U4  1  0.385942  0.385957  0.250003  1
  U  U5  1  0.385944  0.999982  0.750001  1
  Ti  Ti6  1  0.000000  0.000000  0.000000  1
  Ti  Ti7  1  0.000000  0.000000  0.500000  1
  As  As8  1  0.260519  0.999996  0.250000  1
  As  As9  1  0.260520  0.260523  0.750000  1
  As  As10  1  0.000002  0.739472  0.750000  1
  As  As11  1  0.999998  0.260528  0.250000  1
  As  As12  1  0.739480  0.739477  0.250000  1
  As  As13  1  0.739481  0.000004  0.750000  1
  As  As14  1  0.333326  0.666664  0.000000  1
  As  As15  1  0.666673  0.333335  0.500000  1
  As  As16  1  0.666674  0.333336  0.000000  1
  As  As17  1  0.333327  0.666665  0.500000  1
