# generated using pymatgen
data_Gd12B2Cl17
_symmetry_space_group_name_H-M   'P 1'
_cell_length_a   8.82554098
_cell_length_b   10.62535991
_cell_length_c   10.36404500
_cell_angle_alpha   93.46261747
_cell_angle_beta   104.52623408
_cell_angle_gamma   116.35648482
_symmetry_Int_Tables_number   1
_chemical_formula_structural   Gd12B2Cl17
_chemical_formula_sum   'Gd12 B2 Cl17'
_cell_volume   826.32576603
_cell_formula_units_Z   1
loop_
 _symmetry_equiv_pos_site_id
 _symmetry_equiv_pos_as_xyz
  1  'x, y, z'
loop_
 _atom_site_type_symbol
 _atom_site_label
 _atom_site_symmetry_multiplicity
 _atom_site_fract_x
 _atom_site_fract_y
 _atom_site_fract_z
 _atom_site_occupancy
  Gd  Gd0  1  0.068358  0.527467  0.328131  1
  Gd  Gd1  1  0.983851  0.809248  0.570340  1
  Gd  Gd2  1  0.625923  0.233754  0.281738  1
  Gd  Gd3  1  0.016149  0.190752  0.429660  1
  Gd  Gd4  1  0.225529  0.664695  0.006397  1
  Gd  Gd5  1  0.284266  0.000835  0.909979  1
  Gd  Gd6  1  0.374077  0.766246  0.718262  1
  Gd  Gd7  1  0.931642  0.472533  0.671869  1
  Gd  Gd8  1  0.715734  0.999165  0.090021  1
  Gd  Gd9  1  0.159656  0.292934  0.137694  1
  Gd  Gd10  1  0.774471  0.335305  0.993603  1
  Gd  Gd11  1  0.840344  0.707066  0.862306  1
  B  B12  1  0.103869  0.737229  0.785880  1
  B  B13  1  0.896131  0.262771  0.214120  1
  Cl  Cl14  1  0.784248  0.522719  0.417157  1
  Cl  Cl15  1  0.631478  0.419381  0.746112  1
  Cl  Cl16  1  0.842572  0.903329  0.321417  1
  Cl  Cl17  1  0.317036  0.217790  0.361564  1
  Cl  Cl18  1  0.157428  0.096671  0.678583  1
  Cl  Cl19  1  0.590259  0.058293  0.830395  1
  Cl  Cl20  1  0.746374  0.172617  0.532107  1
  Cl  Cl21  1  0.537903  0.691954  0.951459  1
  Cl  Cl22  1  0.368522  0.580619  0.253888  1
  Cl  Cl23  1  0.215752  0.477281  0.582843  1
  Cl  Cl24  1  0.058541  0.367244  0.889495  1
  Cl  Cl25  1  0.462097  0.308046  0.048541  1
  Cl  Cl26  1  0.000000  0.000000  0.000000  1
  Cl  Cl27  1  0.253626  0.827383  0.467893  1
  Cl  Cl28  1  0.409741  0.941707  0.169605  1
  Cl  Cl29  1  0.682964  0.782210  0.638436  1
  Cl  Cl30  1  0.941459  0.632756  0.110505  1
