# generated using pymatgen
data_Nd16Co3Ag4Os
_symmetry_space_group_name_H-M   'P 1'
_cell_length_a   9.82784746
_cell_length_b   9.81565436
_cell_length_c   9.82165231
_cell_angle_alpha   59.29617775
_cell_angle_beta   59.52900310
_cell_angle_gamma   59.35506907
_symmetry_Int_Tables_number   1
_chemical_formula_structural   Nd16Co3Ag4Os
_chemical_formula_sum   'Nd16 Co3 Ag4 Os1'
_cell_volume   660.70319606
_cell_formula_units_Z   1
loop_
 _symmetry_equiv_pos_site_id
 _symmetry_equiv_pos_as_xyz
  1  'x, y, z'
loop_
 _atom_site_type_symbol
 _atom_site_label
 _atom_site_symmetry_multiplicity
 _atom_site_fract_x
 _atom_site_fract_y
 _atom_site_fract_z
 _atom_site_occupancy
  Nd  Nd0  1  0.596860  0.595982  0.596970  1
  Nd  Nd1  1  0.600358  0.600793  0.204759  1
  Nd  Nd2  1  0.600421  0.203631  0.600794  1
  Nd  Nd3  1  0.205279  0.600558  0.600505  1
  Nd  Nd4  1  0.187988  0.812008  0.811143  1
  Nd  Nd5  1  0.805670  0.192094  0.190928  1
  Nd  Nd6  1  0.811158  0.187480  0.811198  1
  Nd  Nd7  1  0.191433  0.806083  0.191716  1
  Nd  Nd8  1  0.810919  0.811890  0.187982  1
  Nd  Nd9  1  0.190693  0.192107  0.805843  1
  Nd  Nd10  1  0.055264  0.440124  0.439848  1
  Nd  Nd11  1  0.438786  0.061100  0.060563  1
  Nd  Nd12  1  0.440571  0.054826  0.440521  1
  Nd  Nd13  1  0.060567  0.439112  0.060283  1
  Nd  Nd14  1  0.439921  0.440210  0.055105  1
  Nd  Nd15  1  0.060630  0.060848  0.438757  1
  Co  Co16  1  0.392846  0.391375  0.827527  1
  Co  Co17  1  0.392076  0.828295  0.391814  1
  Co  Co18  1  0.827374  0.391553  0.392738  1
  Ag  Ag19  1  0.831107  0.830545  0.831037  1
  Ag  Ag20  1  0.830374  0.828927  0.510214  1
  Ag  Ag21  1  0.829794  0.510544  0.829410  1
  Ag  Ag22  1  0.509977  0.829193  0.830280  1
  Os  Os23  1  0.389931  0.390721  0.390065  1
