# generated using pymatgen
data_Pr4RhPb2Au3
_symmetry_space_group_name_H-M   'P 1'
_cell_length_a   8.35425936
_cell_length_b   8.35425936
_cell_length_c   3.76820900
_cell_angle_alpha   90.00000000
_cell_angle_beta   90.00000000
_cell_angle_gamma   89.96625730
_symmetry_Int_Tables_number   1
_chemical_formula_structural   Pr4RhPb2Au3
_chemical_formula_sum   'Pr4 Rh1 Pb2 Au3'
_cell_volume   262.99701255
_cell_formula_units_Z   1
loop_
 _symmetry_equiv_pos_site_id
 _symmetry_equiv_pos_as_xyz
  1  'x, y, z'
loop_
 _atom_site_type_symbol
 _atom_site_label
 _atom_site_symmetry_multiplicity
 _atom_site_fract_x
 _atom_site_fract_y
 _atom_site_fract_z
 _atom_site_occupancy
  Pr  Pr0  1  0.346216  0.175080  0.500000  1
  Pr  Pr1  1  0.814720  0.314720  0.500000  1
  Pr  Pr2  1  0.170031  0.670031  0.500000  1
  Pr  Pr3  1  0.675080  0.846216  0.500000  1
  Rh  Rh4  1  0.624528  0.124527  0.000000  1
  Pb  Pb5  1  0.994251  0.004210  0.000000  1
  Pb  Pb6  1  0.504210  0.494251  0.000000  1
  Au  Au7  1  0.121501  0.372859  0.000000  1
  Au  Au8  1  0.872859  0.621502  0.000000  1
  Au  Au9  1  0.376603  0.876603  0.000000  1
