# generated using pymatgen
data_Er8Os3RuC8
_symmetry_space_group_name_H-M   'P 1'
_cell_length_a   5.07217000
_cell_length_b   6.41415321
_cell_length_c   9.72203288
_cell_angle_alpha   89.88525049
_cell_angle_beta   90.00000000
_cell_angle_gamma   90.00000000
_symmetry_Int_Tables_number   1
_chemical_formula_structural   Er8Os3RuC8
_chemical_formula_sum   'Er8 Os3 Ru1 C8'
_cell_volume   316.29282857
_cell_formula_units_Z   1
loop_
 _symmetry_equiv_pos_site_id
 _symmetry_equiv_pos_as_xyz
  1  'x, y, z'
loop_
 _atom_site_type_symbol
 _atom_site_label
 _atom_site_symmetry_multiplicity
 _atom_site_fract_x
 _atom_site_fract_y
 _atom_site_fract_z
 _atom_site_occupancy
  Er  Er0  1  0.250000  0.683061  0.553645  1
  Er  Er1  1  0.750000  0.317194  0.446790  1
  Er  Er2  1  0.750000  0.818108  0.054039  1
  Er  Er3  1  0.250000  0.179301  0.946956  1
  Er  Er4  1  0.250000  0.526808  0.218985  1
  Er  Er5  1  0.750000  0.473406  0.781109  1
  Er  Er6  1  0.750000  0.973816  0.718868  1
  Er  Er7  1  0.250000  0.026195  0.279941  1
  Os  Os8  1  0.750000  0.276196  0.133252  1
  Os  Os9  1  0.750000  0.775414  0.366740  1
  Os  Os10  1  0.250000  0.223784  0.633929  1
  Ru  Ru11  1  0.250000  0.723190  0.866800  1
  C  C12  1  0.250000  0.458981  0.756653  1
  C  C13  1  0.750000  0.539825  0.242083  1
  C  C14  1  0.750000  0.040231  0.258434  1
  C  C15  1  0.250000  0.960360  0.741010  1
  C  C16  1  0.250000  0.828988  0.056141  1
  C  C17  1  0.750000  0.174114  0.944581  1
  C  C18  1  0.750000  0.674406  0.555680  1
  C  C19  1  0.250000  0.326623  0.444366  1
