# generated using pymatgen
data_LaB2IrOs
_symmetry_space_group_name_H-M   'P 1'
_cell_length_a   7.01234221
_cell_length_b   6.13663979
_cell_length_c   5.64865756
_cell_angle_alpha   72.89338908
_cell_angle_beta   56.76228366
_cell_angle_gamma   50.34431022
_symmetry_Int_Tables_number   1
_chemical_formula_structural   LaB2IrOs
_chemical_formula_sum   'La2 B4 Ir2 Os2'
_cell_volume   155.94022372
_cell_formula_units_Z   2
loop_
 _symmetry_equiv_pos_site_id
 _symmetry_equiv_pos_as_xyz
  1  'x, y, z'
loop_
 _atom_site_type_symbol
 _atom_site_label
 _atom_site_symmetry_multiplicity
 _atom_site_fract_x
 _atom_site_fract_y
 _atom_site_fract_z
 _atom_site_occupancy
  La  La0  1  0.000000  0.000000  0.000000  1
  La  La1  1  0.250000  0.250000  0.250000  1
  B  B2  1  0.315840  0.684160  0.315840  1
  B  B3  1  0.684160  0.315840  0.684160  1
  B  B4  1  0.577595  0.922405  0.577595  1
  B  B5  1  0.922405  0.577595  0.922405  1
  Ir  Ir6  1  0.633557  0.633557  0.366443  1
  Ir  Ir7  1  0.366443  0.366443  0.633557  1
  Os  Os8  1  0.614985  0.614985  0.885015  1
  Os  Os9  1  0.885015  0.885015  0.614985  1
