# generated using pymatgen
data_Tb18Er2Si13As3
_symmetry_space_group_name_H-M   'P 1'
_cell_length_a   7.56146521
_cell_length_b   7.62687616
_cell_length_c   14.55197400
_cell_angle_alpha   89.87622639
_cell_angle_beta   89.16695597
_cell_angle_gamma   90.01583761
_symmetry_Int_Tables_number   1
_chemical_formula_structural   Tb18Er2Si13As3
_chemical_formula_sum   'Tb18 Er2 Si13 As3'
_cell_volume   839.12686181
_cell_formula_units_Z   1
loop_
 _symmetry_equiv_pos_site_id
 _symmetry_equiv_pos_as_xyz
  1  'x, y, z'
loop_
 _atom_site_type_symbol
 _atom_site_label
 _atom_site_symmetry_multiplicity
 _atom_site_fract_x
 _atom_site_fract_y
 _atom_site_fract_z
 _atom_site_occupancy
  Tb  Tb0  1  0.786884  0.498304  0.746447  1
  Tb  Tb1  1  0.288352  0.002040  0.751862  1
  Tb  Tb2  1  0.038154  0.824432  0.106428  1
  Tb  Tb3  1  0.524916  0.674199  0.397220  1
  Tb  Tb4  1  0.461451  0.325160  0.893977  1
  Tb  Tb5  1  0.974444  0.180426  0.601858  1
  Tb  Tb6  1  0.970005  0.177884  0.894495  1
  Tb  Tb7  1  0.478468  0.322788  0.600820  1
  Tb  Tb8  1  0.529361  0.677901  0.105427  1
  Tb  Tb9  1  0.020227  0.816747  0.397856  1
  Tb  Tb10  1  0.613375  0.837301  0.883094  1
  Tb  Tb11  1  0.120878  0.663922  0.618402  1
  Tb  Tb12  1  0.887498  0.336899  0.116826  1
  Tb  Tb13  1  0.379090  0.164092  0.382327  1
  Tb  Tb14  1  0.383946  0.164626  0.116836  1
  Tb  Tb15  1  0.878434  0.334899  0.380773  1
  Tb  Tb16  1  0.115972  0.664985  0.883368  1
  Tb  Tb17  1  0.622811  0.835392  0.617613  1
  Er  Er18  1  0.712879  0.998264  0.253859  1
  Er  Er19  1  0.213520  0.500170  0.250849  1
  Si  Si20  1  0.823934  0.628439  0.249536  1
  Si  Si21  1  0.324920  0.871021  0.250719  1
  Si  Si22  1  0.675105  0.128630  0.749720  1
  Si  Si23  1  0.174324  0.372407  0.749342  1
  Si  Si24  1  0.089217  0.110023  0.249527  1
  Si  Si25  1  0.588745  0.388520  0.248130  1
  Si  Si26  1  0.411348  0.611623  0.750404  1
  Si  Si27  1  0.910373  0.890612  0.750713  1
  Si  Si28  1  0.215131  0.466961  0.456487  1
  Si  Si29  1  0.225104  0.475077  0.046418  1
  Si  Si30  1  0.719158  0.031074  0.455318  1
  Si  Si31  1  0.274868  0.974673  0.954711  1
  Si  Si32  1  0.786490  0.533142  0.543006  1
  As  As33  1  0.772009  0.524073  0.954318  1
  As  As34  1  0.281093  0.969634  0.544688  1
  As  As35  1  0.727515  0.023660  0.046627  1
