# generated using pymatgen
data_Dy5Y15Cd6FeNi
_symmetry_space_group_name_H-M   'P 1'
_cell_length_a   9.62277700
_cell_length_b   9.62277732
_cell_length_c   9.81516300
_cell_angle_alpha   90.00000000
_cell_angle_beta   90.00000000
_cell_angle_gamma   119.99999545
_symmetry_Int_Tables_number   1
_chemical_formula_structural   Dy5Y15Cd6FeNi
_chemical_formula_sum   'Dy5 Y15 Cd6 Fe1 Ni1'
_cell_volume   787.09839269
_cell_formula_units_Z   1
loop_
 _symmetry_equiv_pos_site_id
 _symmetry_equiv_pos_as_xyz
  1  'x, y, z'
loop_
 _atom_site_type_symbol
 _atom_site_label
 _atom_site_symmetry_multiplicity
 _atom_site_fract_x
 _atom_site_fract_y
 _atom_site_fract_z
 _atom_site_occupancy
  Dy  Dy0  1  0.000000  0.000000  0.499388  1
  Dy  Dy1  1  0.000000  0.000000  0.000218  1
  Dy  Dy2  1  0.212403  0.787597  0.435860  1
  Dy  Dy3  1  0.212403  0.424807  0.435860  1
  Dy  Dy4  1  0.575193  0.787597  0.435860  1
  Y  Y5  1  0.541546  0.458454  0.250383  1
  Y  Y6  1  0.541546  0.083091  0.250383  1
  Y  Y7  1  0.916909  0.458454  0.250383  1
  Y  Y8  1  0.456437  0.543563  0.749514  1
  Y  Y9  1  0.456437  0.912875  0.749514  1
  Y  Y10  1  0.087125  0.543563  0.749514  1
  Y  Y11  1  0.789392  0.210608  0.562096  1
  Y  Y12  1  0.789392  0.578782  0.562096  1
  Y  Y13  1  0.421218  0.210608  0.562096  1
  Y  Y14  1  0.789244  0.210756  0.937700  1
  Y  Y15  1  0.789244  0.578488  0.937700  1
  Y  Y16  1  0.421512  0.210756  0.937700  1
  Y  Y17  1  0.211816  0.788184  0.063814  1
  Y  Y18  1  0.211816  0.423633  0.063814  1
  Y  Y19  1  0.576367  0.788184  0.063814  1
  Cd  Cd20  1  0.885214  0.114786  0.249829  1
  Cd  Cd21  1  0.885214  0.770428  0.249829  1
  Cd  Cd22  1  0.229572  0.114786  0.249829  1
  Cd  Cd23  1  0.114797  0.885203  0.750207  1
  Cd  Cd24  1  0.114797  0.229594  0.750207  1
  Cd  Cd25  1  0.770406  0.885203  0.750207  1
  Fe  Fe26  1  0.333333  0.666667  0.252490  1
  Ni  Ni27  1  0.666667  0.333333  0.749695  1
