# generated using pymatgen
data_LaTh7AlSe17
_symmetry_space_group_name_H-M   'P 1'
_cell_length_a   8.47350143
_cell_length_b   8.46120172
_cell_length_c   11.20383300
_cell_angle_alpha   80.68923046
_cell_angle_beta   80.50026823
_cell_angle_gamma   64.96723323
_symmetry_Int_Tables_number   1
_chemical_formula_structural   LaTh7AlSe17
_chemical_formula_sum   'La1 Th7 Al1 Se17'
_cell_volume   714.02435113
_cell_formula_units_Z   1
loop_
 _symmetry_equiv_pos_site_id
 _symmetry_equiv_pos_as_xyz
  1  'x, y, z'
loop_
 _atom_site_type_symbol
 _atom_site_label
 _atom_site_symmetry_multiplicity
 _atom_site_fract_x
 _atom_site_fract_y
 _atom_site_fract_z
 _atom_site_occupancy
  La  La0  1  0.813029  0.306418  0.297403  1
  Th  Th1  1  0.304260  0.815900  0.296318  1
  Th  Th2  1  0.184273  0.694774  0.701715  1
  Th  Th3  1  0.696516  0.185199  0.702344  1
  Th  Th4  1  0.204293  0.201857  0.544047  1
  Th  Th5  1  0.796512  0.794568  0.454451  1
  Th  Th6  1  0.680361  0.681049  0.980141  1
  Th  Th7  1  0.316607  0.320012  0.021974  1
  Al  Al8  1  0.999688  0.002498  0.001315  1
  Se  Se9  1  0.824879  0.431596  0.539186  1
  Se  Se10  1  0.432579  0.819239  0.534566  1
  Se  Se11  1  0.178315  0.565819  0.466114  1
  Se  Se12  1  0.568365  0.171668  0.471395  1
  Se  Se13  1  0.946699  0.322437  0.023288  1
  Se  Se14  1  0.321020  0.948168  0.025892  1
  Se  Se15  1  0.053019  0.680490  0.970363  1
  Se  Se16  1  0.679007  0.056405  0.971613  1
  Se  Se17  1  0.221446  0.204199  0.279499  1
  Se  Se18  1  0.789082  0.789673  0.721492  1
  Se  Se19  1  0.055897  0.053054  0.776590  1
  Se  Se20  1  0.949571  0.939552  0.224256  1
  Se  Se21  1  0.302738  0.301935  0.755607  1
  Se  Se22  1  0.691202  0.708227  0.242604  1
  Se  Se23  1  0.518451  0.521344  0.830980  1
  Se  Se24  1  0.470238  0.489389  0.163086  1
  Se  Se25  1  0.001955  0.994530  0.503760  1
