# generated using pymatgen
data_Tb4ZnNi13
_symmetry_space_group_name_H-M   'P 1'
_cell_length_a   4.94420371
_cell_length_b   4.93813366
_cell_length_c   12.47580194
_cell_angle_alpha   78.63850734
_cell_angle_beta   78.57109952
_cell_angle_gamma   59.95932766
_symmetry_Int_Tables_number   1
_chemical_formula_structural   Tb4ZnNi13
_chemical_formula_sum   'Tb4 Zn1 Ni13'
_cell_volume   256.73077753
_cell_formula_units_Z   1
loop_
 _symmetry_equiv_pos_site_id
 _symmetry_equiv_pos_as_xyz
  1  'x, y, z'
loop_
 _atom_site_type_symbol
 _atom_site_label
 _atom_site_symmetry_multiplicity
 _atom_site_fract_x
 _atom_site_fract_y
 _atom_site_fract_z
 _atom_site_occupancy
  Tb  Tb0  1  0.946418  0.948453  0.158712  1
  Tb  Tb1  1  0.053582  0.051547  0.841288  1
  Tb  Tb2  1  0.852372  0.852727  0.442528  1
  Tb  Tb3  1  0.147628  0.147273  0.557472  1
  Zn  Zn4  1  0.500000  0.000000  0.000000  1
  Ni  Ni5  1  0.500000  0.500000  0.500000  1
  Ni  Ni6  1  0.727023  0.712507  0.833448  1
  Ni  Ni7  1  0.272977  0.287493  0.166552  1
  Ni  Ni8  1  0.614944  0.604124  0.165987  1
  Ni  Ni9  1  0.385056  0.395876  0.834013  1
  Ni  Ni10  1  0.000000  0.500000  0.000000  1
  Ni  Ni11  1  0.500000  0.500000  0.000000  1
  Ni  Ni12  1  0.389176  0.391203  0.329843  1
  Ni  Ni13  1  0.889776  0.391203  0.329843  1
  Ni  Ni14  1  0.388908  0.893330  0.328851  1
  Ni  Ni15  1  0.610824  0.608797  0.670157  1
  Ni  Ni16  1  0.110224  0.608797  0.670157  1
  Ni  Ni17  1  0.611092  0.106670  0.671149  1
