# generated using pymatgen
data_Ho6Lu2Ti11Si16Hg
_symmetry_space_group_name_H-M   'P 1'
_cell_length_a   7.05508287
_cell_length_b   7.05719566
_cell_length_c   12.87423341
_cell_angle_alpha   90.14157217
_cell_angle_beta   89.92153218
_cell_angle_gamma   89.61269960
_symmetry_Int_Tables_number   1
_chemical_formula_structural   Ho6Lu2Ti11Si16Hg
_chemical_formula_sum   'Ho6 Lu2 Ti11 Si16 Hg1'
_cell_volume   640.97928011
_cell_formula_units_Z   1
loop_
 _symmetry_equiv_pos_site_id
 _symmetry_equiv_pos_as_xyz
  1  'x, y, z'
loop_
 _atom_site_type_symbol
 _atom_site_label
 _atom_site_symmetry_multiplicity
 _atom_site_fract_x
 _atom_site_fract_y
 _atom_site_fract_z
 _atom_site_occupancy
  Ho  Ho0  1  0.501760  0.156794  0.215211  1
  Ho  Ho1  1  0.840395  0.497655  0.284592  1
  Ho  Ho2  1  0.157106  0.501649  0.784456  1
  Ho  Ho3  1  0.657112  0.000778  0.968227  1
  Ho  Ho4  1  0.001849  0.340921  0.533234  1
  Ho  Ho5  1  0.001112  0.657205  0.031343  1
  Lu  Lu6  1  0.341467  0.000201  0.467089  1
  Lu  Lu7  1  0.498995  0.840777  0.715627  1
  Ti  Ti8  1  0.173992  0.826329  0.251028  1
  Ti  Ti9  1  0.826037  0.173339  0.748995  1
  Ti  Ti10  1  0.671551  0.673283  0.500378  1
  Ti  Ti11  1  0.146994  0.008327  0.876053  1
  Ti  Ti12  1  0.496352  0.650317  0.123166  1
  Ti  Ti13  1  0.505088  0.352217  0.623779  1
  Ti  Ti14  1  0.649269  0.496100  0.876312  1
  Ti  Ti15  1  0.351311  0.506840  0.376811  1
  Ti  Ti16  1  0.850148  0.991209  0.374999  1
  Ti  Ti17  1  0.009490  0.146954  0.123321  1
  Ti  Ti18  1  0.990902  0.850774  0.625422  1
  Si  Si19  1  0.203252  0.131215  0.682782  1
  Si  Si20  1  0.374065  0.726266  0.925501  1
  Si  Si21  1  0.630385  0.292022  0.432354  1
  Si  Si22  1  0.725611  0.373853  0.073207  1
  Si  Si23  1  0.294270  0.634464  0.568615  1
  Si  Si24  1  0.798781  0.866688  0.183255  1
  Si  Si25  1  0.133615  0.200517  0.317292  1
  Si  Si26  1  0.865143  0.798535  0.816631  1
  Si  Si27  1  0.286772  0.932871  0.067360  1
  Si  Si28  1  0.545781  0.791515  0.315313  1
  Si  Si29  1  0.458715  0.204030  0.804760  1
  Si  Si30  1  0.789712  0.547361  0.685285  1
  Si  Si31  1  0.206346  0.458269  0.195080  1
  Si  Si32  1  0.706524  0.046739  0.564046  1
  Si  Si33  1  0.933260  0.286479  0.932364  1
  Si  Si34  1  0.048728  0.709941  0.436423  1
  Hg  Hg35  1  0.328106  0.327563  0.999689  1
