# generated using pymatgen
data_LaPr4Ho(CI5)2
_symmetry_space_group_name_H-M   'P 1'
_cell_length_a   7.96308852
_cell_length_b   9.75542719
_cell_length_c   9.85933357
_cell_angle_alpha   107.11705830
_cell_angle_beta   96.54025980
_cell_angle_gamma   104.53836632
_symmetry_Int_Tables_number   1
_chemical_formula_structural   LaPr4Ho(CI5)2
_chemical_formula_sum   'La1 Pr4 Ho1 C2 I10'
_cell_volume   693.79118488
_cell_formula_units_Z   1
loop_
 _symmetry_equiv_pos_site_id
 _symmetry_equiv_pos_as_xyz
  1  'x, y, z'
loop_
 _atom_site_type_symbol
 _atom_site_label
 _atom_site_symmetry_multiplicity
 _atom_site_fract_x
 _atom_site_fract_y
 _atom_site_fract_z
 _atom_site_occupancy
  La  La0  1  0.376322  0.136006  0.182196  1
  Pr  Pr1  1  0.029145  0.733493  0.921965  1
  Pr  Pr2  1  0.105173  0.038685  0.774981  1
  Pr  Pr3  1  0.966734  0.265400  0.075663  1
  Pr  Pr4  1  0.889684  0.958186  0.222556  1
  Ho  Ho5  1  0.635740  0.869753  0.825072  1
  C  C6  1  0.084986  0.029251  0.040278  1
  C  C7  1  0.910055  0.969509  0.958613  1
  I  I8  1  0.208774  0.737964  0.651022  1
  I  I9  1  0.910531  0.628991  0.179636  1
  I  I10  1  0.087107  0.369459  0.818276  1
  I  I11  1  0.735681  0.911423  0.547083  1
  I  I12  1  0.249683  0.082640  0.463399  1
  I  I13  1  0.647739  0.553277  0.726937  1
  I  I14  1  0.460136  0.806266  0.081103  1
  I  I15  1  0.812448  0.267962  0.359049  1
  I  I16  1  0.343792  0.461650  0.272332  1
  I  I17  1  0.546271  0.180084  0.899841  1
