# generated using pymatgen
data_Tb3Yb6DySi8
_symmetry_space_group_name_H-M   'P 1'
_cell_length_a   7.44310400
_cell_length_b   7.81107500
_cell_length_c   15.15991200
_cell_angle_alpha   90.00092321
_cell_angle_beta   90.00000000
_cell_angle_gamma   90.00000000
_symmetry_Int_Tables_number   1
_chemical_formula_structural   Tb3Yb6DySi8
_chemical_formula_sum   'Tb6 Yb12 Dy2 Si16'
_cell_volume   881.37672037
_cell_formula_units_Z   2
loop_
 _symmetry_equiv_pos_site_id
 _symmetry_equiv_pos_as_xyz
  1  'x, y, z'
loop_
 _atom_site_type_symbol
 _atom_site_label
 _atom_site_symmetry_multiplicity
 _atom_site_fract_x
 _atom_site_fract_y
 _atom_site_fract_z
 _atom_site_occupancy
  Tb  Tb0  1  0.313795  0.177033  0.121014  1
  Tb  Tb1  1  0.813795  0.322967  0.378986  1
  Tb  Tb2  1  0.186206  0.677104  0.878931  1
  Tb  Tb3  1  0.686206  0.822896  0.621069  1
  Tb  Tb4  1  0.313778  0.177039  0.378970  1
  Tb  Tb5  1  0.813778  0.322961  0.121030  1
  Yb  Yb6  1  0.970539  0.815503  0.403122  1
  Yb  Yb7  1  0.470539  0.684497  0.096878  1
  Yb  Yb8  1  0.529453  0.315530  0.596898  1
  Yb  Yb9  1  0.029453  0.184470  0.903102  1
  Yb  Yb10  1  0.029503  0.184491  0.596894  1
  Yb  Yb11  1  0.529503  0.315509  0.903106  1
  Yb  Yb12  1  0.470499  0.684480  0.403121  1
  Yb  Yb13  1  0.970499  0.815520  0.096879  1
  Yb  Yb14  1  0.354821  0.019237  0.749996  1
  Yb  Yb15  1  0.854821  0.480763  0.750004  1
  Yb  Yb16  1  0.145202  0.519287  0.250004  1
  Yb  Yb17  1  0.645202  0.980713  0.249996  1
  Dy  Dy18  1  0.186212  0.676954  0.621057  1
  Dy  Dy19  1  0.686212  0.823046  0.878943  1
  Si  Si20  1  0.859013  0.533089  0.538562  1
  Si  Si21  1  0.359013  0.966911  0.961438  1
  Si  Si22  1  0.641120  0.033001  0.461482  1
  Si  Si23  1  0.141120  0.466999  0.038518  1
  Si  Si24  1  0.141184  0.467071  0.461555  1
  Si  Si25  1  0.641184  0.032929  0.038445  1
  Si  Si26  1  0.358718  0.966868  0.538571  1
  Si  Si27  1  0.858718  0.533132  0.961429  1
  Si  Si28  1  0.978523  0.885503  0.750030  1
  Si  Si29  1  0.478523  0.614497  0.749970  1
  Si  Si30  1  0.521487  0.385659  0.249999  1
  Si  Si31  1  0.021487  0.114341  0.250001  1
  Si  Si32  1  0.249340  0.393868  0.749951  1
  Si  Si33  1  0.749340  0.106132  0.750049  1
  Si  Si34  1  0.250606  0.893776  0.250001  1
  Si  Si35  1  0.750606  0.606224  0.249999  1
