# generated using pymatgen
data_Ho2ErPa(VB4)4
_symmetry_space_group_name_H-M   'P 1'
_cell_length_a   3.47430300
_cell_length_b   5.99162337
_cell_length_c   11.59349015
_cell_angle_alpha   89.88830599
_cell_angle_beta   90.00000000
_cell_angle_gamma   90.00000000
_symmetry_Int_Tables_number   1
_chemical_formula_structural   Ho2ErPa(VB4)4
_chemical_formula_sum   'Ho2 Er1 Pa1 V4 B16'
_cell_volume   241.33792233
_cell_formula_units_Z   1
loop_
 _symmetry_equiv_pos_site_id
 _symmetry_equiv_pos_as_xyz
  1  'x, y, z'
loop_
 _atom_site_type_symbol
 _atom_site_label
 _atom_site_symmetry_multiplicity
 _atom_site_fract_x
 _atom_site_fract_y
 _atom_site_fract_z
 _atom_site_occupancy
  Ho  Ho0  1  0.500000  0.874476  0.152135  1
  Ho  Ho1  1  0.500000  0.623012  0.649008  1
  Er  Er2  1  0.500000  0.375339  0.349462  1
  Pa  Pa3  1  0.500000  0.125957  0.848828  1
  V  V4  1  0.500000  0.126225  0.584020  1
  V  V5  1  0.500000  0.872313  0.417240  1
  V  V6  1  0.500000  0.628274  0.916214  1
  V  V7  1  0.500000  0.372139  0.082275  1
  B  B8  1  0.000000  0.285064  0.684994  1
  B  B9  1  0.000000  0.713421  0.314166  1
  B  B10  1  0.000000  0.784944  0.814725  1
  B  B11  1  0.000000  0.215571  0.186804  1
  B  B12  1  0.000000  0.365000  0.531804  1
  B  B13  1  0.000000  0.634785  0.467015  1
  B  B14  1  0.000000  0.865252  0.967701  1
  B  B15  1  0.000000  0.136940  0.033082  1
  B  B16  1  0.000000  0.023721  0.307413  1
  B  B17  1  0.000000  0.976173  0.691213  1
  B  B18  1  0.000000  0.522797  0.193580  1
  B  B19  1  0.000000  0.475299  0.808219  1
  B  B20  1  0.000000  0.114990  0.452131  1
  B  B21  1  0.000000  0.885219  0.546335  1
  B  B22  1  0.000000  0.615017  0.048071  1
  B  B23  1  0.000000  0.388069  0.953566  1
