# generated using pymatgen
data_EuFe3P12Pt
_symmetry_space_group_name_H-M   'P 1'
_cell_length_a   6.81585255
_cell_length_b   6.82410710
_cell_length_c   6.82410762
_cell_angle_alpha   109.49572071
_cell_angle_beta   109.44673113
_cell_angle_gamma   109.44670372
_symmetry_Int_Tables_number   1
_chemical_formula_structural   EuFe3P12Pt
_chemical_formula_sum   'Eu1 Fe3 P12 Pt1'
_cell_volume   244.41125273
_cell_formula_units_Z   1
loop_
 _symmetry_equiv_pos_site_id
 _symmetry_equiv_pos_as_xyz
  1  'x, y, z'
loop_
 _atom_site_type_symbol
 _atom_site_label
 _atom_site_symmetry_multiplicity
 _atom_site_fract_x
 _atom_site_fract_y
 _atom_site_fract_z
 _atom_site_occupancy
  Eu  Eu0  1  0.000000  0.000000  0.000000  1
  Fe  Fe1  1  0.000000  0.000000  0.500000  1
  Fe  Fe2  1  0.000000  0.500000  0.000000  1
  Fe  Fe3  1  0.500000  0.500000  0.500000  1
  P  P4  1  0.500022  0.842090  0.629152  1
  P  P5  1  0.198637  0.850530  0.349467  1
  P  P6  1  0.801363  0.149470  0.650533  1
  P  P7  1  0.150830  0.349467  0.498936  1
  P  P8  1  0.348106  0.498936  0.149470  1
  P  P9  1  0.499978  0.157910  0.370848  1
  P  P10  1  0.129130  0.629152  0.787062  1
  P  P11  1  0.342067  0.212938  0.842090  1
  P  P12  1  0.849170  0.650533  0.501064  1
  P  P13  1  0.657933  0.787062  0.157910  1
  P  P14  1  0.870870  0.370848  0.212938  1
  P  P15  1  0.651894  0.501064  0.850530  1
  Pt  Pt16  1  0.500000  0.000000  0.000000  1
