# generated using pymatgen
data_Ac3La3Zn4Pd12Rh
_symmetry_space_group_name_H-M   'P 1'
_cell_length_a   8.53963067
_cell_length_b   8.53962943
_cell_length_c   8.52803300
_cell_angle_alpha   109.44370997
_cell_angle_beta   109.44370703
_cell_angle_gamma   109.49871980
_symmetry_Int_Tables_number   1
_chemical_formula_structural   Ac3La3Zn4Pd12Rh
_chemical_formula_sum   'Ac3 La3 Zn4 Pd12 Rh1'
_cell_volume   478.90837945
_cell_formula_units_Z   1
loop_
 _symmetry_equiv_pos_site_id
 _symmetry_equiv_pos_as_xyz
  1  'x, y, z'
loop_
 _atom_site_type_symbol
 _atom_site_label
 _atom_site_symmetry_multiplicity
 _atom_site_fract_x
 _atom_site_fract_y
 _atom_site_fract_z
 _atom_site_occupancy
  Ac  Ac0  1  0.298608  0.298608  0.001436  1
  Ac  Ac1  1  0.701392  0.000000  0.702828  1
  Ac  Ac2  1  0.000000  0.701392  0.702828  1
  La  La3  1  0.699644  0.699644  0.000863  1
  La  La4  1  0.300356  0.000000  0.301218  1
  La  La5  1  0.000000  0.300356  0.301218  1
  Zn  Zn6  1  0.000000  0.000000  0.493547  1
  Zn  Zn7  1  0.000000  0.502362  0.000841  1
  Zn  Zn8  1  0.502362  0.000000  0.000841  1
  Zn  Zn9  1  0.497638  0.497638  0.498478  1
  Pd  Pd10  1  0.331691  0.331691  0.660715  1
  Pd  Pd11  1  0.668309  0.000000  0.329025  1
  Pd  Pd12  1  0.000000  0.668309  0.329025  1
  Pd  Pd13  1  0.670084  0.332026  0.999270  1
  Pd  Pd14  1  0.329916  0.661940  0.329186  1
  Pd  Pd15  1  0.000000  0.330070  0.666943  1
  Pd  Pd16  1  0.332026  0.670084  0.999270  1
  Pd  Pd17  1  0.330070  0.000000  0.666943  1
  Pd  Pd18  1  0.661940  0.329916  0.329186  1
  Pd  Pd19  1  0.669930  0.669930  0.336874  1
  Pd  Pd20  1  0.667974  0.338060  0.667244  1
  Pd  Pd21  1  0.338060  0.667974  0.667244  1
  Rh  Rh22  1  0.000000  0.000000  0.014971  1
