# generated using pymatgen
data_Cs2ZrZnTe4
_symmetry_space_group_name_H-M   'P 1'
_cell_length_a   15.82247331
_cell_length_b   14.11451724
_cell_length_c   8.51638388
_cell_angle_alpha   84.89360343
_cell_angle_beta   62.68717794
_cell_angle_gamma   32.41920674
_symmetry_Int_Tables_number   1
_chemical_formula_structural   Cs2ZrZnTe4
_chemical_formula_sum   'Cs4 Zr2 Zn2 Te8'
_cell_volume   706.28129228
_cell_formula_units_Z   2
loop_
 _symmetry_equiv_pos_site_id
 _symmetry_equiv_pos_as_xyz
  1  'x, y, z'
loop_
 _atom_site_type_symbol
 _atom_site_label
 _atom_site_symmetry_multiplicity
 _atom_site_fract_x
 _atom_site_fract_y
 _atom_site_fract_z
 _atom_site_occupancy
  Cs  Cs0  1  0.817364  0.817364  0.182636  1
  Cs  Cs1  1  0.182636  0.182636  0.817364  1
  Cs  Cs2  1  0.432636  0.432636  0.067364  1
  Cs  Cs3  1  0.067364  0.067364  0.432636  1
  Zr  Zr4  1  0.250000  0.250000  0.250000  1
  Zr  Zr5  1  0.000000  0.000000  0.000000  1
  Zn  Zn6  1  0.750000  0.750000  0.750000  1
  Zn  Zn7  1  0.500000  0.500000  0.500000  1
  Te  Te8  1  0.409762  0.703663  0.787137  1
  Te  Te9  1  0.099439  0.787137  0.703663  1
  Te  Te10  1  0.787137  0.099439  0.409762  1
  Te  Te11  1  0.703663  0.409762  0.099439  1
  Te  Te12  1  0.840238  0.546337  0.462863  1
  Te  Te13  1  0.150561  0.462863  0.546337  1
  Te  Te14  1  0.462863  0.150561  0.840238  1
  Te  Te15  1  0.546337  0.840238  0.150561  1
