# generated using pymatgen
data_K2Hf(TeO4)3
_symmetry_space_group_name_H-M   'P 1'
_cell_length_a   7.30652290
_cell_length_b   7.30678665
_cell_length_c   7.37962705
_cell_angle_alpha   90.00000288
_cell_angle_beta   60.32961264
_cell_angle_gamma   120.00119754
_symmetry_Int_Tables_number   1
_chemical_formula_structural   K2Hf(TeO4)3
_chemical_formula_sum   'K2 Hf1 Te3 O12'
_cell_volume   279.95913544
_cell_formula_units_Z   1
loop_
 _symmetry_equiv_pos_site_id
 _symmetry_equiv_pos_as_xyz
  1  'x, y, z'
loop_
 _atom_site_type_symbol
 _atom_site_label
 _atom_site_symmetry_multiplicity
 _atom_site_fract_x
 _atom_site_fract_y
 _atom_site_fract_z
 _atom_site_occupancy
  K  K0  1  0.255227  0.131561  0.117040  1
  K  K1  1  0.744773  0.876334  0.882960  1
  Hf  Hf2  1  0.000000  0.503730  0.000000  1
  Te  Te3  1  0.499992  0.003789  0.500013  1
  Te  Te4  1  0.500008  0.503797  0.499987  1
  Te  Te5  1  0.000000  0.503812  0.500000  1
  O  O6  1  0.644609  0.826076  0.431344  1
  O  O7  1  0.860616  0.434027  0.806182  1
  O  O8  1  0.263520  0.836935  0.806189  1
  O  O9  1  0.246350  0.427818  0.431320  1
  O  O10  1  0.263488  0.434021  0.806174  1
  O  O11  1  0.246342  0.826075  0.431371  1
  O  O12  1  0.355391  0.181467  0.568656  1
  O  O13  1  0.139384  0.573411  0.193818  1
  O  O14  1  0.736512  0.170532  0.193826  1
  O  O15  1  0.753658  0.579732  0.568629  1
  O  O16  1  0.736480  0.573416  0.193811  1
  O  O17  1  0.753650  0.181467  0.568680  1
