# generated using pymatgen
data_Ho2Si6As(IrRh)6
_symmetry_space_group_name_H-M   'P 1'
_cell_length_a   9.79429400
_cell_length_b   9.79429537
_cell_length_c   3.87047300
_cell_angle_alpha   90.00000000
_cell_angle_beta   90.00000000
_cell_angle_gamma   119.99999537
_symmetry_Int_Tables_number   1
_chemical_formula_structural   Ho2Si6As(IrRh)6
_chemical_formula_sum   'Ho2 Si6 As1 Ir6 Rh6'
_cell_volume   321.54445721
_cell_formula_units_Z   1
loop_
 _symmetry_equiv_pos_site_id
 _symmetry_equiv_pos_as_xyz
  1  'x, y, z'
loop_
 _atom_site_type_symbol
 _atom_site_label
 _atom_site_symmetry_multiplicity
 _atom_site_fract_x
 _atom_site_fract_y
 _atom_site_fract_z
 _atom_site_occupancy
  Ho  Ho0  1  0.333333  0.666667  0.249436  1
  Ho  Ho1  1  0.666667  0.333333  0.750564  1
  Si  Si2  1  0.404278  0.113545  0.248661  1
  Si  Si3  1  0.709267  0.595722  0.248661  1
  Si  Si4  1  0.886455  0.290733  0.248661  1
  Si  Si5  1  0.595722  0.886455  0.751339  1
  Si  Si6  1  0.290733  0.404278  0.751339  1
  Si  Si7  1  0.113545  0.709267  0.751339  1
  As  As8  1  0.000000  0.000000  0.500000  1
  Ir  Ir9  1  0.444712  0.380493  0.249345  1
  Ir  Ir10  1  0.935781  0.555288  0.249345  1
  Ir  Ir11  1  0.619507  0.064219  0.249345  1
  Ir  Ir12  1  0.555288  0.619507  0.750655  1
  Ir  Ir13  1  0.064219  0.444712  0.750655  1
  Ir  Ir14  1  0.380493  0.935781  0.750655  1
  Rh  Rh15  1  0.146411  0.881365  0.250421  1
  Rh  Rh16  1  0.734955  0.853589  0.250421  1
  Rh  Rh17  1  0.118635  0.265045  0.250421  1
  Rh  Rh18  1  0.853589  0.118635  0.749579  1
  Rh  Rh19  1  0.265045  0.146411  0.749579  1
  Rh  Rh20  1  0.881365  0.734955  0.749579  1
