# generated using pymatgen
data_Hf3Ga2Re2SiRh
_symmetry_space_group_name_H-M   'P 1'
_cell_length_a   7.07269417
_cell_length_b   7.07269473
_cell_length_c   3.41716900
_cell_angle_alpha   90.00000000
_cell_angle_beta   90.00000000
_cell_angle_gamma   120.29329231
_symmetry_Int_Tables_number   1
_chemical_formula_structural   Hf3Ga2Re2SiRh
_chemical_formula_sum   'Hf3 Ga2 Re2 Si1 Rh1'
_cell_volume   147.59639941
_cell_formula_units_Z   1
loop_
 _symmetry_equiv_pos_site_id
 _symmetry_equiv_pos_as_xyz
  1  'x, y, z'
loop_
 _atom_site_type_symbol
 _atom_site_label
 _atom_site_symmetry_multiplicity
 _atom_site_fract_x
 _atom_site_fract_y
 _atom_site_fract_z
 _atom_site_occupancy
  Hf  Hf0  1  0.387391  0.387391  0.500000  1
  Hf  Hf1  1  0.599555  0.009295  0.500000  1
  Hf  Hf2  1  0.009295  0.599555  0.500000  1
  Ga  Ga3  1  0.667889  0.341044  0.000000  1
  Ga  Ga4  1  0.341044  0.667889  0.000000  1
  Re  Re5  1  0.249930  0.998432  0.000000  1
  Re  Re6  1  0.998432  0.249930  0.000000  1
  Si  Si7  1  0.993425  0.993425  0.500000  1
  Rh  Rh8  1  0.753039  0.753039  0.000000  1
