# generated using pymatgen
data_Nd3Dy(Sc3Sn4)2
_symmetry_space_group_name_H-M   'P 1'
_cell_length_a   7.78973171
_cell_length_b   8.02824285
_cell_length_c   14.97428777
_cell_angle_alpha   89.95092242
_cell_angle_beta   89.95055847
_cell_angle_gamma   90.10062535
_symmetry_Int_Tables_number   1
_chemical_formula_structural   Nd3Dy(Sc3Sn4)2
_chemical_formula_sum   'Nd6 Dy2 Sc12 Sn16'
_cell_volume   936.45774350
_cell_formula_units_Z   2
loop_
 _symmetry_equiv_pos_site_id
 _symmetry_equiv_pos_as_xyz
  1  'x, y, z'
loop_
 _atom_site_type_symbol
 _atom_site_label
 _atom_site_symmetry_multiplicity
 _atom_site_fract_x
 _atom_site_fract_y
 _atom_site_fract_z
 _atom_site_occupancy
  Nd  Nd0  1  0.995750  0.175214  0.095270  1
  Nd  Nd1  1  0.004250  0.824786  0.904730  1
  Nd  Nd2  1  0.503644  0.675096  0.905917  1
  Nd  Nd3  1  0.003538  0.824237  0.593998  1
  Nd  Nd4  1  0.496356  0.324904  0.094083  1
  Nd  Nd5  1  0.996462  0.175763  0.406002  1
  Dy  Dy6  1  0.494846  0.323590  0.405220  1
  Dy  Dy7  1  0.505154  0.676410  0.594780  1
  Sc  Sc8  1  0.164732  0.495697  0.749614  1
  Sc  Sc9  1  0.835268  0.504303  0.250386  1
  Sc  Sc10  1  0.335910  0.995275  0.250471  1
  Sc  Sc11  1  0.664090  0.004725  0.749529  1
  Sc  Sc12  1  0.336276  0.162803  0.627467  1
  Sc  Sc13  1  0.663724  0.837197  0.372533  1
  Sc  Sc14  1  0.165010  0.661371  0.372917  1
  Sc  Sc15  1  0.664395  0.838250  0.128042  1
  Sc  Sc16  1  0.834990  0.338629  0.627083  1
  Sc  Sc17  1  0.335605  0.161750  0.871958  1
  Sc  Sc18  1  0.835389  0.337779  0.872170  1
  Sc  Sc19  1  0.164611  0.662221  0.127830  1
  Sn  Sn20  1  0.027081  0.128339  0.749678  1
  Sn  Sn21  1  0.972919  0.871661  0.250322  1
  Sn  Sn22  1  0.473004  0.626577  0.250510  1
  Sn  Sn23  1  0.526996  0.373423  0.749490  1
  Sn  Sn24  1  0.308778  0.853291  0.748317  1
  Sn  Sn25  1  0.691222  0.146709  0.251683  1
  Sn  Sn26  1  0.195207  0.354834  0.251049  1
  Sn  Sn27  1  0.804793  0.645166  0.748951  1
  Sn  Sn28  1  0.182392  0.457583  0.542823  1
  Sn  Sn29  1  0.817608  0.542417  0.457177  1
  Sn  Sn30  1  0.326409  0.956965  0.456944  1
  Sn  Sn31  1  0.824986  0.543925  0.043221  1
  Sn  Sn32  1  0.673591  0.043035  0.543056  1
  Sn  Sn33  1  0.175014  0.456075  0.956779  1
  Sn  Sn34  1  0.675752  0.043559  0.956822  1
  Sn  Sn35  1  0.324248  0.956441  0.043178  1
