# generated using pymatgen
data_Tm2Zr4Pb5
_symmetry_space_group_name_H-M   'P 1'
_cell_length_a   6.08066475
_cell_length_b   9.16203809
_cell_length_c   11.37994400
_cell_angle_alpha   113.73782206
_cell_angle_beta   105.49568811
_cell_angle_gamma   90.00000647
_symmetry_Int_Tables_number   1
_chemical_formula_structural   Tm2Zr4Pb5
_chemical_formula_sum   'Tm4 Zr8 Pb10'
_cell_volume   555.08611636
_cell_formula_units_Z   2
loop_
 _symmetry_equiv_pos_site_id
 _symmetry_equiv_pos_as_xyz
  1  'x, y, z'
loop_
 _atom_site_type_symbol
 _atom_site_label
 _atom_site_symmetry_multiplicity
 _atom_site_fract_x
 _atom_site_fract_y
 _atom_site_fract_z
 _atom_site_occupancy
  Tm  Tm0  1  0.143817  0.254108  0.287634  1
  Tm  Tm1  1  0.856183  0.745892  0.712366  1
  Tm  Tm2  1  0.643817  0.033526  0.287634  1
  Tm  Tm3  1  0.356183  0.966474  0.712366  1
  Zr  Zr4  1  0.562135  0.312135  0.624268  1
  Zr  Zr5  1  0.437865  0.687865  0.375732  1
  Zr  Zr6  1  0.937865  0.687865  0.375732  1
  Zr  Zr7  1  0.062135  0.312135  0.624268  1
  Zr  Zr8  1  0.434507  0.672157  0.869015  1
  Zr  Zr9  1  0.565493  0.327843  0.130985  1
  Zr  Zr10  1  0.934507  0.196857  0.869015  1
  Zr  Zr11  1  0.065493  0.803143  0.130985  1
  Pb  Pb12  1  0.288691  0.590508  0.577382  1
  Pb  Pb13  1  0.711309  0.409492  0.422618  1
  Pb  Pb14  1  0.788691  0.986874  0.577382  1
  Pb  Pb15  1  0.211309  0.013126  0.422618  1
  Pb  Pb16  1  0.250000  0.000000  0.000000  1
  Pb  Pb17  1  0.750000  0.000000  0.000000  1
  Pb  Pb18  1  0.067070  0.461273  0.134140  1
  Pb  Pb19  1  0.932930  0.538727  0.865860  1
  Pb  Pb20  1  0.567070  0.672867  0.134140  1
  Pb  Pb21  1  0.432930  0.327133  0.865860  1
