# generated using pymatgen
data_Pu7SbF30
_symmetry_space_group_name_H-M   'P 1'
_cell_length_a   8.46872645
_cell_length_b   8.49680255
_cell_length_c   8.46872700
_cell_angle_alpha   100.61164004
_cell_angle_beta   100.32181919
_cell_angle_gamma   100.61163980
_symmetry_Int_Tables_number   1
_chemical_formula_structural   Pu7SbF30
_chemical_formula_sum   'Pu7 Sb1 F30'
_cell_volume   574.22051518
_cell_formula_units_Z   1
loop_
 _symmetry_equiv_pos_site_id
 _symmetry_equiv_pos_as_xyz
  1  'x, y, z'
loop_
 _atom_site_type_symbol
 _atom_site_label
 _atom_site_symmetry_multiplicity
 _atom_site_fract_x
 _atom_site_fract_y
 _atom_site_fract_z
 _atom_site_occupancy
  Pu  Pu0  1  0.252951  0.250000  0.247049  1
  Pu  Pu1  1  0.183836  0.750000  0.316164  1
  Pu  Pu2  1  0.248976  0.680196  0.818032  1
  Pu  Pu3  1  0.681968  0.819804  0.251024  1
  Pu  Pu4  1  0.751171  0.750000  0.748829  1
  Pu  Pu5  1  0.323493  0.180135  0.745306  1
  Pu  Pu6  1  0.754694  0.319865  0.176507  1
  Sb  Sb7  1  0.828342  0.250000  0.671658  1
  F  F8  1  0.966515  0.536496  0.257421  1
  F  F9  1  0.827359  0.341958  0.451869  1
  F  F10  1  0.486025  0.719799  0.710330  1
  F  F11  1  0.346061  0.452048  0.832835  1
  F  F12  1  0.016487  0.793275  0.779615  1
  F  F13  1  0.758033  0.031808  0.469914  1
  F  F14  1  0.954177  0.848352  0.327466  1
  F  F15  1  0.208096  0.217345  0.984050  1
  F  F16  1  0.775303  0.006897  0.792463  1
  F  F17  1  0.329903  0.953446  0.851647  1
  F  F18  1  0.275174  0.296649  0.510906  1
  F  F19  1  0.457137  0.831011  0.359925  1
  F  F20  1  0.531911  0.250000  0.968089  1
  F  F21  1  0.290615  0.513233  0.274735  1
  F  F22  1  0.140075  0.668989  0.042863  1
  F  F23  1  0.859409  0.329271  0.962163  1
  F  F24  1  0.707537  0.493103  0.724697  1
  F  F25  1  0.457702  0.750000  0.042298  1
  F  F26  1  0.537837  0.170729  0.640591  1
  F  F27  1  0.720385  0.706725  0.483513  1
  F  F28  1  0.667165  0.047952  0.153939  1
  F  F29  1  0.225265  0.986767  0.209385  1
  F  F30  1  0.789670  0.780201  0.013975  1
  F  F31  1  0.048131  0.158042  0.672641  1
  F  F32  1  0.242579  0.963504  0.533485  1
  F  F33  1  0.989094  0.203351  0.224826  1
  F  F34  1  0.648353  0.546554  0.170097  1
  F  F35  1  0.515950  0.282655  0.291904  1
  F  F36  1  0.172534  0.651648  0.545823  1
  F  F37  1  0.030086  0.468192  0.741967  1
