# generated using pymatgen
data_Tb6MgZn22Ge
_symmetry_space_group_name_H-M   'P 1'
_cell_length_a   9.13625757
_cell_length_b   9.13496036
_cell_length_c   9.13512600
_cell_angle_alpha   60.00811250
_cell_angle_beta   59.99494382
_cell_angle_gamma   59.99657599
_symmetry_Int_Tables_number   1
_chemical_formula_structural   Tb6MgZn22Ge
_chemical_formula_sum   'Tb6 Mg1 Zn22 Ge1'
_cell_volume   539.10495749
_cell_formula_units_Z   1
loop_
 _symmetry_equiv_pos_site_id
 _symmetry_equiv_pos_as_xyz
  1  'x, y, z'
loop_
 _atom_site_type_symbol
 _atom_site_label
 _atom_site_symmetry_multiplicity
 _atom_site_fract_x
 _atom_site_fract_y
 _atom_site_fract_z
 _atom_site_occupancy
  Tb  Tb0  1  0.718065  0.281935  0.281935  1
  Tb  Tb1  1  0.281935  0.718065  0.718065  1
  Tb  Tb2  1  0.281952  0.718038  0.281963  1
  Tb  Tb3  1  0.718048  0.281962  0.718037  1
  Tb  Tb4  1  0.281965  0.281966  0.718034  1
  Tb  Tb5  1  0.718035  0.718034  0.281966  1
  Mg  Mg6  1  0.000000  0.000000  0.000000  1
  Zn  Zn7  1  0.129814  0.129790  0.129787  1
  Zn  Zn8  1  0.870186  0.870210  0.870213  1
  Zn  Zn9  1  0.129781  0.129813  0.610614  1
  Zn  Zn10  1  0.129793  0.610614  0.129814  1
  Zn  Zn11  1  0.870219  0.870187  0.389386  1
  Zn  Zn12  1  0.870207  0.389386  0.870186  1
  Zn  Zn13  1  0.610611  0.129786  0.129789  1
  Zn  Zn14  1  0.389389  0.870214  0.870211  1
  Zn  Zn15  1  0.500000  0.000000  0.000000  1
  Zn  Zn16  1  0.000000  0.500000  0.500000  1
  Zn  Zn17  1  0.000000  0.500000  0.000000  1
  Zn  Zn18  1  0.500000  0.000000  0.500000  1
  Zn  Zn19  1  0.000000  0.000000  0.500000  1
  Zn  Zn20  1  0.500000  0.500000  0.000000  1
  Zn  Zn21  1  0.331929  0.331923  0.331990  1
  Zn  Zn22  1  0.668071  0.668077  0.668010  1
  Zn  Zn23  1  0.331944  0.331928  0.004154  1
  Zn  Zn24  1  0.331975  0.004154  0.331928  1
  Zn  Zn25  1  0.668056  0.668072  0.995846  1
  Zn  Zn26  1  0.668025  0.995846  0.668072  1
  Zn  Zn27  1  0.004160  0.331990  0.331923  1
  Zn  Zn28  1  0.995840  0.668010  0.668077  1
  Ge  Ge29  1  0.500000  0.500000  0.500000  1
