# generated using pymatgen
data_Ho3Er2Tm3(Si3Rh)4
_symmetry_space_group_name_H-M   'P 1'
_cell_length_a   8.14794802
_cell_length_b   8.14794880
_cell_length_c   7.82000400
_cell_angle_alpha   90.00000000
_cell_angle_beta   90.00000000
_cell_angle_gamma   120.00991425
_symmetry_Int_Tables_number   1
_chemical_formula_structural   Ho3Er2Tm3(Si3Rh)4
_chemical_formula_sum   'Ho3 Er2 Tm3 Si12 Rh4'
_cell_volume   449.56319812
_cell_formula_units_Z   1
loop_
 _symmetry_equiv_pos_site_id
 _symmetry_equiv_pos_as_xyz
  1  'x, y, z'
loop_
 _atom_site_type_symbol
 _atom_site_label
 _atom_site_symmetry_multiplicity
 _atom_site_fract_x
 _atom_site_fract_y
 _atom_site_fract_z
 _atom_site_occupancy
  Ho  Ho0  1  0.000070  0.999930  0.250000  1
  Ho  Ho1  1  0.999963  0.000037  0.750000  1
  Ho  Ho2  1  0.491279  0.508721  0.250000  1
  Er  Er3  1  0.491349  0.982857  0.250000  1
  Er  Er4  1  0.017143  0.508651  0.250000  1
  Tm  Tm5  1  0.508752  0.491248  0.750000  1
  Tm  Tm6  1  0.982437  0.491163  0.750000  1
  Tm  Tm7  1  0.508837  0.017563  0.750000  1
  Si  Si8  1  0.833042  0.166958  0.501368  1
  Si  Si9  1  0.832999  0.665955  0.501569  1
  Si  Si10  1  0.334045  0.167001  0.501569  1
  Si  Si11  1  0.833042  0.166958  0.998632  1
  Si  Si12  1  0.832999  0.665955  0.998431  1
  Si  Si13  1  0.334045  0.167001  0.998431  1
  Si  Si14  1  0.167112  0.832888  0.000565  1
  Si  Si15  1  0.665755  0.832942  0.000194  1
  Si  Si16  1  0.167058  0.334245  0.000194  1
  Si  Si17  1  0.167112  0.832888  0.499435  1
  Si  Si18  1  0.665755  0.832942  0.499806  1
  Si  Si19  1  0.167058  0.334245  0.499806  1
  Rh  Rh20  1  0.666828  0.333172  0.467317  1
  Rh  Rh21  1  0.666828  0.333172  0.032683  1
  Rh  Rh22  1  0.333245  0.666755  0.963330  1
  Rh  Rh23  1  0.333245  0.666755  0.536670  1
