# generated using pymatgen
data_Cs3KTiSe4
_symmetry_space_group_name_H-M   'P 1'
_cell_length_a   8.82041100
_cell_length_b   10.52799500
_cell_length_c   15.63915800
_cell_angle_alpha   90.00000000
_cell_angle_beta   90.00000000
_cell_angle_gamma   90.00000000
_symmetry_Int_Tables_number   1
_chemical_formula_structural   Cs3KTiSe4
_chemical_formula_sum   'Cs12 K4 Ti4 Se16'
_cell_volume   1452.27164988
_cell_formula_units_Z   4
loop_
 _symmetry_equiv_pos_site_id
 _symmetry_equiv_pos_as_xyz
  1  'x, y, z'
loop_
 _atom_site_type_symbol
 _atom_site_label
 _atom_site_symmetry_multiplicity
 _atom_site_fract_x
 _atom_site_fract_y
 _atom_site_fract_z
 _atom_site_occupancy
  Cs  Cs0  1  0.000360  0.991857  0.996933  1
  Cs  Cs1  1  0.500360  0.008143  0.503067  1
  Cs  Cs2  1  0.999640  0.491857  0.003067  1
  Cs  Cs3  1  0.499640  0.508143  0.496933  1
  Cs  Cs4  1  0.993910  0.758048  0.425724  1
  Cs  Cs5  1  0.493910  0.241952  0.074276  1
  Cs  Cs6  1  0.006090  0.258048  0.574276  1
  Cs  Cs7  1  0.506090  0.741952  0.925724  1
  Cs  Cs8  1  0.824142  0.060659  0.281510  1
  Cs  Cs9  1  0.324142  0.939341  0.218490  1
  Cs  Cs10  1  0.175858  0.560659  0.718490  1
  Cs  Cs11  1  0.675858  0.439341  0.781510  1
  K  K12  1  0.153675  0.953071  0.727862  1
  K  K13  1  0.653675  0.046929  0.772138  1
  K  K14  1  0.846325  0.453071  0.272138  1
  K  K15  1  0.346325  0.546929  0.227862  1
  Ti  Ti16  1  0.765334  0.761112  0.672267  1
  Ti  Ti17  1  0.234666  0.261112  0.327733  1
  Ti  Ti18  1  0.734666  0.738888  0.172267  1
  Ti  Ti19  1  0.265334  0.238888  0.827733  1
  Se  Se20  1  0.990841  0.230917  0.819840  1
  Se  Se21  1  0.509159  0.269083  0.319840  1
  Se  Se22  1  0.490841  0.769083  0.680160  1
  Se  Se23  1  0.009159  0.730917  0.180160  1
  Se  Se24  1  0.643735  0.553397  0.100222  1
  Se  Se25  1  0.143735  0.446603  0.399778  1
  Se  Se26  1  0.356265  0.053397  0.899778  1
  Se  Se27  1  0.856265  0.946603  0.600222  1
  Se  Se28  1  0.344308  0.424375  0.904444  1
  Se  Se29  1  0.844308  0.575625  0.595556  1
  Se  Se30  1  0.655692  0.924375  0.095556  1
  Se  Se31  1  0.155692  0.075625  0.404444  1
  Se  Se32  1  0.625534  0.740331  0.314805  1
  Se  Se33  1  0.125534  0.259669  0.185195  1
  Se  Se34  1  0.374466  0.240331  0.685195  1
  Se  Se35  1  0.874466  0.759669  0.814805  1
