# generated using pymatgen
data_Ho3Zn2In
_symmetry_space_group_name_H-M   'P 1'
_cell_length_a   3.53690100
_cell_length_b   3.53690100
_cell_length_c   11.39624100
_cell_angle_alpha   90.00000000
_cell_angle_beta   90.00000000
_cell_angle_gamma   90.00000000
_symmetry_Int_Tables_number   1
_chemical_formula_structural   Ho3Zn2In
_chemical_formula_sum   'Ho3 Zn2 In1'
_cell_volume   142.56319915
_cell_formula_units_Z   1
loop_
 _symmetry_equiv_pos_site_id
 _symmetry_equiv_pos_as_xyz
  1  'x, y, z'
loop_
 _atom_site_type_symbol
 _atom_site_label
 _atom_site_symmetry_multiplicity
 _atom_site_fract_x
 _atom_site_fract_y
 _atom_site_fract_z
 _atom_site_occupancy
  Ho  Ho0  1  0.000000  0.000000  0.000000  1
  Ho  Ho1  1  0.000000  0.000000  0.312316  1
  Ho  Ho2  1  0.000000  0.000000  0.687684  1
  Zn  Zn3  1  0.500001  0.500001  0.153019  1
  Zn  Zn4  1  0.500001  0.500001  0.846981  1
  In  In5  1  0.500001  0.500001  0.500000  1
