# generated using pymatgen
data_Al2FeH8
_symmetry_space_group_name_H-M   'P 1'
_cell_length_a   3.96912400
_cell_length_b   5.34783249
_cell_length_c   5.40986069
_cell_angle_alpha   75.37063039
_cell_angle_beta   90.30731189
_cell_angle_gamma   83.74280396
_symmetry_Int_Tables_number   1
_chemical_formula_structural   Al2FeH8
_chemical_formula_sum   'Al2 Fe1 H8'
_cell_volume   110.38149900
_cell_formula_units_Z   1
loop_
 _symmetry_equiv_pos_site_id
 _symmetry_equiv_pos_as_xyz
  1  'x, y, z'
loop_
 _atom_site_type_symbol
 _atom_site_label
 _atom_site_symmetry_multiplicity
 _atom_site_fract_x
 _atom_site_fract_y
 _atom_site_fract_z
 _atom_site_occupancy
  Al  Al0  1  0.811064  0.218156  0.294379  1
  Al  Al1  1  0.809746  0.221252  0.781118  1
  Fe  Fe2  1  0.309928  0.220359  0.037923  1
  H  H3  1  0.078919  0.997482  0.092157  1
  H  H4  1  0.483009  0.016037  0.278234  1
  H  H5  1  0.465724  0.031468  0.877538  1
  H  H6  1  0.921299  0.004722  0.592532  1
  H  H7  1  0.699929  0.434278  0.483103  1
  H  H8  1  0.133068  0.426652  0.800635  1
  H  H9  1  0.541737  0.442407  0.981250  1
  H  H10  1  0.155191  0.409207  0.198301  1
