# generated using pymatgen
data_Zr3Sc4NbRu8
_symmetry_space_group_name_H-M   'P 1'
_cell_length_a   6.44365200
_cell_length_b   4.57509300
_cell_length_c   9.16548100
_cell_angle_alpha   90.00000000
_cell_angle_beta   90.00035023
_cell_angle_gamma   90.00000000
_symmetry_Int_Tables_number   1
_chemical_formula_structural   Zr3Sc4NbRu8
_chemical_formula_sum   'Zr3 Sc4 Nb1 Ru8'
_cell_volume   270.20119514
_cell_formula_units_Z   1
loop_
 _symmetry_equiv_pos_site_id
 _symmetry_equiv_pos_as_xyz
  1  'x, y, z'
loop_
 _atom_site_type_symbol
 _atom_site_label
 _atom_site_symmetry_multiplicity
 _atom_site_fract_x
 _atom_site_fract_y
 _atom_site_fract_z
 _atom_site_occupancy
  Zr  Zr0  1  0.250026  0.250001  0.124313  1
  Zr  Zr1  1  0.750022  0.750000  0.374979  1
  Zr  Zr2  1  0.249977  0.250001  0.625671  1
  Sc  Sc3  1  0.750019  0.250001  0.123672  1
  Sc  Sc4  1  0.250026  0.750000  0.375001  1
  Sc  Sc5  1  0.749990  0.250001  0.626310  1
  Sc  Sc6  1  0.249957  0.750000  0.875002  1
  Nb  Nb7  1  0.749977  0.750000  0.874989  1
  Ru  Ru8  1  0.503901  0.750000  0.119531  1
  Ru  Ru9  1  0.996126  0.750000  0.119540  1
  Ru  Ru10  1  0.499782  0.250001  0.375033  1
  Ru  Ru11  1  0.000237  0.250001  0.375037  1
  Ru  Ru12  1  0.996114  0.750000  0.630468  1
  Ru  Ru13  1  0.503868  0.750000  0.630475  1
  Ru  Ru14  1  0.992342  0.250001  0.874994  1
  Ru  Ru15  1  0.507635  0.250001  0.874987  1
