# generated using pymatgen
data_NdY4(Tl2Pd)2
_symmetry_space_group_name_H-M   'P 1'
_cell_length_a   3.64993600
_cell_length_b   8.20780000
_cell_length_c   18.47258500
_cell_angle_alpha   90.00000000
_cell_angle_beta   90.00000000
_cell_angle_gamma   90.00000000
_symmetry_Int_Tables_number   1
_chemical_formula_structural   NdY4(Tl2Pd)2
_chemical_formula_sum   'Nd2 Y8 Tl8 Pd4'
_cell_volume   553.40067991
_cell_formula_units_Z   2
loop_
 _symmetry_equiv_pos_site_id
 _symmetry_equiv_pos_as_xyz
  1  'x, y, z'
loop_
 _atom_site_type_symbol
 _atom_site_label
 _atom_site_symmetry_multiplicity
 _atom_site_fract_x
 _atom_site_fract_y
 _atom_site_fract_z
 _atom_site_occupancy
  Nd  Nd0  1  0.500000  0.000000  0.000000  1
  Nd  Nd1  1  0.500000  0.500000  0.500000  1
  Y  Y2  1  0.500000  0.239526  0.783206  1
  Y  Y3  1  0.500000  0.760474  0.216794  1
  Y  Y4  1  0.500000  0.260474  0.283206  1
  Y  Y5  1  0.500000  0.739526  0.716794  1
  Y  Y6  1  0.500000  0.121665  0.584834  1
  Y  Y7  1  0.500000  0.878335  0.415166  1
  Y  Y8  1  0.500000  0.378335  0.084834  1
  Y  Y9  1  0.500000  0.621665  0.915166  1
  Tl  Tl10  1  0.000000  0.084870  0.152462  1
  Tl  Tl11  1  0.000000  0.915130  0.847538  1
  Tl  Tl12  1  0.000000  0.415130  0.652462  1
  Tl  Tl13  1  0.000000  0.584870  0.347538  1
  Tl  Tl14  1  0.000000  0.198723  0.433649  1
  Tl  Tl15  1  0.000000  0.801277  0.566351  1
  Tl  Tl16  1  0.000000  0.301277  0.933649  1
  Tl  Tl17  1  0.000000  0.698723  0.066351  1
  Pd  Pd18  1  0.000000  0.026524  0.696225  1
  Pd  Pd19  1  0.000000  0.973476  0.303775  1
  Pd  Pd20  1  0.000000  0.473476  0.196225  1
  Pd  Pd21  1  0.000000  0.526524  0.803775  1
