# generated using pymatgen
data_InBi(BO3)2
_symmetry_space_group_name_H-M   'P 1'
_cell_length_a   6.22867940
_cell_length_b   6.22868014
_cell_length_c   6.22867998
_cell_angle_alpha   47.60565007
_cell_angle_beta   47.60564258
_cell_angle_gamma   47.60565611
_symmetry_Int_Tables_number   1
_chemical_formula_structural   InBi(BO3)2
_chemical_formula_sum   'In1 Bi1 B2 O6'
_cell_volume   120.63996157
_cell_formula_units_Z   1
loop_
 _symmetry_equiv_pos_site_id
 _symmetry_equiv_pos_as_xyz
  1  'x, y, z'
loop_
 _atom_site_type_symbol
 _atom_site_label
 _atom_site_symmetry_multiplicity
 _atom_site_fract_x
 _atom_site_fract_y
 _atom_site_fract_z
 _atom_site_occupancy
  In  In0  1  0.500000  0.500000  0.500000  1
  Bi  Bi1  1  0.000000  0.000000  0.000000  1
  B  B2  1  0.244145  0.244145  0.244145  1
  B  B3  1  0.755855  0.755855  0.755855  1
  O  O4  1  0.731571  0.040874  0.490435  1
  O  O5  1  0.959126  0.509565  0.268429  1
  O  O6  1  0.509565  0.268429  0.959126  1
  O  O7  1  0.490435  0.731571  0.040874  1
  O  O8  1  0.040874  0.490435  0.731571  1
  O  O9  1  0.268429  0.959126  0.509565  1
