# generated using pymatgen
data_Ta6V4Ga5GeB2
_symmetry_space_group_name_H-M   'P 1'
_cell_length_a   7.67178314
_cell_length_b   7.67595610
_cell_length_c   5.11015000
_cell_angle_alpha   90.00000000
_cell_angle_beta   90.00000000
_cell_angle_gamma   120.01799226
_symmetry_Int_Tables_number   1
_chemical_formula_structural   Ta6V4Ga5GeB2
_chemical_formula_sum   'Ta6 V4 Ga5 Ge1 B2'
_cell_volume   260.56394067
_cell_formula_units_Z   1
loop_
 _symmetry_equiv_pos_site_id
 _symmetry_equiv_pos_as_xyz
  1  'x, y, z'
loop_
 _atom_site_type_symbol
 _atom_site_label
 _atom_site_symmetry_multiplicity
 _atom_site_fract_x
 _atom_site_fract_y
 _atom_site_fract_z
 _atom_site_occupancy
  Ta  Ta0  1  0.755130  0.755143  0.250000  1
  Ta  Ta1  1  0.244870  0.000013  0.250000  1
  Ta  Ta2  1  0.000000  0.245697  0.250000  1
  Ta  Ta3  1  0.243588  0.244415  0.750000  1
  Ta  Ta4  1  0.756412  0.000827  0.750000  1
  Ta  Ta5  1  0.000000  0.755963  0.750000  1
  V  V6  1  0.668226  0.333437  0.499509  1
  V  V7  1  0.331774  0.665214  0.499509  1
  V  V8  1  0.331774  0.665214  0.000491  1
  V  V9  1  0.668226  0.333437  0.000491  1
  Ga  Ga10  1  0.407957  0.406826  0.250000  1
  Ga  Ga11  1  0.592043  0.998868  0.250000  1
  Ga  Ga12  1  0.000000  0.594868  0.250000  1
  Ga  Ga13  1  0.592508  0.592475  0.750000  1
  Ga  Ga14  1  0.407492  0.999966  0.750000  1
  Ge  Ge15  1  0.000000  0.408069  0.750000  1
  B  B16  1  0.000000  0.999784  0.498808  1
  B  B17  1  0.000000  0.999784  0.001192  1
