# generated using pymatgen
data_Nd3Hf(P3Rh4)2
_symmetry_space_group_name_H-M   'P 1'
_cell_length_a   3.98907100
_cell_length_b   11.35531900
_cell_length_c   13.10484600
_cell_angle_alpha   90.00000000
_cell_angle_beta   90.00000000
_cell_angle_gamma   90.00000000
_symmetry_Int_Tables_number   1
_chemical_formula_structural   Nd3Hf(P3Rh4)2
_chemical_formula_sum   'Nd6 Hf2 P12 Rh16'
_cell_volume   593.61248582
_cell_formula_units_Z   2
loop_
 _symmetry_equiv_pos_site_id
 _symmetry_equiv_pos_as_xyz
  1  'x, y, z'
loop_
 _atom_site_type_symbol
 _atom_site_label
 _atom_site_symmetry_multiplicity
 _atom_site_fract_x
 _atom_site_fract_y
 _atom_site_fract_z
 _atom_site_occupancy
  Nd  Nd0  1  0.000000  0.500000  0.522306  1
  Nd  Nd1  1  0.500000  0.000000  0.477694  1
  Nd  Nd2  1  0.500000  0.820099  0.202455  1
  Nd  Nd3  1  0.500000  0.179901  0.202455  1
  Nd  Nd4  1  0.000000  0.679901  0.797545  1
  Nd  Nd5  1  0.000000  0.320099  0.797545  1
  Hf  Hf6  1  0.500000  0.500000  0.156356  1
  Hf  Hf7  1  0.000000  0.000000  0.843644  1
  P  P8  1  0.500000  0.500000  0.880206  1
  P  P9  1  0.000000  0.000000  0.119794  1
  P  P10  1  0.500000  0.500000  0.354563  1
  P  P11  1  0.000000  0.000000  0.645437  1
  P  P12  1  0.500000  0.310288  0.615119  1
  P  P13  1  0.500000  0.689712  0.615119  1
  P  P14  1  0.000000  0.189712  0.384881  1
  P  P15  1  0.000000  0.810288  0.384881  1
  P  P16  1  0.500000  0.843675  0.889595  1
  P  P17  1  0.500000  0.156325  0.889595  1
  P  P18  1  0.000000  0.656325  0.110405  1
  P  P19  1  0.000000  0.343675  0.110405  1
  Rh  Rh20  1  0.500000  0.500000  0.700022  1
  Rh  Rh21  1  0.000000  0.000000  0.299978  1
  Rh  Rh22  1  0.000000  0.500000  0.986644  1
  Rh  Rh23  1  0.500000  0.000000  0.013356  1
  Rh  Rh24  1  0.500000  0.332087  0.991217  1
  Rh  Rh25  1  0.500000  0.667913  0.991217  1
  Rh  Rh26  1  0.000000  0.167913  0.008783  1
  Rh  Rh27  1  0.000000  0.832087  0.008783  1
  Rh  Rh28  1  0.500000  0.291293  0.431834  1
  Rh  Rh29  1  0.500000  0.708707  0.431834  1
  Rh  Rh30  1  0.000000  0.208707  0.568166  1
  Rh  Rh31  1  0.000000  0.791293  0.568166  1
  Rh  Rh32  1  0.500000  0.875462  0.706525  1
  Rh  Rh33  1  0.500000  0.124538  0.706525  1
  Rh  Rh34  1  0.000000  0.624538  0.293475  1
  Rh  Rh35  1  0.000000  0.375462  0.293475  1
