# generated using pymatgen
data_Y15Mg5Sn16
_symmetry_space_group_name_H-M   'P 1'
_cell_length_a   7.65767118
_cell_length_b   8.24260865
_cell_length_c   15.33792006
_cell_angle_alpha   90.00125805
_cell_angle_beta   89.98807394
_cell_angle_gamma   89.94616424
_symmetry_Int_Tables_number   1
_chemical_formula_structural   Y15Mg5Sn16
_chemical_formula_sum   'Y15 Mg5 Sn16'
_cell_volume   968.11659178
_cell_formula_units_Z   1
loop_
 _symmetry_equiv_pos_site_id
 _symmetry_equiv_pos_as_xyz
  1  'x, y, z'
loop_
 _atom_site_type_symbol
 _atom_site_label
 _atom_site_symmetry_multiplicity
 _atom_site_fract_x
 _atom_site_fract_y
 _atom_site_fract_z
 _atom_site_occupancy
  Y  Y0  1  0.837068  0.672600  0.628553  1
  Y  Y1  1  0.662407  0.171155  0.371825  1
  Y  Y2  1  0.161495  0.330142  0.125740  1
  Y  Y3  1  0.656872  0.169181  0.127714  1
  Y  Y4  1  0.160258  0.327353  0.370767  1
  Y  Y5  1  0.342688  0.827388  0.629563  1
  Y  Y6  1  0.836704  0.670468  0.872272  1
  Y  Y7  1  0.502322  0.317496  0.907898  1
  Y  Y8  1  0.005662  0.182016  0.593475  1
  Y  Y9  1  0.500842  0.681596  0.409168  1
  Y  Y10  1  0.995691  0.815705  0.090782  1
  Y  Y11  1  0.494450  0.683149  0.089000  1
  Y  Y12  1  0.000370  0.819548  0.407503  1
  Y  Y13  1  0.499713  0.316123  0.592972  1
  Y  Y14  1  0.003510  0.186646  0.905235  1
  Mg  Mg15  1  0.341638  0.834071  0.874478  1
  Mg  Mg16  1  0.163471  0.496445  0.750101  1
  Mg  Mg17  1  0.669614  0.005232  0.752237  1
  Mg  Mg18  1  0.833589  0.504669  0.250073  1
  Mg  Mg19  1  0.333765  0.993161  0.250586  1
  Sn  Sn20  1  0.317853  0.033808  0.035922  1
  Sn  Sn21  1  0.819885  0.461885  0.463479  1
  Sn  Sn22  1  0.685027  0.964365  0.538410  1
  Sn  Sn23  1  0.182349  0.541234  0.958326  1
  Sn  Sn24  1  0.679476  0.964748  0.960768  1
  Sn  Sn25  1  0.182219  0.537557  0.537093  1
  Sn  Sn26  1  0.317656  0.038379  0.463923  1
  Sn  Sn27  1  0.814980  0.461520  0.037608  1
  Sn  Sn28  1  0.524350  0.594479  0.753814  1
  Sn  Sn29  1  0.036828  0.899143  0.753315  1
  Sn  Sn30  1  0.471645  0.407757  0.249514  1
  Sn  Sn31  1  0.972043  0.091839  0.247984  1
  Sn  Sn32  1  0.306690  0.150303  0.751945  1
  Sn  Sn33  1  0.803093  0.350847  0.749218  1
  Sn  Sn34  1  0.692061  0.847562  0.249326  1
  Sn  Sn35  1  0.191718  0.650430  0.249412  1
