# generated using pymatgen
data_Zr3Sc(InN)2
_symmetry_space_group_name_H-M   'P 1'
_cell_length_a   3.31063800
_cell_length_b   3.31063920
_cell_length_c   14.91530900
_cell_angle_alpha   90.00000000
_cell_angle_beta   90.00000000
_cell_angle_gamma   119.99998798
_symmetry_Int_Tables_number   1
_chemical_formula_structural   Zr3Sc(InN)2
_chemical_formula_sum   'Zr3 Sc1 In2 N2'
_cell_volume   141.57497333
_cell_formula_units_Z   1
loop_
 _symmetry_equiv_pos_site_id
 _symmetry_equiv_pos_as_xyz
  1  'x, y, z'
loop_
 _atom_site_type_symbol
 _atom_site_label
 _atom_site_symmetry_multiplicity
 _atom_site_fract_x
 _atom_site_fract_y
 _atom_site_fract_z
 _atom_site_occupancy
  Zr  Zr0  1  0.666667  0.333333  0.581824  1
  Zr  Zr1  1  0.666667  0.333333  0.917034  1
  Zr  Zr2  1  0.333333  0.666667  0.084044  1
  Sc  Sc3  1  0.333333  0.666667  0.418645  1
  In  In4  1  0.333333  0.666667  0.749424  1
  In  In5  1  0.666667  0.333333  0.252079  1
  N  N6  1  0.000000  0.000000  0.496184  1
  N  N7  1  0.000000  0.000000  0.000768  1
