# generated using pymatgen
data_Cs2Pu(SiO3)4
_symmetry_space_group_name_H-M   'P 1'
_cell_length_a   6.78098502
_cell_length_b   8.18519887
_cell_length_c   11.22188100
_cell_angle_alpha   72.58932900
_cell_angle_beta   88.97030816
_cell_angle_gamma   78.78417246
_symmetry_Int_Tables_number   1
_chemical_formula_structural   Cs2Pu(SiO3)4
_chemical_formula_sum   'Cs4 Pu2 Si8 O24'
_cell_volume   582.43027350
_cell_formula_units_Z   2
loop_
 _symmetry_equiv_pos_site_id
 _symmetry_equiv_pos_as_xyz
  1  'x, y, z'
loop_
 _atom_site_type_symbol
 _atom_site_label
 _atom_site_symmetry_multiplicity
 _atom_site_fract_x
 _atom_site_fract_y
 _atom_site_fract_z
 _atom_site_occupancy
  Cs  Cs0  1  0.809959  0.290605  0.011685  1
  Cs  Cs1  1  0.172405  0.733820  0.354287  1
  Cs  Cs2  1  0.827594  0.266181  0.645713  1
  Cs  Cs3  1  0.190041  0.709396  0.988315  1
  Pu  Pu4  1  0.677749  0.713636  0.172423  1
  Pu  Pu5  1  0.322250  0.286363  0.827577  1
  Si  Si6  1  0.375746  0.129714  0.164749  1
  Si  Si7  1  0.036111  0.326272  0.285502  1
  Si  Si8  1  0.675653  0.137516  0.375773  1
  Si  Si9  1  0.697866  0.753641  0.482292  1
  Si  Si10  1  0.302133  0.246360  0.517708  1
  Si  Si11  1  0.324347  0.862484  0.624228  1
  Si  Si12  1  0.963889  0.673728  0.714497  1
  Si  Si13  1  0.624254  0.870285  0.835251  1
  O  O14  1  0.364910  0.267486  0.026856  1
  O  O15  1  0.846353  0.867931  0.138554  1
  O  O16  1  0.955548  0.504013  0.176513  1
  O  O17  1  0.415933  0.927018  0.168276  1
  O  O18  1  0.506349  0.563711  0.204983  1
  O  O19  1  0.162700  0.169436  0.235074  1
  O  O20  1  0.553051  0.167779  0.246757  1
  O  O21  1  0.849656  0.249326  0.359703  1
  O  O22  1  0.715903  0.650145  0.381446  1
  O  O23  1  0.173574  0.364512  0.388875  1
  O  O24  1  0.787674  0.933642  0.432841  1
  O  O25  1  0.535342  0.191165  0.482676  1
  O  O26  1  0.464657  0.808834  0.517324  1
  O  O27  1  0.212327  0.066357  0.567159  1
  O  O28  1  0.826427  0.635487  0.611126  1
  O  O29  1  0.284098  0.349855  0.618553  1
  O  O30  1  0.150343  0.750675  0.640297  1
  O  O31  1  0.446948  0.832222  0.753243  1
  O  O32  1  0.837300  0.830563  0.764926  1
  O  O33  1  0.493651  0.436288  0.795018  1
  O  O34  1  0.584067  0.072981  0.831724  1
  O  O35  1  0.044453  0.495987  0.823487  1
  O  O36  1  0.153647  0.132069  0.861446  1
  O  O37  1  0.635092  0.732513  0.973144  1
