# generated using pymatgen
data_YbLu2Ni2Ir7
_symmetry_space_group_name_H-M   'P 1'
_cell_length_a   8.95689442
_cell_length_b   8.95689485
_cell_length_c   8.95689500
_cell_angle_alpha   34.33740278
_cell_angle_beta   34.33739884
_cell_angle_gamma   34.33740994
_symmetry_Int_Tables_number   1
_chemical_formula_structural   YbLu2Ni2Ir7
_chemical_formula_sum   'Yb1 Lu2 Ni2 Ir7'
_cell_volume   203.90929948
_cell_formula_units_Z   1
loop_
 _symmetry_equiv_pos_site_id
 _symmetry_equiv_pos_as_xyz
  1  'x, y, z'
loop_
 _atom_site_type_symbol
 _atom_site_label
 _atom_site_symmetry_multiplicity
 _atom_site_fract_x
 _atom_site_fract_y
 _atom_site_fract_z
 _atom_site_occupancy
  Yb  Yb0  1  0.000000  0.000000  0.000000  1
  Lu  Lu1  1  0.860982  0.860982  0.860982  1
  Lu  Lu2  1  0.139018  0.139018  0.139018  1
  Ni  Ni3  1  0.666709  0.666709  0.666709  1
  Ni  Ni4  1  0.333291  0.333291  0.333291  1
  Ir  Ir5  1  0.417941  0.921917  0.417941  1
  Ir  Ir6  1  0.417941  0.417941  0.921917  1
  Ir  Ir7  1  0.921917  0.417941  0.417941  1
  Ir  Ir8  1  0.582059  0.078083  0.582059  1
  Ir  Ir9  1  0.582059  0.582059  0.078083  1
  Ir  Ir10  1  0.078083  0.582059  0.582059  1
  Ir  Ir11  1  0.500000  0.500000  0.500000  1
