# generated using pymatgen
data_SmFe3P3Rh2
_symmetry_space_group_name_H-M   'P 1'
_cell_length_a   3.78309700
_cell_length_b   10.43011600
_cell_length_c   12.19445900
_cell_angle_alpha   90.00000000
_cell_angle_beta   90.00000000
_cell_angle_gamma   90.00000000
_symmetry_Int_Tables_number   1
_chemical_formula_structural   SmFe3P3Rh2
_chemical_formula_sum   'Sm4 Fe12 P12 Rh8'
_cell_volume   481.17067714
_cell_formula_units_Z   4
loop_
 _symmetry_equiv_pos_site_id
 _symmetry_equiv_pos_as_xyz
  1  'x, y, z'
loop_
 _atom_site_type_symbol
 _atom_site_label
 _atom_site_symmetry_multiplicity
 _atom_site_fract_x
 _atom_site_fract_y
 _atom_site_fract_z
 _atom_site_occupancy
  Sm  Sm0  1  0.250000  0.581942  0.709830  1
  Sm  Sm1  1  0.250000  0.918058  0.209830  1
  Sm  Sm2  1  0.750000  0.418058  0.290170  1
  Sm  Sm3  1  0.750000  0.081942  0.790170  1
  Fe  Fe4  1  0.250000  0.223865  0.170795  1
  Fe  Fe5  1  0.250000  0.276135  0.670795  1
  Fe  Fe6  1  0.750000  0.776135  0.829205  1
  Fe  Fe7  1  0.750000  0.723865  0.329205  1
  Fe  Fe8  1  0.250000  0.878791  0.696815  1
  Fe  Fe9  1  0.250000  0.621209  0.196815  1
  Fe  Fe10  1  0.750000  0.121209  0.303185  1
  Fe  Fe11  1  0.750000  0.378791  0.803185  1
  Fe  Fe12  1  0.250000  0.459792  0.935598  1
  Fe  Fe13  1  0.250000  0.040208  0.435598  1
  Fe  Fe14  1  0.750000  0.540208  0.064402  1
  Fe  Fe15  1  0.750000  0.959792  0.564402  1
  P  P16  1  0.250000  0.429312  0.111600  1
  P  P17  1  0.250000  0.070688  0.611600  1
  P  P18  1  0.750000  0.570688  0.888400  1
  P  P19  1  0.750000  0.929312  0.388400  1
  P  P20  1  0.250000  0.276857  0.853441  1
  P  P21  1  0.250000  0.223143  0.353441  1
  P  P22  1  0.750000  0.723143  0.146559  1
  P  P23  1  0.750000  0.776857  0.646559  1
  P  P24  1  0.250000  0.607907  0.378544  1
  P  P25  1  0.250000  0.892093  0.878544  1
  P  P26  1  0.750000  0.392093  0.621456  1
  P  P27  1  0.750000  0.107907  0.121456  1
  Rh  Rh28  1  0.250000  0.706733  0.984977  1
  Rh  Rh29  1  0.250000  0.793267  0.484977  1
  Rh  Rh30  1  0.750000  0.293267  0.015023  1
  Rh  Rh31  1  0.750000  0.206733  0.515023  1
  Rh  Rh32  1  0.250000  0.404262  0.481403  1
  Rh  Rh33  1  0.250000  0.095738  0.981403  1
  Rh  Rh34  1  0.750000  0.595738  0.518597  1
  Rh  Rh35  1  0.750000  0.904262  0.018597  1
