# generated using pymatgen
data_Nd6Zn4CuPd11Rh
_symmetry_space_group_name_H-M   'P 1'
_cell_length_a   8.30718181
_cell_length_b   8.30718144
_cell_length_c   8.37676946
_cell_angle_alpha   109.41458054
_cell_angle_beta   109.41457769
_cell_angle_gamma   109.24625526
_symmetry_Int_Tables_number   1
_chemical_formula_structural   Nd6Zn4CuPd11Rh
_chemical_formula_sum   'Nd6 Zn4 Cu1 Pd11 Rh1'
_cell_volume   446.84913910
_cell_formula_units_Z   1
loop_
 _symmetry_equiv_pos_site_id
 _symmetry_equiv_pos_as_xyz
  1  'x, y, z'
loop_
 _atom_site_type_symbol
 _atom_site_label
 _atom_site_symmetry_multiplicity
 _atom_site_fract_x
 _atom_site_fract_y
 _atom_site_fract_z
 _atom_site_occupancy
  Nd  Nd0  1  0.705257  0.705257  0.002632  1
  Nd  Nd1  1  0.296850  0.997500  0.294350  1
  Nd  Nd2  1  0.997500  0.296850  0.294350  1
  Nd  Nd3  1  0.297375  0.297375  0.002632  1
  Nd  Nd4  1  0.702604  0.999504  0.702108  1
  Nd  Nd5  1  0.999504  0.702604  0.702108  1
  Zn  Zn6  1  0.000893  0.000893  0.499862  1
  Zn  Zn7  1  0.999294  0.499294  0.998587  1
  Zn  Zn8  1  0.499294  0.999294  0.998587  1
  Zn  Zn9  1  0.498969  0.498969  0.499862  1
  Cu  Cu10  1  0.331076  0.331076  0.662150  1
  Pd  Pd11  1  0.669450  0.000891  0.332338  1
  Pd  Pd12  1  0.000891  0.669450  0.332338  1
  Pd  Pd13  1  0.668009  0.333299  0.001308  1
  Pd  Pd14  1  0.331446  0.662887  0.332338  1
  Pd  Pd15  1  0.006797  0.332369  0.668455  1
  Pd  Pd16  1  0.333299  0.668009  0.001308  1
  Pd  Pd17  1  0.332369  0.006797  0.668455  1
  Pd  Pd18  1  0.662887  0.331446  0.332338  1
  Pd  Pd19  1  0.668262  0.668262  0.336526  1
  Pd  Pd20  1  0.661658  0.336087  0.668455  1
  Pd  Pd21  1  0.336087  0.661658  0.668455  1
  Rh  Rh22  1  0.000230  0.000230  0.000460  1
