# generated using pymatgen
data_Nd2LuRuI3
_symmetry_space_group_name_H-M   'P 1'
_cell_length_a   4.30785200
_cell_length_b   8.96419877
_cell_length_c   12.41052724
_cell_angle_alpha   85.20554207
_cell_angle_beta   90.00000000
_cell_angle_gamma   90.00000000
_symmetry_Int_Tables_number   1
_chemical_formula_structural   Nd2LuRuI3
_chemical_formula_sum   'Nd4 Lu2 Ru2 I6'
_cell_volume   477.57347869
_cell_formula_units_Z   2
loop_
 _symmetry_equiv_pos_site_id
 _symmetry_equiv_pos_as_xyz
  1  'x, y, z'
loop_
 _atom_site_type_symbol
 _atom_site_label
 _atom_site_symmetry_multiplicity
 _atom_site_fract_x
 _atom_site_fract_y
 _atom_site_fract_z
 _atom_site_occupancy
  Nd  Nd0  1  0.750000  0.094488  0.680854  1
  Nd  Nd1  1  0.250000  0.905512  0.319146  1
  Nd  Nd2  1  0.250000  0.270185  0.901257  1
  Nd  Nd3  1  0.750000  0.729815  0.098743  1
  Lu  Lu4  1  0.750000  0.120368  0.120575  1
  Lu  Lu5  1  0.250000  0.879632  0.879425  1
  Ru  Ru6  1  0.750000  0.051701  0.908806  1
  Ru  Ru7  1  0.250000  0.948299  0.091194  1
  I  I8  1  0.250000  0.355969  0.637229  1
  I  I9  1  0.750000  0.644031  0.362771  1
  I  I10  1  0.750000  0.152107  0.386912  1
  I  I11  1  0.250000  0.847893  0.613088  1
  I  I12  1  0.250000  0.418408  0.136479  1
  I  I13  1  0.750000  0.581592  0.863521  1
