# generated using pymatgen
data_Cs5HfSb3
_symmetry_space_group_name_H-M   'P 1'
_cell_length_a   9.64266000
_cell_length_b   10.33447042
_cell_length_c   20.18303125
_cell_angle_alpha   60.23066471
_cell_angle_beta   90.00000000
_cell_angle_gamma   90.00000000
_symmetry_Int_Tables_number   1
_chemical_formula_structural   Cs5HfSb3
_chemical_formula_sum   'Cs20 Hf4 Sb12'
_cell_volume   1745.84974284
_cell_formula_units_Z   4
loop_
 _symmetry_equiv_pos_site_id
 _symmetry_equiv_pos_as_xyz
  1  'x, y, z'
loop_
 _atom_site_type_symbol
 _atom_site_label
 _atom_site_symmetry_multiplicity
 _atom_site_fract_x
 _atom_site_fract_y
 _atom_site_fract_z
 _atom_site_occupancy
  Cs  Cs0  1  0.177112  0.156908  0.260343  1
  Cs  Cs1  1  0.677112  0.843092  0.239657  1
  Cs  Cs2  1  0.822888  0.843092  0.739657  1
  Cs  Cs3  1  0.322888  0.156908  0.760343  1
  Cs  Cs4  1  0.167256  0.839092  0.579810  1
  Cs  Cs5  1  0.667256  0.160908  0.920190  1
  Cs  Cs6  1  0.832744  0.160908  0.420190  1
  Cs  Cs7  1  0.332744  0.839092  0.079810  1
  Cs  Cs8  1  0.004191  0.913066  0.907742  1
  Cs  Cs9  1  0.504191  0.086934  0.592258  1
  Cs  Cs10  1  0.995809  0.086934  0.092258  1
  Cs  Cs11  1  0.495809  0.913066  0.407742  1
  Cs  Cs12  1  0.514356  0.732544  0.921680  1
  Cs  Cs13  1  0.014356  0.267456  0.578320  1
  Cs  Cs14  1  0.485644  0.267456  0.078320  1
  Cs  Cs15  1  0.985644  0.732544  0.421680  1
  Cs  Cs16  1  0.986581  0.456089  0.745637  1
  Cs  Cs17  1  0.486581  0.543911  0.754363  1
  Cs  Cs18  1  0.013419  0.543911  0.254363  1
  Cs  Cs19  1  0.513419  0.456089  0.245637  1
  Hf  Hf20  1  0.373777  0.505878  0.421733  1
  Hf  Hf21  1  0.873777  0.494122  0.078267  1
  Hf  Hf22  1  0.626223  0.494122  0.578267  1
  Hf  Hf23  1  0.126223  0.505878  0.921733  1
  Sb  Sb24  1  0.249306  0.255171  0.923782  1
  Sb  Sb25  1  0.749306  0.744829  0.576218  1
  Sb  Sb26  1  0.750694  0.744829  0.076218  1
  Sb  Sb27  1  0.250694  0.255171  0.423782  1
  Sb  Sb28  1  0.171897  0.512509  0.061637  1
  Sb  Sb29  1  0.671897  0.487491  0.438363  1
  Sb  Sb30  1  0.828103  0.487491  0.938363  1
  Sb  Sb31  1  0.328103  0.512509  0.561637  1
  Sb  Sb32  1  0.296580  0.769943  0.287188  1
  Sb  Sb33  1  0.796580  0.230057  0.212812  1
  Sb  Sb34  1  0.703420  0.230057  0.712812  1
  Sb  Sb35  1  0.203420  0.769943  0.787188  1
