# generated using pymatgen
data_Er3Sc2(In2Pt)2
_symmetry_space_group_name_H-M   'P 1'
_cell_length_a   3.58598200
_cell_length_b   7.91671500
_cell_length_c   17.80315000
_cell_angle_alpha   90.00000000
_cell_angle_beta   90.00000000
_cell_angle_gamma   90.00000000
_symmetry_Int_Tables_number   1
_chemical_formula_structural   Er3Sc2(In2Pt)2
_chemical_formula_sum   'Er6 Sc4 In8 Pt4'
_cell_volume   505.41714128
_cell_formula_units_Z   2
loop_
 _symmetry_equiv_pos_site_id
 _symmetry_equiv_pos_as_xyz
  1  'x, y, z'
loop_
 _atom_site_type_symbol
 _atom_site_label
 _atom_site_symmetry_multiplicity
 _atom_site_fract_x
 _atom_site_fract_y
 _atom_site_fract_z
 _atom_site_occupancy
  Er  Er0  1  0.000000  0.242641  0.219008  1
  Er  Er1  1  0.000000  0.757359  0.780992  1
  Er  Er2  1  0.000000  0.257359  0.719008  1
  Er  Er3  1  0.000000  0.742641  0.280992  1
  Er  Er4  1  0.000000  0.000000  0.000000  1
  Er  Er5  1  0.000000  0.500000  0.500000  1
  Sc  Sc6  1  0.000000  0.116382  0.414357  1
  Sc  Sc7  1  0.000000  0.883618  0.585643  1
  Sc  Sc8  1  0.000000  0.383618  0.914357  1
  Sc  Sc9  1  0.000000  0.616382  0.085643  1
  In  In10  1  0.500000  0.415555  0.351995  1
  In  In11  1  0.500000  0.584445  0.648005  1
  In  In12  1  0.500000  0.084445  0.851995  1
  In  In13  1  0.500000  0.915555  0.148005  1
  In  In14  1  0.500000  0.303024  0.061544  1
  In  In15  1  0.500000  0.696976  0.938456  1
  In  In16  1  0.500000  0.196976  0.561544  1
  In  In17  1  0.500000  0.803024  0.438456  1
  Pt  Pt18  1  0.500000  0.029657  0.307444  1
  Pt  Pt19  1  0.500000  0.970343  0.692556  1
  Pt  Pt20  1  0.500000  0.470343  0.807444  1
  Pt  Pt21  1  0.500000  0.529657  0.192556  1
