# generated using pymatgen
data_Ho4Bi3As3Rh7
_symmetry_space_group_name_H-M   'P 1'
_cell_length_a   7.68430275
_cell_length_b   7.49000444
_cell_length_c   7.49000375
_cell_angle_alpha   108.93977503
_cell_angle_beta   109.99756604
_cell_angle_gamma   109.99758257
_symmetry_Int_Tables_number   1
_chemical_formula_structural   Ho4Bi3As3Rh7
_chemical_formula_sum   'Ho4 Bi3 As3 Rh7'
_cell_volume   329.67364966
_cell_formula_units_Z   1
loop_
 _symmetry_equiv_pos_site_id
 _symmetry_equiv_pos_as_xyz
  1  'x, y, z'
loop_
 _atom_site_type_symbol
 _atom_site_label
 _atom_site_symmetry_multiplicity
 _atom_site_fract_x
 _atom_site_fract_y
 _atom_site_fract_z
 _atom_site_occupancy
  Ho  Ho0  1  0.446601  0.000000  0.000000  1
  Ho  Ho1  1  0.015206  0.533969  0.000000  1
  Ho  Ho2  1  0.015206  0.000000  0.533969  1
  Ho  Ho3  1  0.481237  0.466031  0.466031  1
  Bi  Bi4  1  0.982406  0.289185  0.289185  1
  Bi  Bi5  1  0.693221  0.000000  0.710815  1
  Bi  Bi6  1  0.693221  0.710815  0.000000  1
  As  As7  1  0.988756  0.656137  0.656137  1
  As  As8  1  0.332618  0.000000  0.343863  1
  As  As9  1  0.332618  0.343863  0.000000  1
  Rh  Rh10  1  0.088803  0.000000  0.000000  1
  Rh  Rh11  1  0.488479  0.749513  0.250872  1
  Rh  Rh12  1  0.738966  0.501358  0.250487  1
  Rh  Rh13  1  0.237607  0.749128  0.498642  1
  Rh  Rh14  1  0.237607  0.498642  0.749128  1
  Rh  Rh15  1  0.488479  0.250872  0.749513  1
  Rh  Rh16  1  0.738966  0.250487  0.501358  1
