# generated using pymatgen
data_Tb2Pa(CoSn)3
_symmetry_space_group_name_H-M   'P 1'
_cell_length_a   7.46862100
_cell_length_b   7.30139632
_cell_length_c   3.81123900
_cell_angle_alpha   90.00000000
_cell_angle_beta   90.00000000
_cell_angle_gamma   120.76057010
_symmetry_Int_Tables_number   1
_chemical_formula_structural   Tb2Pa(CoSn)3
_chemical_formula_sum   'Tb2 Pa1 Co3 Sn3'
_cell_volume   178.59259220
_cell_formula_units_Z   1
loop_
 _symmetry_equiv_pos_site_id
 _symmetry_equiv_pos_as_xyz
  1  'x, y, z'
loop_
 _atom_site_type_symbol
 _atom_site_label
 _atom_site_symmetry_multiplicity
 _atom_site_fract_x
 _atom_site_fract_y
 _atom_site_fract_z
 _atom_site_occupancy
  Tb  Tb0  1  0.002085  0.408334  0.500000  1
  Tb  Tb1  1  0.593751  0.591666  0.500000  1
  Pa  Pa2  1  0.416718  0.000000  0.500000  1
  Co  Co3  1  0.338166  0.708243  0.000000  1
  Co  Co4  1  0.629924  0.291757  0.000000  1
  Co  Co5  1  0.014989  0.000000  0.500000  1
  Sn  Sn6  1  0.758182  0.000000  0.000000  1
  Sn  Sn7  1  0.991204  0.736224  0.000000  1
  Sn  Sn8  1  0.254980  0.263776  0.000000  1
