# generated using pymatgen
data_La20Si15Rh
_symmetry_space_group_name_H-M   'P 1'
_cell_length_a   8.00826040
_cell_length_b   8.01959936
_cell_length_c   15.52976700
_cell_angle_alpha   89.91074411
_cell_angle_beta   89.65831646
_cell_angle_gamma   90.12295777
_symmetry_Int_Tables_number   1
_chemical_formula_structural   La20Si15Rh
_chemical_formula_sum   'La20 Si15 Rh1'
_cell_volume   997.34758508
_cell_formula_units_Z   1
loop_
 _symmetry_equiv_pos_site_id
 _symmetry_equiv_pos_as_xyz
  1  'x, y, z'
loop_
 _atom_site_type_symbol
 _atom_site_label
 _atom_site_symmetry_multiplicity
 _atom_site_fract_x
 _atom_site_fract_y
 _atom_site_fract_z
 _atom_site_occupancy
  La  La0  1  0.302814  0.303856  0.996994  1
  La  La1  1  0.193166  0.807142  0.249939  1
  La  La2  1  0.820187  0.187925  0.751696  1
  La  La3  1  0.696484  0.686832  0.499407  1
  La  La4  1  0.374703  0.010437  0.447573  1
  La  La5  1  0.491359  0.873659  0.698343  1
  La  La6  1  0.509305  0.121584  0.196425  1
  La  La7  1  0.876408  0.487382  0.299854  1
  La  La8  1  0.124380  0.509308  0.799017  1
  La  La9  1  0.626718  0.988551  0.948257  1
  La  La10  1  0.001301  0.381992  0.552268  1
  La  La11  1  0.989370  0.624786  0.051696  1
  La  La12  1  0.136017  0.984733  0.874364  1
  La  La13  1  0.517368  0.629381  0.126417  1
  La  La14  1  0.469163  0.361753  0.629220  1
  La  La15  1  0.627241  0.516460  0.873324  1
  La  La16  1  0.371835  0.482037  0.373334  1
  La  La17  1  0.871605  0.021004  0.377195  1
  La  La18  1  0.981640  0.125827  0.124026  1
  La  La19  1  0.028201  0.885312  0.625983  1
  Si  Si20  1  0.333567  0.695023  0.952085  1
  Si  Si21  1  0.662574  0.302896  0.454931  1
  Si  Si22  1  0.697922  0.335061  0.048313  1
  Si  Si23  1  0.303867  0.669675  0.547176  1
  Si  Si24  1  0.805580  0.830768  0.204675  1
  Si  Si25  1  0.167149  0.196587  0.295921  1
  Si  Si26  1  0.835356  0.802324  0.797571  1
  Si  Si27  1  0.289377  0.920152  0.057995  1
  Si  Si28  1  0.580386  0.787617  0.309817  1
  Si  Si29  1  0.428121  0.205280  0.811234  1
  Si  Si30  1  0.784366  0.584073  0.690517  1
  Si  Si31  1  0.211501  0.420136  0.190197  1
  Si  Si32  1  0.702567  0.075628  0.559707  1
  Si  Si33  1  0.918734  0.289488  0.941893  1
  Si  Si34  1  0.081693  0.716608  0.442423  1
  Rh  Rh35  1  0.187979  0.178728  0.700212  1
