# generated using pymatgen
data_Dy3LuGa5Tc3
_symmetry_space_group_name_H-M   'P 1'
_cell_length_a   5.47435900
_cell_length_b   5.54123073
_cell_length_c   8.70259500
_cell_angle_alpha   90.00000000
_cell_angle_beta   89.99825214
_cell_angle_gamma   120.40492909
_symmetry_Int_Tables_number   1
_chemical_formula_structural   Dy3LuGa5Tc3
_chemical_formula_sum   'Dy3 Lu1 Ga5 Tc3'
_cell_volume   227.68391235
_cell_formula_units_Z   1
loop_
 _symmetry_equiv_pos_site_id
 _symmetry_equiv_pos_as_xyz
  1  'x, y, z'
loop_
 _atom_site_type_symbol
 _atom_site_label
 _atom_site_symmetry_multiplicity
 _atom_site_fract_x
 _atom_site_fract_y
 _atom_site_fract_z
 _atom_site_occupancy
  Dy  Dy0  1  0.334526  0.667264  0.443134  1
  Dy  Dy1  1  0.662465  0.331233  0.552049  1
  Dy  Dy2  1  0.662795  0.331397  0.948339  1
  Lu  Lu3  1  0.335672  0.667837  0.055786  1
  Ga  Ga4  1  0.835819  0.164042  0.249551  1
  Ga  Ga5  1  0.835819  0.671778  0.249551  1
  Ga  Ga6  1  0.325170  0.162585  0.249840  1
  Ga  Ga7  1  0.188994  0.840814  0.750754  1
  Ga  Ga8  1  0.188994  0.348180  0.750754  1
  Tc  Tc9  1  0.975814  0.987907  0.509949  1
  Tc  Tc10  1  0.975074  0.987538  0.990178  1
  Tc  Tc11  1  0.678855  0.839427  0.750113  1
