# generated using pymatgen
data_Ta4Al4Cr3Co
_symmetry_space_group_name_H-M   'P 1'
_cell_length_a   4.90300903
_cell_length_b   4.90304085
_cell_length_c   8.27695500
_cell_angle_alpha   90.00000000
_cell_angle_beta   90.00000000
_cell_angle_gamma   61.40079660
_symmetry_Int_Tables_number   1
_chemical_formula_structural   Ta4Al4Cr3Co
_chemical_formula_sum   'Ta4 Al4 Cr3 Co1'
_cell_volume   174.69810136
_cell_formula_units_Z   1
loop_
 _symmetry_equiv_pos_site_id
 _symmetry_equiv_pos_as_xyz
  1  'x, y, z'
loop_
 _atom_site_type_symbol
 _atom_site_label
 _atom_site_symmetry_multiplicity
 _atom_site_fract_x
 _atom_site_fract_y
 _atom_site_fract_z
 _atom_site_occupancy
  Ta  Ta0  1  0.335786  0.335727  0.555750  1
  Ta  Ta1  1  0.664723  0.664740  0.431953  1
  Ta  Ta2  1  0.664723  0.664740  0.068047  1
  Ta  Ta3  1  0.335786  0.335727  0.944250  1
  Al  Al4  1  0.992293  0.992286  0.499450  1
  Al  Al5  1  0.992293  0.992286  0.000550  1
  Al  Al6  1  0.835247  0.350848  0.750000  1
  Al  Al7  1  0.350921  0.835141  0.750000  1
  Cr  Cr8  1  0.169699  0.650992  0.250000  1
  Cr  Cr9  1  0.650897  0.169782  0.250000  1
  Cr  Cr10  1  0.169780  0.169935  0.250000  1
  Co  Co11  1  0.837851  0.837793  0.750000  1
