# generated using pymatgen
data_Rb7NbTlIn2As5
_symmetry_space_group_name_H-M   'P 1'
_cell_length_a   8.74127239
_cell_length_b   9.62345767
_cell_length_c   14.55439068
_cell_angle_alpha   85.77800867
_cell_angle_beta   83.33884957
_cell_angle_gamma   86.89133016
_symmetry_Int_Tables_number   1
_chemical_formula_structural   Rb7NbTlIn2As5
_chemical_formula_sum   'Rb14 Nb2 Tl2 In4 As10'
_cell_volume   1211.47804883
_cell_formula_units_Z   2
loop_
 _symmetry_equiv_pos_site_id
 _symmetry_equiv_pos_as_xyz
  1  'x, y, z'
loop_
 _atom_site_type_symbol
 _atom_site_label
 _atom_site_symmetry_multiplicity
 _atom_site_fract_x
 _atom_site_fract_y
 _atom_site_fract_z
 _atom_site_occupancy
  Rb  Rb0  1  0.840424  0.360261  0.645857  1
  Rb  Rb1  1  0.815132  0.810458  0.135570  1
  Rb  Rb2  1  0.242283  0.007643  0.468419  1
  Rb  Rb3  1  0.271375  0.258310  0.254642  1
  Rb  Rb4  1  0.737714  0.498604  0.973116  1
  Rb  Rb5  1  0.262286  0.501396  0.026884  1
  Rb  Rb6  1  0.677013  0.082192  0.880898  1
  Rb  Rb7  1  0.757717  0.992357  0.531581  1
  Rb  Rb8  1  0.728625  0.741690  0.745358  1
  Rb  Rb9  1  0.330933  0.338693  0.603649  1
  Rb  Rb10  1  0.159576  0.639739  0.354143  1
  Rb  Rb11  1  0.184868  0.189542  0.864430  1
  Rb  Rb12  1  0.322987  0.917808  0.119102  1
  Rb  Rb13  1  0.669067  0.661307  0.396351  1
  Nb  Nb14  1  0.351337  0.604763  0.775100  1
  Nb  Nb15  1  0.648663  0.395237  0.224900  1
  Tl  Tl16  1  0.044690  0.818522  0.877975  1
  Tl  Tl17  1  0.955310  0.181478  0.122025  1
  In  In18  1  0.364895  0.952666  0.701106  1
  In  In19  1  0.093696  0.719932  0.623152  1
  In  In20  1  0.906304  0.280068  0.376848  1
  In  In21  1  0.635105  0.047334  0.298894  1
  As  As22  1  0.927568  0.457419  0.208845  1
  As  As23  1  0.619489  0.194774  0.122592  1
  As  As24  1  0.072432  0.542581  0.791155  1
  As  As25  1  0.580071  0.298723  0.391626  1
  As  As26  1  0.419929  0.701277  0.608374  1
  As  As27  1  0.028269  0.001147  0.697943  1
  As  As28  1  0.514813  0.400109  0.810021  1
  As  As29  1  0.485187  0.599891  0.189979  1
  As  As30  1  0.380511  0.805226  0.877408  1
  As  As31  1  0.971731  0.998853  0.302057  1
