# generated using pymatgen
data_Hf10ZnGaGeSb5
_symmetry_space_group_name_H-M   'P 1'
_cell_length_a   8.54074160
_cell_length_b   8.57076932
_cell_length_c   5.78849243
_cell_angle_alpha   90.05237993
_cell_angle_beta   89.89487848
_cell_angle_gamma   119.88417254
_symmetry_Int_Tables_number   1
_chemical_formula_structural   Hf10ZnGaGeSb5
_chemical_formula_sum   'Hf10 Zn1 Ga1 Ge1 Sb5'
_cell_volume   367.38080882
_cell_formula_units_Z   1
loop_
 _symmetry_equiv_pos_site_id
 _symmetry_equiv_pos_as_xyz
  1  'x, y, z'
loop_
 _atom_site_type_symbol
 _atom_site_label
 _atom_site_symmetry_multiplicity
 _atom_site_fract_x
 _atom_site_fract_y
 _atom_site_fract_z
 _atom_site_occupancy
  Hf  Hf0  1  0.733037  0.734072  0.248780  1
  Hf  Hf1  1  0.724586  0.000000  0.750508  1
  Hf  Hf2  1  0.998964  0.265928  0.248780  1
  Hf  Hf3  1  0.012052  0.738191  0.750252  1
  Hf  Hf4  1  0.273862  0.261809  0.750252  1
  Hf  Hf5  1  0.265581  0.000000  0.251326  1
  Hf  Hf6  1  0.334663  0.671633  0.502518  1
  Hf  Hf7  1  0.662396  0.327665  0.997179  1
  Hf  Hf8  1  0.663031  0.328367  0.502518  1
  Hf  Hf9  1  0.334730  0.672335  0.997179  1
  Zn  Zn10  1  0.998669  0.000000  0.504661  1
  Ga  Ga11  1  0.389006  0.000000  0.748588  1
  Ge  Ge12  1  0.998856  0.000000  0.995440  1
  Sb  Sb13  1  0.389571  0.390481  0.251960  1
  Sb  Sb14  1  0.999089  0.609519  0.251960  1
  Sb  Sb15  1  0.001658  0.387932  0.747987  1
  Sb  Sb16  1  0.613726  0.612068  0.747987  1
  Sb  Sb17  1  0.606522  0.000000  0.252124  1
