# generated using pymatgen
data_La2HfTh6Se17
_symmetry_space_group_name_H-M   'P 1'
_cell_length_a   8.45581486
_cell_length_b   8.45581491
_cell_length_c   11.20875100
_cell_angle_alpha   80.72665339
_cell_angle_beta   80.72665333
_cell_angle_gamma   65.43981271
_symmetry_Int_Tables_number   1
_chemical_formula_structural   La2HfTh6Se17
_chemical_formula_sum   'La2 Hf1 Th6 Se17'
_cell_volume   715.42923431
_cell_formula_units_Z   1
loop_
 _symmetry_equiv_pos_site_id
 _symmetry_equiv_pos_as_xyz
  1  'x, y, z'
loop_
 _atom_site_type_symbol
 _atom_site_label
 _atom_site_symmetry_multiplicity
 _atom_site_fract_x
 _atom_site_fract_y
 _atom_site_fract_z
 _atom_site_occupancy
  La  La0  1  0.813077  0.305260  0.297530  1
  La  La1  1  0.305260  0.813077  0.297530  1
  Hf  Hf2  1  0.002362  0.002362  0.004840  1
  Th  Th3  1  0.185780  0.696907  0.700286  1
  Th  Th4  1  0.696907  0.185780  0.700286  1
  Th  Th5  1  0.204084  0.204084  0.539377  1
  Th  Th6  1  0.792576  0.792576  0.459642  1
  Th  Th7  1  0.680313  0.680313  0.982713  1
  Th  Th8  1  0.319911  0.319911  0.021192  1
  Se  Se9  1  0.822301  0.431599  0.540072  1
  Se  Se10  1  0.431599  0.822301  0.540072  1
  Se  Se11  1  0.172890  0.567298  0.471137  1
  Se  Se12  1  0.567298  0.172890  0.471137  1
  Se  Se13  1  0.945609  0.327947  0.021318  1
  Se  Se14  1  0.327947  0.945609  0.021318  1
  Se  Se15  1  0.057925  0.675451  0.969709  1
  Se  Se16  1  0.675451  0.057925  0.969709  1
  Se  Se17  1  0.213716  0.213716  0.275786  1
  Se  Se18  1  0.790144  0.790144  0.725771  1
  Se  Se19  1  0.059820  0.059820  0.769915  1
  Se  Se20  1  0.934830  0.934830  0.230280  1
  Se  Se21  1  0.303457  0.303457  0.754386  1
  Se  Se22  1  0.699807  0.699807  0.242565  1
  Se  Se23  1  0.519565  0.519565  0.831852  1
  Se  Se24  1  0.480369  0.480369  0.156818  1
  Se  Se25  1  0.997003  0.997003  0.504762  1
