# generated using pymatgen
data_La3Pr5(Si3Au)4
_symmetry_space_group_name_H-M   'P 1'
_cell_length_a   8.43081300
_cell_length_b   8.44872828
_cell_length_c   8.63871800
_cell_angle_alpha   90.00000000
_cell_angle_beta   90.00000000
_cell_angle_gamma   119.92987623
_symmetry_Int_Tables_number   1
_chemical_formula_structural   La3Pr5(Si3Au)4
_chemical_formula_sum   'La3 Pr5 Si12 Au4'
_cell_volume   533.27002579
_cell_formula_units_Z   1
loop_
 _symmetry_equiv_pos_site_id
 _symmetry_equiv_pos_as_xyz
  1  'x, y, z'
loop_
 _atom_site_type_symbol
 _atom_site_label
 _atom_site_symmetry_multiplicity
 _atom_site_fract_x
 _atom_site_fract_y
 _atom_site_fract_z
 _atom_site_occupancy
  La  La0  1  0.500299  0.000598  0.250000  1
  La  La1  1  0.999894  0.999786  0.750000  1
  La  La2  1  0.000089  0.000177  0.250000  1
  Pr  Pr3  1  0.499709  0.500222  0.750000  1
  Pr  Pr4  1  0.500515  0.499966  0.250000  1
  Pr  Pr5  1  0.000514  0.500222  0.750000  1
  Pr  Pr6  1  0.999451  0.499966  0.250000  1
  Pr  Pr7  1  0.499666  0.999332  0.750000  1
  Si  Si8  1  0.835818  0.164186  0.998719  1
  Si  Si9  1  0.164190  0.835792  0.999546  1
  Si  Si10  1  0.328369  0.164186  0.998719  1
  Si  Si11  1  0.164190  0.835792  0.500454  1
  Si  Si12  1  0.671602  0.835792  0.999546  1
  Si  Si13  1  0.835818  0.164186  0.501281  1
  Si  Si14  1  0.836061  0.672123  0.999935  1
  Si  Si15  1  0.671602  0.835792  0.500454  1
  Si  Si16  1  0.163923  0.327847  0.000575  1
  Si  Si17  1  0.328369  0.164186  0.501281  1
  Si  Si18  1  0.163923  0.327847  0.499425  1
  Si  Si19  1  0.836061  0.672123  0.500065  1
  Au  Au20  1  0.667286  0.334571  0.997541  1
  Au  Au21  1  0.332682  0.665365  0.997706  1
  Au  Au22  1  0.332682  0.665365  0.502294  1
  Au  Au23  1  0.667286  0.334571  0.502459  1
