# generated using pymatgen
data_Dy9Tm11(IrRh5)2
_symmetry_space_group_name_H-M   'P 1'
_cell_length_a   10.82768314
_cell_length_b   10.82633504
_cell_length_c   6.32696509
_cell_angle_alpha   90.00298671
_cell_angle_beta   90.01637508
_cell_angle_gamma   89.99113003
_symmetry_Int_Tables_number   1
_chemical_formula_structural   Dy9Tm11(IrRh5)2
_chemical_formula_sum   'Dy9 Tm11 Ir2 Rh10'
_cell_volume   741.67290863
_cell_formula_units_Z   1
loop_
 _symmetry_equiv_pos_site_id
 _symmetry_equiv_pos_as_xyz
  1  'x, y, z'
loop_
 _atom_site_type_symbol
 _atom_site_label
 _atom_site_symmetry_multiplicity
 _atom_site_fract_x
 _atom_site_fract_y
 _atom_site_fract_z
 _atom_site_occupancy
  Dy  Dy0  1  0.289173  0.091358  0.377583  1
  Dy  Dy1  1  0.289083  0.908575  0.878109  1
  Dy  Dy2  1  0.710404  0.089703  0.876923  1
  Dy  Dy3  1  0.710175  0.909927  0.377176  1
  Dy  Dy4  1  0.588177  0.788503  0.877567  1
  Dy  Dy5  1  0.588320  0.211562  0.377720  1
  Dy  Dy6  1  0.408916  0.788997  0.377831  1
  Dy  Dy7  1  0.410105  0.210156  0.878532  1
  Dy  Dy8  1  0.210694  0.414342  0.620141  1
  Tm  Tm9  1  0.209271  0.585494  0.118857  1
  Tm  Tm10  1  0.792240  0.413028  0.120056  1
  Tm  Tm11  1  0.792479  0.587180  0.620060  1
  Tm  Tm12  1  0.913920  0.708145  0.119781  1
  Tm  Tm13  1  0.913157  0.292000  0.619777  1
  Tm  Tm14  1  0.088245  0.707929  0.620009  1
  Tm  Tm15  1  0.087763  0.292484  0.120072  1
  Tm  Tm16  1  0.999280  0.999625  0.503133  1
  Tm  Tm17  1  0.999398  0.000258  0.003340  1
  Tm  Tm18  1  0.500391  0.499449  0.002702  1
  Tm  Tm19  1  0.501254  0.501184  0.502536  1
  Ir  Ir20  1  0.345430  0.348676  0.248575  1
  Ir  Ir21  1  0.345629  0.652431  0.751936  1
  Rh  Rh22  1  0.849227  0.155240  0.251253  1
  Rh  Rh23  1  0.849287  0.844574  0.751148  1
  Rh  Rh24  1  0.148948  0.153659  0.751576  1
  Rh  Rh25  1  0.149070  0.844693  0.250912  1
  Rh  Rh26  1  0.656705  0.349372  0.750664  1
  Rh  Rh27  1  0.656865  0.650605  0.250726  1
  Rh  Rh28  1  0.500427  0.999739  0.125568  1
  Rh  Rh29  1  0.500394  0.000002  0.625223  1
  Rh  Rh30  1  0.997852  0.500385  0.875962  1
  Rh  Rh31  1  0.997718  0.500726  0.374550  1
