# generated using pymatgen
data_DyZn3CdIr
_symmetry_space_group_name_H-M   'P 1'
_cell_length_a   5.29557347
_cell_length_b   5.29213527
_cell_length_c   5.29557300
_cell_angle_alpha   59.97850306
_cell_angle_beta   59.99999669
_cell_angle_gamma   59.97850778
_symmetry_Int_Tables_number   1
_chemical_formula_structural   DyZn3CdIr
_chemical_formula_sum   'Dy1 Zn3 Cd1 Ir1'
_cell_volume   104.90609227
_cell_formula_units_Z   1
loop_
 _symmetry_equiv_pos_site_id
 _symmetry_equiv_pos_as_xyz
  1  'x, y, z'
loop_
 _atom_site_type_symbol
 _atom_site_label
 _atom_site_symmetry_multiplicity
 _atom_site_fract_x
 _atom_site_fract_y
 _atom_site_fract_z
 _atom_site_occupancy
  Dy  Dy0  1  0.746345  0.760965  0.746345  1
  Zn  Zn1  1  0.373878  0.373177  0.373878  1
  Zn  Zn2  1  0.879065  0.373177  0.373878  1
  Zn  Zn3  1  0.373878  0.373177  0.879065  1
  Cd  Cd4  1  0.000036  0.999892  0.000036  1
  Ir  Ir5  1  0.376796  0.869611  0.376796  1
