# generated using pymatgen
data_Y4Zn4Si3Ge
_symmetry_space_group_name_H-M   'P 1'
_cell_length_a   4.18447700
_cell_length_b   4.18447692
_cell_length_c   15.73809400
_cell_angle_alpha   90.00000000
_cell_angle_beta   90.00000000
_cell_angle_gamma   120.00000855
_symmetry_Int_Tables_number   1
_chemical_formula_structural   Y4Zn4Si3Ge
_chemical_formula_sum   'Y4 Zn4 Si3 Ge1'
_cell_volume   238.65200691
_cell_formula_units_Z   1
loop_
 _symmetry_equiv_pos_site_id
 _symmetry_equiv_pos_as_xyz
  1  'x, y, z'
loop_
 _atom_site_type_symbol
 _atom_site_label
 _atom_site_symmetry_multiplicity
 _atom_site_fract_x
 _atom_site_fract_y
 _atom_site_fract_z
 _atom_site_occupancy
  Y  Y0  1  0.000000  0.000000  0.752094  1
  Y  Y1  1  0.000000  0.000000  0.249529  1
  Y  Y2  1  0.000000  0.000000  0.498080  1
  Y  Y3  1  0.000000  0.000000  0.000399  1
  Zn  Zn4  1  0.666667  0.333333  0.860855  1
  Zn  Zn5  1  0.666667  0.333333  0.644781  1
  Zn  Zn6  1  0.333333  0.666667  0.140025  1
  Zn  Zn7  1  0.333333  0.666667  0.358861  1
  Si  Si8  1  0.666667  0.333333  0.117803  1
  Si  Si9  1  0.666667  0.333333  0.381117  1
  Si  Si10  1  0.333333  0.666667  0.882251  1
  Ge  Ge11  1  0.333333  0.666667  0.614205  1
