# generated using pymatgen
data_Cs6GdTmI12
_symmetry_space_group_name_H-M   'P 1'
_cell_length_a   10.58346757
_cell_length_b   10.56447067
_cell_length_c   8.68269200
_cell_angle_alpha   90.00000000
_cell_angle_beta   90.00000000
_cell_angle_gamma   89.83010571
_symmetry_Int_Tables_number   1
_chemical_formula_structural   Cs6GdTmI12
_chemical_formula_sum   'Cs6 Gd1 Tm1 I12'
_cell_volume   970.79652160
_cell_formula_units_Z   1
loop_
 _symmetry_equiv_pos_site_id
 _symmetry_equiv_pos_as_xyz
  1  'x, y, z'
loop_
 _atom_site_type_symbol
 _atom_site_label
 _atom_site_symmetry_multiplicity
 _atom_site_fract_x
 _atom_site_fract_y
 _atom_site_fract_z
 _atom_site_occupancy
  Cs  Cs0  1  0.000000  0.000000  0.500000  1
  Cs  Cs1  1  0.000000  0.000000  0.000000  1
  Cs  Cs2  1  0.233152  0.587685  0.500000  1
  Cs  Cs3  1  0.766848  0.412315  0.500000  1
  Cs  Cs4  1  0.412584  0.234757  0.000000  1
  Cs  Cs5  1  0.587416  0.765243  0.000000  1
  Gd  Gd6  1  0.500000  0.000000  0.500000  1
  Tm  Tm7  1  0.000000  0.500000  0.000000  1
  I  I8  1  0.697586  0.061575  0.749066  1
  I  I9  1  0.302414  0.938425  0.749066  1
  I  I10  1  0.940278  0.693918  0.245168  1
  I  I11  1  0.059722  0.306082  0.245168  1
  I  I12  1  0.302414  0.938425  0.250934  1
  I  I13  1  0.697586  0.061575  0.250934  1
  I  I14  1  0.059722  0.306082  0.754832  1
  I  I15  1  0.940278  0.693918  0.754832  1
  I  I16  1  0.573469  0.720021  0.500000  1
  I  I17  1  0.426531  0.279979  0.500000  1
  I  I18  1  0.273835  0.572781  0.000000  1
  I  I19  1  0.726165  0.427219  0.000000  1
