# generated using pymatgen
data_Dy3HoMn3VB16
_symmetry_space_group_name_H-M   'P 1'
_cell_length_a   3.42410100
_cell_length_b   5.92185211
_cell_length_c   11.44732511
_cell_angle_alpha   89.97288621
_cell_angle_beta   90.00000000
_cell_angle_gamma   90.00000000
_symmetry_Int_Tables_number   1
_chemical_formula_structural   Dy3HoMn3VB16
_chemical_formula_sum   'Dy3 Ho1 Mn3 V1 B16'
_cell_volume   232.11761122
_cell_formula_units_Z   1
loop_
 _symmetry_equiv_pos_site_id
 _symmetry_equiv_pos_as_xyz
  1  'x, y, z'
loop_
 _atom_site_type_symbol
 _atom_site_label
 _atom_site_symmetry_multiplicity
 _atom_site_fract_x
 _atom_site_fract_y
 _atom_site_fract_z
 _atom_site_occupancy
  Dy  Dy0  1  0.500000  0.626287  0.149051  1
  Dy  Dy1  1  0.500000  0.373863  0.849825  1
  Dy  Dy2  1  0.500000  0.125186  0.348648  1
  Ho  Ho3  1  0.500000  0.876256  0.651960  1
  Mn  Mn4  1  0.500000  0.376886  0.582512  1
  Mn  Mn5  1  0.500000  0.127611  0.081974  1
  Mn  Mn6  1  0.500000  0.872028  0.915396  1
  V  V7  1  0.500000  0.624347  0.419207  1
  B  B8  1  0.000000  0.975944  0.189859  1
  B  B9  1  0.000000  0.024805  0.808861  1
  B  B10  1  0.000000  0.473026  0.307799  1
  B  B11  1  0.000000  0.523253  0.691923  1
  B  B12  1  0.000000  0.784327  0.313891  1
  B  B13  1  0.000000  0.219897  0.683719  1
  B  B14  1  0.000000  0.279874  0.182677  1
  B  B15  1  0.000000  0.719169  0.816333  1
  B  B16  1  0.000000  0.865220  0.469184  1
  B  B17  1  0.000000  0.138211  0.534363  1
  B  B18  1  0.000000  0.361461  0.031689  1
  B  B19  1  0.000000  0.638295  0.967353  1
  B  B20  1  0.000000  0.887786  0.045558  1
  B  B21  1  0.000000  0.111756  0.953009  1
  B  B22  1  0.000000  0.383906  0.455889  1
  B  B23  1  0.000000  0.610606  0.549323  1
