# generated using pymatgen
data_Tb3Al12NiRu3
_symmetry_space_group_name_H-M   'P 1'
_cell_length_a   8.81536018
_cell_length_b   8.81536045
_cell_length_c   9.50940891
_cell_angle_alpha   90.26504499
_cell_angle_beta   89.73495375
_cell_angle_gamma   120.16061410
_symmetry_Int_Tables_number   1
_chemical_formula_structural   Tb3Al12NiRu3
_chemical_formula_sum   'Tb6 Al24 Ni2 Ru6'
_cell_volume   638.92950226
_cell_formula_units_Z   2
loop_
 _symmetry_equiv_pos_site_id
 _symmetry_equiv_pos_as_xyz
  1  'x, y, z'
loop_
 _atom_site_type_symbol
 _atom_site_label
 _atom_site_symmetry_multiplicity
 _atom_site_fract_x
 _atom_site_fract_y
 _atom_site_fract_z
 _atom_site_occupancy
  Tb  Tb0  1  0.386826  0.194767  0.250747  1
  Tb  Tb1  1  0.807491  0.192509  0.250039  1
  Tb  Tb2  1  0.805233  0.613174  0.250747  1
  Tb  Tb3  1  0.613174  0.805233  0.749253  1
  Tb  Tb4  1  0.192509  0.807491  0.749961  1
  Tb  Tb5  1  0.194767  0.386826  0.749253  1
  Al  Al6  1  0.438780  0.878828  0.254903  1
  Al  Al7  1  0.121172  0.561220  0.254903  1
  Al  Al8  1  0.437974  0.562026  0.252555  1
  Al  Al9  1  0.561220  0.121172  0.745097  1
  Al  Al10  1  0.878828  0.438780  0.745097  1
  Al  Al11  1  0.562026  0.437974  0.747445  1
  Al  Al12  1  0.162453  0.837547  0.423310  1
  Al  Al13  1  0.163816  0.326541  0.424085  1
  Al  Al14  1  0.673459  0.836184  0.424085  1
  Al  Al15  1  0.837547  0.162453  0.576690  1
  Al  Al16  1  0.836184  0.673459  0.575915  1
  Al  Al17  1  0.326541  0.163816  0.575915  1
  Al  Al18  1  0.837507  0.162493  0.921435  1
  Al  Al19  1  0.837916  0.674815  0.921832  1
  Al  Al20  1  0.325185  0.162084  0.921832  1
  Al  Al21  1  0.162493  0.837507  0.078565  1
  Al  Al22  1  0.162084  0.325185  0.078168  1
  Al  Al23  1  0.674815  0.837916  0.078168  1
  Al  Al24  1  0.332337  0.667663  0.520164  1
  Al  Al25  1  0.667663  0.332337  0.479836  1
  Al  Al26  1  0.666754  0.333246  0.014177  1
  Al  Al27  1  0.333246  0.666754  0.985823  1
  Al  Al28  1  0.999394  0.000606  0.249859  1
  Al  Al29  1  0.000606  0.999394  0.750141  1
  Ni  Ni30  1  0.500000  0.000000  0.500000  1
  Ni  Ni31  1  0.000000  0.500000  0.500000  1
  Ru  Ru32  1  0.000000  0.000000  0.500000  1
  Ru  Ru33  1  0.000000  0.000000  0.000000  1
  Ru  Ru34  1  0.500000  0.500000  0.500000  1
  Ru  Ru35  1  0.500000  0.000000  0.000000  1
  Ru  Ru36  1  0.000000  0.500000  0.000000  1
  Ru  Ru37  1  0.500000  0.500000  0.000000  1
