# generated using pymatgen
data_Tb7Sm(Dy3Sn4)4
_symmetry_space_group_name_H-M   'P 1'
_cell_length_a   8.06245770
_cell_length_b   8.21323920
_cell_length_c   15.51013703
_cell_angle_alpha   90.00694585
_cell_angle_beta   89.95888038
_cell_angle_gamma   89.97575324
_symmetry_Int_Tables_number   1
_chemical_formula_structural   Tb7Sm(Dy3Sn4)4
_chemical_formula_sum   'Tb7 Sm1 Dy12 Sn16'
_cell_volume   1027.06374976
_cell_formula_units_Z   1
loop_
 _symmetry_equiv_pos_site_id
 _symmetry_equiv_pos_as_xyz
  1  'x, y, z'
loop_
 _atom_site_type_symbol
 _atom_site_label
 _atom_site_symmetry_multiplicity
 _atom_site_fract_x
 _atom_site_fract_y
 _atom_site_fract_z
 _atom_site_occupancy
  Tb  Tb0  1  0.518285  0.320980  0.902461  1
  Tb  Tb1  1  0.018309  0.179193  0.597614  1
  Tb  Tb2  1  0.481729  0.679109  0.402384  1
  Tb  Tb3  1  0.981792  0.820755  0.097694  1
  Tb  Tb4  1  0.481761  0.679175  0.097628  1
  Tb  Tb5  1  0.981720  0.820882  0.402383  1
  Tb  Tb6  1  0.518274  0.320914  0.597449  1
  Sm  Sm7  1  0.018067  0.179220  0.902689  1
  Dy  Dy8  1  0.365819  0.835920  0.877890  1
  Dy  Dy9  1  0.865765  0.663942  0.622008  1
  Dy  Dy10  1  0.634209  0.163882  0.377838  1
  Dy  Dy11  1  0.134362  0.336218  0.122311  1
  Dy  Dy12  1  0.634289  0.163846  0.122228  1
  Dy  Dy13  1  0.134222  0.336104  0.377823  1
  Dy  Dy14  1  0.365790  0.836046  0.622039  1
  Dy  Dy15  1  0.865685  0.663957  0.877897  1
  Dy  Dy16  1  0.198286  0.502389  0.749877  1
  Dy  Dy17  1  0.697981  0.997589  0.749830  1
  Dy  Dy18  1  0.801880  0.497787  0.250036  1
  Dy  Dy19  1  0.301902  0.002212  0.249996  1
  Sn  Sn20  1  0.296408  0.036954  0.042011  1
  Sn  Sn21  1  0.795591  0.462670  0.458324  1
  Sn  Sn22  1  0.704441  0.962746  0.541590  1
  Sn  Sn23  1  0.204659  0.537887  0.958488  1
  Sn  Sn24  1  0.703426  0.961992  0.958590  1
  Sn  Sn25  1  0.204387  0.537316  0.541585  1
  Sn  Sn26  1  0.295629  0.037324  0.458332  1
  Sn  Sn27  1  0.795504  0.462836  0.041736  1
  Sn  Sn28  1  0.564235  0.620102  0.749971  1
  Sn  Sn29  1  0.064287  0.879416  0.749875  1
  Sn  Sn30  1  0.435869  0.379759  0.250028  1
  Sn  Sn31  1  0.935844  0.120316  0.250055  1
  Sn  Sn32  1  0.327602  0.145462  0.749779  1
  Sn  Sn33  1  0.826550  0.355076  0.749513  1
  Sn  Sn34  1  0.672736  0.854461  0.250014  1
  Sn  Sn35  1  0.172704  0.645565  0.250035  1
