# generated using pymatgen
data_Tb2SmSi4
_symmetry_space_group_name_H-M   'P 1'
_cell_length_a   3.91725953
_cell_length_b   4.26707140
_cell_length_c   9.21986800
_cell_angle_alpha   76.62010836
_cell_angle_beta   77.73485280
_cell_angle_gamma   89.99998686
_symmetry_Int_Tables_number   1
_chemical_formula_structural   Tb2SmSi4
_chemical_formula_sum   'Tb2 Sm1 Si4'
_cell_volume   146.31098856
_cell_formula_units_Z   1
loop_
 _symmetry_equiv_pos_site_id
 _symmetry_equiv_pos_as_xyz
  1  'x, y, z'
loop_
 _atom_site_type_symbol
 _atom_site_label
 _atom_site_symmetry_multiplicity
 _atom_site_fract_x
 _atom_site_fract_y
 _atom_site_fract_z
 _atom_site_occupancy
  Tb  Tb0  1  0.683393  0.183919  0.633844  1
  Tb  Tb1  1  0.316606  0.816079  0.366156  1
  Sm  Sm2  1  0.000000  0.000001  0.000001  1
  Si  Si3  1  0.850999  0.351306  0.298228  1
  Si  Si4  1  0.149002  0.648693  0.701771  1
  Si  Si5  1  0.565741  0.567337  0.866847  1
  Si  Si6  1  0.434259  0.432664  0.133152  1
