# generated using pymatgen
data_ScTiSiRh5
_symmetry_space_group_name_H-M   'P 1'
_cell_length_a   4.02008000
_cell_length_b   5.43427071
_cell_length_c   10.63123814
_cell_angle_alpha   90.16601958
_cell_angle_beta   90.00000000
_cell_angle_gamma   90.00000000
_symmetry_Int_Tables_number   1
_chemical_formula_structural   ScTiSiRh5
_chemical_formula_sum   'Sc2 Ti2 Si2 Rh10'
_cell_volume   232.25121160
_cell_formula_units_Z   2
loop_
 _symmetry_equiv_pos_site_id
 _symmetry_equiv_pos_as_xyz
  1  'x, y, z'
loop_
 _atom_site_type_symbol
 _atom_site_label
 _atom_site_symmetry_multiplicity
 _atom_site_fract_x
 _atom_site_fract_y
 _atom_site_fract_z
 _atom_site_occupancy
  Sc  Sc0  1  0.500000  0.327552  0.139985  1
  Sc  Sc1  1  0.500000  0.672448  0.860015  1
  Ti  Ti2  1  0.500000  0.830748  0.358018  1
  Ti  Ti3  1  0.500000  0.169252  0.641982  1
  Si  Si4  1  0.000000  0.000000  0.000000  1
  Si  Si5  1  0.000000  0.500000  0.500000  1
  Rh  Rh6  1  0.000000  0.000000  0.500000  1
  Rh  Rh7  1  0.000000  0.500000  0.000000  1
  Rh  Rh8  1  0.000000  0.073093  0.247168  1
  Rh  Rh9  1  0.000000  0.926907  0.752832  1
  Rh  Rh10  1  0.000000  0.580976  0.265364  1
  Rh  Rh11  1  0.000000  0.419024  0.734636  1
  Rh  Rh12  1  0.500000  0.316979  0.401188  1
  Rh  Rh13  1  0.500000  0.683021  0.598812  1
  Rh  Rh14  1  0.500000  0.824564  0.108854  1
  Rh  Rh15  1  0.500000  0.175436  0.891146  1
