# generated using pymatgen
data_Th12Si5Ge7Pd12
_symmetry_space_group_name_H-M   'P 1'
_cell_length_a   4.37267400
_cell_length_b   7.57982516
_cell_length_c   23.43192400
_cell_angle_alpha   90.01195075
_cell_angle_beta   90.00000000
_cell_angle_gamma   90.00000000
_symmetry_Int_Tables_number   1
_chemical_formula_structural   Th12Si5Ge7Pd12
_chemical_formula_sum   'Th12 Si5 Ge7 Pd12'
_cell_volume   776.63011899
_cell_formula_units_Z   1
loop_
 _symmetry_equiv_pos_site_id
 _symmetry_equiv_pos_as_xyz
  1  'x, y, z'
loop_
 _atom_site_type_symbol
 _atom_site_label
 _atom_site_symmetry_multiplicity
 _atom_site_fract_x
 _atom_site_fract_y
 _atom_site_fract_z
 _atom_site_occupancy
  Th  Th0  1  0.250000  0.748672  0.333786  1
  Th  Th1  1  0.750000  0.253193  0.666012  1
  Th  Th2  1  0.750000  0.245425  0.166529  1
  Th  Th3  1  0.250000  0.752659  0.833906  1
  Th  Th4  1  0.250000  0.755694  0.166558  1
  Th  Th5  1  0.750000  0.246127  0.833649  1
  Th  Th6  1  0.750000  0.252501  0.333131  1
  Th  Th7  1  0.250000  0.745580  0.666198  1
  Th  Th8  1  0.250000  0.751454  0.999681  1
  Th  Th9  1  0.750000  0.248890  0.000500  1
  Th  Th10  1  0.750000  0.251570  0.500066  1
  Th  Th11  1  0.250000  0.748146  0.499601  1
  Si  Si12  1  0.250000  0.082431  0.080432  1
  Si  Si13  1  0.750000  0.918153  0.920476  1
  Si  Si14  1  0.750000  0.581849  0.420331  1
  Si  Si15  1  0.250000  0.417524  0.579951  1
  Si  Si16  1  0.250000  0.082431  0.250554  1
  Ge  Ge17  1  0.750000  0.915852  0.750608  1
  Ge  Ge18  1  0.750000  0.586141  0.251086  1
  Ge  Ge19  1  0.250000  0.415540  0.750742  1
  Ge  Ge20  1  0.250000  0.085839  0.419112  1
  Ge  Ge21  1  0.750000  0.914471  0.580781  1
  Ge  Ge22  1  0.750000  0.585808  0.081403  1
  Ge  Ge23  1  0.250000  0.414247  0.919640  1
  Pd  Pd24  1  0.250000  0.409400  0.247632  1
  Pd  Pd25  1  0.750000  0.582862  0.750547  1
  Pd  Pd26  1  0.750000  0.924806  0.250504  1
  Pd  Pd27  1  0.250000  0.082418  0.747761  1
  Pd  Pd28  1  0.250000  0.424916  0.415031  1
  Pd  Pd29  1  0.750000  0.575393  0.584350  1
  Pd  Pd30  1  0.750000  0.924705  0.084128  1
  Pd  Pd31  1  0.250000  0.075236  0.915117  1
  Pd  Pd32  1  0.250000  0.409473  0.086614  1
  Pd  Pd33  1  0.750000  0.591205  0.913417  1
  Pd  Pd34  1  0.750000  0.908715  0.413798  1
  Pd  Pd35  1  0.250000  0.090675  0.586368  1
