# generated using pymatgen
data_Nd8DyErIr6
_symmetry_space_group_name_H-M   'P 1'
_cell_length_a   11.19607500
_cell_length_b   11.19607500
_cell_length_c   6.51398800
_cell_angle_alpha   90.00000000
_cell_angle_beta   90.00000000
_cell_angle_gamma   90.00000000
_symmetry_Int_Tables_number   1
_chemical_formula_structural   Nd8DyErIr6
_chemical_formula_sum   'Nd16 Dy2 Er2 Ir12'
_cell_volume   816.54204525
_cell_formula_units_Z   2
loop_
 _symmetry_equiv_pos_site_id
 _symmetry_equiv_pos_as_xyz
  1  'x, y, z'
loop_
 _atom_site_type_symbol
 _atom_site_label
 _atom_site_symmetry_multiplicity
 _atom_site_fract_x
 _atom_site_fract_y
 _atom_site_fract_z
 _atom_site_occupancy
  Nd  Nd0  1  0.289092  0.087700  0.379740  1
  Nd  Nd1  1  0.289092  0.912300  0.879740  1
  Nd  Nd2  1  0.710908  0.087700  0.879740  1
  Nd  Nd3  1  0.710908  0.912300  0.379740  1
  Nd  Nd4  1  0.587652  0.788858  0.879686  1
  Nd  Nd5  1  0.587652  0.211142  0.379686  1
  Nd  Nd6  1  0.412348  0.788858  0.379686  1
  Nd  Nd7  1  0.412348  0.211142  0.879686  1
  Nd  Nd8  1  0.211142  0.412348  0.620314  1
  Nd  Nd9  1  0.211142  0.587652  0.120314  1
  Nd  Nd10  1  0.788858  0.412348  0.120314  1
  Nd  Nd11  1  0.788858  0.587652  0.620314  1
  Nd  Nd12  1  0.912300  0.710908  0.120260  1
  Nd  Nd13  1  0.912300  0.289092  0.620260  1
  Nd  Nd14  1  0.087700  0.710908  0.620260  1
  Nd  Nd15  1  0.087700  0.289092  0.120260  1
  Dy  Dy16  1  0.000000  0.000000  0.500000  1
  Dy  Dy17  1  0.000000  0.000000  0.000000  1
  Er  Er18  1  0.500000  0.500000  0.000000  1
  Er  Er19  1  0.500000  0.500000  0.500000  1
  Ir  Ir20  1  0.850786  0.149214  0.250000  1
  Ir  Ir21  1  0.850786  0.850786  0.750000  1
  Ir  Ir22  1  0.149214  0.149214  0.750000  1
  Ir  Ir23  1  0.149214  0.850786  0.250000  1
  Ir  Ir24  1  0.648550  0.351450  0.750000  1
  Ir  Ir25  1  0.648550  0.648550  0.250000  1
  Ir  Ir26  1  0.351450  0.351450  0.250000  1
  Ir  Ir27  1  0.351450  0.648550  0.750000  1
  Ir  Ir28  1  0.500000  0.000000  0.118905  1
  Ir  Ir29  1  0.500000  0.000000  0.618905  1
  Ir  Ir30  1  0.000000  0.500000  0.881095  1
  Ir  Ir31  1  0.000000  0.500000  0.381095  1
