# generated using pymatgen
data_Sr4Ce3(ThS4)5
_symmetry_space_group_name_H-M   'P 1'
_cell_length_a   7.54369422
_cell_length_b   8.28462658
_cell_length_c   12.00549900
_cell_angle_alpha   90.08611702
_cell_angle_beta   89.96745462
_cell_angle_gamma   90.05057660
_symmetry_Int_Tables_number   1
_chemical_formula_structural   Sr4Ce3(ThS4)5
_chemical_formula_sum   'Sr4 Ce3 Th5 S20'
_cell_volume   750.30268439
_cell_formula_units_Z   1
loop_
 _symmetry_equiv_pos_site_id
 _symmetry_equiv_pos_as_xyz
  1  'x, y, z'
loop_
 _atom_site_type_symbol
 _atom_site_label
 _atom_site_symmetry_multiplicity
 _atom_site_fract_x
 _atom_site_fract_y
 _atom_site_fract_z
 _atom_site_occupancy
  Sr  Sr0  1  0.965155  0.505152  0.826861  1
  Sr  Sr1  1  0.466369  0.493812  0.674526  1
  Sr  Sr2  1  0.034431  0.494086  0.172818  1
  Sr  Sr3  1  0.534619  0.504647  0.325858  1
  Ce  Ce4  1  0.570569  0.251928  0.008395  1
  Ce  Ce5  1  0.928044  0.251940  0.508361  1
  Ce  Ce6  1  0.429073  0.748209  0.991570  1
  Th  Th7  1  0.073767  0.748233  0.490350  1
  Th  Th8  1  0.519265  0.001800  0.320817  1
  Th  Th9  1  0.019165  0.999834  0.177947  1
  Th  Th10  1  0.481206  0.999976  0.679418  1
  Th  Th11  1  0.980412  0.001250  0.821837  1
  S  S12  1  0.839762  0.959544  0.600809  1
  S  S13  1  0.827266  0.774291  0.312629  1
  S  S14  1  0.670820  0.774848  0.814908  1
  S  S15  1  0.171231  0.225095  0.685692  1
  S  S16  1  0.544671  0.223184  0.502026  1
  S  S17  1  0.044736  0.776650  0.998159  1
  S  S18  1  0.457865  0.776730  0.498018  1
  S  S19  1  0.955299  0.223966  0.002098  1
  S  S20  1  0.197452  0.763710  0.716959  1
  S  S21  1  0.696315  0.235929  0.785430  1
  S  S22  1  0.802878  0.235720  0.284181  1
  S  S23  1  0.658580  0.957858  0.098754  1
  S  S24  1  0.830574  0.538210  0.588195  1
  S  S25  1  0.331941  0.459580  0.913822  1
  S  S26  1  0.169197  0.454742  0.411649  1
  S  S27  1  0.667544  0.540592  0.086167  1
  S  S28  1  0.302341  0.764136  0.216659  1
  S  S29  1  0.340772  0.042607  0.901050  1
  S  S30  1  0.159485  0.046513  0.399323  1
  S  S31  1  0.329199  0.225228  0.184711  1
