# generated using pymatgen
data_Sr2B4Ir3Rh
_symmetry_space_group_name_H-M   'P 1'
_cell_length_a   7.18226246
_cell_length_b   6.19275316
_cell_length_c   5.60647617
_cell_angle_alpha   74.80707935
_cell_angle_beta   56.31433183
_cell_angle_gamma   49.41210132
_symmetry_Int_Tables_number   1
_chemical_formula_structural   Sr2B4Ir3Rh
_chemical_formula_sum   'Sr2 B4 Ir3 Rh1'
_cell_volume   155.63586536
_cell_formula_units_Z   1
loop_
 _symmetry_equiv_pos_site_id
 _symmetry_equiv_pos_as_xyz
  1  'x, y, z'
loop_
 _atom_site_type_symbol
 _atom_site_label
 _atom_site_symmetry_multiplicity
 _atom_site_fract_x
 _atom_site_fract_y
 _atom_site_fract_z
 _atom_site_occupancy
  Sr  Sr0  1  0.999396  0.999396  0.000604  1
  Sr  Sr1  1  0.252878  0.252878  0.247122  1
  B  B2  1  0.320586  0.683818  0.330091  1
  B  B3  1  0.576342  0.920416  0.580436  1
  B  B4  1  0.683818  0.320586  0.665506  1
  B  B5  1  0.920416  0.576342  0.922807  1
  Ir  Ir6  1  0.630247  0.630247  0.369753  1
  Ir  Ir7  1  0.879654  0.879654  0.620346  1
  Ir  Ir8  1  0.617827  0.617827  0.882173  1
  Rh  Rh9  1  0.368836  0.368836  0.631164  1
