# generated using pymatgen
data_Rb3Al3V4O16
_symmetry_space_group_name_H-M   'P 1'
_cell_length_a   4.96332072
_cell_length_b   7.41769690
_cell_length_c   11.37444362
_cell_angle_alpha   103.10791785
_cell_angle_beta   90.08356857
_cell_angle_gamma   96.39380164
_symmetry_Int_Tables_number   1
_chemical_formula_structural   Rb3Al3V4O16
_chemical_formula_sum   'Rb3 Al3 V4 O16'
_cell_volume   405.16378342
_cell_formula_units_Z   1
loop_
 _symmetry_equiv_pos_site_id
 _symmetry_equiv_pos_as_xyz
  1  'x, y, z'
loop_
 _atom_site_type_symbol
 _atom_site_label
 _atom_site_symmetry_multiplicity
 _atom_site_fract_x
 _atom_site_fract_y
 _atom_site_fract_z
 _atom_site_occupancy
  Rb  Rb0  1  0.882382  0.265046  0.519921  1
  Rb  Rb1  1  0.000000  0.000000  0.000000  1
  Rb  Rb2  1  0.117618  0.734954  0.480079  1
  Al  Al3  1  0.009591  0.554828  0.128857  1
  Al  Al4  1  0.990409  0.445172  0.871143  1
  Al  Al5  1  0.500000  0.500000  0.000000  1
  V  V6  1  0.482891  0.671052  0.762229  1
  V  V7  1  0.532816  0.861998  0.232002  1
  V  V8  1  0.517109  0.328948  0.237771  1
  V  V9  1  0.467184  0.138002  0.767998  1
  O  O10  1  0.685967  0.594004  0.867982  1
  O  O11  1  0.796123  0.238465  0.761047  1
  O  O12  1  0.314033  0.405996  0.132018  1
  O  O13  1  0.375441  0.358516  0.371525  1
  O  O14  1  0.293552  0.295003  0.876988  1
  O  O15  1  0.624559  0.641484  0.628475  1
  O  O16  1  0.833864  0.457911  0.255618  1
  O  O17  1  0.325443  0.097102  0.630710  1
  O  O18  1  0.706448  0.704997  0.123012  1
  O  O19  1  0.456469  0.920420  0.819051  1
  O  O20  1  0.198151  0.618636  0.994715  1
  O  O21  1  0.674557  0.902898  0.369290  1
  O  O22  1  0.203877  0.761535  0.238953  1
  O  O23  1  0.543531  0.079580  0.180949  1
  O  O24  1  0.801849  0.381364  0.005285  1
  O  O25  1  0.166136  0.542089  0.744382  1
