# generated using pymatgen
data_Dy2Ho7Er(In2Pt)4
_symmetry_space_group_name_H-M   'P 1'
_cell_length_a   3.63206800
_cell_length_b   8.12580409
_cell_length_c   18.22866621
_cell_angle_alpha   90.01751042
_cell_angle_beta   90.00000000
_cell_angle_gamma   90.00000000
_symmetry_Int_Tables_number   1
_chemical_formula_structural   Dy2Ho7Er(In2Pt)4
_chemical_formula_sum   'Dy2 Ho7 Er1 In8 Pt4'
_cell_volume   537.99122347
_cell_formula_units_Z   1
loop_
 _symmetry_equiv_pos_site_id
 _symmetry_equiv_pos_as_xyz
  1  'x, y, z'
loop_
 _atom_site_type_symbol
 _atom_site_label
 _atom_site_symmetry_multiplicity
 _atom_site_fract_x
 _atom_site_fract_y
 _atom_site_fract_z
 _atom_site_occupancy
  Dy  Dy0  1  0.000000  0.000004  0.000004  1
  Dy  Dy1  1  0.000000  0.499999  0.499996  1
  Ho  Ho2  1  0.000000  0.116747  0.414395  1
  Ho  Ho3  1  0.000000  0.883222  0.585590  1
  Ho  Ho4  1  0.000000  0.383214  0.914408  1
  Ho  Ho5  1  0.000000  0.616792  0.085613  1
  Ho  Ho6  1  0.000000  0.243408  0.220524  1
  Ho  Ho7  1  0.000000  0.756598  0.779474  1
  Ho  Ho8  1  0.000000  0.256605  0.720522  1
  Er  Er9  1  0.000000  0.743443  0.279454  1
  In  In10  1  0.500000  0.423327  0.351041  1
  In  In11  1  0.500000  0.576741  0.648945  1
  In  In12  1  0.500000  0.076745  0.851053  1
  In  In13  1  0.500000  0.923220  0.148979  1
  In  In14  1  0.500000  0.292897  0.066805  1
  In  In15  1  0.500000  0.707121  0.933191  1
  In  In16  1  0.500000  0.207118  0.566804  1
  In  In17  1  0.500000  0.792856  0.433151  1
  Pt  Pt18  1  0.500000  0.024453  0.303562  1
  Pt  Pt19  1  0.500000  0.975284  0.696409  1
  Pt  Pt20  1  0.500000  0.475287  0.803598  1
  Pt  Pt21  1  0.500000  0.524919  0.196481  1
