# generated using pymatgen
data_Ho4Lu(SiB4)2
_symmetry_space_group_name_H-M   'P 1'
_cell_length_a   7.18899600
_cell_length_b   7.18899600
_cell_length_c   7.99176000
_cell_angle_alpha   90.00000000
_cell_angle_beta   90.00000000
_cell_angle_gamma   90.00000000
_symmetry_Int_Tables_number   1
_chemical_formula_structural   Ho4Lu(SiB4)2
_chemical_formula_sum   'Ho8 Lu2 Si4 B16'
_cell_volume   413.02745100
_cell_formula_units_Z   2
loop_
 _symmetry_equiv_pos_site_id
 _symmetry_equiv_pos_as_xyz
  1  'x, y, z'
loop_
 _atom_site_type_symbol
 _atom_site_label
 _atom_site_symmetry_multiplicity
 _atom_site_fract_x
 _atom_site_fract_y
 _atom_site_fract_z
 _atom_site_occupancy
  Ho  Ho0  1  0.680367  0.180367  0.225315  1
  Ho  Ho1  1  0.319633  0.819633  0.774685  1
  Ho  Ho2  1  0.319633  0.819633  0.225315  1
  Ho  Ho3  1  0.819633  0.680367  0.225315  1
  Ho  Ho4  1  0.819633  0.680367  0.774685  1
  Ho  Ho5  1  0.680367  0.180367  0.774685  1
  Ho  Ho6  1  0.180367  0.319633  0.774685  1
  Ho  Ho7  1  0.180367  0.319633  0.225315  1
  Lu  Lu8  1  0.000000  0.000000  0.500000  1
  Lu  Lu9  1  0.500000  0.500000  0.500000  1
  Si  Si10  1  0.116117  0.616117  0.500000  1
  Si  Si11  1  0.883883  0.383883  0.500000  1
  Si  Si12  1  0.383883  0.116117  0.500000  1
  Si  Si13  1  0.616117  0.883883  0.500000  1
  B  B14  1  0.172694  0.039280  0.000000  1
  B  B15  1  0.827306  0.960720  0.000000  1
  B  B16  1  0.960720  0.172694  0.000000  1
  B  B17  1  0.327306  0.539280  0.000000  1
  B  B18  1  0.039280  0.827306  0.000000  1
  B  B19  1  0.672694  0.460720  0.000000  1
  B  B20  1  0.539280  0.672694  0.000000  1
  B  B21  1  0.460720  0.327306  0.000000  1
  B  B22  1  0.089447  0.589447  0.000000  1
  B  B23  1  0.910553  0.410553  0.000000  1
  B  B24  1  0.410553  0.089447  0.000000  1
  B  B25  1  0.589447  0.910553  0.000000  1
  B  B26  1  0.000000  0.000000  0.164925  1
  B  B27  1  0.000000  0.000000  0.835075  1
  B  B28  1  0.500000  0.500000  0.835075  1
  B  B29  1  0.500000  0.500000  0.164925  1
