# generated using pymatgen
data_Ba14LaBi11
_symmetry_space_group_name_H-M   'P 1'
_cell_length_a   18.69209710
_cell_length_b   18.69209659
_cell_length_c   18.69209700
_cell_angle_alpha   117.45216392
_cell_angle_beta   117.45216311
_cell_angle_gamma   94.47270914
_symmetry_Int_Tables_number   1
_chemical_formula_structural   Ba14LaBi11
_chemical_formula_sum   'Ba56 La4 Bi44'
_cell_volume   4780.14041685
_cell_formula_units_Z   4
loop_
 _symmetry_equiv_pos_site_id
 _symmetry_equiv_pos_as_xyz
  1  'x, y, z'
loop_
 _atom_site_type_symbol
 _atom_site_label
 _atom_site_symmetry_multiplicity
 _atom_site_fract_x
 _atom_site_fract_y
 _atom_site_fract_z
 _atom_site_occupancy
  Ba  Ba0  1  0.591368  0.871631  0.368684  1
  Ba  Ba1  1  0.122647  0.963359  0.520732  1
  Ba  Ba2  1  0.770361  0.375000  0.895361  1
  Ba  Ba3  1  0.125000  0.729639  0.104639  1
  Ba  Ba4  1  0.851915  0.192627  0.979268  1
  Ba  Ba5  1  0.127353  0.148085  0.340712  1
  Ba  Ba6  1  0.355034  0.750047  0.342879  1
  Ba  Ba7  1  0.898085  0.057373  0.520732  1
  Ba  Ba8  1  0.942627  0.463359  0.840712  1
  Ba  Ba9  1  0.036641  0.557373  0.159288  1
  Ba  Ba10  1  0.158632  0.378369  0.131316  1
  Ba  Ba11  1  0.002948  0.371631  0.280262  1
  Ba  Ba12  1  0.442627  0.601915  0.479268  1
  Ba  Ba13  1  0.307373  0.648085  0.020732  1
  Ba  Ba14  1  0.621631  0.752948  0.780262  1
  Ba  Ba15  1  0.247052  0.027315  0.868684  1
  Ba  Ba16  1  0.125000  0.229639  0.604639  1
  Ba  Ba17  1  0.487846  0.092834  0.342879  1
  Ba  Ba18  1  0.407166  0.012154  0.657121  1
  Ba  Ba19  1  0.342834  0.237846  0.842879  1
  Ba  Ba20  1  0.622647  0.101915  0.159288  1
  Ba  Ba21  1  0.479639  0.875000  0.104639  1
  Ba  Ba22  1  0.277315  0.997052  0.368684  1
  Ba  Ba23  1  0.762154  0.605034  0.104988  1
  Ba  Ba24  1  0.625000  0.020361  0.895361  1
  Ba  Ba25  1  0.500047  0.657166  0.895012  1
  Ba  Ba26  1  0.972685  0.841368  0.219738  1
  Ba  Ba27  1  0.987846  0.644966  0.395012  1
  Ba  Ba28  1  0.262154  0.157166  0.157121  1
  Ba  Ba29  1  0.398085  0.877353  0.840712  1
  Ba  Ba30  1  0.625000  0.520361  0.395361  1
  Ba  Ba31  1  0.000047  0.105034  0.842879  1
  Ba  Ba32  1  0.658632  0.527315  0.780262  1
  Ba  Ba33  1  0.628369  0.908632  0.631316  1
  Ba  Ba34  1  0.777315  0.408632  0.280262  1
  Ba  Ba35  1  0.213359  0.872647  0.020732  1
  Ba  Ba36  1  0.907166  0.250047  0.395012  1
  Ba  Ba37  1  0.807373  0.786641  0.659288  1
  Ba  Ba38  1  0.855034  0.512154  0.604988  1
  Ba  Ba39  1  0.747052  0.878369  0.219738  1
  Ba  Ba40  1  0.627353  0.286641  0.979268  1
  Ba  Ba41  1  0.749953  0.144966  0.657121  1
  Ba  Ba42  1  0.128369  0.497052  0.719738  1
  Ba  Ba43  1  0.979639  0.875000  0.604639  1
  Ba  Ba44  1  0.091368  0.722685  0.719738  1
  Ba  Ba45  1  0.121631  0.341368  0.868684  1
  Ba  Ba46  1  0.249953  0.592834  0.604988  1
  Ba  Ba47  1  0.394966  0.499953  0.157121  1
  Ba  Ba48  1  0.351915  0.372647  0.659288  1
  Ba  Ba49  1  0.842834  0.999953  0.104988  1
  Ba  Ba50  1  0.472685  0.252948  0.131316  1
  Ba  Ba51  1  0.270361  0.375000  0.395361  1
  Ba  Ba52  1  0.502948  0.222685  0.631316  1
  Ba  Ba53  1  0.536641  0.377353  0.479268  1
  Ba  Ba54  1  0.894966  0.737846  0.895012  1
  Ba  Ba55  1  0.713359  0.692627  0.340712  1
  La  La56  1  0.000000  0.000000  0.000000  1
  La  La57  1  0.250000  0.750000  0.500000  1
  La  La58  1  0.750000  0.250000  0.500000  1
  La  La59  1  0.500000  0.500000  0.000000  1
  Bi  Bi60  1  0.553456  0.697221  0.407913  1
  Bi  Bi61  1  0.130948  0.369052  0.500000  1
  Bi  Bi62  1  0.456199  0.819845  0.645675  1
  Bi  Bi63  1  0.060524  0.924171  0.854325  1
  Bi  Bi64  1  0.293801  0.430155  0.854325  1
  Bi  Bi65  1  0.854458  0.446544  0.143765  1
  Bi  Bi66  1  0.369052  0.869052  0.238105  1
  Bi  Bi67  1  0.250000  0.250000  0.000000  1
  Bi  Bi68  1  0.075829  0.930155  0.136354  1
  Bi  Bi69  1  0.960692  0.052779  0.356235  1
  Bi  Bi70  1  0.302779  0.710692  0.856235  1
  Bi  Bi71  1  0.630948  0.130948  0.761895  1
  Bi  Bi72  1  0.789308  0.197221  0.143765  1
  Bi  Bi73  1  0.880948  0.619052  0.000000  1
  Bi  Bi74  1  0.447221  0.539308  0.643765  1
  Bi  Bi75  1  0.395542  0.039308  0.092087  1
  Bi  Bi76  1  0.289308  0.145542  0.592087  1
  Bi  Bi77  1  0.560524  0.706199  0.136354  1
  Bi  Bi78  1  0.956199  0.310524  0.636354  1
  Bi  Bi79  1  0.689476  0.325829  0.645675  1
  Bi  Bi80  1  0.500000  0.000000  0.500000  1
  Bi  Bi81  1  0.619052  0.880948  0.000000  1
  Bi  Bi82  1  0.460692  0.104458  0.907913  1
  Bi  Bi83  1  0.947221  0.303456  0.907913  1
  Bi  Bi84  1  0.380948  0.380948  0.261895  1
  Bi  Bi85  1  0.180155  0.825829  0.636354  1
  Bi  Bi86  1  0.196544  0.552779  0.092087  1
  Bi  Bi87  1  0.802779  0.946544  0.592087  1
  Bi  Bi88  1  0.680155  0.043801  0.354325  1
  Bi  Bi89  1  0.696544  0.604458  0.643765  1
  Bi  Bi90  1  0.575829  0.439476  0.145675  1
  Bi  Bi91  1  0.895542  0.803456  0.356235  1
  Bi  Bi92  1  0.053456  0.645542  0.856235  1
  Bi  Bi93  1  0.674171  0.319845  0.363646  1
  Bi  Bi94  1  0.793801  0.939476  0.863646  1
  Bi  Bi95  1  0.069845  0.206199  0.145675  1
  Bi  Bi96  1  0.569845  0.424171  0.863646  1
  Bi  Bi97  1  0.174171  0.810524  0.354325  1
  Bi  Bi98  1  0.869052  0.630948  0.500000  1
  Bi  Bi99  1  0.750000  0.750000  0.000000  1
  Bi  Bi100  1  0.119052  0.119052  0.738105  1
  Bi  Bi101  1  0.189476  0.543801  0.363646  1
  Bi  Bi102  1  0.000000  0.500000  0.500000  1
  Bi  Bi103  1  0.354458  0.210692  0.407913  1
