# generated using pymatgen
data_KSm(WO4)2
_symmetry_space_group_name_H-M   'P 1'
_cell_length_a   7.74614450
_cell_length_b   7.74614400
_cell_length_c   7.50509301
_cell_angle_alpha   62.22574650
_cell_angle_beta   62.22575082
_cell_angle_gamma   88.56809820
_symmetry_Int_Tables_number   1
_chemical_formula_structural   KSm(WO4)2
_chemical_formula_sum   'K2 Sm2 W4 O16'
_cell_volume   341.75469727
_cell_formula_units_Z   2
loop_
 _symmetry_equiv_pos_site_id
 _symmetry_equiv_pos_as_xyz
  1  'x, y, z'
loop_
 _atom_site_type_symbol
 _atom_site_label
 _atom_site_symmetry_multiplicity
 _atom_site_fract_x
 _atom_site_fract_y
 _atom_site_fract_z
 _atom_site_occupancy
  K  K0  1  0.713489  0.286511  0.250000  1
  K  K1  1  0.286511  0.713489  0.750000  1
  Sm  Sm2  1  0.725331  0.274669  0.750000  1
  Sm  Sm3  1  0.274669  0.725331  0.250000  1
  W  W4  1  0.190896  0.199752  0.786232  1
  W  W5  1  0.199752  0.190896  0.286232  1
  W  W6  1  0.800248  0.809104  0.713768  1
  W  W7  1  0.809104  0.800248  0.213768  1
  O  O8  1  0.456951  0.271112  0.687089  1
  O  O9  1  0.728888  0.543049  0.812911  1
  O  O10  1  0.543049  0.728888  0.312911  1
  O  O11  1  0.271112  0.456951  0.187089  1
  O  O12  1  0.133022  0.439752  0.629546  1
  O  O13  1  0.560248  0.866978  0.870454  1
  O  O14  1  0.866978  0.560248  0.370454  1
  O  O15  1  0.439752  0.133022  0.129546  1
  O  O16  1  0.127133  0.247586  0.057683  1
  O  O17  1  0.752414  0.872867  0.442317  1
  O  O18  1  0.872867  0.752414  0.942317  1
  O  O19  1  0.247586  0.127133  0.557683  1
  O  O20  1  0.091770  0.873064  0.469897  1
  O  O21  1  0.126936  0.908230  0.030103  1
  O  O22  1  0.908230  0.126936  0.530103  1
  O  O23  1  0.873064  0.091770  0.969897  1
