# generated using pymatgen
data_Hf3ZrFe3Si4Ni
_symmetry_space_group_name_H-M   'P 1'
_cell_length_a   3.91244500
_cell_length_b   6.40740234
_cell_length_c   7.03808689
_cell_angle_alpha   89.98695794
_cell_angle_beta   90.00000000
_cell_angle_gamma   90.00000000
_symmetry_Int_Tables_number   1
_chemical_formula_structural   Hf3ZrFe3Si4Ni
_chemical_formula_sum   'Hf3 Zr1 Fe3 Si4 Ni1'
_cell_volume   176.43504548
_cell_formula_units_Z   1
loop_
 _symmetry_equiv_pos_site_id
 _symmetry_equiv_pos_as_xyz
  1  'x, y, z'
loop_
 _atom_site_type_symbol
 _atom_site_label
 _atom_site_symmetry_multiplicity
 _atom_site_fract_x
 _atom_site_fract_y
 _atom_site_fract_z
 _atom_site_occupancy
  Hf  Hf0  1  0.250000  0.996584  0.301375  1
  Hf  Hf1  1  0.250000  0.505476  0.197586  1
  Hf  Hf2  1  0.750000  0.502865  0.801503  1
  Zr  Zr3  1  0.750000  0.992679  0.692020  1
  Fe  Fe4  1  0.250000  0.652057  0.569043  1
  Fe  Fe5  1  0.750000  0.849193  0.071034  1
  Fe  Fe6  1  0.750000  0.347702  0.434977  1
  Si  Si7  1  0.250000  0.286604  0.598138  1
  Si  Si8  1  0.250000  0.783756  0.895681  1
  Si  Si9  1  0.750000  0.710212  0.392767  1
  Si  Si10  1  0.750000  0.216183  0.112514  1
  Ni  Ni11  1  0.250000  0.156690  0.933362  1
