# generated using pymatgen
data_Hg3BiRuRh3O14
_symmetry_space_group_name_H-M   'P 1'
_cell_length_a   7.35550536
_cell_length_b   7.35550531
_cell_length_c   7.35550638
_cell_angle_alpha   58.90511074
_cell_angle_beta   58.90511044
_cell_angle_gamma   58.90511182
_symmetry_Int_Tables_number   1
_chemical_formula_structural   Hg3BiRuRh3O14
_chemical_formula_sum   'Hg3 Bi1 Ru1 Rh3 O14'
_cell_volume   274.36723615
_cell_formula_units_Z   1
loop_
 _symmetry_equiv_pos_site_id
 _symmetry_equiv_pos_as_xyz
  1  'x, y, z'
loop_
 _atom_site_type_symbol
 _atom_site_label
 _atom_site_symmetry_multiplicity
 _atom_site_fract_x
 _atom_site_fract_y
 _atom_site_fract_z
 _atom_site_occupancy
  Hg  Hg0  1  0.125000  0.625000  0.125000  1
  Hg  Hg1  1  0.625000  0.125000  0.125000  1
  Hg  Hg2  1  0.125000  0.125000  0.625000  1
  Bi  Bi3  1  0.125000  0.125000  0.125000  1
  Ru  Ru4  1  0.625000  0.625000  0.625000  1
  Rh  Rh5  1  0.625000  0.625000  0.125000  1
  Rh  Rh6  1  0.125000  0.625000  0.625000  1
  Rh  Rh7  1  0.625000  0.125000  0.625000  1
  O  O8  1  0.252779  0.252779  0.252779  1
  O  O9  1  0.292481  0.711492  0.292481  1
  O  O10  1  0.957519  0.957519  0.538508  1
  O  O11  1  0.559420  0.938838  0.559420  1
  O  O12  1  0.690580  0.690580  0.311162  1
  O  O13  1  0.938838  0.559420  0.559420  1
  O  O14  1  0.690580  0.311162  0.690580  1
  O  O15  1  0.292481  0.292481  0.711492  1
  O  O16  1  0.711492  0.292481  0.292481  1
  O  O17  1  0.311162  0.690580  0.690580  1
  O  O18  1  0.957519  0.538508  0.957519  1
  O  O19  1  0.559420  0.559420  0.938838  1
  O  O20  1  0.997221  0.997221  0.997221  1
  O  O21  1  0.538508  0.957519  0.957519  1
