# generated using pymatgen
data_Tm5ThMn3(Co5P4)3
_symmetry_space_group_name_H-M   'P 1'
_cell_length_a   3.69834700
_cell_length_b   10.54600600
_cell_length_c   12.12436400
_cell_angle_alpha   90.00000000
_cell_angle_beta   90.00000000
_cell_angle_gamma   90.00000000
_symmetry_Int_Tables_number   1
_chemical_formula_structural   Tm5ThMn3(Co5P4)3
_chemical_formula_sum   'Tm5 Th1 Mn3 Co15 P12'
_cell_volume   472.88401876
_cell_formula_units_Z   1
loop_
 _symmetry_equiv_pos_site_id
 _symmetry_equiv_pos_as_xyz
  1  'x, y, z'
loop_
 _atom_site_type_symbol
 _atom_site_label
 _atom_site_symmetry_multiplicity
 _atom_site_fract_x
 _atom_site_fract_y
 _atom_site_fract_z
 _atom_site_occupancy
  Tm  Tm0  1  0.500000  0.000000  0.476751  1
  Tm  Tm1  1  0.500000  0.818296  0.204638  1
  Tm  Tm2  1  0.500000  0.181704  0.204638  1
  Tm  Tm3  1  0.000000  0.681401  0.798074  1
  Tm  Tm4  1  0.000000  0.318599  0.798074  1
  Th  Th5  1  0.000000  0.500000  0.525617  1
  Mn  Mn6  1  0.500000  0.500000  0.152937  1
  Mn  Mn7  1  0.000000  0.000000  0.841310  1
  Mn  Mn8  1  0.000000  0.500000  0.988732  1
  Co  Co9  1  0.500000  0.500000  0.700334  1
  Co  Co10  1  0.000000  0.000000  0.297310  1
  Co  Co11  1  0.500000  0.000000  0.014387  1
  Co  Co12  1  0.500000  0.330073  0.993821  1
  Co  Co13  1  0.500000  0.669927  0.993821  1
  Co  Co14  1  0.000000  0.165040  0.005510  1
  Co  Co15  1  0.000000  0.834960  0.005510  1
  Co  Co16  1  0.500000  0.293530  0.430425  1
  Co  Co17  1  0.500000  0.706470  0.430425  1
  Co  Co18  1  0.000000  0.200267  0.570283  1
  Co  Co19  1  0.000000  0.799733  0.570283  1
  Co  Co20  1  0.500000  0.880147  0.710901  1
  Co  Co21  1  0.500000  0.119853  0.710901  1
  Co  Co22  1  0.000000  0.622172  0.289518  1
  Co  Co23  1  0.000000  0.377828  0.289518  1
  P  P24  1  0.500000  0.500000  0.882596  1
  P  P25  1  0.000000  0.000000  0.118300  1
  P  P26  1  0.500000  0.500000  0.338535  1
  P  P27  1  0.000000  0.000000  0.653732  1
  P  P28  1  0.500000  0.305181  0.619509  1
  P  P29  1  0.500000  0.694819  0.619509  1
  P  P30  1  0.000000  0.186983  0.382967  1
  P  P31  1  0.000000  0.813017  0.382967  1
  P  P32  1  0.500000  0.847094  0.893094  1
  P  P33  1  0.500000  0.152906  0.893094  1
  P  P34  1  0.000000  0.655064  0.105988  1
  P  P35  1  0.000000  0.344936  0.105988  1
