# generated using pymatgen
data_Zr8Nb12Si15As
_symmetry_space_group_name_H-M   'P 1'
_cell_length_a   6.72559712
_cell_length_b   6.89750679
_cell_length_c   13.15299440
_cell_angle_alpha   89.95592270
_cell_angle_beta   90.22423632
_cell_angle_gamma   90.05963329
_symmetry_Int_Tables_number   1
_chemical_formula_structural   Zr8Nb12Si15As
_chemical_formula_sum   'Zr8 Nb12 Si15 As1'
_cell_volume   610.16027807
_cell_formula_units_Z   1
loop_
 _symmetry_equiv_pos_site_id
 _symmetry_equiv_pos_as_xyz
  1  'x, y, z'
loop_
 _atom_site_type_symbol
 _atom_site_label
 _atom_site_symmetry_multiplicity
 _atom_site_fract_x
 _atom_site_fract_y
 _atom_site_fract_z
 _atom_site_occupancy
  Zr  Zr0  1  0.495434  0.671805  0.595071  1
  Zr  Zr1  1  0.998101  0.828224  0.905318  1
  Zr  Zr2  1  0.501925  0.327703  0.094148  1
  Zr  Zr3  1  0.007283  0.175906  0.403814  1
  Zr  Zr4  1  0.502674  0.329035  0.405513  1
  Zr  Zr5  1  0.002048  0.172345  0.094542  1
  Zr  Zr6  1  0.498208  0.672508  0.905390  1
  Zr  Zr7  1  0.997702  0.824456  0.597032  1
  Nb  Nb8  1  0.659768  0.171563  0.624390  1
  Nb  Nb9  1  0.163096  0.328432  0.876203  1
  Nb  Nb10  1  0.336483  0.828542  0.123620  1
  Nb  Nb11  1  0.839477  0.666431  0.375001  1
  Nb  Nb12  1  0.337129  0.829839  0.376929  1
  Nb  Nb13  1  0.836080  0.670963  0.123492  1
  Nb  Nb14  1  0.663370  0.171446  0.876295  1
  Nb  Nb15  1  0.162322  0.330827  0.624242  1
  Nb  Nb16  1  0.836736  0.496920  0.749807  1
  Nb  Nb17  1  0.337168  0.002496  0.749881  1
  Nb  Nb18  1  0.162766  0.502505  0.250116  1
  Nb  Nb19  1  0.663673  0.997227  0.248951  1
  Si  Si20  1  0.169623  0.536897  0.038635  1
  Si  Si21  1  0.330680  0.036756  0.961006  1
  Si  Si22  1  0.828825  0.462520  0.539047  1
  Si  Si23  1  0.318094  0.038898  0.540086  1
  Si  Si24  1  0.830325  0.463212  0.961128  1
  Si  Si25  1  0.669997  0.963207  0.038836  1
  Si  Si26  1  0.171800  0.538003  0.461569  1
  Si  Si27  1  0.461157  0.385407  0.750382  1
  Si  Si28  1  0.960916  0.114526  0.749831  1
  Si  Si29  1  0.538129  0.614762  0.249959  1
  Si  Si30  1  0.039366  0.884727  0.249698  1
  Si  Si31  1  0.703262  0.864229  0.750760  1
  Si  Si32  1  0.204060  0.635576  0.751070  1
  Si  Si33  1  0.297447  0.136075  0.249078  1
  Si  Si34  1  0.796004  0.363459  0.248896  1
  As  As35  1  0.678874  0.962574  0.460264  1
