# generated using pymatgen
data_Lu8V(B8Ir)3
_symmetry_space_group_name_H-M   'P 1'
_cell_length_a   3.56716000
_cell_length_b   9.05794254
_cell_length_c   11.42987709
_cell_angle_alpha   90.12882019
_cell_angle_beta   90.00000000
_cell_angle_gamma   90.00000000
_symmetry_Int_Tables_number   1
_chemical_formula_structural   Lu8V(B8Ir)3
_chemical_formula_sum   'Lu8 V1 B24 Ir3'
_cell_volume   369.31131490
_cell_formula_units_Z   1
loop_
 _symmetry_equiv_pos_site_id
 _symmetry_equiv_pos_as_xyz
  1  'x, y, z'
loop_
 _atom_site_type_symbol
 _atom_site_label
 _atom_site_symmetry_multiplicity
 _atom_site_fract_x
 _atom_site_fract_y
 _atom_site_fract_z
 _atom_site_occupancy
  Lu  Lu0  1  0.000000  0.320536  0.415140  1
  Lu  Lu1  1  0.000000  0.684718  0.591420  1
  Lu  Lu2  1  0.000000  0.820968  0.080813  1
  Lu  Lu3  1  0.000000  0.175270  0.912119  1
  Lu  Lu4  1  0.000000  0.943788  0.373310  1
  Lu  Lu5  1  0.000000  0.053238  0.626925  1
  Lu  Lu6  1  0.000000  0.443382  0.125599  1
  Lu  Lu7  1  0.000000  0.557635  0.874887  1
  V  V8  1  0.000000  0.861970  0.820569  1
  B  B9  1  0.500000  0.553934  0.435438  1
  B  B10  1  0.500000  0.447817  0.566039  1
  B  B11  1  0.500000  0.052342  0.065499  1
  B  B12  1  0.500000  0.948246  0.934975  1
  B  B13  1  0.500000  0.750474  0.421957  1
  B  B14  1  0.500000  0.249293  0.578908  1
  B  B15  1  0.500000  0.248865  0.078187  1
  B  B16  1  0.500000  0.750636  0.921084  1
  B  B17  1  0.500000  0.792194  0.264206  1
  B  B18  1  0.500000  0.206733  0.734007  1
  B  B19  1  0.500000  0.293316  0.235906  1
  B  B20  1  0.500000  0.705878  0.764715  1
  B  B21  1  0.500000  0.630988  0.182384  1
  B  B22  1  0.500000  0.368446  0.816060  1
  B  B23  1  0.500000  0.132324  0.317318  1
  B  B24  1  0.500000  0.868514  0.684106  1
  B  B25  1  0.500000  0.980540  0.212542  1
  B  B26  1  0.500000  0.020714  0.787099  1
  B  B27  1  0.500000  0.480840  0.286902  1
  B  B28  1  0.500000  0.520066  0.713146  1
  B  B29  1  0.500000  0.605830  0.030553  1
  B  B30  1  0.500000  0.391423  0.970697  1
  B  B31  1  0.500000  0.107293  0.469941  1
  B  B32  1  0.500000  0.893330  0.528112  1
  Ir  Ir33  1  0.000000  0.637350  0.321586  1
  Ir  Ir34  1  0.000000  0.361975  0.677705  1
  Ir  Ir35  1  0.000000  0.139132  0.180144  1
