# generated using pymatgen
data_Yb6Zn15PdN
_symmetry_space_group_name_H-M   'P 1'
_cell_length_a   8.02644141
_cell_length_b   7.88942506
_cell_length_c   8.02644000
_cell_angle_alpha   109.12579364
_cell_angle_beta   109.81443801
_cell_angle_gamma   109.12578577
_symmetry_Int_Tables_number   1
_chemical_formula_structural   Yb6Zn15PdN
_chemical_formula_sum   'Yb6 Zn15 Pd1 N1'
_cell_volume   392.91909329
_cell_formula_units_Z   1
loop_
 _symmetry_equiv_pos_site_id
 _symmetry_equiv_pos_as_xyz
  1  'x, y, z'
loop_
 _atom_site_type_symbol
 _atom_site_label
 _atom_site_symmetry_multiplicity
 _atom_site_fract_x
 _atom_site_fract_y
 _atom_site_fract_z
 _atom_site_occupancy
  Yb  Yb0  1  0.000000  0.260605  0.250586  1
  Yb  Yb1  1  0.250586  0.989981  0.250586  1
  Yb  Yb2  1  0.749414  0.010019  0.749414  1
  Yb  Yb3  1  0.749414  0.739395  0.000000  1
  Yb  Yb4  1  0.250586  0.260605  0.000000  1
  Yb  Yb5  1  0.000000  0.739395  0.749414  1
  Zn  Zn6  1  0.500000  0.500000  0.500000  1
  Zn  Zn7  1  0.500000  0.000000  0.000000  1
  Zn  Zn8  1  0.000000  0.000000  0.500000  1
  Zn  Zn9  1  0.685698  0.342849  0.342849  1
  Zn  Zn10  1  0.342849  0.000000  0.657151  1
  Zn  Zn11  1  0.345835  0.687770  0.345835  1
  Zn  Zn12  1  0.342849  0.342849  0.685698  1
  Zn  Zn13  1  0.345835  0.658064  0.000000  1
  Zn  Zn14  1  0.000000  0.341936  0.654165  1
  Zn  Zn15  1  0.000000  0.658064  0.345835  1
  Zn  Zn16  1  0.657151  0.657151  0.314302  1
  Zn  Zn17  1  0.657151  0.000000  0.342849  1
  Zn  Zn18  1  0.654165  0.341936  0.000000  1
  Zn  Zn19  1  0.654165  0.312230  0.654165  1
  Zn  Zn20  1  0.314302  0.657151  0.657151  1
  Pd  Pd21  1  0.000000  0.500000  0.000000  1
  N  N22  1  0.000000  0.000000  0.000000  1
