# generated using pymatgen
data_Hf4Al4RePdW2
_symmetry_space_group_name_H-M   'P 1'
_cell_length_a   5.27300677
_cell_length_b   5.29018071
_cell_length_c   8.65141600
_cell_angle_alpha   90.00000000
_cell_angle_beta   90.00000000
_cell_angle_gamma   119.46167940
_symmetry_Int_Tables_number   1
_chemical_formula_structural   Hf4Al4RePdW2
_chemical_formula_sum   'Hf4 Al4 Re1 Pd1 W2'
_cell_volume   210.12465644
_cell_formula_units_Z   1
loop_
 _symmetry_equiv_pos_site_id
 _symmetry_equiv_pos_as_xyz
  1  'x, y, z'
loop_
 _atom_site_type_symbol
 _atom_site_label
 _atom_site_symmetry_multiplicity
 _atom_site_fract_x
 _atom_site_fract_y
 _atom_site_fract_z
 _atom_site_occupancy
  Hf  Hf0  1  0.666379  0.333768  0.307232  1
  Hf  Hf1  1  0.332227  0.664826  0.180868  1
  Hf  Hf2  1  0.332227  0.664826  0.819132  1
  Hf  Hf3  1  0.666379  0.333768  0.692768  1
  Al  Al4  1  0.006177  0.996520  0.254153  1
  Al  Al5  1  0.006177  0.996520  0.745847  1
  Al  Al6  1  0.649031  0.831288  0.500000  1
  Al  Al7  1  0.168892  0.350613  0.500000  1
  Re  Re8  1  0.341670  0.167413  0.000000  1
  Pd  Pd9  1  0.165599  0.835380  0.500000  1
  W  W10  1  0.833188  0.657069  0.000000  1
  W  W11  1  0.832214  0.167849  0.000000  1
