# generated using pymatgen
data_Ca3La5(As7Rh8)2
_symmetry_space_group_name_H-M   'P 1'
_cell_length_a   4.14390000
_cell_length_b   13.23498882
_cell_length_c   13.58729741
_cell_angle_alpha   82.05940844
_cell_angle_beta   90.00000000
_cell_angle_gamma   90.00000000
_symmetry_Int_Tables_number   1
_chemical_formula_structural   Ca3La5(As7Rh8)2
_chemical_formula_sum   'Ca3 La5 As14 Rh16'
_cell_volume   738.04314505
_cell_formula_units_Z   1
loop_
 _symmetry_equiv_pos_site_id
 _symmetry_equiv_pos_as_xyz
  1  'x, y, z'
loop_
 _atom_site_type_symbol
 _atom_site_label
 _atom_site_symmetry_multiplicity
 _atom_site_fract_x
 _atom_site_fract_y
 _atom_site_fract_z
 _atom_site_occupancy
  Ca  Ca0  1  0.750000  0.483996  0.708662  1
  Ca  Ca1  1  0.250000  0.210298  0.436368  1
  Ca  Ca2  1  0.750000  0.788380  0.565165  1
  La  La3  1  0.250000  0.101937  0.792968  1
  La  La4  1  0.750000  0.897512  0.206273  1
  La  La5  1  0.250000  0.286643  0.102984  1
  La  La6  1  0.750000  0.713305  0.894462  1
  La  La7  1  0.250000  0.517041  0.290039  1
  As  As8  1  0.250000  0.056826  0.100335  1
  As  As9  1  0.750000  0.943622  0.899587  1
  As  As10  1  0.250000  0.312291  0.687290  1
  As  As11  1  0.750000  0.688378  0.314925  1
  As  As12  1  0.250000  0.608394  0.566362  1
  As  As13  1  0.750000  0.390294  0.437231  1
  As  As14  1  0.250000  0.848898  0.718467  1
  As  As15  1  0.750000  0.151266  0.282581  1
  As  As16  1  0.750000  0.257571  0.919731  1
  As  As17  1  0.250000  0.743247  0.080894  1
  As  As18  1  0.750000  0.094846  0.586055  1
  As  As19  1  0.250000  0.905792  0.415014  1
  As  As20  1  0.750000  0.471651  0.125697  1
  As  As21  1  0.250000  0.528450  0.868747  1
  Rh  Rh22  1  0.250000  0.988280  0.573421  1
  Rh  Rh23  1  0.750000  0.012779  0.427443  1
  Rh  Rh24  1  0.250000  0.666748  0.730254  1
  Rh  Rh25  1  0.750000  0.334658  0.268664  1
  Rh  Rh26  1  0.250000  0.552248  0.045580  1
  Rh  Rh27  1  0.750000  0.446526  0.949476  1
  Rh  Rh28  1  0.250000  0.054260  0.281243  1
  Rh  Rh29  1  0.750000  0.946153  0.718753  1
  Rh  Rh30  1  0.250000  0.425451  0.528729  1
  Rh  Rh31  1  0.750000  0.573280  0.474806  1
  Rh  Rh32  1  0.250000  0.918403  0.997964  1
  Rh  Rh33  1  0.750000  0.082275  0.001768  1
  Rh  Rh34  1  0.250000  0.721201  0.403129  1
  Rh  Rh35  1  0.750000  0.277974  0.599757  1
  Rh  Rh36  1  0.250000  0.343103  0.859366  1
  Rh  Rh37  1  0.750000  0.656022  0.139809  1
