# generated using pymatgen
data_Hf18CoCu(MoW)4
_symmetry_space_group_name_H-M   'P 1'
_cell_length_a   8.69211315
_cell_length_b   8.69211255
_cell_length_c   8.50063700
_cell_angle_alpha   90.00000000
_cell_angle_beta   90.00000000
_cell_angle_gamma   119.94117951
_symmetry_Int_Tables_number   1
_chemical_formula_structural   Hf18CoCu(MoW)4
_chemical_formula_sum   'Hf18 Co1 Cu1 Mo4 W4'
_cell_volume   556.53171996
_cell_formula_units_Z   1
loop_
 _symmetry_equiv_pos_site_id
 _symmetry_equiv_pos_as_xyz
  1  'x, y, z'
loop_
 _atom_site_type_symbol
 _atom_site_label
 _atom_site_symmetry_multiplicity
 _atom_site_fract_x
 _atom_site_fract_y
 _atom_site_fract_z
 _atom_site_occupancy
  Hf  Hf0  1  0.197041  0.802959  0.444595  1
  Hf  Hf1  1  0.197461  0.394367  0.444876  1
  Hf  Hf2  1  0.605633  0.802539  0.444876  1
  Hf  Hf3  1  0.798246  0.201754  0.559307  1
  Hf  Hf4  1  0.798476  0.596605  0.558839  1
  Hf  Hf5  1  0.403395  0.201524  0.558839  1
  Hf  Hf6  1  0.798246  0.201754  0.940693  1
  Hf  Hf7  1  0.798476  0.596605  0.941161  1
  Hf  Hf8  1  0.403395  0.201524  0.941161  1
  Hf  Hf9  1  0.197041  0.802959  0.055405  1
  Hf  Hf10  1  0.197461  0.394367  0.055124  1
  Hf  Hf11  1  0.605633  0.802539  0.055124  1
  Hf  Hf12  1  0.542421  0.457579  0.250000  1
  Hf  Hf13  1  0.541757  0.084888  0.250000  1
  Hf  Hf14  1  0.915112  0.458243  0.250000  1
  Hf  Hf15  1  0.457698  0.542302  0.750000  1
  Hf  Hf16  1  0.457755  0.915480  0.750000  1
  Hf  Hf17  1  0.084520  0.542245  0.750000  1
  Co  Co18  1  0.666749  0.333251  0.750000  1
  Cu  Cu19  1  0.333415  0.666585  0.250000  1
  Mo  Mo20  1  0.888066  0.111934  0.250000  1
  Mo  Mo21  1  0.112374  0.887626  0.750000  1
  Mo  Mo22  1  0.112345  0.224962  0.750000  1
  Mo  Mo23  1  0.775038  0.887655  0.750000  1
  W  W24  1  0.888348  0.776045  0.250000  1
  W  W25  1  0.223955  0.111652  0.250000  1
  W  W26  1  0.999971  0.000029  0.502099  1
  W  W27  1  0.999971  0.000029  0.997901  1
