# generated using pymatgen
data_Er3Co8P6W
_symmetry_space_group_name_H-M   'P 1'
_cell_length_a   3.71256500
_cell_length_b   10.54651100
_cell_length_c   12.23040600
_cell_angle_alpha   90.00000000
_cell_angle_beta   90.00000000
_cell_angle_gamma   90.00000000
_symmetry_Int_Tables_number   1
_chemical_formula_structural   Er3Co8P6W
_chemical_formula_sum   'Er6 Co16 P12 W2'
_cell_volume   478.87674785
_cell_formula_units_Z   2
loop_
 _symmetry_equiv_pos_site_id
 _symmetry_equiv_pos_as_xyz
  1  'x, y, z'
loop_
 _atom_site_type_symbol
 _atom_site_label
 _atom_site_symmetry_multiplicity
 _atom_site_fract_x
 _atom_site_fract_y
 _atom_site_fract_z
 _atom_site_occupancy
  Er  Er0  1  0.750000  0.250000  0.475850  1
  Er  Er1  1  0.250000  0.750000  0.524150  1
  Er  Er2  1  0.250000  0.930471  0.794809  1
  Er  Er3  1  0.250000  0.569529  0.794809  1
  Er  Er4  1  0.750000  0.069529  0.205191  1
  Er  Er5  1  0.750000  0.430471  0.205191  1
  Co  Co6  1  0.250000  0.250000  0.299103  1
  Co  Co7  1  0.750000  0.750000  0.700897  1
  Co  Co8  1  0.750000  0.250000  0.013487  1
  Co  Co9  1  0.250000  0.750000  0.986513  1
  Co  Co10  1  0.250000  0.417140  0.009886  1
  Co  Co11  1  0.250000  0.082860  0.009886  1
  Co  Co12  1  0.750000  0.582860  0.990114  1
  Co  Co13  1  0.750000  0.917140  0.990114  1
  Co  Co14  1  0.250000  0.454033  0.568565  1
  Co  Co15  1  0.250000  0.045967  0.568565  1
  Co  Co16  1  0.750000  0.545967  0.431435  1
  Co  Co17  1  0.750000  0.954033  0.431435  1
  Co  Co18  1  0.250000  0.872278  0.292471  1
  Co  Co19  1  0.250000  0.627722  0.292471  1
  Co  Co20  1  0.750000  0.127722  0.707529  1
  Co  Co21  1  0.750000  0.372278  0.707529  1
  P  P22  1  0.250000  0.250000  0.120393  1
  P  P23  1  0.750000  0.750000  0.879607  1
  P  P24  1  0.250000  0.250000  0.649322  1
  P  P25  1  0.750000  0.750000  0.350678  1
  P  P26  1  0.250000  0.437814  0.383921  1
  P  P27  1  0.250000  0.062186  0.383921  1
  P  P28  1  0.750000  0.562186  0.616079  1
  P  P29  1  0.750000  0.937814  0.616079  1
  P  P30  1  0.250000  0.906268  0.107503  1
  P  P31  1  0.250000  0.593732  0.107503  1
  P  P32  1  0.750000  0.093732  0.892497  1
  P  P33  1  0.750000  0.406268  0.892497  1
  W  W34  1  0.250000  0.250000  0.843532  1
  W  W35  1  0.750000  0.750000  0.156468  1
