# generated using pymatgen
data_Sc2Fe3Co9As7
_symmetry_space_group_name_H-M   'P 1'
_cell_length_a   3.68089900
_cell_length_b   9.26398408
_cell_length_c   9.26398400
_cell_angle_alpha   120.00000067
_cell_angle_beta   90.00000000
_cell_angle_gamma   90.00000000
_symmetry_Int_Tables_number   1
_chemical_formula_structural   Sc2Fe3Co9As7
_chemical_formula_sum   'Sc2 Fe3 Co9 As7'
_cell_volume   273.57734227
_cell_formula_units_Z   1
loop_
 _symmetry_equiv_pos_site_id
 _symmetry_equiv_pos_as_xyz
  1  'x, y, z'
loop_
 _atom_site_type_symbol
 _atom_site_label
 _atom_site_symmetry_multiplicity
 _atom_site_fract_x
 _atom_site_fract_y
 _atom_site_fract_z
 _atom_site_occupancy
  Sc  Sc0  1  0.000000  0.666667  0.333333  1
  Sc  Sc1  1  0.500000  0.333333  0.666667  1
  Fe  Fe2  1  0.500000  0.782114  0.904915  1
  Fe  Fe3  1  0.500000  0.122801  0.217886  1
  Fe  Fe4  1  0.500000  0.095085  0.877199  1
  Co  Co5  1  0.000000  0.566408  0.940584  1
  Co  Co6  1  0.000000  0.374176  0.433592  1
  Co  Co7  1  0.000000  0.059416  0.625824  1
  Co  Co8  1  0.000000  0.880240  0.159708  1
  Co  Co9  1  0.000000  0.279468  0.119760  1
  Co  Co10  1  0.000000  0.840292  0.720532  1
  Co  Co11  1  0.500000  0.949082  0.383108  1
  Co  Co12  1  0.500000  0.434026  0.050918  1
  Co  Co13  1  0.500000  0.616892  0.565974  1
  As  As14  1  0.000000  0.000000  0.000000  1
  As  As15  1  0.500000  0.708238  0.118789  1
  As  As16  1  0.500000  0.410551  0.291762  1
  As  As17  1  0.500000  0.881211  0.589449  1
  As  As18  1  0.000000  0.585308  0.706256  1
  As  As19  1  0.000000  0.120948  0.414692  1
  As  As20  1  0.000000  0.293744  0.879052  1
