# generated using pymatgen
data_Nd4TiMn3Al4O20
_symmetry_space_group_name_H-M   'P 1'
_cell_length_a   5.74434300
_cell_length_b   7.50217767
_cell_length_c   8.61313585
_cell_angle_alpha   89.92418362
_cell_angle_beta   90.00000000
_cell_angle_gamma   90.00000000
_symmetry_Int_Tables_number   1
_chemical_formula_structural   Nd4TiMn3Al4O20
_chemical_formula_sum   'Nd4 Ti1 Mn3 Al4 O20'
_cell_volume   371.18346887
_cell_formula_units_Z   1
loop_
 _symmetry_equiv_pos_site_id
 _symmetry_equiv_pos_as_xyz
  1  'x, y, z'
loop_
 _atom_site_type_symbol
 _atom_site_label
 _atom_site_symmetry_multiplicity
 _atom_site_fract_x
 _atom_site_fract_y
 _atom_site_fract_z
 _atom_site_occupancy
  Nd  Nd0  1  0.998519  0.363180  0.669861  1
  Nd  Nd1  1  0.998519  0.636820  0.330139  1
  Nd  Nd2  1  0.999646  0.864327  0.829788  1
  Nd  Nd3  1  0.999646  0.135673  0.170212  1
  Ti  Ti4  1  0.261338  0.500000  0.000000  1
  Mn  Mn5  1  0.744087  0.000000  0.500000  1
  Mn  Mn6  1  0.743676  0.500000  0.000000  1
  Mn  Mn7  1  0.256896  0.000000  0.500000  1
  Al  Al8  1  0.502424  0.105350  0.859200  1
  Al  Al9  1  0.502424  0.894650  0.140800  1
  Al  Al10  1  0.498393  0.608955  0.638069  1
  Al  Al11  1  0.498393  0.391045  0.361931  1
  O  O12  1  0.258174  0.902211  0.289592  1
  O  O13  1  0.258174  0.097789  0.710408  1
  O  O14  1  0.741824  0.402129  0.210734  1
  O  O15  1  0.741824  0.597871  0.789266  1
  O  O16  1  0.743684  0.096865  0.709777  1
  O  O17  1  0.743684  0.903135  0.290223  1
  O  O18  1  0.260805  0.601845  0.788161  1
  O  O19  1  0.260805  0.398155  0.211839  1
  O  O20  1  0.499799  0.335983  0.930355  1
  O  O21  1  0.499799  0.664017  0.069645  1
  O  O22  1  0.500714  0.840260  0.565835  1
  O  O23  1  0.500714  0.159740  0.434165  1
  O  O24  1  0.286238  0.000000  0.000000  1
  O  O25  1  0.714108  0.500000  0.500000  1
  O  O26  1  0.714928  0.000000  0.000000  1
  O  O27  1  0.285372  0.500000  0.500000  1
  O  O28  1  0.000230  0.157172  0.448218  1
  O  O29  1  0.000230  0.842828  0.551782  1
  O  O30  1  0.992466  0.658508  0.052308  1
  O  O31  1  0.992466  0.341492  0.947692  1
