# generated using pymatgen
data_Dy3Lu(CrB4)4
_symmetry_space_group_name_H-M   'P 1'
_cell_length_a   3.43367900
_cell_length_b   5.92462783
_cell_length_c   11.44658661
_cell_angle_alpha   89.93915701
_cell_angle_beta   90.00000000
_cell_angle_gamma   90.00000000
_symmetry_Int_Tables_number   1
_chemical_formula_structural   Dy3Lu(CrB4)4
_chemical_formula_sum   'Dy3 Lu1 Cr4 B16'
_cell_volume   232.86087283
_cell_formula_units_Z   1
loop_
 _symmetry_equiv_pos_site_id
 _symmetry_equiv_pos_as_xyz
  1  'x, y, z'
loop_
 _atom_site_type_symbol
 _atom_site_label
 _atom_site_symmetry_multiplicity
 _atom_site_fract_x
 _atom_site_fract_y
 _atom_site_fract_z
 _atom_site_occupancy
  Dy  Dy0  1  0.000000  0.625156  0.349219  1
  Dy  Dy1  1  0.000000  0.374896  0.651113  1
  Dy  Dy2  1  0.000000  0.125088  0.150627  1
  Lu  Lu3  1  0.000000  0.874765  0.849340  1
  Cr  Cr4  1  0.000000  0.624940  0.080343  1
  Cr  Cr5  1  0.000000  0.375407  0.918589  1
  Cr  Cr6  1  0.000000  0.124320  0.419367  1
  Cr  Cr7  1  0.000000  0.875492  0.581640  1
  B  B8  1  0.500000  0.782036  0.183911  1
  B  B9  1  0.500000  0.215960  0.815916  1
  B  B10  1  0.500000  0.281999  0.315809  1
  B  B11  1  0.500000  0.718343  0.685238  1
  B  B12  1  0.500000  0.863445  0.031364  1
  B  B13  1  0.500000  0.136084  0.966937  1
  B  B14  1  0.500000  0.362901  0.467804  1
  B  B15  1  0.500000  0.637253  0.532725  1
  B  B16  1  0.500000  0.886928  0.453415  1
  B  B17  1  0.500000  0.112677  0.547218  1
  B  B18  1  0.500000  0.387280  0.046224  1
  B  B19  1  0.500000  0.614753  0.952274  1
  B  B20  1  0.500000  0.975906  0.308514  1
  B  B21  1  0.500000  0.023130  0.692792  1
  B  B22  1  0.500000  0.475868  0.191273  1
  B  B23  1  0.500000  0.525373  0.808348  1
