# generated using pymatgen
data_TmLu7Tc3B24Ru
_symmetry_space_group_name_H-M   'P 1'
_cell_length_a   3.61203800
_cell_length_b   9.04866857
_cell_length_c   11.40935901
_cell_angle_alpha   89.91916428
_cell_angle_beta   90.00000000
_cell_angle_gamma   90.00000000
_symmetry_Int_Tables_number   1
_chemical_formula_structural   TmLu7Tc3B24Ru
_chemical_formula_sum   'Tm1 Lu7 Tc3 B24 Ru1'
_cell_volume   372.90465595
_cell_formula_units_Z   1
loop_
 _symmetry_equiv_pos_site_id
 _symmetry_equiv_pos_as_xyz
  1  'x, y, z'
loop_
 _atom_site_type_symbol
 _atom_site_label
 _atom_site_symmetry_multiplicity
 _atom_site_fract_x
 _atom_site_fract_y
 _atom_site_fract_z
 _atom_site_occupancy
  Tm  Tm0  1  0.000000  0.323179  0.413809  1
  Lu  Lu1  1  0.000000  0.675629  0.584062  1
  Lu  Lu2  1  0.000000  0.822404  0.087535  1
  Lu  Lu3  1  0.000000  0.178624  0.914387  1
  Lu  Lu4  1  0.000000  0.942816  0.370586  1
  Lu  Lu5  1  0.000000  0.057428  0.630121  1
  Lu  Lu6  1  0.000000  0.443437  0.129605  1
  Lu  Lu7  1  0.000000  0.557466  0.869789  1
  Tc  Tc8  1  0.000000  0.638767  0.320396  1
  Tc  Tc9  1  0.000000  0.361515  0.680363  1
  Tc  Tc10  1  0.000000  0.138073  0.178298  1
  B  B11  1  0.500000  0.553051  0.433605  1
  B  B12  1  0.500000  0.446982  0.566392  1
  B  B13  1  0.500000  0.052748  0.065883  1
  B  B14  1  0.500000  0.946128  0.933446  1
  B  B15  1  0.500000  0.749958  0.419774  1
  B  B16  1  0.500000  0.249584  0.580712  1
  B  B17  1  0.500000  0.250567  0.080149  1
  B  B18  1  0.500000  0.750243  0.919387  1
  B  B19  1  0.500000  0.792936  0.265028  1
  B  B20  1  0.500000  0.207073  0.735872  1
  B  B21  1  0.500000  0.292815  0.234923  1
  B  B22  1  0.500000  0.708038  0.764663  1
  B  B23  1  0.500000  0.630837  0.184485  1
  B  B24  1  0.500000  0.369318  0.816190  1
  B  B25  1  0.500000  0.130042  0.315015  1
  B  B26  1  0.500000  0.869056  0.684572  1
  B  B27  1  0.500000  0.980485  0.211858  1
  B  B28  1  0.500000  0.017856  0.788155  1
  B  B29  1  0.500000  0.481056  0.287724  1
  B  B30  1  0.500000  0.519187  0.711960  1
  B  B31  1  0.500000  0.601357  0.027796  1
  B  B32  1  0.500000  0.400488  0.972034  1
  B  B33  1  0.500000  0.100390  0.472336  1
  B  B34  1  0.500000  0.899129  0.528420  1
  Ru  Ru35  1  0.000000  0.861338  0.820672  1
