# generated using pymatgen
data_La3U(CuAs2)4
_symmetry_space_group_name_H-M   'P 1'
_cell_length_a   4.01544200
_cell_length_b   4.02070951
_cell_length_c   20.23815700
_cell_angle_alpha   89.76606862
_cell_angle_beta   90.00000000
_cell_angle_gamma   90.00000000
_symmetry_Int_Tables_number   1
_chemical_formula_structural   La3U(CuAs2)4
_chemical_formula_sum   'La3 U1 Cu4 As8'
_cell_volume   326.74082063
_cell_formula_units_Z   1
loop_
 _symmetry_equiv_pos_site_id
 _symmetry_equiv_pos_as_xyz
  1  'x, y, z'
loop_
 _atom_site_type_symbol
 _atom_site_label
 _atom_site_symmetry_multiplicity
 _atom_site_fract_x
 _atom_site_fract_y
 _atom_site_fract_z
 _atom_site_occupancy
  La  La0  1  0.750000  0.740610  0.375225  1
  La  La1  1  0.250000  0.258766  0.622767  1
  La  La2  1  0.750000  0.753076  0.888335  1
  U  U3  1  0.250000  0.247191  0.119574  1
  Cu  Cu4  1  0.750000  0.243888  0.241126  1
  Cu  Cu5  1  0.250000  0.743335  0.241056  1
  Cu  Cu6  1  0.750000  0.255617  0.755080  1
  Cu  Cu7  1  0.250000  0.756259  0.755088  1
  As  As8  1  0.250000  0.750540  0.010520  1
  As  As9  1  0.750000  0.746066  0.161416  1
  As  As10  1  0.250000  0.241803  0.313973  1
  As  As11  1  0.750000  0.225895  0.497531  1
  As  As12  1  0.250000  0.774020  0.498303  1
  As  As13  1  0.750000  0.757442  0.680051  1
  As  As14  1  0.250000  0.254673  0.829545  1
  As  As15  1  0.750000  0.250819  0.010411  1
