# generated using pymatgen
data_Nd2Mo3As7Rh9
_symmetry_space_group_name_H-M   'P 1'
_cell_length_a   4.05648668
_cell_length_b   9.90351141
_cell_length_c   9.90309091
_cell_angle_alpha   119.99903755
_cell_angle_beta   89.99943678
_cell_angle_gamma   90.00081430
_symmetry_Int_Tables_number   1
_chemical_formula_structural   Nd2Mo3As7Rh9
_chemical_formula_sum   'Nd2 Mo3 As7 Rh9'
_cell_volume   344.54414171
_cell_formula_units_Z   1
loop_
 _symmetry_equiv_pos_site_id
 _symmetry_equiv_pos_as_xyz
  1  'x, y, z'
loop_
 _atom_site_type_symbol
 _atom_site_label
 _atom_site_symmetry_multiplicity
 _atom_site_fract_x
 _atom_site_fract_y
 _atom_site_fract_z
 _atom_site_occupancy
  Nd  Nd0  1  0.261755  0.666661  0.333320  1
  Nd  Nd1  1  0.761753  0.333338  0.666670  1
  Mo  Mo2  1  0.762069  0.092683  0.875806  1
  Mo  Mo3  1  0.762067  0.124214  0.216920  1
  Mo  Mo4  1  0.762071  0.783110  0.907317  1
  As  As5  1  0.262426  0.999966  0.999969  1
  As  As6  1  0.761795  0.885130  0.595016  1
  As  As7  1  0.761780  0.404962  0.290104  1
  As  As8  1  0.761765  0.709893  0.114848  1
  As  As9  1  0.261688  0.116541  0.409644  1
  As  As10  1  0.261685  0.590403  0.706913  1
  As  As11  1  0.261668  0.293099  0.883497  1
  Rh  Rh12  1  0.261958  0.881114  0.157392  1
  Rh  Rh13  1  0.261980  0.842571  0.723678  1
  Rh  Rh14  1  0.261971  0.276324  0.118898  1
  Rh  Rh15  1  0.761902  0.615348  0.564903  1
  Rh  Rh16  1  0.761896  0.435068  0.050437  1
  Rh  Rh17  1  0.761928  0.949551  0.384646  1
  Rh  Rh18  1  0.261953  0.371737  0.435861  1
  Rh  Rh19  1  0.261939  0.564158  0.935893  1
  Rh  Rh20  1  0.261951  0.064127  0.628267  1
