# generated using pymatgen
data_ErTmB6Os
_symmetry_space_group_name_H-M   'P 1'
_cell_length_a   3.62443100
_cell_length_b   9.08257900
_cell_length_c   11.46622800
_cell_angle_alpha   90.00000000
_cell_angle_beta   90.00000000
_cell_angle_gamma   90.00000000
_symmetry_Int_Tables_number   1
_chemical_formula_structural   ErTmB6Os
_chemical_formula_sum   'Er4 Tm4 B24 Os4'
_cell_volume   377.45883363
_cell_formula_units_Z   4
loop_
 _symmetry_equiv_pos_site_id
 _symmetry_equiv_pos_as_xyz
  1  'x, y, z'
loop_
 _atom_site_type_symbol
 _atom_site_label
 _atom_site_symmetry_multiplicity
 _atom_site_fract_x
 _atom_site_fract_y
 _atom_site_fract_z
 _atom_site_occupancy
  Er  Er0  1  0.000000  0.322004  0.414021  1
  Er  Er1  1  0.000000  0.677996  0.585979  1
  Er  Er2  1  0.000000  0.822004  0.085979  1
  Er  Er3  1  0.000000  0.177996  0.914021  1
  Tm  Tm4  1  0.000000  0.943973  0.373195  1
  Tm  Tm5  1  0.000000  0.056027  0.626806  1
  Tm  Tm6  1  0.000000  0.443973  0.126805  1
  Tm  Tm7  1  0.000000  0.556027  0.873194  1
  B  B8  1  0.500000  0.553708  0.433402  1
  B  B9  1  0.500000  0.446292  0.566598  1
  B  B10  1  0.500000  0.053708  0.066598  1
  B  B11  1  0.500000  0.946292  0.933402  1
  B  B12  1  0.500000  0.748725  0.420199  1
  B  B13  1  0.500000  0.251275  0.579801  1
  B  B14  1  0.500000  0.248725  0.079801  1
  B  B15  1  0.500000  0.751275  0.920199  1
  B  B16  1  0.500000  0.791625  0.266126  1
  B  B17  1  0.500000  0.208375  0.733874  1
  B  B18  1  0.500000  0.291624  0.233874  1
  B  B19  1  0.500000  0.708375  0.766126  1
  B  B20  1  0.500000  0.631517  0.184833  1
  B  B21  1  0.500000  0.368483  0.815167  1
  B  B22  1  0.500000  0.131517  0.315167  1
  B  B23  1  0.500000  0.868483  0.684833  1
  B  B24  1  0.500000  0.982441  0.213199  1
  B  B25  1  0.500000  0.017559  0.786801  1
  B  B26  1  0.500000  0.482441  0.286801  1
  B  B27  1  0.500000  0.517559  0.713199  1
  B  B28  1  0.500000  0.606060  0.029385  1
  B  B29  1  0.500000  0.393940  0.970615  1
  B  B30  1  0.500000  0.106060  0.470615  1
  B  B31  1  0.500000  0.893940  0.529385  1
  Os  Os32  1  0.000000  0.637551  0.321226  1
  Os  Os33  1  0.000000  0.362449  0.678774  1
  Os  Os34  1  0.000000  0.137551  0.178774  1
  Os  Os35  1  0.000000  0.862449  0.821226  1
