# generated using pymatgen
data_Tm8B24IrRu3
_symmetry_space_group_name_H-M   'P 1'
_cell_length_a   3.62225100
_cell_length_b   9.07817128
_cell_length_c   11.42670036
_cell_angle_alpha   90.02875658
_cell_angle_beta   90.00000000
_cell_angle_gamma   90.00000000
_symmetry_Int_Tables_number   1
_chemical_formula_structural   Tm8B24IrRu3
_chemical_formula_sum   'Tm8 B24 Ir1 Ru3'
_cell_volume   375.74888290
_cell_formula_units_Z   1
loop_
 _symmetry_equiv_pos_site_id
 _symmetry_equiv_pos_as_xyz
  1  'x, y, z'
loop_
 _atom_site_type_symbol
 _atom_site_label
 _atom_site_symmetry_multiplicity
 _atom_site_fract_x
 _atom_site_fract_y
 _atom_site_fract_z
 _atom_site_occupancy
  Tm  Tm0  1  0.000000  0.318521  0.414583  1
  Tm  Tm1  1  0.000000  0.679448  0.588977  1
  Tm  Tm2  1  0.000000  0.823035  0.084036  1
  Tm  Tm3  1  0.000000  0.178956  0.913259  1
  Tm  Tm4  1  0.000000  0.945664  0.373286  1
  Tm  Tm5  1  0.000000  0.055786  0.626923  1
  Tm  Tm6  1  0.000000  0.441994  0.125554  1
  Tm  Tm7  1  0.000000  0.555779  0.873348  1
  B  B8  1  0.500000  0.553758  0.434252  1
  B  B9  1  0.500000  0.446119  0.566369  1
  B  B10  1  0.500000  0.054091  0.066427  1
  B  B11  1  0.500000  0.946228  0.933306  1
  B  B12  1  0.500000  0.749824  0.421591  1
  B  B13  1  0.500000  0.251031  0.579650  1
  B  B14  1  0.500000  0.248365  0.079344  1
  B  B15  1  0.500000  0.751528  0.920434  1
  B  B16  1  0.500000  0.792940  0.265117  1
  B  B17  1  0.500000  0.208120  0.734175  1
  B  B18  1  0.500000  0.292272  0.234668  1
  B  B19  1  0.500000  0.707923  0.765828  1
  B  B20  1  0.500000  0.631950  0.183357  1
  B  B21  1  0.500000  0.368465  0.815252  1
  B  B22  1  0.500000  0.131840  0.315510  1
  B  B23  1  0.500000  0.868057  0.684778  1
  B  B24  1  0.500000  0.982349  0.212975  1
  B  B25  1  0.500000  0.017522  0.786849  1
  B  B26  1  0.500000  0.481286  0.286587  1
  B  B27  1  0.500000  0.517471  0.713289  1
  B  B28  1  0.500000  0.608649  0.030070  1
  B  B29  1  0.500000  0.391376  0.970125  1
  B  B30  1  0.500000  0.108228  0.470311  1
  B  B31  1  0.500000  0.891272  0.529595  1
  Ir  Ir32  1  0.000000  0.637490  0.321562  1
  Ru  Ru33  1  0.000000  0.362429  0.678377  1
  Ru  Ru34  1  0.000000  0.137844  0.179317  1
  Ru  Ru35  1  0.000000  0.862389  0.820920  1
