# generated using pymatgen
data_DyErTm2(Si3Rh)2
_symmetry_space_group_name_H-M   'P 1'
_cell_length_a   8.14515201
_cell_length_b   8.14515177
_cell_length_c   7.81452700
_cell_angle_alpha   90.00000000
_cell_angle_beta   90.00000000
_cell_angle_gamma   119.99407480
_symmetry_Int_Tables_number   1
_chemical_formula_structural   DyErTm2(Si3Rh)2
_chemical_formula_sum   'Dy2 Er2 Tm4 Si12 Rh4'
_cell_volume   449.01167076
_cell_formula_units_Z   2
loop_
 _symmetry_equiv_pos_site_id
 _symmetry_equiv_pos_as_xyz
  1  'x, y, z'
loop_
 _atom_site_type_symbol
 _atom_site_label
 _atom_site_symmetry_multiplicity
 _atom_site_fract_x
 _atom_site_fract_y
 _atom_site_fract_z
 _atom_site_occupancy
  Dy  Dy0  1  0.999956  0.000044  0.250000  1
  Dy  Dy1  1  0.000079  0.999921  0.750000  1
  Er  Er2  1  0.982467  0.491342  0.750000  1
  Er  Er3  1  0.508658  0.017533  0.750000  1
  Tm  Tm4  1  0.491343  0.508657  0.250000  1
  Tm  Tm5  1  0.491353  0.982668  0.250000  1
  Tm  Tm6  1  0.017332  0.508647  0.250000  1
  Tm  Tm7  1  0.508435  0.491565  0.750000  1
  Si  Si8  1  0.832864  0.167136  0.500266  1
  Si  Si9  1  0.832846  0.665704  0.500722  1
  Si  Si10  1  0.334296  0.167154  0.500722  1
  Si  Si11  1  0.832864  0.167136  0.999734  1
  Si  Si12  1  0.832846  0.665704  0.999278  1
  Si  Si13  1  0.334296  0.167154  0.999278  1
  Si  Si14  1  0.167139  0.832861  0.001563  1
  Si  Si15  1  0.665959  0.833003  0.001478  1
  Si  Si16  1  0.166997  0.334041  0.001478  1
  Si  Si17  1  0.167139  0.832861  0.498437  1
  Si  Si18  1  0.665959  0.833003  0.498522  1
  Si  Si19  1  0.166997  0.334041  0.498522  1
  Rh  Rh20  1  0.666572  0.333428  0.463841  1
  Rh  Rh21  1  0.666572  0.333428  0.036159  1
  Rh  Rh22  1  0.333516  0.666484  0.967003  1
  Rh  Rh23  1  0.333516  0.666484  0.532997  1
