# generated using pymatgen
data_K2CdFeF7
_symmetry_space_group_name_H-M   'P 1'
_cell_length_a   8.03534668
_cell_length_b   8.03534715
_cell_length_c   8.03534800
_cell_angle_alpha   120.51426865
_cell_angle_beta   117.42662905
_cell_angle_gamma   91.81284062
_symmetry_Int_Tables_number   1
_chemical_formula_structural   K2CdFeF7
_chemical_formula_sum   'K4 Cd2 Fe2 F14'
_cell_volume   372.04083911
_cell_formula_units_Z   2
loop_
 _symmetry_equiv_pos_site_id
 _symmetry_equiv_pos_as_xyz
  1  'x, y, z'
loop_
 _atom_site_type_symbol
 _atom_site_label
 _atom_site_symmetry_multiplicity
 _atom_site_fract_x
 _atom_site_fract_y
 _atom_site_fract_z
 _atom_site_occupancy
  K  K0  1  0.500000  0.500000  0.000000  1
  K  K1  1  0.000000  0.000000  0.000000  1
  K  K2  1  0.000000  0.500000  0.000000  1
  K  K3  1  0.000000  0.000000  0.500000  1
  Cd  Cd4  1  0.500000  0.500000  0.500000  1
  Cd  Cd5  1  0.500000  0.000000  0.000000  1
  Fe  Fe6  1  0.000000  0.500000  0.500000  1
  Fe  Fe7  1  0.500000  0.000000  0.500000  1
  F  F8  1  0.874929  0.582622  0.292307  1
  F  F9  1  0.209685  0.917378  0.292307  1
  F  F10  1  0.175626  0.791007  0.746641  1
  F  F11  1  0.455636  0.708993  0.384618  1
  F  F12  1  0.455636  0.071017  0.746641  1
  F  F13  1  0.175626  0.428983  0.384618  1
  F  F14  1  0.824374  0.571017  0.615382  1
  F  F15  1  0.544364  0.928983  0.253359  1
  F  F16  1  0.544364  0.291007  0.615382  1
  F  F17  1  0.824374  0.208993  0.253359  1
  F  F18  1  0.373475  0.250000  0.123475  1
  F  F19  1  0.125071  0.417378  0.707693  1
  F  F20  1  0.790315  0.082622  0.707693  1
  F  F21  1  0.626525  0.750000  0.876525  1
