# generated using pymatgen
data_La2Ni2AsPt6
_symmetry_space_group_name_H-M   'P 1'
_cell_length_a   9.28197618
_cell_length_b   9.28197544
_cell_length_c   4.13584000
_cell_angle_alpha   90.00000000
_cell_angle_beta   90.00000000
_cell_angle_gamma   145.46939355
_symmetry_Int_Tables_number   1
_chemical_formula_structural   La2Ni2AsPt6
_chemical_formula_sum   'La2 Ni2 As1 Pt6'
_cell_volume   201.98074939
_cell_formula_units_Z   1
loop_
 _symmetry_equiv_pos_site_id
 _symmetry_equiv_pos_as_xyz
  1  'x, y, z'
loop_
 _atom_site_type_symbol
 _atom_site_label
 _atom_site_symmetry_multiplicity
 _atom_site_fract_x
 _atom_site_fract_y
 _atom_site_fract_z
 _atom_site_occupancy
  La  La0  1  0.628607  0.373915  0.500000  1
  La  La1  1  0.373915  0.628607  0.500000  1
  Ni  Ni2  1  0.198016  0.787983  0.500000  1
  Ni  Ni3  1  0.787983  0.198016  0.500000  1
  As  As4  1  0.229159  0.229159  0.000000  1
  Pt  Pt5  1  0.108151  0.873329  0.000000  1
  Pt  Pt6  1  0.873329  0.108151  0.000000  1
  Pt  Pt7  1  0.490133  0.989278  0.000000  1
  Pt  Pt8  1  0.989278  0.490133  0.000000  1
  Pt  Pt9  1  0.983306  0.983306  0.500000  1
  Pt  Pt10  1  0.651720  0.651720  0.000000  1
