# generated using pymatgen
data_Er3Lu7(SnSb)3
_symmetry_space_group_name_H-M   'P 1'
_cell_length_a   8.83627100
_cell_length_b   8.83627248
_cell_length_c   6.27944300
_cell_angle_alpha   90.00000000
_cell_angle_beta   90.00000000
_cell_angle_gamma   120.00000570
_symmetry_Int_Tables_number   1
_chemical_formula_structural   Er3Lu7(SnSb)3
_chemical_formula_sum   'Er3 Lu7 Sn3 Sb3'
_cell_volume   424.60964558
_cell_formula_units_Z   1
loop_
 _symmetry_equiv_pos_site_id
 _symmetry_equiv_pos_as_xyz
  1  'x, y, z'
loop_
 _atom_site_type_symbol
 _atom_site_label
 _atom_site_symmetry_multiplicity
 _atom_site_fract_x
 _atom_site_fract_y
 _atom_site_fract_z
 _atom_site_occupancy
  Er  Er0  1  0.759856  0.759856  0.750000  1
  Er  Er1  1  0.240144  0.000000  0.750000  1
  Er  Er2  1  0.000000  0.240144  0.750000  1
  Lu  Lu3  1  0.666667  0.333333  0.001587  1
  Lu  Lu4  1  0.333333  0.666667  0.001587  1
  Lu  Lu5  1  0.333333  0.666667  0.498413  1
  Lu  Lu6  1  0.666667  0.333333  0.498413  1
  Lu  Lu7  1  0.239136  0.239136  0.250000  1
  Lu  Lu8  1  0.760864  0.000000  0.250000  1
  Lu  Lu9  1  0.000000  0.760864  0.250000  1
  Sn  Sn10  1  0.606403  0.606403  0.250000  1
  Sn  Sn11  1  0.393597  0.000000  0.250000  1
  Sn  Sn12  1  0.000000  0.393597  0.250000  1
  Sb  Sb13  1  0.393708  0.393708  0.750000  1
  Sb  Sb14  1  0.606292  0.000000  0.750000  1
  Sb  Sb15  1  0.000000  0.606292  0.750000  1
