# generated using pymatgen
data_AcPrCuSn4
_symmetry_space_group_name_H-M   'P 1'
_cell_length_a   4.55034500
_cell_length_b   4.61140275
_cell_length_c   9.45175795
_cell_angle_alpha   75.88054686
_cell_angle_beta   90.00000000
_cell_angle_gamma   90.00000000
_symmetry_Int_Tables_number   1
_chemical_formula_structural   AcPrCuSn4
_chemical_formula_sum   'Ac1 Pr1 Cu1 Sn4'
_cell_volume   192.33899180
_cell_formula_units_Z   1
loop_
 _symmetry_equiv_pos_site_id
 _symmetry_equiv_pos_as_xyz
  1  'x, y, z'
loop_
 _atom_site_type_symbol
 _atom_site_label
 _atom_site_symmetry_multiplicity
 _atom_site_fract_x
 _atom_site_fract_y
 _atom_site_fract_z
 _atom_site_occupancy
  Ac  Ac0  1  0.750000  0.104464  0.791071  1
  Pr  Pr1  1  0.250000  0.895676  0.208648  1
  Cu  Cu2  1  0.250000  0.680696  0.638609  1
  Sn  Sn3  1  0.250000  0.260892  0.478217  1
  Sn  Sn4  1  0.750000  0.759938  0.480122  1
  Sn  Sn5  1  0.250000  0.537422  0.925156  1
  Sn  Sn6  1  0.750000  0.433911  0.132177  1
