# generated using pymatgen
data_NdHo(PdO2)4
_symmetry_space_group_name_H-M   'P 1'
_cell_length_a   6.56581302
_cell_length_b   6.56581272
_cell_length_c   6.56581218
_cell_angle_alpha   126.87696259
_cell_angle_beta   126.87696567
_cell_angle_gamma   78.45150522
_symmetry_Int_Tables_number   1
_chemical_formula_structural   NdHo(PdO2)4
_chemical_formula_sum   'Nd1 Ho1 Pd4 O8'
_cell_volume   175.37174694
_cell_formula_units_Z   1
loop_
 _symmetry_equiv_pos_site_id
 _symmetry_equiv_pos_as_xyz
  1  'x, y, z'
loop_
 _atom_site_type_symbol
 _atom_site_label
 _atom_site_symmetry_multiplicity
 _atom_site_fract_x
 _atom_site_fract_y
 _atom_site_fract_z
 _atom_site_occupancy
  Nd  Nd0  1  0.250000  0.750000  0.500000  1
  Ho  Ho1  1  0.500000  0.500000  0.000000  1
  Pd  Pd2  1  0.872634  0.128024  0.751279  1
  Pd  Pd3  1  0.871976  0.623255  0.744611  1
  Pd  Pd4  1  0.878644  0.127366  0.255389  1
  Pd  Pd5  1  0.376745  0.121356  0.248721  1
  O  O6  1  0.496298  0.449077  0.339190  1
  O  O7  1  0.214487  0.355999  0.469352  1
  O  O8  1  0.886648  0.745135  0.530648  1
  O  O9  1  0.109887  0.157109  0.660810  1
  O  O10  1  0.254865  0.785513  0.141512  1
  O  O11  1  0.550923  0.890113  0.047221  1
  O  O12  1  0.644001  0.113352  0.858488  1
  O  O13  1  0.842891  0.503702  0.952779  1
