# generated using pymatgen
data_Nd6Al24Ir2(RuPt)3
_symmetry_space_group_name_H-M   'P 1'
_cell_length_a   8.93286023
_cell_length_b   8.94600468
_cell_length_c   9.63266479
_cell_angle_alpha   90.03186704
_cell_angle_beta   89.93982989
_cell_angle_gamma   120.13697951
_symmetry_Int_Tables_number   1
_chemical_formula_structural   Nd6Al24Ir2(RuPt)3
_chemical_formula_sum   'Nd6 Al24 Ir2 Ru3 Pt3'
_cell_volume   665.72579908
_cell_formula_units_Z   1
loop_
 _symmetry_equiv_pos_site_id
 _symmetry_equiv_pos_as_xyz
  1  'x, y, z'
loop_
 _atom_site_type_symbol
 _atom_site_label
 _atom_site_symmetry_multiplicity
 _atom_site_fract_x
 _atom_site_fract_y
 _atom_site_fract_z
 _atom_site_occupancy
  Nd  Nd0  1  0.192060  0.380387  0.251418  1
  Nd  Nd1  1  0.807940  0.619613  0.748582  1
  Nd  Nd2  1  0.619289  0.808097  0.249696  1
  Nd  Nd3  1  0.380711  0.191903  0.750304  1
  Nd  Nd4  1  0.190486  0.810215  0.249298  1
  Nd  Nd5  1  0.809514  0.189785  0.750702  1
  Al  Al6  1  0.336474  0.663322  0.026309  1
  Al  Al7  1  0.663526  0.336678  0.973691  1
  Al  Al8  1  0.663099  0.331650  0.526121  1
  Al  Al9  1  0.336901  0.668350  0.473879  1
  Al  Al10  1  0.166260  0.325605  0.575454  1
  Al  Al11  1  0.833740  0.674395  0.424546  1
  Al  Al12  1  0.672854  0.836420  0.574887  1
  Al  Al13  1  0.831701  0.673940  0.075038  1
  Al  Al14  1  0.327146  0.163580  0.425113  1
  Al  Al15  1  0.168299  0.326060  0.924962  1
  Al  Al16  1  0.165847  0.841170  0.575804  1
  Al  Al17  1  0.326367  0.168478  0.076487  1
  Al  Al18  1  0.834153  0.158830  0.424196  1
  Al  Al19  1  0.673633  0.831522  0.923513  1
  Al  Al20  1  0.838349  0.162029  0.077748  1
  Al  Al21  1  0.161651  0.837971  0.922252  1
  Al  Al22  1  0.564201  0.127458  0.252502  1
  Al  Al23  1  0.435799  0.872542  0.747498  1
  Al  Al24  1  0.871027  0.434995  0.250284  1
  Al  Al25  1  0.128973  0.565005  0.749716  1
  Al  Al26  1  0.561899  0.437971  0.248417  1
  Al  Al27  1  0.438101  0.562029  0.751583  1
  Al  Al28  1  0.001529  0.999847  0.250160  1
  Al  Al29  1  0.998471  0.000153  0.749840  1
  Ir  Ir30  1  0.500000  0.000000  0.500000  1
  Ir  Ir31  1  0.500000  0.500000  0.500000  1
  Ru  Ru32  1  0.500000  0.500000  0.000000  1
  Ru  Ru33  1  0.000000  0.000000  0.000000  1
  Ru  Ru34  1  0.000000  0.000000  0.500000  1
  Pt  Pt35  1  0.500000  0.000000  0.000000  1
  Pt  Pt36  1  0.000000  0.500000  0.000000  1
  Pt  Pt37  1  0.000000  0.500000  0.500000  1
