# generated using pymatgen
data_La10Ga2CuGeRu6
_symmetry_space_group_name_H-M   'P 1'
_cell_length_a   8.62876405
_cell_length_b   8.61829234
_cell_length_c   8.59087261
_cell_angle_alpha   109.73254010
_cell_angle_beta   109.63891624
_cell_angle_gamma   109.77648643
_symmetry_Int_Tables_number   1
_chemical_formula_structural   La10Ga2CuGeRu6
_chemical_formula_sum   'La10 Ga2 Cu1 Ge1 Ru6'
_cell_volume   487.28809182
_cell_formula_units_Z   1
loop_
 _symmetry_equiv_pos_site_id
 _symmetry_equiv_pos_as_xyz
  1  'x, y, z'
loop_
 _atom_site_type_symbol
 _atom_site_label
 _atom_site_symmetry_multiplicity
 _atom_site_fract_x
 _atom_site_fract_y
 _atom_site_fract_z
 _atom_site_occupancy
  La  La0  1  0.254276  0.694985  0.446456  1
  La  La1  1  0.746931  0.805919  0.053111  1
  La  La2  1  0.444574  0.248758  0.690375  1
  La  La3  1  0.688349  0.442000  0.251681  1
  La  La4  1  0.053691  0.745983  0.805686  1
  La  La5  1  0.801963  0.053459  0.745231  1
  La  La6  1  0.221381  0.222721  0.222347  1
  La  La7  1  0.500975  0.000110  0.279594  1
  La  La8  1  0.284059  0.500139  0.999342  1
  La  La9  1  0.000598  0.284058  0.500411  1
  Ga  Ga10  1  0.913576  0.499575  0.003113  1
  Ga  Ga11  1  0.001145  0.912669  0.499666  1
  Cu  Cu12  1  0.580398  0.578690  0.581074  1
  Ge  Ge13  1  0.498982  0.001151  0.906272  1
  Ru  Ru14  1  0.252045  0.115199  0.873616  1
  Ru  Ru15  1  0.758579  0.376712  0.631613  1
  Ru  Ru16  1  0.865763  0.248675  0.119731  1
  Ru  Ru17  1  0.120364  0.873744  0.249894  1
  Ru  Ru18  1  0.632171  0.758423  0.376926  1
  Ru  Ru19  1  0.380187  0.637034  0.763862  1
