# generated using pymatgen
data_DyPa5(Ni3Sb4)2
_symmetry_space_group_name_H-M   'P 1'
_cell_length_a   8.17338876
_cell_length_b   8.17338837
_cell_length_c   8.17338948
_cell_angle_alpha   109.50248216
_cell_angle_beta   109.40869321
_cell_angle_gamma   109.50250189
_symmetry_Int_Tables_number   1
_chemical_formula_structural   DyPa5(Ni3Sb4)2
_chemical_formula_sum   'Dy1 Pa5 Ni6 Sb8'
_cell_volume   420.32403311
_cell_formula_units_Z   1
loop_
 _symmetry_equiv_pos_site_id
 _symmetry_equiv_pos_as_xyz
  1  'x, y, z'
loop_
 _atom_site_type_symbol
 _atom_site_label
 _atom_site_symmetry_multiplicity
 _atom_site_fract_x
 _atom_site_fract_y
 _atom_site_fract_z
 _atom_site_occupancy
  Dy  Dy0  1  0.875000  0.250000  0.125000  1
  Pa  Pa1  1  0.625000  0.750000  0.375000  1
  Pa  Pa2  1  0.249585  0.124182  0.876353  1
  Pa  Pa3  1  0.752171  0.375818  0.625403  1
  Pa  Pa4  1  0.123647  0.873232  0.247829  1
  Pa  Pa5  1  0.374597  0.626768  0.750415  1
  Ni  Ni6  1  0.375000  0.250000  0.625000  1
  Ni  Ni7  1  0.125000  0.750000  0.875000  1
  Ni  Ni8  1  0.258946  0.631359  0.379688  1
  Ni  Ni9  1  0.748329  0.868641  0.127587  1
  Ni  Ni10  1  0.620312  0.379258  0.251671  1
  Ni  Ni11  1  0.872413  0.120742  0.741054  1
  Sb  Sb12  1  0.665401  0.498912  0.999199  1
  Sb  Sb13  1  0.500288  0.001088  0.666489  1
  Sb  Sb14  1  0.998280  0.663675  0.496510  1
  Sb  Sb15  1  0.832835  0.836325  0.834605  1
  Sb  Sb16  1  0.503490  0.001769  0.167165  1
  Sb  Sb17  1  0.165395  0.498231  0.001720  1
  Sb  Sb18  1  0.000801  0.166202  0.499712  1
  Sb  Sb19  1  0.333511  0.333798  0.334599  1
