# generated using pymatgen
data_CaNd(NiH4)2
_symmetry_space_group_name_H-M   'P 1'
_cell_length_a   3.65761298
_cell_length_b   4.87107700
_cell_length_c   6.20213104
_cell_angle_alpha   90.00000000
_cell_angle_beta   107.11090288
_cell_angle_gamma   90.00000000
_symmetry_Int_Tables_number   1
_chemical_formula_structural   CaNd(NiH4)2
_chemical_formula_sum   'Ca1 Nd1 Ni2 H8'
_cell_volume   105.60928492
_cell_formula_units_Z   1
loop_
 _symmetry_equiv_pos_site_id
 _symmetry_equiv_pos_as_xyz
  1  'x, y, z'
loop_
 _atom_site_type_symbol
 _atom_site_label
 _atom_site_symmetry_multiplicity
 _atom_site_fract_x
 _atom_site_fract_y
 _atom_site_fract_z
 _atom_site_occupancy
  Ca  Ca0  1  0.866145  0.750000  0.232396  1
  Nd  Nd1  1  0.131069  0.249999  0.761973  1
  Ni  Ni2  1  0.404992  0.249999  0.311193  1
  Ni  Ni3  1  0.595549  0.750000  0.689815  1
  H  H4  1  0.310877  0.013758  0.121061  1
  H  H5  1  0.310877  0.486241  0.121061  1
  H  H6  1  0.915245  0.249999  0.329191  1
  H  H7  1  0.500461  0.002707  0.500907  1
  H  H8  1  0.500461  0.497294  0.500907  1
  H  H9  1  0.086552  0.750000  0.674151  1
  H  H10  1  0.688886  0.508968  0.878671  1
  H  H11  1  0.688886  0.991031  0.878671  1
