# generated using pymatgen
data_DyHoLu3Ir2
_symmetry_space_group_name_H-M   'P 1'
_cell_length_a   6.42949751
_cell_length_b   7.17167241
_cell_length_c   8.43305500
_cell_angle_alpha   96.67912350
_cell_angle_beta   112.40852050
_cell_angle_gamma   89.99999786
_symmetry_Int_Tables_number   1
_chemical_formula_structural   DyHoLu3Ir2
_chemical_formula_sum   'Dy2 Ho2 Lu6 Ir4'
_cell_volume   356.63163243
_cell_formula_units_Z   2
loop_
 _symmetry_equiv_pos_site_id
 _symmetry_equiv_pos_as_xyz
  1  'x, y, z'
loop_
 _atom_site_type_symbol
 _atom_site_label
 _atom_site_symmetry_multiplicity
 _atom_site_fract_x
 _atom_site_fract_y
 _atom_site_fract_z
 _atom_site_occupancy
  Dy  Dy0  1  0.972123  0.919063  0.185633  1
  Dy  Dy1  1  0.786490  0.580937  0.814367  1
  Ho  Ho2  1  0.027967  0.081169  0.814771  1
  Ho  Ho3  1  0.213196  0.418831  0.185229  1
  Lu  Lu4  1  0.650661  0.817800  0.440096  1
  Lu  Lu5  1  0.210565  0.682200  0.559904  1
  Lu  Lu6  1  0.349205  0.182421  0.560078  1
  Lu  Lu7  1  0.789127  0.317579  0.439922  1
  Lu  Lu8  1  0.427868  0.750000  0.000000  1
  Lu  Lu9  1  0.571695  0.250000  0.000000  1
  Ir  Ir10  1  0.821577  0.573108  0.221538  1
  Ir  Ir11  1  0.600040  0.926892  0.778462  1
  Ir  Ir12  1  0.179169  0.426039  0.778852  1
  Ir  Ir13  1  0.400316  0.073961  0.221148  1
