# generated using pymatgen
data_NdTh3(MgSi2)2
_symmetry_space_group_name_H-M   'P 1'
_cell_length_a   7.31267948
_cell_length_b   7.31267948
_cell_length_c   4.41107100
_cell_angle_alpha   90.00000000
_cell_angle_beta   90.00000000
_cell_angle_gamma   90.16392660
_symmetry_Int_Tables_number   1
_chemical_formula_structural   NdTh3(MgSi2)2
_chemical_formula_sum   'Nd1 Th3 Mg2 Si4'
_cell_volume   235.88229674
_cell_formula_units_Z   1
loop_
 _symmetry_equiv_pos_site_id
 _symmetry_equiv_pos_as_xyz
  1  'x, y, z'
loop_
 _atom_site_type_symbol
 _atom_site_label
 _atom_site_symmetry_multiplicity
 _atom_site_fract_x
 _atom_site_fract_y
 _atom_site_fract_z
 _atom_site_occupancy
  Nd  Nd0  1  0.820833  0.679167  0.500000  1
  Th  Th1  1  0.678725  0.179456  0.500000  1
  Th  Th2  1  0.320544  0.821275  0.500000  1
  Th  Th3  1  0.178979  0.321021  0.500000  1
  Mg  Mg4  1  0.998939  0.998630  0.000000  1
  Mg  Mg5  1  0.501370  0.501061  0.000000  1
  Si  Si6  1  0.119183  0.616081  0.000000  1
  Si  Si7  1  0.883919  0.380817  0.000000  1
  Si  Si8  1  0.615130  0.884870  0.000000  1
  Si  Si9  1  0.382378  0.117622  0.000000  1
