# generated using pymatgen
data_ZrU7Sb10
_symmetry_space_group_name_H-M   'P 1'
_cell_length_a   9.34457107
_cell_length_b   9.34454456
_cell_length_c   6.20807711
_cell_angle_alpha   89.99865546
_cell_angle_beta   89.99215161
_cell_angle_gamma   120.00083297
_symmetry_Int_Tables_number   1
_chemical_formula_structural   ZrU7Sb10
_chemical_formula_sum   'Zr1 U7 Sb10'
_cell_volume   469.46324162
_cell_formula_units_Z   1
loop_
 _symmetry_equiv_pos_site_id
 _symmetry_equiv_pos_as_xyz
  1  'x, y, z'
loop_
 _atom_site_type_symbol
 _atom_site_label
 _atom_site_symmetry_multiplicity
 _atom_site_fract_x
 _atom_site_fract_y
 _atom_site_fract_z
 _atom_site_occupancy
  Zr  Zr0  1  0.000000  0.000000  0.500000  1
  U  U1  1  0.385853  0.999948  0.751065  1
  U  U2  1  0.385918  0.385910  0.248821  1
  U  U3  1  0.000004  0.614102  0.248862  1
  U  U4  1  0.999996  0.385898  0.751138  1
  U  U5  1  0.614082  0.614090  0.751179  1
  U  U6  1  0.614147  0.000052  0.248935  1
  U  U7  1  0.000000  0.000000  0.000000  1
  Sb  Sb8  1  0.666661  0.333391  0.500005  1
  Sb  Sb9  1  0.333347  0.666673  0.000032  1
  Sb  Sb10  1  0.723686  0.000008  0.745659  1
  Sb  Sb11  1  0.723685  0.723707  0.254424  1
  Sb  Sb12  1  0.333339  0.666609  0.499995  1
  Sb  Sb13  1  0.666653  0.333327  0.999968  1
  Sb  Sb14  1  0.276314  0.999992  0.254341  1
  Sb  Sb15  1  0.276315  0.276293  0.745576  1
  Sb  Sb16  1  0.999944  0.723673  0.745626  1
  Sb  Sb17  1  0.000056  0.276327  0.254374  1
