# generated using pymatgen
data_Dy5YAl24(Ru3Rh)2
_symmetry_space_group_name_H-M   'P 1'
_cell_length_a   8.79362558
_cell_length_b   8.79362602
_cell_length_c   9.54278500
_cell_angle_alpha   90.00000000
_cell_angle_beta   90.00000000
_cell_angle_gamma   119.53956495
_symmetry_Int_Tables_number   1
_chemical_formula_structural   Dy5YAl24(Ru3Rh)2
_chemical_formula_sum   'Dy5 Y1 Al24 Ru6 Rh2'
_cell_volume   642.00449175
_cell_formula_units_Z   1
loop_
 _symmetry_equiv_pos_site_id
 _symmetry_equiv_pos_as_xyz
  1  'x, y, z'
loop_
 _atom_site_type_symbol
 _atom_site_label
 _atom_site_symmetry_multiplicity
 _atom_site_fract_x
 _atom_site_fract_y
 _atom_site_fract_z
 _atom_site_occupancy
  Dy  Dy0  1  0.189676  0.385901  0.250000  1
  Dy  Dy1  1  0.614099  0.810324  0.250000  1
  Dy  Dy2  1  0.805527  0.194473  0.750000  1
  Dy  Dy3  1  0.810319  0.613762  0.750000  1
  Dy  Dy4  1  0.386238  0.189681  0.750000  1
  Y  Y5  1  0.194253  0.805747  0.250000  1
  Al  Al6  1  0.560950  0.439050  0.250000  1
  Al  Al7  1  0.560576  0.122666  0.250000  1
  Al  Al8  1  0.877334  0.439424  0.250000  1
  Al  Al9  1  0.439034  0.560966  0.750000  1
  Al  Al10  1  0.439500  0.877355  0.750000  1
  Al  Al11  1  0.122645  0.560500  0.750000  1
  Al  Al12  1  0.323841  0.161313  0.422062  1
  Al  Al13  1  0.836986  0.163014  0.422413  1
  Al  Al14  1  0.838687  0.676159  0.422062  1
  Al  Al15  1  0.676205  0.838752  0.578032  1
  Al  Al16  1  0.163017  0.836983  0.577708  1
  Al  Al17  1  0.161248  0.323795  0.578032  1
  Al  Al18  1  0.676205  0.838752  0.921968  1
  Al  Al19  1  0.163017  0.836983  0.922292  1
  Al  Al20  1  0.161248  0.323795  0.921968  1
  Al  Al21  1  0.323841  0.161313  0.077938  1
  Al  Al22  1  0.836986  0.163014  0.077587  1
  Al  Al23  1  0.838687  0.676159  0.077938  1
  Al  Al24  1  0.667843  0.332157  0.518486  1
  Al  Al25  1  0.332169  0.667831  0.481947  1
  Al  Al26  1  0.332169  0.667831  0.018053  1
  Al  Al27  1  0.667843  0.332157  0.981514  1
  Al  Al28  1  0.999286  0.000714  0.250000  1
  Al  Al29  1  0.000581  0.999419  0.750000  1
  Ru  Ru30  1  0.999971  0.000029  0.499856  1
  Ru  Ru31  1  0.999971  0.000029  0.000144  1
  Ru  Ru32  1  0.500126  0.000040  0.500067  1
  Ru  Ru33  1  0.999960  0.499874  0.500067  1
  Ru  Ru34  1  0.500126  0.000040  0.999933  1
  Ru  Ru35  1  0.999960  0.499874  0.999933  1
  Rh  Rh36  1  0.499937  0.500063  0.499852  1
  Rh  Rh37  1  0.499937  0.500063  0.000148  1
