# generated using pymatgen
data_In11HgIr4
_symmetry_space_group_name_H-M   'P 1'
_cell_length_a   7.11891246
_cell_length_b   7.16179340
_cell_length_c   7.27596400
_cell_angle_alpha   90.00000000
_cell_angle_beta   90.00000000
_cell_angle_gamma   90.39966543
_symmetry_Int_Tables_number   1
_chemical_formula_structural   In11HgIr4
_chemical_formula_sum   'In11 Hg1 Ir4'
_cell_volume   370.95003516
_cell_formula_units_Z   1
loop_
 _symmetry_equiv_pos_site_id
 _symmetry_equiv_pos_as_xyz
  1  'x, y, z'
loop_
 _atom_site_type_symbol
 _atom_site_label
 _atom_site_symmetry_multiplicity
 _atom_site_fract_x
 _atom_site_fract_y
 _atom_site_fract_z
 _atom_site_occupancy
  In  In0  1  0.345624  0.347307  0.258371  1
  In  In1  1  0.150822  0.841497  0.762352  1
  In  In2  1  0.150822  0.841497  0.237648  1
  In  In3  1  0.849178  0.158503  0.237648  1
  In  In4  1  0.849178  0.158503  0.762352  1
  In  In5  1  0.500000  0.000000  0.000000  1
  In  In6  1  0.654376  0.652693  0.258371  1
  In  In7  1  0.654376  0.652693  0.741629  1
  In  In8  1  0.000000  0.500000  0.500000  1
  In  In9  1  0.345624  0.347307  0.741629  1
  In  In10  1  0.500000  0.000000  0.500000  1
  Hg  Hg11  1  0.000000  0.500000  0.000000  1
  Ir  Ir12  1  0.159148  0.149202  0.000000  1
  Ir  Ir13  1  0.657397  0.342703  0.500000  1
  Ir  Ir14  1  0.342603  0.657297  0.500000  1
  Ir  Ir15  1  0.840852  0.850798  0.000000  1
