# generated using pymatgen
data_YEr5Zr4(Sn3O)2
_symmetry_space_group_name_H-M   'P 1'
_cell_length_a   8.72204703
_cell_length_b   8.72938597
_cell_length_c   6.02013400
_cell_angle_alpha   89.99962195
_cell_angle_beta   90.00019379
_cell_angle_gamma   120.02783329
_symmetry_Int_Tables_number   1
_chemical_formula_structural   YEr5Zr4(Sn3O)2
_chemical_formula_sum   'Y1 Er5 Zr4 Sn6 O2'
_cell_volume   396.84145810
_cell_formula_units_Z   1
loop_
 _symmetry_equiv_pos_site_id
 _symmetry_equiv_pos_as_xyz
  1  'x, y, z'
loop_
 _atom_site_type_symbol
 _atom_site_label
 _atom_site_symmetry_multiplicity
 _atom_site_fract_x
 _atom_site_fract_y
 _atom_site_fract_z
 _atom_site_occupancy
  Y  Y0  1  0.000000  0.770821  0.750006  1
  Er  Er1  1  0.000000  0.226148  0.250004  1
  Er  Er2  1  0.226279  0.226071  0.749988  1
  Er  Er3  1  0.226351  0.000362  0.249998  1
  Er  Er4  1  0.773649  0.774011  0.249998  1
  Er  Er5  1  0.773721  0.999792  0.749988  1
  Zr  Zr6  1  0.333418  0.666672  0.999911  1
  Zr  Zr7  1  0.333420  0.666670  0.500094  1
  Zr  Zr8  1  0.666582  0.333253  0.999911  1
  Zr  Zr9  1  0.666580  0.333249  0.500094  1
  Sn  Sn10  1  0.000000  0.595048  0.249978  1
  Sn  Sn11  1  0.000000  0.403899  0.750025  1
  Sn  Sn12  1  0.405151  0.405104  0.249967  1
  Sn  Sn13  1  0.594329  0.594561  0.750037  1
  Sn  Sn14  1  0.405671  0.000232  0.750037  1
  Sn  Sn15  1  0.594849  0.999953  0.249967  1
  O  O16  1  0.000000  0.002073  0.002196  1
  O  O17  1  0.000000  0.002080  0.497801  1
