# generated using pymatgen
data_Dy9Th3Co4
_symmetry_space_group_name_H-M   'P 1'
_cell_length_a   6.32227123
_cell_length_b   6.90930734
_cell_length_c   9.62203500
_cell_angle_alpha   90.00000000
_cell_angle_beta   90.00000000
_cell_angle_gamma   91.12774422
_symmetry_Int_Tables_number   1
_chemical_formula_structural   Dy9Th3Co4
_chemical_formula_sum   'Dy9 Th3 Co4'
_cell_volume   420.23327322
_cell_formula_units_Z   1
loop_
 _symmetry_equiv_pos_site_id
 _symmetry_equiv_pos_as_xyz
  1  'x, y, z'
loop_
 _atom_site_type_symbol
 _atom_site_label
 _atom_site_symmetry_multiplicity
 _atom_site_fract_x
 _atom_site_fract_y
 _atom_site_fract_z
 _atom_site_occupancy
  Dy  Dy0  1  0.671269  0.326579  0.930844  1
  Dy  Dy1  1  0.643905  0.045070  0.250000  1
  Dy  Dy2  1  0.175557  0.173039  0.427966  1
  Dy  Dy3  1  0.829719  0.827499  0.569587  1
  Dy  Dy4  1  0.175557  0.173039  0.072034  1
  Dy  Dy5  1  0.829719  0.827499  0.930413  1
  Dy  Dy6  1  0.671269  0.326579  0.569156  1
  Dy  Dy7  1  0.325019  0.672503  0.069915  1
  Dy  Dy8  1  0.325019  0.672503  0.430085  1
  Th  Th9  1  0.156285  0.444956  0.750000  1
  Th  Th10  1  0.346701  0.944702  0.750000  1
  Th  Th11  1  0.843455  0.553387  0.250000  1
  Co  Co12  1  0.533943  0.626695  0.750000  1
  Co  Co13  1  0.966881  0.126181  0.750000  1
  Co  Co14  1  0.039197  0.868874  0.250000  1
  Co  Co15  1  0.466506  0.390894  0.250000  1
