# generated using pymatgen
data_Cs3TbNpBr9
_symmetry_space_group_name_H-M   'P 1'
_cell_length_a   10.56160561
_cell_length_b   10.56160626
_cell_length_c   10.56160571
_cell_angle_alpha   83.40750778
_cell_angle_beta   83.40750575
_cell_angle_gamma   83.40750462
_symmetry_Int_Tables_number   1
_chemical_formula_structural   Cs3TbNpBr9
_chemical_formula_sum   'Cs6 Tb2 Np2 Br18'
_cell_volume   1156.41106304
_cell_formula_units_Z   2
loop_
 _symmetry_equiv_pos_site_id
 _symmetry_equiv_pos_as_xyz
  1  'x, y, z'
loop_
 _atom_site_type_symbol
 _atom_site_label
 _atom_site_symmetry_multiplicity
 _atom_site_fract_x
 _atom_site_fract_y
 _atom_site_fract_z
 _atom_site_occupancy
  Cs  Cs0  1  0.751392  0.412053  0.087880  1
  Cs  Cs1  1  0.087880  0.751392  0.412053  1
  Cs  Cs2  1  0.248608  0.587947  0.912120  1
  Cs  Cs3  1  0.412053  0.087880  0.751392  1
  Cs  Cs4  1  0.912120  0.248608  0.587947  1
  Cs  Cs5  1  0.587947  0.912120  0.248608  1
  Tb  Tb6  1  0.848116  0.848116  0.848116  1
  Tb  Tb7  1  0.151884  0.151884  0.151884  1
  Np  Np8  1  0.348165  0.348165  0.348165  1
  Np  Np9  1  0.651835  0.651835  0.651835  1
  Br  Br10  1  0.413660  0.766929  0.579664  1
  Br  Br11  1  0.233071  0.420336  0.586340  1
  Br  Br12  1  0.403372  0.247878  0.092573  1
  Br  Br13  1  0.092573  0.403372  0.247878  1
  Br  Br14  1  0.917935  0.735326  0.080114  1
  Br  Br15  1  0.919886  0.082065  0.264674  1
  Br  Br16  1  0.596628  0.752122  0.907427  1
  Br  Br17  1  0.752122  0.907427  0.596628  1
  Br  Br18  1  0.579664  0.413660  0.766929  1
  Br  Br19  1  0.247878  0.092573  0.403372  1
  Br  Br20  1  0.766929  0.579664  0.413660  1
  Br  Br21  1  0.735326  0.080114  0.917935  1
  Br  Br22  1  0.082065  0.264674  0.919886  1
  Br  Br23  1  0.420336  0.586340  0.233071  1
  Br  Br24  1  0.586340  0.233071  0.420336  1
  Br  Br25  1  0.907427  0.596628  0.752122  1
  Br  Br26  1  0.264674  0.919886  0.082065  1
  Br  Br27  1  0.080114  0.917935  0.735326  1
