# generated using pymatgen
data_Pr3TlInPd3Pb
_symmetry_space_group_name_H-M   'P 1'
_cell_length_a   7.94446302
_cell_length_b   7.89223512
_cell_length_c   4.06274300
_cell_angle_alpha   90.00000000
_cell_angle_beta   90.00000000
_cell_angle_gamma   119.87972481
_symmetry_Int_Tables_number   1
_chemical_formula_structural   Pr3TlInPd3Pb
_chemical_formula_sum   'Pr3 Tl1 In1 Pd3 Pb1'
_cell_volume   220.87147074
_cell_formula_units_Z   1
loop_
 _symmetry_equiv_pos_site_id
 _symmetry_equiv_pos_as_xyz
  1  'x, y, z'
loop_
 _atom_site_type_symbol
 _atom_site_label
 _atom_site_symmetry_multiplicity
 _atom_site_fract_x
 _atom_site_fract_y
 _atom_site_fract_z
 _atom_site_occupancy
  Pr  Pr0  1  0.404180  0.405382  0.500000  1
  Pr  Pr1  1  0.590773  0.001761  0.500000  1
  Pr  Pr2  1  0.000973  0.590526  0.500000  1
  Tl  Tl3  1  0.260106  0.999730  0.000000  1
  In  In4  1  0.998386  0.256078  0.000000  1
  Pd  Pd5  1  0.672861  0.332586  0.000000  1
  Pd  Pd6  1  0.327148  0.657244  0.000000  1
  Pd  Pd7  1  0.000684  0.010558  0.500000  1
  Pb  Pb8  1  0.744890  0.746134  0.000000  1
