# generated using pymatgen
data_Tm4Sc4TcRh3
_symmetry_space_group_name_H-M   'P 1'
_cell_length_a   4.18610700
_cell_length_b   7.15569070
_cell_length_c   8.67178900
_cell_angle_alpha   90.53650240
_cell_angle_beta   90.00000000
_cell_angle_gamma   90.00000000
_symmetry_Int_Tables_number   1
_chemical_formula_structural   Tm4Sc4TcRh3
_chemical_formula_sum   'Tm4 Sc4 Tc1 Rh3'
_cell_volume   259.74760262
_cell_formula_units_Z   1
loop_
 _symmetry_equiv_pos_site_id
 _symmetry_equiv_pos_as_xyz
  1  'x, y, z'
loop_
 _atom_site_type_symbol
 _atom_site_label
 _atom_site_symmetry_multiplicity
 _atom_site_fract_x
 _atom_site_fract_y
 _atom_site_fract_z
 _atom_site_occupancy
  Tm  Tm0  1  0.250000  0.969712  0.320786  1
  Tm  Tm1  1  0.750000  0.520975  0.830623  1
  Tm  Tm2  1  0.250000  0.486482  0.169568  1
  Tm  Tm3  1  0.750000  0.020288  0.673450  1
  Sc  Sc4  1  0.750000  0.639535  0.433979  1
  Sc  Sc5  1  0.750000  0.145164  0.067172  1
  Sc  Sc6  1  0.250000  0.357127  0.565085  1
  Sc  Sc7  1  0.250000  0.857460  0.936722  1
  Tc  Tc8  1  0.750000  0.764402  0.116638  1
  Rh  Rh9  1  0.750000  0.255589  0.393882  1
  Rh  Rh10  1  0.250000  0.241982  0.884376  1
  Rh  Rh11  1  0.250000  0.741284  0.607717  1
