# generated using pymatgen
data_Nb2Ga(Fe10B3)2
_symmetry_space_group_name_H-M   'P 1'
_cell_length_a   7.55494023
_cell_length_b   7.55496331
_cell_length_c   7.55562102
_cell_angle_alpha   59.99461509
_cell_angle_beta   59.99992166
_cell_angle_gamma   59.99525592
_symmetry_Int_Tables_number   1
_chemical_formula_structural   Nb2Ga(Fe10B3)2
_chemical_formula_sum   'Nb2 Ga1 Fe20 B6'
_cell_volume   304.91939839
_cell_formula_units_Z   1
loop_
 _symmetry_equiv_pos_site_id
 _symmetry_equiv_pos_as_xyz
  1  'x, y, z'
loop_
 _atom_site_type_symbol
 _atom_site_label
 _atom_site_symmetry_multiplicity
 _atom_site_fract_x
 _atom_site_fract_y
 _atom_site_fract_z
 _atom_site_occupancy
  Nb  Nb0  1  0.250101  0.250008  0.250043  1
  Nb  Nb1  1  0.749899  0.749992  0.749957  1
  Ga  Ga2  1  0.000000  0.000000  0.000000  1
  Fe  Fe3  1  0.342787  0.657238  0.000017  1
  Fe  Fe4  1  0.342701  0.000045  0.657259  1
  Fe  Fe5  1  0.999946  0.657335  0.342735  1
  Fe  Fe6  1  0.616489  0.150542  0.616499  1
  Fe  Fe7  1  0.383518  0.383541  0.849459  1
  Fe  Fe8  1  0.849445  0.383549  0.383519  1
  Fe  Fe9  1  0.383470  0.383545  0.383473  1
  Fe  Fe10  1  0.150555  0.616451  0.616481  1
  Fe  Fe11  1  0.616530  0.616455  0.616527  1
  Fe  Fe12  1  0.616482  0.616459  0.150541  1
  Fe  Fe13  1  0.383511  0.849458  0.383501  1
  Fe  Fe14  1  0.657213  0.342762  0.999983  1
  Fe  Fe15  1  0.000054  0.342665  0.657265  1
  Fe  Fe16  1  0.657294  0.000008  0.000046  1
  Fe  Fe17  1  0.999977  0.999927  0.342789  1
  Fe  Fe18  1  0.000023  0.000073  0.657211  1
  Fe  Fe19  1  0.000008  0.342712  0.999969  1
  Fe  Fe20  1  0.657299  0.999955  0.342741  1
  Fe  Fe21  1  0.342706  0.999992  0.999954  1
  Fe  Fe22  1  0.999992  0.657288  0.000031  1
  B  B23  1  0.277289  0.277230  0.722682  1
  B  B24  1  0.722711  0.722770  0.277318  1
  B  B25  1  0.722765  0.277268  0.722788  1
  B  B26  1  0.277235  0.722732  0.277212  1
  B  B27  1  0.277282  0.722816  0.722774  1
  B  B28  1  0.722718  0.277184  0.277226  1
