# generated using pymatgen
data_Tm5Pt8Rh
_symmetry_space_group_name_H-M   'P 1'
_cell_length_a   9.65206311
_cell_length_b   9.65206311
_cell_length_c   5.75723209
_cell_angle_alpha   90.43709233
_cell_angle_beta   89.56290767
_cell_angle_gamma   90.28498456
_symmetry_Int_Tables_number   1
_chemical_formula_structural   Tm5Pt8Rh
_chemical_formula_sum   'Tm10 Pt16 Rh2'
_cell_volume   536.31941693
_cell_formula_units_Z   2
loop_
 _symmetry_equiv_pos_site_id
 _symmetry_equiv_pos_as_xyz
  1  'x, y, z'
loop_
 _atom_site_type_symbol
 _atom_site_label
 _atom_site_symmetry_multiplicity
 _atom_site_fract_x
 _atom_site_fract_y
 _atom_site_fract_z
 _atom_site_occupancy
  Tm  Tm0  1  0.451224  0.808922  0.001766  1
  Tm  Tm1  1  0.548776  0.191078  0.998234  1
  Tm  Tm2  1  0.191078  0.548776  0.001766  1
  Tm  Tm3  1  0.808922  0.451224  0.998234  1
  Tm  Tm4  1  0.500000  0.500000  0.500000  1
  Tm  Tm5  1  0.307529  0.045821  0.498147  1
  Tm  Tm6  1  0.692471  0.954179  0.501853  1
  Tm  Tm7  1  0.954179  0.692471  0.498147  1
  Tm  Tm8  1  0.045821  0.307529  0.501853  1
  Tm  Tm9  1  0.000000  0.000000  0.000000  1
  Pt  Pt10  1  0.807631  0.192369  0.249567  1
  Pt  Pt11  1  0.192369  0.807631  0.750433  1
  Pt  Pt12  1  0.440099  0.782435  0.498411  1
  Pt  Pt13  1  0.559901  0.217565  0.501589  1
  Pt  Pt14  1  0.217565  0.559901  0.498411  1
  Pt  Pt15  1  0.782435  0.440099  0.501589  1
  Pt  Pt16  1  0.307682  0.308441  0.250187  1
  Pt  Pt17  1  0.692318  0.691559  0.749813  1
  Pt  Pt18  1  0.691559  0.692318  0.250187  1
  Pt  Pt19  1  0.308441  0.307682  0.749813  1
  Pt  Pt20  1  0.282279  0.058088  0.000782  1
  Pt  Pt21  1  0.717721  0.941912  0.999218  1
  Pt  Pt22  1  0.941912  0.717721  0.000782  1
  Pt  Pt23  1  0.058088  0.282279  0.999218  1
  Pt  Pt24  1  0.000000  0.000000  0.500000  1
  Pt  Pt25  1  0.500000  0.500000  0.000000  1
  Rh  Rh26  1  0.192454  0.807546  0.253031  1
  Rh  Rh27  1  0.807546  0.192454  0.746969  1
