# generated using pymatgen
data_SmPa5F24
_symmetry_space_group_name_H-M   'P 1'
_cell_length_a   8.42720069
_cell_length_b   8.49022702
_cell_length_c   8.46303318
_cell_angle_alpha   63.16146661
_cell_angle_beta   63.29793981
_cell_angle_gamma   80.29552727
_symmetry_Int_Tables_number   1
_chemical_formula_structural   SmPa5F24
_chemical_formula_sum   'Sm1 Pa5 F24'
_cell_volume   482.22822148
_cell_formula_units_Z   1
loop_
 _symmetry_equiv_pos_site_id
 _symmetry_equiv_pos_as_xyz
  1  'x, y, z'
loop_
 _atom_site_type_symbol
 _atom_site_label
 _atom_site_symmetry_multiplicity
 _atom_site_fract_x
 _atom_site_fract_y
 _atom_site_fract_z
 _atom_site_occupancy
  Sm  Sm0  1  0.775300  0.635266  0.169097  1
  Pa  Pa1  1  0.636340  0.769807  0.668231  1
  Pa  Pa2  1  0.374391  0.224908  0.329607  1
  Pa  Pa3  1  0.217675  0.368404  0.835457  1
  Pa  Pa4  1  0.788384  0.209060  0.742948  1
  Pa  Pa5  1  0.214700  0.786992  0.246728  1
  F  F6  1  0.319893  0.259751  0.608495  1
  F  F7  1  0.678135  0.743128  0.400363  1
  F  F8  1  0.736368  0.679762  0.892522  1
  F  F9  1  0.267649  0.327487  0.102296  1
  F  F10  1  0.821185  0.941282  0.947112  1
  F  F11  1  0.169623  0.070589  0.048060  1
  F  F12  1  0.069305  0.169726  0.544572  1
  F  F13  1  0.937803  0.823547  0.458589  1
  F  F14  1  0.402475  0.597256  0.752757  1
  F  F15  1  0.594445  0.397979  0.249146  1
  F  F16  1  0.497106  0.998431  0.504762  1
  F  F17  1  0.000854  0.493699  0.001897  1
  F  F18  1  0.499523  0.248565  0.796780  1
  F  F19  1  0.493443  0.747484  0.208266  1
  F  F20  1  0.748995  0.494531  0.710563  1
  F  F21  1  0.246684  0.499980  0.299652  1
  F  F22  1  0.398431  0.810897  0.924778  1
  F  F23  1  0.602798  0.189908  0.071907  1
  F  F24  1  0.193016  0.603247  0.572122  1
  F  F25  1  0.807554  0.394819  0.437650  1
  F  F26  1  0.726226  0.026830  0.642175  1
  F  F27  1  0.277262  0.978803  0.340843  1
  F  F28  1  0.975089  0.276593  0.840547  1
  F  F29  1  0.029347  0.731270  0.152078  1
