# generated using pymatgen
data_MgNb3Ga2(B2Ru5)2
_symmetry_space_group_name_H-M   'P 1'
_cell_length_a   9.36888260
_cell_length_b   9.36888260
_cell_length_c   2.99033000
_cell_angle_alpha   90.00000000
_cell_angle_beta   90.00000000
_cell_angle_gamma   89.89949720
_symmetry_Int_Tables_number   1
_chemical_formula_structural   MgNb3Ga2(B2Ru5)2
_chemical_formula_sum   'Mg1 Nb3 Ga2 B4 Ru10'
_cell_volume   262.47868635
_cell_formula_units_Z   1
loop_
 _symmetry_equiv_pos_site_id
 _symmetry_equiv_pos_as_xyz
  1  'x, y, z'
loop_
 _atom_site_type_symbol
 _atom_site_label
 _atom_site_symmetry_multiplicity
 _atom_site_fract_x
 _atom_site_fract_y
 _atom_site_fract_z
 _atom_site_occupancy
  Mg  Mg0  1  0.822400  0.677600  0.000000  1
  Nb  Nb1  1  0.173478  0.326522  0.000000  1
  Nb  Nb2  1  0.325581  0.823238  0.000000  1
  Nb  Nb3  1  0.676762  0.174419  0.000000  1
  Ga  Ga4  1  0.500657  0.499770  0.000000  1
  Ga  Ga5  1  0.000230  0.999343  0.000000  1
  B  B6  1  0.626642  0.873358  0.000000  1
  B  B7  1  0.375103  0.124897  0.000000  1
  B  B8  1  0.124585  0.624235  0.000000  1
  B  B9  1  0.875765  0.375415  0.000000  1
  Ru  Ru10  1  0.562410  0.716830  0.500000  1
  Ru  Ru11  1  0.428234  0.285741  0.500000  1
  Ru  Ru12  1  0.079421  0.786912  0.500000  1
  Ru  Ru13  1  0.933439  0.215308  0.500000  1
  Ru  Ru14  1  0.284692  0.566561  0.500000  1
  Ru  Ru15  1  0.713088  0.420579  0.500000  1
  Ru  Ru16  1  0.214259  0.071766  0.500000  1
  Ru  Ru17  1  0.783170  0.937590  0.500000  1
  Ru  Ru18  1  0.499172  0.000828  0.500000  1
  Ru  Ru19  1  0.000912  0.499088  0.500000  1
