# generated using pymatgen
data_HoSc(Re2Si)4
_symmetry_space_group_name_H-M   'P 1'
_cell_length_a   7.36013877
_cell_length_b   7.36013877
_cell_length_c   4.13714600
_cell_angle_alpha   90.00000000
_cell_angle_beta   90.00000000
_cell_angle_gamma   88.77905488
_symmetry_Int_Tables_number   1
_chemical_formula_structural   HoSc(Re2Si)4
_chemical_formula_sum   'Ho1 Sc1 Re8 Si4'
_cell_volume   224.06511198
_cell_formula_units_Z   1
loop_
 _symmetry_equiv_pos_site_id
 _symmetry_equiv_pos_as_xyz
  1  'x, y, z'
loop_
 _atom_site_type_symbol
 _atom_site_label
 _atom_site_symmetry_multiplicity
 _atom_site_fract_x
 _atom_site_fract_y
 _atom_site_fract_z
 _atom_site_occupancy
  Ho  Ho0  1  0.500000  0.500000  0.000000  1
  Sc  Sc1  1  0.000000  0.000000  0.500000  1
  Re  Re2  1  0.599578  0.155054  0.500000  1
  Re  Re3  1  0.400422  0.844946  0.500000  1
  Re  Re4  1  0.090210  0.339950  0.000000  1
  Re  Re5  1  0.909790  0.660050  0.000000  1
  Re  Re6  1  0.155054  0.599578  0.500000  1
  Re  Re7  1  0.844946  0.400422  0.500000  1
  Re  Re8  1  0.339950  0.090210  0.000000  1
  Re  Re9  1  0.660050  0.909790  0.000000  1
  Si  Si10  1  0.711868  0.711868  0.500000  1
  Si  Si11  1  0.288132  0.288132  0.500000  1
  Si  Si12  1  0.202286  0.797714  0.000000  1
  Si  Si13  1  0.797714  0.202286  0.000000  1
