# generated using pymatgen
data_ThNp2Sb4Pt3
_symmetry_space_group_name_H-M   'P 1'
_cell_length_a   8.52609815
_cell_length_b   8.52609799
_cell_length_c   8.52609896
_cell_angle_alpha   109.23717800
_cell_angle_beta   109.23716988
_cell_angle_gamma   109.94033821
_symmetry_Int_Tables_number   1
_chemical_formula_structural   ThNp2Sb4Pt3
_chemical_formula_sum   'Th2 Np4 Sb8 Pt6'
_cell_volume   477.09762172
_cell_formula_units_Z   2
loop_
 _symmetry_equiv_pos_site_id
 _symmetry_equiv_pos_as_xyz
  1  'x, y, z'
loop_
 _atom_site_type_symbol
 _atom_site_label
 _atom_site_symmetry_multiplicity
 _atom_site_fract_x
 _atom_site_fract_y
 _atom_site_fract_z
 _atom_site_occupancy
  Th  Th0  1  0.125000  0.875000  0.250000  1
  Th  Th1  1  0.375000  0.625000  0.750000  1
  Np  Np2  1  0.875155  0.250000  0.125155  1
  Np  Np3  1  0.624845  0.750000  0.374845  1
  Np  Np4  1  0.250000  0.124845  0.874845  1
  Np  Np5  1  0.750000  0.375155  0.625155  1
  Sb  Sb6  1  0.672479  0.495178  0.999272  1
  Sb  Sb7  1  0.504094  0.004822  0.677301  1
  Sb  Sb8  1  0.995906  0.673207  0.500728  1
  Sb  Sb9  1  0.827521  0.826793  0.822699  1
  Sb  Sb10  1  0.504822  0.004094  0.177301  1
  Sb  Sb11  1  0.173207  0.495906  0.000728  1
  Sb  Sb12  1  0.995178  0.172479  0.499272  1
  Sb  Sb13  1  0.326793  0.327521  0.322699  1
  Pt  Pt14  1  0.373793  0.250000  0.623793  1
  Pt  Pt15  1  0.126207  0.750000  0.876207  1
  Pt  Pt16  1  0.250000  0.626207  0.376207  1
  Pt  Pt17  1  0.750000  0.873793  0.123793  1
  Pt  Pt18  1  0.625000  0.375000  0.250000  1
  Pt  Pt19  1  0.875000  0.125000  0.750000  1
