# generated using pymatgen
data_YbMn(GeO3)2
_symmetry_space_group_name_H-M   'P 1'
_cell_length_a   5.50780303
_cell_length_b   6.89780977
_cell_length_c   6.89782588
_cell_angle_alpha   83.02253037
_cell_angle_beta   79.57487965
_cell_angle_gamma   79.57480234
_symmetry_Int_Tables_number   1
_chemical_formula_structural   YbMn(GeO3)2
_chemical_formula_sum   'Yb2 Mn2 Ge4 O12'
_cell_volume   252.41102524
_cell_formula_units_Z   2
loop_
 _symmetry_equiv_pos_site_id
 _symmetry_equiv_pos_as_xyz
  1  'x, y, z'
loop_
 _atom_site_type_symbol
 _atom_site_label
 _atom_site_symmetry_multiplicity
 _atom_site_fract_x
 _atom_site_fract_y
 _atom_site_fract_z
 _atom_site_occupancy
  Yb  Yb0  1  0.750005  0.306640  0.693359  1
  Yb  Yb1  1  0.250001  0.693361  0.306637  1
  Mn  Mn2  1  0.250006  0.092009  0.907989  1
  Mn  Mn3  1  0.750005  0.907986  0.092017  1
  Ge  Ge4  1  0.766963  0.385443  0.188714  1
  Ge  Ge5  1  0.733032  0.811283  0.614557  1
  Ge  Ge6  1  0.233029  0.614558  0.811286  1
  Ge  Ge7  1  0.266964  0.188712  0.385441  1
  O  O8  1  0.520797  0.323111  0.395053  1
  O  O9  1  0.979188  0.604940  0.676895  1
  O  O10  1  0.479188  0.676901  0.604935  1
  O  O11  1  0.020794  0.395061  0.323108  1
  O  O12  1  0.140965  0.111618  0.624652  1
  O  O13  1  0.359044  0.375351  0.888383  1
  O  O14  1  0.859043  0.888386  0.375361  1
  O  O15  1  0.640959  0.624645  0.111615  1
  O  O16  1  0.856035  0.211746  0.014144  1
  O  O17  1  0.643978  0.985851  0.788253  1
  O  O18  1  0.143974  0.788256  0.985855  1
  O  O19  1  0.356029  0.014142  0.211743  1
