# generated using pymatgen
data_Th2Sn(PRh2)6
_symmetry_space_group_name_H-M   'P 1'
_cell_length_a   3.93792462
_cell_length_b   9.84666448
_cell_length_c   9.84093062
_cell_angle_alpha   120.00259165
_cell_angle_beta   89.94106459
_cell_angle_gamma   90.00091169
_symmetry_Int_Tables_number   1
_chemical_formula_structural   Th2Sn(PRh2)6
_chemical_formula_sum   'Th2 Sn1 P6 Rh12'
_cell_volume   330.45452004
_cell_formula_units_Z   1
loop_
 _symmetry_equiv_pos_site_id
 _symmetry_equiv_pos_as_xyz
  1  'x, y, z'
loop_
 _atom_site_type_symbol
 _atom_site_label
 _atom_site_symmetry_multiplicity
 _atom_site_fract_x
 _atom_site_fract_y
 _atom_site_fract_z
 _atom_site_occupancy
  Th  Th0  1  0.244050  0.667216  0.333515  1
  Th  Th1  1  0.755950  0.332784  0.666485  1
  Sn  Sn2  1  0.500000  0.000000  0.000000  1
  P  P3  1  0.744633  0.886977  0.599268  1
  P  P4  1  0.744524  0.401523  0.287735  1
  P  P5  1  0.744721  0.712008  0.113375  1
  P  P6  1  0.255367  0.113023  0.400732  1
  P  P7  1  0.255476  0.598477  0.712265  1
  P  P8  1  0.255279  0.287992  0.886625  1
  Rh  Rh9  1  0.763510  0.126776  0.838509  1
  Rh  Rh10  1  0.764711  0.161841  0.287993  1
  Rh  Rh11  1  0.763768  0.712842  0.873798  1
  Rh  Rh12  1  0.236490  0.873224  0.161491  1
  Rh  Rh13  1  0.235289  0.838159  0.712007  1
  Rh  Rh14  1  0.236232  0.287158  0.126202  1
  Rh  Rh15  1  0.744541  0.615002  0.547267  1
  Rh  Rh16  1  0.745713  0.453370  0.068685  1
  Rh  Rh17  1  0.745857  0.932136  0.384921  1
  Rh  Rh18  1  0.255459  0.384998  0.452733  1
  Rh  Rh19  1  0.254287  0.546630  0.931315  1
  Rh  Rh20  1  0.254143  0.067864  0.615079  1
