# generated using pymatgen
data_Dy3Hf(Si4Tc3)2
_symmetry_space_group_name_H-M   'P 1'
_cell_length_a   6.73924104
_cell_length_b   6.77261899
_cell_length_c   6.74108712
_cell_angle_alpha   69.84500677
_cell_angle_beta   89.98531878
_cell_angle_gamma   90.65457305
_symmetry_Int_Tables_number   1
_chemical_formula_structural   Dy3Hf(Si4Tc3)2
_chemical_formula_sum   'Dy3 Hf1 Si8 Tc6'
_cell_volume   288.81604283
_cell_formula_units_Z   1
loop_
 _symmetry_equiv_pos_site_id
 _symmetry_equiv_pos_as_xyz
  1  'x, y, z'
loop_
 _atom_site_type_symbol
 _atom_site_label
 _atom_site_symmetry_multiplicity
 _atom_site_fract_x
 _atom_site_fract_y
 _atom_site_fract_z
 _atom_site_occupancy
  Dy  Dy0  1  0.165064  0.058827  0.809645  1
  Dy  Dy1  1  0.331861  0.556609  0.810462  1
  Dy  Dy2  1  0.829206  0.945592  0.189826  1
  Hf  Hf3  1  0.671432  0.439469  0.199514  1
  Si  Si4  1  0.441098  0.119816  0.108553  1
  Si  Si5  1  0.941884  0.383580  0.900485  1
  Si  Si6  1  0.551190  0.870500  0.900204  1
  Si  Si7  1  0.045400  0.630620  0.098761  1
  Si  Si8  1  0.860431  0.136623  0.507725  1
  Si  Si9  1  0.366532  0.362053  0.492750  1
  Si  Si10  1  0.148406  0.873301  0.473280  1
  Si  Si11  1  0.644475  0.625663  0.514762  1
  Tc  Tc12  1  0.501397  0.003309  0.494561  1
  Tc  Tc13  1  0.993368  0.504723  0.496137  1
  Tc  Tc14  1  0.148512  0.258567  0.241296  1
  Tc  Tc15  1  0.648642  0.249499  0.764038  1
  Tc  Tc16  1  0.847937  0.762347  0.761667  1
  Tc  Tc17  1  0.363164  0.718902  0.236334  1
