# generated using pymatgen
data_Tb16Cd4FePd3
_symmetry_space_group_name_H-M   'P 1'
_cell_length_a   9.71133796
_cell_length_b   9.71133798
_cell_length_c   9.71133831
_cell_angle_alpha   59.68410018
_cell_angle_beta   59.68410077
_cell_angle_gamma   59.68409617
_symmetry_Int_Tables_number   1
_chemical_formula_structural   Tb16Cd4FePd3
_chemical_formula_sum   'Tb16 Cd4 Fe1 Pd3'
_cell_volume   642.97536347
_cell_formula_units_Z   1
loop_
 _symmetry_equiv_pos_site_id
 _symmetry_equiv_pos_as_xyz
  1  'x, y, z'
loop_
 _atom_site_type_symbol
 _atom_site_label
 _atom_site_symmetry_multiplicity
 _atom_site_fract_x
 _atom_site_fract_y
 _atom_site_fract_z
 _atom_site_occupancy
  Tb  Tb0  1  0.352997  0.352997  0.352997  1
  Tb  Tb1  1  0.346674  0.346674  0.948505  1
  Tb  Tb2  1  0.346674  0.948505  0.346674  1
  Tb  Tb3  1  0.948505  0.346674  0.346674  1
  Tb  Tb4  1  0.821358  0.188197  0.188197  1
  Tb  Tb5  1  0.188722  0.810317  0.810317  1
  Tb  Tb6  1  0.188197  0.821358  0.188197  1
  Tb  Tb7  1  0.810317  0.188722  0.810317  1
  Tb  Tb8  1  0.188197  0.188197  0.821358  1
  Tb  Tb9  1  0.810317  0.810317  0.188722  1
  Tb  Tb10  1  0.934757  0.565247  0.565247  1
  Tb  Tb11  1  0.560831  0.936080  0.936080  1
  Tb  Tb12  1  0.565247  0.934757  0.565247  1
  Tb  Tb13  1  0.936080  0.560831  0.936080  1
  Tb  Tb14  1  0.565247  0.565247  0.934757  1
  Tb  Tb15  1  0.936080  0.936080  0.560831  1
  Cd  Cd16  1  0.580519  0.580519  0.580519  1
  Cd  Cd17  1  0.581632  0.581632  0.254576  1
  Cd  Cd18  1  0.581632  0.254576  0.581632  1
  Cd  Cd19  1  0.254576  0.581632  0.581632  1
  Fe  Fe20  1  0.143206  0.143206  0.143206  1
  Pd  Pd21  1  0.144399  0.144399  0.569438  1
  Pd  Pd22  1  0.144399  0.569438  0.144399  1
  Pd  Pd23  1  0.569438  0.144399  0.144399  1
