# generated using pymatgen
data_Ba6Ho2(TeO6)3
_symmetry_space_group_name_H-M   'P 1'
_cell_length_a   10.39147658
_cell_length_b   10.39147558
_cell_length_c   10.39147671
_cell_angle_alpha   146.51796470
_cell_angle_beta   131.90855035
_cell_angle_gamma   59.86742841
_symmetry_Int_Tables_number   1
_chemical_formula_structural   Ba6Ho2(TeO6)3
_chemical_formula_sum   'Ba6 Ho2 Te3 O18'
_cell_volume   456.52551231
_cell_formula_units_Z   1
loop_
 _symmetry_equiv_pos_site_id
 _symmetry_equiv_pos_as_xyz
  1  'x, y, z'
loop_
 _atom_site_type_symbol
 _atom_site_label
 _atom_site_symmetry_multiplicity
 _atom_site_fract_x
 _atom_site_fract_y
 _atom_site_fract_z
 _atom_site_occupancy
  Ba  Ba0  1  0.776183  0.500000  0.276183  1
  Ba  Ba1  1  0.390962  0.155399  0.235563  1
  Ba  Ba2  1  0.080164  0.844601  0.235563  1
  Ba  Ba3  1  0.223817  0.500000  0.723817  1
  Ba  Ba4  1  0.919836  0.155399  0.764437  1
  Ba  Ba5  1  0.609038  0.844601  0.764437  1
  Ho  Ho6  1  0.665869  0.665869  0.000000  1
  Ho  Ho7  1  0.334131  0.334131  0.000000  1
  Te  Te8  1  0.500000  0.000000  0.500000  1
  Te  Te9  1  0.171389  0.671389  0.500000  1
  Te  Te10  1  0.828611  0.328611  0.500000  1
  O  O11  1  0.724632  0.000000  0.724632  1
  O  O12  1  0.406724  0.671197  0.735528  1
  O  O13  1  0.064332  0.328803  0.735528  1
  O  O14  1  0.578416  0.842495  0.264078  1
  O  O15  1  0.248402  0.516921  0.268518  1
  O  O16  1  0.904091  0.177218  0.273127  1
  O  O17  1  0.421584  0.685663  0.264078  1
  O  O18  1  0.095909  0.369036  0.273127  1
  O  O19  1  0.751598  0.020116  0.268518  1
  O  O20  1  0.275368  0.000000  0.275368  1
  O  O21  1  0.935668  0.671197  0.264472  1
  O  O22  1  0.593276  0.328803  0.264472  1
  O  O23  1  0.421584  0.157505  0.735922  1
  O  O24  1  0.095909  0.822782  0.726873  1
  O  O25  1  0.751598  0.483079  0.731482  1
  O  O26  1  0.578416  0.314337  0.735922  1
  O  O27  1  0.248402  0.979884  0.731482  1
  O  O28  1  0.904091  0.630965  0.726873  1
