# generated using pymatgen
data_Dy12CuNi4Hg
_symmetry_space_group_name_H-M   'P 1'
_cell_length_a   8.33428431
_cell_length_b   8.33428384
_cell_length_c   8.33428400
_cell_angle_alpha   112.62637591
_cell_angle_beta   109.53632138
_cell_angle_gamma   106.31244943
_symmetry_Int_Tables_number   1
_chemical_formula_structural   Dy12CuNi4Hg
_chemical_formula_sum   'Dy12 Cu1 Ni4 Hg1'
_cell_volume   444.28693771
_cell_formula_units_Z   1
loop_
 _symmetry_equiv_pos_site_id
 _symmetry_equiv_pos_as_xyz
  1  'x, y, z'
loop_
 _atom_site_type_symbol
 _atom_site_label
 _atom_site_symmetry_multiplicity
 _atom_site_fract_x
 _atom_site_fract_y
 _atom_site_fract_z
 _atom_site_occupancy
  Dy  Dy0  1  0.031524  0.723248  0.308276  1
  Dy  Dy1  1  0.968476  0.276752  0.691724  1
  Dy  Dy2  1  0.585027  0.276752  0.308276  1
  Dy  Dy3  1  0.414973  0.723248  0.691724  1
  Dy  Dy4  1  0.675122  0.868353  0.193232  1
  Dy  Dy5  1  0.324878  0.518110  0.193232  1
  Dy  Dy6  1  0.324878  0.131647  0.806768  1
  Dy  Dy7  1  0.675122  0.481890  0.806768  1
  Dy  Dy8  1  0.180493  0.207793  0.388286  1
  Dy  Dy9  1  0.819507  0.207793  0.027298  1
  Dy  Dy10  1  0.180493  0.792207  0.972702  1
  Dy  Dy11  1  0.819507  0.792207  0.611714  1
  Cu  Cu12  1  0.000000  0.500000  0.500000  1
  Ni  Ni13  1  0.644318  0.500000  0.144318  1
  Ni  Ni14  1  0.355682  0.500000  0.855682  1
  Ni  Ni15  1  0.875603  0.875603  0.000000  1
  Ni  Ni16  1  0.124397  0.124397  0.000000  1
  Hg  Hg17  1  0.500000  0.000000  0.500000  1
