# generated using pymatgen
data_CaPr5YOsBr12
_symmetry_space_group_name_H-M   'P 1'
_cell_length_a   9.65987048
_cell_length_b   9.61342889
_cell_length_c   9.58110522
_cell_angle_alpha   107.36072599
_cell_angle_beta   107.22313896
_cell_angle_gamma   106.62037634
_symmetry_Int_Tables_number   1
_chemical_formula_structural   CaPr5YOsBr12
_chemical_formula_sum   'Ca1 Pr5 Y1 Os1 Br12'
_cell_volume   739.58019004
_cell_formula_units_Z   1
loop_
 _symmetry_equiv_pos_site_id
 _symmetry_equiv_pos_as_xyz
  1  'x, y, z'
loop_
 _atom_site_type_symbol
 _atom_site_label
 _atom_site_symmetry_multiplicity
 _atom_site_fract_x
 _atom_site_fract_y
 _atom_site_fract_z
 _atom_site_occupancy
  Ca  Ca0  1  0.500518  0.499557  0.498971  1
  Pr  Pr1  1  0.024275  0.311239  0.107730  1
  Pr  Pr2  1  0.109755  0.026385  0.313590  1
  Pr  Pr3  1  0.894900  0.974974  0.688113  1
  Pr  Pr4  1  0.976084  0.689509  0.892278  1
  Pr  Pr5  1  0.677379  0.889097  0.974391  1
  Y  Y6  1  0.314299  0.108603  0.026592  1
  Os  Os7  1  0.000704  0.000732  0.001223  1
  Br  Br8  1  0.673186  0.214525  0.067079  1
  Br  Br9  1  0.378087  0.449094  0.162054  1
  Br  Br10  1  0.068495  0.682329  0.217626  1
  Br  Br11  1  0.784328  0.932556  0.319150  1
  Br  Br12  1  0.459424  0.166761  0.369033  1
  Br  Br13  1  0.170462  0.380206  0.462405  1
  Br  Br14  1  0.830617  0.620191  0.537844  1
  Br  Br15  1  0.540296  0.831426  0.620188  1
  Br  Br16  1  0.223824  0.070591  0.693145  1
  Br  Br17  1  0.931739  0.317730  0.782438  1
  Br  Br18  1  0.622005  0.539334  0.831283  1
  Br  Br19  1  0.319628  0.795164  0.934871  1
