# generated using pymatgen
data_Al3In5P16(Pb3O16)4
_symmetry_space_group_name_H-M   'P 1'
_cell_length_a   9.26508205
_cell_length_b   9.27506150
_cell_length_c   16.87258177
_cell_angle_alpha   90.04416638
_cell_angle_beta   89.96633283
_cell_angle_gamma   89.92916487
_symmetry_Int_Tables_number   1
_chemical_formula_structural   Al3In5P16(Pb3O16)4
_chemical_formula_sum   'Al3 In5 P16 Pb12 O64'
_cell_volume   1449.93012556
_cell_formula_units_Z   1
loop_
 _symmetry_equiv_pos_site_id
 _symmetry_equiv_pos_as_xyz
  1  'x, y, z'
loop_
 _atom_site_type_symbol
 _atom_site_label
 _atom_site_symmetry_multiplicity
 _atom_site_fract_x
 _atom_site_fract_y
 _atom_site_fract_z
 _atom_site_occupancy
  Al  Al0  1  0.002761  0.231797  0.628620  1
  Al  Al1  1  0.232971  0.002492  0.373180  1
  Al  Al2  1  0.767743  0.998111  0.869307  1
  In  In3  1  0.266068  0.496122  0.877830  1
  In  In4  1  0.997645  0.768167  0.130821  1
  In  In5  1  0.733919  0.501796  0.382794  1
  In  In6  1  0.502221  0.734501  0.620121  1
  In  In7  1  0.500069  0.265437  0.119610  1
  P  P8  1  0.268296  0.447557  0.675488  1
  P  P9  1  0.009517  0.734375  0.332456  1
  P  P10  1  0.774550  0.046400  0.064909  1
  P  P11  1  0.449472  0.266616  0.323883  1
  P  P12  1  0.224617  0.497161  0.080132  1
  P  P13  1  0.727796  0.542453  0.179657  1
  P  P14  1  0.503215  0.215625  0.916883  1
  P  P15  1  0.731868  0.014715  0.674050  1
  P  P16  1  0.218571  0.961725  0.568325  1
  P  P17  1  0.498280  0.785378  0.418556  1
  P  P18  1  0.035225  0.778890  0.926517  1
  P  P19  1  0.551313  0.732893  0.822433  1
  P  P20  1  0.275019  0.994648  0.175953  1
  P  P21  1  0.961764  0.217428  0.432679  1
  P  P22  1  0.986244  0.267176  0.824793  1
  P  P23  1  0.784721  0.496806  0.583068  1
  Pb  Pb24  1  0.652220  0.923744  0.230906  1
  Pb  Pb25  1  0.132370  0.133469  0.000410  1
  Pb  Pb26  1  0.081088  0.346761  0.271092  1
  Pb  Pb27  1  0.846961  0.423093  0.014629  1
  Pb  Pb28  1  0.365036  0.637785  0.250353  1
  Pb  Pb29  1  0.418540  0.847863  0.982853  1
  Pb  Pb30  1  0.918446  0.649932  0.765507  1
  Pb  Pb31  1  0.348529  0.081606  0.729738  1
  Pb  Pb32  1  0.868132  0.870205  0.503531  1
  Pb  Pb33  1  0.580237  0.151811  0.485017  1
  Pb  Pb34  1  0.149925  0.581029  0.515986  1
  Pb  Pb35  1  0.637679  0.361788  0.750045  1
  O  O36  1  0.877966  0.177446  0.064314  1
  O  O37  1  0.394044  0.135840  0.373207  1
  O  O38  1  0.630191  0.078109  0.110149  1
  O  O39  1  0.175837  0.622903  0.135248  1
  O  O40  1  0.389658  0.097116  0.936412  1
  O  O41  1  0.380190  0.325761  0.685761  1
  O  O42  1  0.428537  0.670269  0.876646  1
  O  O43  1  0.116920  0.828834  0.566998  1
  O  O44  1  0.716541  0.439586  0.505279  1
  O  O45  1  0.672823  0.620901  0.811423  1
  O  O46  1  0.153588  0.930813  0.122805  1
  O  O47  1  0.844774  0.371899  0.635176  1
  O  O48  1  0.154864  0.086577  0.620182  1
  O  O49  1  0.561372  0.286265  0.993407  1
  O  O50  1  0.688846  0.882362  0.620538  1
  O  O51  1  0.828552  0.116399  0.433777  1
  O  O52  1  0.611113  0.904625  0.436243  1
  O  O53  1  0.345241  0.429742  0.132226  1
  O  O54  1  0.568307  0.664629  0.366062  1
  O  O55  1  0.165131  0.882376  0.937105  1
  O  O56  1  0.035830  0.218736  0.741465  1
  O  O57  1  0.081507  0.644392  0.875736  1
  O  O58  1  0.903632  0.610386  0.566207  1
  O  O59  1  0.086289  0.857880  0.378138  1
  O  O60  1  0.939555  0.791426  0.255472  1
  O  O61  1  0.779672  0.966372  0.757229  1
  O  O62  1  0.604852  0.864511  0.871660  1
  O  O63  1  0.403246  0.886585  0.182077  1
  O  O64  1  0.974366  0.724571  0.005480  1
  O  O65  1  0.288198  0.554617  0.001309  1
  O  O66  1  0.087046  0.154264  0.380576  1
  O  O67  1  0.569110  0.330819  0.379668  1
  O  O68  1  0.881464  0.398694  0.818509  1
  O  O69  1  0.865879  0.580835  0.131323  1
  O  O70  1  0.663781  0.424641  0.123823  1
  O  O71  1  0.360830  0.925342  0.615338  1
  O  O72  1  0.330594  0.570387  0.621325  1
  O  O73  1  0.117446  0.310451  0.879134  1
  O  O74  1  0.624355  0.671821  0.187857  1
  O  O75  1  0.327560  0.378732  0.311505  1
  O  O76  1  0.482787  0.782745  0.743785  1
  O  O77  1  0.432813  0.334587  0.863319  1
  O  O78  1  0.888998  0.681152  0.391290  1
  O  O79  1  0.626258  0.153944  0.863576  1
  O  O80  1  0.772713  0.475599  0.259264  1
  O  O81  1  0.441876  0.716580  0.496417  1
  O  O82  1  0.745732  0.990464  0.981453  1
  O  O83  1  0.914794  0.141682  0.871523  1
  O  O84  1  0.315409  0.128498  0.124491  1
  O  O85  1  0.913660  0.846517  0.874206  1
  O  O86  1  0.858481  0.084723  0.627178  1
  O  O87  1  0.662940  0.565882  0.635141  1
  O  O88  1  0.600788  0.119826  0.679480  1
  O  O89  1  0.115186  0.607255  0.315370  1
  O  O90  1  0.219688  0.515316  0.754315  1
  O  O91  1  0.135570  0.394529  0.626964  1
  O  O92  1  0.832777  0.925517  0.120812  1
  O  O93  1  0.926362  0.360132  0.385813  1
  O  O94  1  0.218622  0.034379  0.259284  1
  O  O95  1  0.519920  0.216011  0.246114  1
  O  O96  1  0.256640  0.011721  0.484697  1
  O  O97  1  0.101034  0.388802  0.063827  1
  O  O98  1  0.011128  0.254192  0.516642  1
  O  O99  1  0.373096  0.844677  0.366128  1
