# generated using pymatgen
data_La12Tc3AsBr12
_symmetry_space_group_name_H-M   'P 1'
_cell_length_a   10.48101223
_cell_length_b   10.76168270
_cell_length_c   10.76168202
_cell_angle_alpha   109.99349479
_cell_angle_beta   108.94376062
_cell_angle_gamma   108.94375463
_symmetry_Int_Tables_number   1
_chemical_formula_structural   La12Tc3AsBr12
_chemical_formula_sum   'La12 Tc3 As1 Br12'
_cell_volume   940.43208455
_cell_formula_units_Z   1
loop_
 _symmetry_equiv_pos_site_id
 _symmetry_equiv_pos_as_xyz
  1  'x, y, z'
loop_
 _atom_site_type_symbol
 _atom_site_label
 _atom_site_symmetry_multiplicity
 _atom_site_fract_x
 _atom_site_fract_y
 _atom_site_fract_z
 _atom_site_occupancy
  La  La0  1  0.467994  0.469826  0.242978  1
  La  La1  1  0.750000  0.234355  0.265645  1
  La  La2  1  0.750000  0.012210  0.487790  1
  La  La3  1  0.237790  0.475581  0.487790  1
  La  La4  1  0.274984  0.773151  0.242978  1
  La  La5  1  0.032006  0.257022  0.030174  1
  La  La6  1  0.015645  0.031289  0.265645  1
  La  La7  1  0.498167  0.773151  0.030174  1
  La  La8  1  0.484355  0.234355  0.468711  1
  La  La9  1  0.001833  0.469826  0.726849  1
  La  La10  1  0.262210  0.012210  0.024419  1
  La  La11  1  0.225016  0.257022  0.726849  1
  Tc  Tc12  1  0.250000  0.260097  0.239903  1
  Tc  Tc13  1  0.489903  0.979806  0.239903  1
  Tc  Tc14  1  0.010097  0.260097  0.520194  1
  As  As15  1  0.250000  0.500000  0.000000  1
  Br  Br16  1  0.250000  0.752096  0.747904  1
  Br  Br17  1  0.506572  0.507624  0.757280  1
  Br  Br18  1  0.993428  0.742720  0.992376  1
  Br  Br19  1  0.750708  0.249656  0.757280  1
  Br  Br20  1  0.997904  0.995808  0.747904  1
  Br  Br21  1  0.250000  0.993762  0.506238  1
  Br  Br22  1  0.756238  0.512475  0.506238  1
  Br  Br23  1  0.498948  0.249656  0.992376  1
  Br  Br24  1  0.749292  0.742720  0.250344  1
  Br  Br25  1  0.743762  0.993762  0.987525  1
  Br  Br26  1  0.001052  0.507624  0.250344  1
  Br  Br27  1  0.502096  0.752096  0.504192  1
