# generated using pymatgen
data_Pu2Re2TcB6
_symmetry_space_group_name_H-M   'P 1'
_cell_length_a   6.23322287
_cell_length_b   6.23322341
_cell_length_c   7.43890355
_cell_angle_alpha   89.61476264
_cell_angle_beta   89.61476686
_cell_angle_gamma   114.20474310
_symmetry_Int_Tables_number   1
_chemical_formula_structural   Pu2Re2TcB6
_chemical_formula_sum   'Pu4 Re4 Tc2 B12'
_cell_volume   263.59482024
_cell_formula_units_Z   2
loop_
 _symmetry_equiv_pos_site_id
 _symmetry_equiv_pos_as_xyz
  1  'x, y, z'
loop_
 _atom_site_type_symbol
 _atom_site_label
 _atom_site_symmetry_multiplicity
 _atom_site_fract_x
 _atom_site_fract_y
 _atom_site_fract_z
 _atom_site_occupancy
  Pu  Pu0  1  0.900070  0.547610  0.332626  1
  Pu  Pu1  1  0.452390  0.099930  0.167374  1
  Pu  Pu2  1  0.099930  0.452390  0.667374  1
  Pu  Pu3  1  0.547610  0.900070  0.832626  1
  Re  Re4  1  0.010768  0.193611  0.088471  1
  Re  Re5  1  0.806389  0.989232  0.411529  1
  Re  Re6  1  0.989232  0.806389  0.911529  1
  Re  Re7  1  0.193611  0.010768  0.588471  1
  Tc  Tc8  1  0.410030  0.589970  0.250000  1
  Tc  Tc9  1  0.589970  0.410030  0.750000  1
  B  B10  1  0.754154  0.842276  0.134107  1
  B  B11  1  0.157724  0.245846  0.365893  1
  B  B12  1  0.245846  0.157724  0.865893  1
  B  B13  1  0.842276  0.754154  0.634107  1
  B  B14  1  0.413471  0.841189  0.481924  1
  B  B15  1  0.158811  0.586529  0.018076  1
  B  B16  1  0.586529  0.158811  0.518076  1
  B  B17  1  0.841189  0.413471  0.981924  1
  B  B18  1  0.553667  0.649831  0.536894  1
  B  B19  1  0.350169  0.446333  0.963106  1
  B  B20  1  0.446333  0.350169  0.463106  1
  B  B21  1  0.649831  0.553667  0.036894  1
