# generated using pymatgen
data_HoLu3(As4O9)2
_symmetry_space_group_name_H-M   'P 1'
_cell_length_a   6.62463428
_cell_length_b   7.46948448
_cell_length_c   9.78726100
_cell_angle_alpha   94.49035134
_cell_angle_beta   104.12239882
_cell_angle_gamma   104.78180224
_symmetry_Int_Tables_number   1
_chemical_formula_structural   HoLu3(As4O9)2
_chemical_formula_sum   'Ho1 Lu3 As8 O18'
_cell_volume   448.98840540
_cell_formula_units_Z   1
loop_
 _symmetry_equiv_pos_site_id
 _symmetry_equiv_pos_as_xyz
  1  'x, y, z'
loop_
 _atom_site_type_symbol
 _atom_site_label
 _atom_site_symmetry_multiplicity
 _atom_site_fract_x
 _atom_site_fract_y
 _atom_site_fract_z
 _atom_site_occupancy
  Ho  Ho0  1  0.240546  0.939934  0.611873  1
  Lu  Lu1  1  0.759424  0.060148  0.388081  1
  Lu  Lu2  1  0.719806  0.525378  0.409388  1
  Lu  Lu3  1  0.279598  0.473249  0.589425  1
  As  As4  1  0.686682  0.775810  0.085710  1
  As  As5  1  0.312648  0.226169  0.915484  1
  As  As6  1  0.167587  0.750069  0.910929  1
  As  As7  1  0.830946  0.249725  0.088879  1
  As  As8  1  0.741960  0.915288  0.710385  1
  As  As9  1  0.260136  0.083454  0.288821  1
  As  As10  1  0.811561  0.352220  0.700524  1
  As  As11  1  0.189424  0.647083  0.298872  1
  O  O12  1  0.718149  0.747070  0.265709  1
  O  O13  1  0.281474  0.255228  0.735486  1
  O  O14  1  0.314252  0.977397  0.864775  1
  O  O15  1  0.686983  0.024346  0.139219  1
  O  O16  1  0.606142  0.326622  0.986043  1
  O  O17  1  0.392938  0.674356  0.014354  1
  O  O18  1  0.123878  0.638145  0.737325  1
  O  O19  1  0.876606  0.365097  0.261214  1
  O  O20  1  0.848801  0.881597  0.560032  1
  O  O21  1  0.145687  0.120155  0.435340  1
  O  O22  1  0.478108  0.764309  0.664707  1
  O  O23  1  0.525751  0.232964  0.336653  1
  O  O24  1  0.371774  0.528128  0.382278  1
  O  O25  1  0.627974  0.469832  0.616415  1
  O  O26  1  0.085818  0.667782  0.454577  1
  O  O27  1  0.912876  0.327741  0.543952  1
  O  O28  1  0.384923  0.899832  0.361802  1
  O  O29  1  0.617548  0.100874  0.641747  1
