# generated using pymatgen
data_Li8Dy8Sn3Sb5
_symmetry_space_group_name_H-M   'P 1'
_cell_length_a   9.41412941
_cell_length_b   9.41614967
_cell_length_c   7.12021006
_cell_angle_alpha   90.00000156
_cell_angle_beta   89.94542719
_cell_angle_gamma   120.00709362
_symmetry_Int_Tables_number   1
_chemical_formula_structural   Li8Dy8Sn3Sb5
_chemical_formula_sum   'Li8 Dy8 Sn3 Sb5'
_cell_volume   546.56981607
_cell_formula_units_Z   1
loop_
 _symmetry_equiv_pos_site_id
 _symmetry_equiv_pos_as_xyz
  1  'x, y, z'
loop_
 _atom_site_type_symbol
 _atom_site_label
 _atom_site_symmetry_multiplicity
 _atom_site_fract_x
 _atom_site_fract_y
 _atom_site_fract_z
 _atom_site_occupancy
  Li  Li0  1  0.832436  0.166430  0.726679  1
  Li  Li1  1  0.832436  0.666005  0.726679  1
  Li  Li2  1  0.334975  0.167488  0.723923  1
  Li  Li3  1  0.167353  0.833096  0.225007  1
  Li  Li4  1  0.167353  0.334257  0.225007  1
  Li  Li5  1  0.665195  0.832597  0.223982  1
  Li  Li6  1  0.666303  0.333151  0.311924  1
  Li  Li7  1  0.334051  0.667026  0.810661  1
  Dy  Dy8  1  0.492057  0.511582  0.506720  1
  Dy  Dy9  1  0.492057  0.980475  0.506720  1
  Dy  Dy10  1  0.017788  0.508895  0.506224  1
  Dy  Dy11  1  0.510134  0.492323  0.004569  1
  Dy  Dy12  1  0.510134  0.017810  0.004569  1
  Dy  Dy13  1  0.982240  0.491119  0.005303  1
  Dy  Dy14  1  0.997390  0.998694  0.499828  1
  Dy  Dy15  1  0.998166  0.999083  0.997545  1
  Sn  Sn16  1  0.667096  0.833549  0.763682  1
  Sn  Sn17  1  0.667388  0.333693  0.740234  1
  Sn  Sn18  1  0.332499  0.666250  0.240539  1
  Sb  Sb19  1  0.833992  0.166900  0.261588  1
  Sb  Sb20  1  0.833992  0.667091  0.261588  1
  Sb  Sb21  1  0.332634  0.166317  0.262004  1
  Sb  Sb22  1  0.166168  0.833344  0.761520  1
  Sb  Sb23  1  0.166168  0.332825  0.761520  1
