# generated using pymatgen
data_Th5AsPb3
_symmetry_space_group_name_H-M   'P 1'
_cell_length_a   9.63237000
_cell_length_b   9.63237003
_cell_length_c   6.75506000
_cell_angle_alpha   90.00000000
_cell_angle_beta   90.00000000
_cell_angle_gamma   120.00001363
_symmetry_Int_Tables_number   1
_chemical_formula_structural   Th5AsPb3
_chemical_formula_sum   'Th10 As2 Pb6'
_cell_volume   542.78282515
_cell_formula_units_Z   2
loop_
 _symmetry_equiv_pos_site_id
 _symmetry_equiv_pos_as_xyz
  1  'x, y, z'
loop_
 _atom_site_type_symbol
 _atom_site_label
 _atom_site_symmetry_multiplicity
 _atom_site_fract_x
 _atom_site_fract_y
 _atom_site_fract_z
 _atom_site_occupancy
  Th  Th0  1  0.744673  0.744673  0.750000  1
  Th  Th1  1  0.255327  0.000000  0.750000  1
  Th  Th2  1  0.000000  0.255327  0.750000  1
  Th  Th3  1  0.255327  0.255327  0.250000  1
  Th  Th4  1  0.744673  0.000000  0.250000  1
  Th  Th5  1  0.000000  0.744673  0.250000  1
  Th  Th6  1  0.666667  0.333333  0.000000  1
  Th  Th7  1  0.333333  0.666667  0.000000  1
  Th  Th8  1  0.333333  0.666667  0.500000  1
  Th  Th9  1  0.666667  0.333333  0.500000  1
  As  As10  1  0.000000  0.000000  0.000000  1
  As  As11  1  0.000000  0.000000  0.500000  1
  Pb  Pb12  1  0.391427  0.391427  0.750000  1
  Pb  Pb13  1  0.608573  0.000000  0.750000  1
  Pb  Pb14  1  0.000000  0.608573  0.750000  1
  Pb  Pb15  1  0.608573  0.608573  0.250000  1
  Pb  Pb16  1  0.391427  0.000000  0.250000  1
  Pb  Pb17  1  0.000000  0.391427  0.250000  1
