# generated using pymatgen
data_TbHo3Al24IrPt8
_symmetry_space_group_name_H-M   'P 1'
_cell_length_a   7.52083776
_cell_length_b   7.54446645
_cell_length_c   13.16602632
_cell_angle_alpha   84.62455593
_cell_angle_beta   79.10440500
_cell_angle_gamma   59.91161213
_symmetry_Int_Tables_number   1
_chemical_formula_structural   TbHo3Al24IrPt8
_chemical_formula_sum   'Tb1 Ho3 Al24 Ir1 Pt8'
_cell_volume   634.73421808
_cell_formula_units_Z   1
loop_
 _symmetry_equiv_pos_site_id
 _symmetry_equiv_pos_as_xyz
  1  'x, y, z'
loop_
 _atom_site_type_symbol
 _atom_site_label
 _atom_site_symmetry_multiplicity
 _atom_site_fract_x
 _atom_site_fract_y
 _atom_site_fract_z
 _atom_site_occupancy
  Tb  Tb0  1  0.393568  0.168375  0.808973  1
  Ho  Ho1  1  0.606508  0.831393  0.191320  1
  Ho  Ho2  1  0.733810  0.498401  0.808674  1
  Ho  Ho3  1  0.266115  0.501678  0.191347  1
  Al  Al4  1  0.686876  0.830501  0.945695  1
  Al  Al5  1  0.313282  0.169209  0.054902  1
  Al  Al6  1  0.146579  0.832017  0.561541  1
  Al  Al7  1  0.853492  0.167980  0.438320  1
  Al  Al8  1  0.480073  0.166679  0.558933  1
  Al  Al9  1  0.519937  0.833290  0.440878  1
  Al  Al10  1  0.217578  0.165150  0.327977  1
  Al  Al11  1  0.782676  0.834665  0.671709  1
  Al  Al12  1  0.436521  0.507109  0.671593  1
  Al  Al13  1  0.563558  0.493022  0.328099  1
  Al  Al14  1  0.109301  0.160186  0.669410  1
  Al  Al15  1  0.890641  0.839832  0.330273  1
  Al  Al16  1  0.349771  0.499394  0.945814  1
  Al  Al17  1  0.650062  0.501005  0.054552  1
  Al  Al18  1  0.014750  0.171339  0.954953  1
  Al  Al19  1  0.984824  0.828748  0.045491  1
  Al  Al20  1  0.186634  0.499281  0.441106  1
  Al  Al21  1  0.813366  0.500758  0.558749  1
  Al  Al22  1  0.734469  0.163618  0.183106  1
  Al  Al23  1  0.265584  0.835865  0.816919  1
  Al  Al24  1  0.060494  0.629879  0.817553  1
  Al  Al25  1  0.938986  0.370537  0.182495  1
  Al  Al26  1  0.856039  0.041860  0.816604  1
  Al  Al27  1  0.144362  0.958157  0.183421  1
  Ir  Ir28  1  0.999866  0.500190  0.000209  1
  Pt  Pt29  1  0.119517  0.492534  0.638849  1
  Pt  Pt30  1  0.880192  0.507966  0.360802  1
  Pt  Pt31  1  0.657026  0.171601  0.000190  1
  Pt  Pt32  1  0.343028  0.828293  0.000193  1
  Pt  Pt33  1  0.537439  0.166800  0.361408  1
  Pt  Pt34  1  0.462578  0.832760  0.638275  1
  Pt  Pt35  1  0.778942  0.175224  0.637155  1
  Pt  Pt36  1  0.221559  0.824707  0.362513  1
