# generated using pymatgen
data_Ho9ErInSb5
_symmetry_space_group_name_H-M   'P 1'
_cell_length_a   8.92276100
_cell_length_b   8.93898952
_cell_length_c   6.37214903
_cell_angle_alpha   89.99052974
_cell_angle_beta   90.00063329
_cell_angle_gamma   119.94204418
_symmetry_Int_Tables_number   1
_chemical_formula_structural   Ho9ErInSb5
_chemical_formula_sum   'Ho9 Er1 In1 Sb5'
_cell_volume   440.41040347
_cell_formula_units_Z   1
loop_
 _symmetry_equiv_pos_site_id
 _symmetry_equiv_pos_as_xyz
  1  'x, y, z'
loop_
 _atom_site_type_symbol
 _atom_site_label
 _atom_site_symmetry_multiplicity
 _atom_site_fract_x
 _atom_site_fract_y
 _atom_site_fract_z
 _atom_site_occupancy
  Ho  Ho0  1  0.664654  0.330747  0.499160  1
  Ho  Ho1  1  0.664818  0.331063  0.000911  1
  Ho  Ho2  1  0.333845  0.669258  0.499100  1
  Ho  Ho3  1  0.757643  0.000038  0.749981  1
  Ho  Ho4  1  0.753350  0.755859  0.250041  1
  Ho  Ho5  1  0.997273  0.243967  0.249979  1
  Ho  Ho6  1  0.004503  0.757966  0.749959  1
  Ho  Ho7  1  0.246534  0.241833  0.750122  1
  Ho  Ho8  1  0.241386  0.000037  0.249909  1
  Er  Er9  1  0.333821  0.669225  0.000511  1
  In  In10  1  0.395351  0.999669  0.750638  1
  Sb  Sb11  1  0.388192  0.390287  0.249644  1
  Sb  Sb12  1  0.998702  0.610104  0.249802  1
  Sb  Sb13  1  0.001229  0.389670  0.750434  1
  Sb  Sb14  1  0.611126  0.610601  0.750243  1
  Sb  Sb15  1  0.607575  0.999676  0.249566  1
