# generated using pymatgen
data_ErLu11InGaCo4
_symmetry_space_group_name_H-M   'P 1'
_cell_length_a   8.16089453
_cell_length_b   8.15089630
_cell_length_c   8.15089635
_cell_angle_alpha   111.55052591
_cell_angle_beta   110.41256580
_cell_angle_gamma   106.44684529
_symmetry_Int_Tables_number   1
_chemical_formula_structural   ErLu11InGaCo4
_chemical_formula_sum   'Er1 Lu11 In1 Ga1 Co4'
_cell_volume   416.71675874
_cell_formula_units_Z   1
loop_
 _symmetry_equiv_pos_site_id
 _symmetry_equiv_pos_as_xyz
  1  'x, y, z'
loop_
 _atom_site_type_symbol
 _atom_site_label
 _atom_site_symmetry_multiplicity
 _atom_site_fract_x
 _atom_site_fract_y
 _atom_site_fract_z
 _atom_site_occupancy
  Er  Er0  1  0.431551  0.227036  0.204514  1
  Lu  Lu1  1  0.562346  0.769386  0.792961  1
  Lu  Lu2  1  0.023860  0.230218  0.793642  1
  Lu  Lu3  1  0.977913  0.772126  0.205787  1
  Lu  Lu4  1  0.183484  0.284887  0.469181  1
  Lu  Lu5  1  0.815493  0.715659  0.530470  1
  Lu  Lu6  1  0.183484  0.714302  0.898598  1
  Lu  Lu7  1  0.815493  0.285025  0.099833  1
  Lu  Lu8  1  0.315982  0.620931  0.303654  1
  Lu  Lu9  1  0.684749  0.380586  0.696978  1
  Lu  Lu10  1  0.315982  0.012327  0.695052  1
  Lu  Lu11  1  0.684749  0.987771  0.304161  1
  In  In12  1  0.499523  0.500311  0.999212  1
  Ga  Ga13  1  0.993915  0.997971  0.995943  1
  Co  Co14  1  0.377876  0.999465  0.378411  1
  Co  Co15  1  0.630561  0.000649  0.629912  1
  Co  Co16  1  0.114365  0.614807  0.499558  1
  Co  Co17  1  0.888674  0.386544  0.502130  1
