# generated using pymatgen
data_Hf4TiAl2Re5
_symmetry_space_group_name_H-M   'P 1'
_cell_length_a   5.25205800
_cell_length_b   5.25596889
_cell_length_c   8.67236100
_cell_angle_alpha   90.00000000
_cell_angle_beta   90.00000000
_cell_angle_gamma   119.97538889
_symmetry_Int_Tables_number   1
_chemical_formula_structural   Hf4TiAl2Re5
_chemical_formula_sum   'Hf4 Ti1 Al2 Re5'
_cell_volume   207.37573094
_cell_formula_units_Z   1
loop_
 _symmetry_equiv_pos_site_id
 _symmetry_equiv_pos_as_xyz
  1  'x, y, z'
loop_
 _atom_site_type_symbol
 _atom_site_label
 _atom_site_symmetry_multiplicity
 _atom_site_fract_x
 _atom_site_fract_y
 _atom_site_fract_z
 _atom_site_occupancy
  Hf  Hf0  1  0.335043  0.670086  0.431964  1
  Hf  Hf1  1  0.668037  0.336072  0.940017  1
  Hf  Hf2  1  0.668037  0.336072  0.559983  1
  Hf  Hf3  1  0.335043  0.670086  0.068036  1
  Ti  Ti4  1  0.169738  0.339478  0.750000  1
  Al  Al5  1  0.999352  0.998705  0.999687  1
  Al  Al6  1  0.999352  0.998705  0.500313  1
  Re  Re7  1  0.829202  0.168027  0.250000  1
  Re  Re8  1  0.338827  0.168027  0.250000  1
  Re  Re9  1  0.657698  0.828401  0.750000  1
  Re  Re10  1  0.828972  0.657941  0.250000  1
  Re  Re11  1  0.170701  0.828401  0.750000  1
