# generated using pymatgen
data_Hf5Zr(TaSi2)4
_symmetry_space_group_name_H-M   'P 1'
_cell_length_a   6.92686999
_cell_length_b   6.92888135
_cell_length_c   12.74647694
_cell_angle_alpha   90.26786402
_cell_angle_beta   89.94392984
_cell_angle_gamma   89.97462033
_symmetry_Int_Tables_number   1
_chemical_formula_structural   Hf5Zr(TaSi2)4
_chemical_formula_sum   'Hf10 Zr2 Ta8 Si16'
_cell_volume   611.76598743
_cell_formula_units_Z   2
loop_
 _symmetry_equiv_pos_site_id
 _symmetry_equiv_pos_as_xyz
  1  'x, y, z'
loop_
 _atom_site_type_symbol
 _atom_site_label
 _atom_site_symmetry_multiplicity
 _atom_site_fract_x
 _atom_site_fract_y
 _atom_site_fract_z
 _atom_site_occupancy
  Hf  Hf0  1  0.650837  0.496731  0.876930  1
  Hf  Hf1  1  0.502352  0.351224  0.623506  1
  Hf  Hf2  1  0.500288  0.647887  0.124558  1
  Hf  Hf3  1  0.147586  0.999802  0.874427  1
  Hf  Hf4  1  0.000167  0.654479  0.034262  1
  Hf  Hf5  1  0.999992  0.344125  0.528687  1
  Hf  Hf6  1  0.657753  0.999331  0.969653  1
  Hf  Hf7  1  0.153779  0.499209  0.780079  1
  Hf  Hf8  1  0.844424  0.500885  0.280882  1
  Hf  Hf9  1  0.500677  0.157221  0.221329  1
  Zr  Zr10  1  0.500017  0.843228  0.717174  1
  Zr  Zr11  1  0.341496  0.002180  0.468177  1
  Ta  Ta12  1  0.349887  0.507011  0.375109  1
  Ta  Ta13  1  0.852261  0.998155  0.373815  1
  Ta  Ta14  1  0.006231  0.148510  0.126541  1
  Ta  Ta15  1  0.995203  0.850411  0.625231  1
  Ta  Ta16  1  0.672630  0.672319  0.498269  1
  Ta  Ta17  1  0.829208  0.171032  0.749118  1
  Ta  Ta18  1  0.171052  0.830453  0.250913  1
  Ta  Ta19  1  0.328870  0.325383  0.001622  1
  Si  Si20  1  0.044317  0.700898  0.435506  1
  Si  Si21  1  0.956671  0.300756  0.936934  1
  Si  Si22  1  0.703269  0.045762  0.562539  1
  Si  Si23  1  0.199770  0.452686  0.186360  1
  Si  Si24  1  0.802800  0.546899  0.684080  1
  Si  Si25  1  0.453835  0.197754  0.815011  1
  Si  Si26  1  0.548184  0.801255  0.314767  1
  Si  Si27  1  0.302544  0.955649  0.065794  1
  Si  Si28  1  0.856620  0.795230  0.820416  1
  Si  Si29  1  0.137985  0.209577  0.323073  1
  Si  Si30  1  0.796752  0.863658  0.178387  1
  Si  Si31  1  0.289215  0.640383  0.571949  1
  Si  Si32  1  0.709056  0.353418  0.074570  1
  Si  Si33  1  0.638869  0.294678  0.425114  1
  Si  Si34  1  0.354429  0.701219  0.928786  1
  Si  Si35  1  0.200974  0.140596  0.676431  1
