# generated using pymatgen
data_Rb3NaI2O9
_symmetry_space_group_name_H-M   'P 1'
_cell_length_a   6.28902500
_cell_length_b   6.28902489
_cell_length_c   15.05551600
_cell_angle_alpha   90.00000000
_cell_angle_beta   90.00000000
_cell_angle_gamma   120.00000584
_symmetry_Int_Tables_number   1
_chemical_formula_structural   Rb3NaI2O9
_chemical_formula_sum   'Rb6 Na2 I4 O18'
_cell_volume   515.69495838
_cell_formula_units_Z   2
loop_
 _symmetry_equiv_pos_site_id
 _symmetry_equiv_pos_as_xyz
  1  'x, y, z'
loop_
 _atom_site_type_symbol
 _atom_site_label
 _atom_site_symmetry_multiplicity
 _atom_site_fract_x
 _atom_site_fract_y
 _atom_site_fract_z
 _atom_site_occupancy
  Rb  Rb0  1  0.333333  0.666667  0.092067  1
  Rb  Rb1  1  0.666667  0.333333  0.907933  1
  Rb  Rb2  1  0.666667  0.333333  0.592067  1
  Rb  Rb3  1  0.333333  0.666667  0.407933  1
  Rb  Rb4  1  0.000000  0.000000  0.250000  1
  Rb  Rb5  1  0.000000  0.000000  0.750000  1
  Na  Na6  1  0.000000  0.000000  0.000000  1
  Na  Na7  1  0.000000  0.000000  0.500000  1
  I  I8  1  0.333333  0.666667  0.652787  1
  I  I9  1  0.666667  0.333333  0.347213  1
  I  I10  1  0.666667  0.333333  0.152787  1
  I  I11  1  0.333333  0.666667  0.847213  1
  O  O12  1  0.533770  0.067540  0.250000  1
  O  O13  1  0.466230  0.932460  0.750000  1
  O  O14  1  0.932460  0.466230  0.250000  1
  O  O15  1  0.067540  0.533770  0.750000  1
  O  O16  1  0.533770  0.466230  0.250000  1
  O  O17  1  0.466230  0.533770  0.750000  1
  O  O18  1  0.185737  0.371476  0.594555  1
  O  O19  1  0.814263  0.628524  0.405445  1
  O  O20  1  0.628524  0.814263  0.594555  1
  O  O21  1  0.814263  0.628524  0.094555  1
  O  O22  1  0.371476  0.185737  0.405445  1
  O  O23  1  0.185737  0.371476  0.905445  1
  O  O24  1  0.185737  0.814263  0.594555  1
  O  O25  1  0.371476  0.185737  0.094555  1
  O  O26  1  0.814263  0.185737  0.405445  1
  O  O27  1  0.628524  0.814263  0.905445  1
  O  O28  1  0.814263  0.185737  0.094555  1
  O  O29  1  0.185737  0.814263  0.905445  1
