# generated using pymatgen
data_Zr8Nb11Si16Pd
_symmetry_space_group_name_H-M   'P 1'
_cell_length_a   6.89574058
_cell_length_b   6.89574058
_cell_length_c   12.72254192
_cell_angle_alpha   89.73400458
_cell_angle_beta   90.26599542
_cell_angle_gamma   89.93616315
_symmetry_Int_Tables_number   1
_chemical_formula_structural   Zr8Nb11Si16Pd
_chemical_formula_sum   'Zr8 Nb11 Si16 Pd1'
_cell_volume   604.95919166
_cell_formula_units_Z   1
loop_
 _symmetry_equiv_pos_site_id
 _symmetry_equiv_pos_as_xyz
  1  'x, y, z'
loop_
 _atom_site_type_symbol
 _atom_site_label
 _atom_site_symmetry_multiplicity
 _atom_site_fract_x
 _atom_site_fract_y
 _atom_site_fract_z
 _atom_site_occupancy
  Zr  Zr0  1  0.000943  0.658048  0.031820  1
  Zr  Zr1  1  0.998737  0.342062  0.533298  1
  Zr  Zr2  1  0.658048  0.000943  0.968180  1
  Zr  Zr3  1  0.157379  0.501004  0.781108  1
  Zr  Zr4  1  0.843274  0.495422  0.281611  1
  Zr  Zr5  1  0.501004  0.157379  0.218892  1
  Zr  Zr6  1  0.495422  0.843274  0.718389  1
  Zr  Zr7  1  0.342062  0.998737  0.466702  1
  Nb  Nb8  1  0.344363  0.502547  0.376402  1
  Nb  Nb9  1  0.849573  0.999638  0.372574  1
  Nb  Nb10  1  0.003136  0.152388  0.127400  1
  Nb  Nb11  1  0.999638  0.849573  0.627426  1
  Nb  Nb12  1  0.651381  0.496236  0.876481  1
  Nb  Nb13  1  0.502547  0.344363  0.623598  1
  Nb  Nb14  1  0.496236  0.651381  0.123519  1
  Nb  Nb15  1  0.152388  0.003136  0.872600  1
  Nb  Nb16  1  0.829471  0.171688  0.749133  1
  Nb  Nb17  1  0.171688  0.829471  0.250867  1
  Nb  Nb18  1  0.329459  0.329459  0.000000  1
  Si  Si19  1  0.047904  0.707106  0.439131  1
  Si  Si20  1  0.954519  0.297134  0.936774  1
  Si  Si21  1  0.707106  0.047904  0.560869  1
  Si  Si22  1  0.203674  0.453726  0.187628  1
  Si  Si23  1  0.794077  0.549241  0.683913  1
  Si  Si24  1  0.453726  0.203674  0.812372  1
  Si  Si25  1  0.549241  0.794077  0.316087  1
  Si  Si26  1  0.297134  0.954519  0.063226  1
  Si  Si27  1  0.862195  0.791365  0.821806  1
  Si  Si28  1  0.136633  0.207904  0.323323  1
  Si  Si29  1  0.791365  0.862195  0.178194  1
  Si  Si30  1  0.289864  0.631576  0.571838  1
  Si  Si31  1  0.707997  0.364005  0.073385  1
  Si  Si32  1  0.631576  0.289864  0.428162  1
  Si  Si33  1  0.364005  0.707997  0.926615  1
  Si  Si34  1  0.207904  0.136633  0.676677  1
  Pd  Pd35  1  0.674332  0.674332  0.500000  1
