# generated using pymatgen
data_Tb5Dy2Ho5Rh4
_symmetry_space_group_name_H-M   'P 1'
_cell_length_a   6.28774605
_cell_length_b   7.16972072
_cell_length_c   9.47986609
_cell_angle_alpha   90.02306468
_cell_angle_beta   89.96154622
_cell_angle_gamma   89.95337156
_symmetry_Int_Tables_number   1
_chemical_formula_structural   Tb5Dy2Ho5Rh4
_chemical_formula_sum   'Tb5 Dy2 Ho5 Rh4'
_cell_volume   427.36520291
_cell_formula_units_Z   1
loop_
 _symmetry_equiv_pos_site_id
 _symmetry_equiv_pos_as_xyz
  1  'x, y, z'
loop_
 _atom_site_type_symbol
 _atom_site_label
 _atom_site_symmetry_multiplicity
 _atom_site_fract_x
 _atom_site_fract_y
 _atom_site_fract_z
 _atom_site_occupancy
  Tb  Tb0  1  0.169813  0.177250  0.062593  1
  Tb  Tb1  1  0.865380  0.532452  0.250279  1
  Tb  Tb2  1  0.634481  0.031763  0.250326  1
  Tb  Tb3  1  0.133732  0.467732  0.749687  1
  Tb  Tb4  1  0.366275  0.967613  0.749722  1
  Dy  Dy5  1  0.330331  0.677189  0.063200  1
  Dy  Dy6  1  0.169809  0.177207  0.437368  1
  Ho  Ho7  1  0.669692  0.323183  0.563319  1
  Ho  Ho8  1  0.830031  0.822772  0.936351  1
  Ho  Ho9  1  0.669690  0.323098  0.936317  1
  Ho  Ho10  1  0.830011  0.822919  0.563261  1
  Ho  Ho11  1  0.330258  0.677116  0.436846  1
  Rh  Rh12  1  0.061632  0.881335  0.250667  1
  Rh  Rh13  1  0.439242  0.382348  0.250507  1
  Rh  Rh14  1  0.937967  0.117957  0.749581  1
  Rh  Rh15  1  0.561655  0.618066  0.749975  1
