# generated using pymatgen
data_CdHg3(Ir2O7)2
_symmetry_space_group_name_H-M   'P 1'
_cell_length_a   7.32280248
_cell_length_b   7.27752733
_cell_length_c   7.27752700
_cell_angle_alpha   60.00000604
_cell_angle_beta   60.20432027
_cell_angle_gamma   60.20432006
_symmetry_Int_Tables_number   1
_chemical_formula_structural   CdHg3(Ir2O7)2
_chemical_formula_sum   'Cd1 Hg3 Ir4 O14'
_cell_volume   275.08338672
_cell_formula_units_Z   1
loop_
 _symmetry_equiv_pos_site_id
 _symmetry_equiv_pos_as_xyz
  1  'x, y, z'
loop_
 _atom_site_type_symbol
 _atom_site_label
 _atom_site_symmetry_multiplicity
 _atom_site_fract_x
 _atom_site_fract_y
 _atom_site_fract_z
 _atom_site_occupancy
  Cd  Cd0  1  0.625000  0.125000  0.125000  1
  Hg  Hg1  1  0.125000  0.125000  0.625000  1
  Hg  Hg2  1  0.125000  0.125000  0.125000  1
  Hg  Hg3  1  0.125000  0.625000  0.125000  1
  Ir  Ir4  1  0.625000  0.625000  0.625000  1
  Ir  Ir5  1  0.125000  0.625000  0.625000  1
  Ir  Ir6  1  0.625000  0.125000  0.625000  1
  Ir  Ir7  1  0.625000  0.625000  0.125000  1
  O  O8  1  0.944608  0.554483  0.554483  1
  O  O9  1  0.305392  0.303573  0.695517  1
  O  O10  1  0.944608  0.554483  0.946427  1
  O  O11  1  0.693138  0.302181  0.302181  1
  O  O12  1  0.556862  0.547498  0.947819  1
  O  O13  1  0.556862  0.947819  0.547498  1
  O  O14  1  0.556862  0.947819  0.947819  1
  O  O15  1  0.244223  0.251926  0.251926  1
  O  O16  1  0.305392  0.695517  0.695517  1
  O  O17  1  0.693138  0.302181  0.702502  1
  O  O18  1  0.005777  0.998074  0.998074  1
  O  O19  1  0.944608  0.946427  0.554483  1
  O  O20  1  0.305392  0.695517  0.303573  1
  O  O21  1  0.693138  0.702502  0.302181  1
