# generated using pymatgen
data_Nd5YPtBr10
_symmetry_space_group_name_H-M   'P 1'
_cell_length_a   7.57328510
_cell_length_b   9.56956786
_cell_length_c   9.59443324
_cell_angle_alpha   108.60242106
_cell_angle_beta   96.42545732
_cell_angle_gamma   105.53181296
_symmetry_Int_Tables_number   1
_chemical_formula_structural   Nd5YPtBr10
_chemical_formula_sum   'Nd5 Y1 Pt1 Br10'
_cell_volume   619.94137244
_cell_formula_units_Z   1
loop_
 _symmetry_equiv_pos_site_id
 _symmetry_equiv_pos_as_xyz
  1  'x, y, z'
loop_
 _atom_site_type_symbol
 _atom_site_label
 _atom_site_symmetry_multiplicity
 _atom_site_fract_x
 _atom_site_fract_y
 _atom_site_fract_z
 _atom_site_occupancy
  Nd  Nd0  1  0.873697  0.955012  0.251395  1
  Nd  Nd1  1  0.132344  0.048015  0.750445  1
  Nd  Nd2  1  0.031634  0.697371  0.903914  1
  Nd  Nd3  1  0.972858  0.304070  0.098965  1
  Nd  Nd4  1  0.633617  0.861985  0.817499  1
  Y  Y5  1  0.358866  0.133740  0.177174  1
  Pt  Pt6  1  0.001179  0.000487  0.999773  1
  Br  Br7  1  0.646538  0.546472  0.731283  1
  Br  Br8  1  0.359856  0.443992  0.270458  1
  Br  Br9  1  0.750955  0.919102  0.546886  1
  Br  Br10  1  0.258013  0.086178  0.448521  1
  Br  Br11  1  0.914766  0.634784  0.173243  1
  Br  Br12  1  0.086316  0.366353  0.828727  1
  Br  Br13  1  0.547486  0.177397  0.923407  1
  Br  Br14  1  0.450799  0.830585  0.086962  1
  Br  Br15  1  0.211816  0.742966  0.650077  1
  Br  Br16  1  0.769260  0.251489  0.341271  1
