# generated using pymatgen
data_Tb6Er10Tl5InIr2
_symmetry_space_group_name_H-M   'P 1'
_cell_length_a   10.33688700
_cell_length_b   10.33672996
_cell_length_c   7.17032500
_cell_angle_alpha   90.00076890
_cell_angle_beta   90.00000110
_cell_angle_gamma   119.96067370
_symmetry_Int_Tables_number   1
_chemical_formula_structural   Tb6Er10Tl5InIr2
_chemical_formula_sum   'Tb6 Er10 Tl5 In1 Ir2'
_cell_volume   663.76504349
_cell_formula_units_Z   1
loop_
 _symmetry_equiv_pos_site_id
 _symmetry_equiv_pos_as_xyz
  1  'x, y, z'
loop_
 _atom_site_type_symbol
 _atom_site_label
 _atom_site_symmetry_multiplicity
 _atom_site_fract_x
 _atom_site_fract_y
 _atom_site_fract_z
 _atom_site_occupancy
  Tb  Tb0  1  0.533563  0.068762  0.793248  1
  Tb  Tb1  1  0.931238  0.466439  0.793234  1
  Tb  Tb2  1  0.534765  0.465235  0.794339  1
  Tb  Tb3  1  0.465296  0.930481  0.294448  1
  Tb  Tb4  1  0.069513  0.534686  0.294436  1
  Tb  Tb5  1  0.465134  0.534868  0.294178  1
  Er  Er6  1  0.823226  0.647277  0.495151  1
  Er  Er7  1  0.352730  0.176775  0.495131  1
  Er  Er8  1  0.823827  0.176158  0.495378  1
  Er  Er9  1  0.175878  0.352260  0.995154  1
  Er  Er10  1  0.647737  0.824146  0.995182  1
  Er  Er11  1  0.176097  0.823881  0.996985  1
  Er  Er12  1  0.666776  0.333234  0.177673  1
  Er  Er13  1  0.333143  0.666848  0.677749  1
  Er  Er14  1  0.000754  0.999248  0.776167  1
  Er  Er15  1  0.000697  0.999322  0.277764  1
  Tl  Tl16  1  0.836903  0.673941  0.044044  1
  Tl  Tl17  1  0.326077  0.163083  0.044023  1
  Tl  Tl18  1  0.836983  0.163081  0.043733  1
  Tl  Tl19  1  0.162915  0.326017  0.544169  1
  Tl  Tl20  1  0.673957  0.837062  0.544196  1
  In  In21  1  0.162679  0.837307  0.543203  1
  Ir  Ir22  1  0.666675  0.333331  0.563237  1
  Ir  Ir23  1  0.333437  0.666561  0.063085  1
