# generated using pymatgen
data_Ho7Tm9(MgSn4)4
_symmetry_space_group_name_H-M   'P 1'
_cell_length_a   7.62697500
_cell_length_b   8.19300500
_cell_length_c   15.18974900
_cell_angle_alpha   90.00010490
_cell_angle_beta   89.99870789
_cell_angle_gamma   89.99925172
_symmetry_Int_Tables_number   1
_chemical_formula_structural   Ho7Tm9(MgSn4)4
_chemical_formula_sum   'Ho7 Tm9 Mg4 Sn16'
_cell_volume   949.17467062
_cell_formula_units_Z   1
loop_
 _symmetry_equiv_pos_site_id
 _symmetry_equiv_pos_as_xyz
  1  'x, y, z'
loop_
 _atom_site_type_symbol
 _atom_site_label
 _atom_site_symmetry_multiplicity
 _atom_site_fract_x
 _atom_site_fract_y
 _atom_site_fract_z
 _atom_site_occupancy
  Ho  Ho0  1  0.997878  0.184127  0.091338  1
  Ho  Ho1  1  0.002215  0.815841  0.908299  1
  Ho  Ho2  1  0.501904  0.684307  0.908914  1
  Ho  Ho3  1  0.002469  0.815520  0.591317  1
  Ho  Ho4  1  0.497918  0.316018  0.091352  1
  Ho  Ho5  1  0.998235  0.184350  0.409058  1
  Ho  Ho6  1  0.497753  0.315632  0.409023  1
  Tm  Tm7  1  0.502545  0.684471  0.591017  1
  Tm  Tm8  1  0.336343  0.168617  0.628423  1
  Tm  Tm9  1  0.663960  0.831241  0.371832  1
  Tm  Tm10  1  0.163593  0.668469  0.371779  1
  Tm  Tm11  1  0.663762  0.831302  0.128340  1
  Tm  Tm12  1  0.835624  0.331553  0.628401  1
  Tm  Tm13  1  0.336021  0.168574  0.871387  1
  Tm  Tm14  1  0.835724  0.331330  0.871350  1
  Tm  Tm15  1  0.164096  0.668601  0.128274  1
  Mg  Mg16  1  0.160029  0.503395  0.749855  1
  Mg  Mg17  1  0.839575  0.496753  0.249859  1
  Mg  Mg18  1  0.339528  0.003413  0.250199  1
  Mg  Mg19  1  0.660480  0.996691  0.750097  1
  Sn  Sn20  1  0.023800  0.094993  0.749839  1
  Sn  Sn21  1  0.976244  0.904566  0.250042  1
  Sn  Sn22  1  0.476171  0.595173  0.250118  1
  Sn  Sn23  1  0.523000  0.405870  0.749826  1
  Sn  Sn24  1  0.183744  0.462890  0.539041  1
  Sn  Sn25  1  0.816901  0.537855  0.461613  1
  Sn  Sn26  1  0.317757  0.961629  0.461587  1
  Sn  Sn27  1  0.817491  0.537907  0.038417  1
  Sn  Sn28  1  0.682960  0.037170  0.538985  1
  Sn  Sn29  1  0.182245  0.461935  0.961200  1
  Sn  Sn30  1  0.682750  0.037946  0.961348  1
  Sn  Sn31  1  0.317376  0.962260  0.038396  1
  Sn  Sn32  1  0.304314  0.847252  0.749528  1
  Sn  Sn33  1  0.696444  0.152045  0.250165  1
  Sn  Sn34  1  0.196275  0.347924  0.250086  1
  Sn  Sn35  1  0.802875  0.652383  0.749693  1
