# generated using pymatgen
data_NdTm5Zn4Pt13
_symmetry_space_group_name_H-M   'P 1'
_cell_length_a   8.25862954
_cell_length_b   8.25862908
_cell_length_c   8.25862900
_cell_angle_alpha   109.35187709
_cell_angle_beta   109.53092024
_cell_angle_gamma   109.53093191
_symmetry_Int_Tables_number   1
_chemical_formula_structural   NdTm5Zn4Pt13
_chemical_formula_sum   'Nd1 Tm5 Zn4 Pt13'
_cell_volume   433.61130002
_cell_formula_units_Z   1
loop_
 _symmetry_equiv_pos_site_id
 _symmetry_equiv_pos_as_xyz
  1  'x, y, z'
loop_
 _atom_site_type_symbol
 _atom_site_label
 _atom_site_symmetry_multiplicity
 _atom_site_fract_x
 _atom_site_fract_y
 _atom_site_fract_z
 _atom_site_occupancy
  Nd  Nd0  1  0.000000  0.704393  0.704393  1
  Tm  Tm1  1  0.698287  0.698453  0.000166  1
  Tm  Tm2  1  0.301713  0.000166  0.301879  1
  Tm  Tm3  1  0.000000  0.306341  0.306341  1
  Tm  Tm4  1  0.301713  0.301879  0.000166  1
  Tm  Tm5  1  0.698287  0.000166  0.698453  1
  Zn  Zn6  1  0.000000  0.999344  0.495937  1
  Zn  Zn7  1  0.000000  0.495937  0.999344  1
  Zn  Zn8  1  0.503407  0.999344  0.999344  1
  Zn  Zn9  1  0.496593  0.495937  0.495937  1
  Pt  Pt10  1  0.333947  0.333930  0.667877  1
  Pt  Pt11  1  0.666053  0.999985  0.333930  1
  Pt  Pt12  1  0.000000  0.670252  0.327256  1
  Pt  Pt13  1  0.666053  0.333930  0.999985  1
  Pt  Pt14  1  0.333947  0.667877  0.333930  1
  Pt  Pt15  1  0.000000  0.327256  0.670252  1
  Pt  Pt16  1  0.336899  0.663893  0.000792  1
  Pt  Pt17  1  0.336899  0.000792  0.663893  1
  Pt  Pt18  1  0.657005  0.327256  0.327256  1
  Pt  Pt19  1  0.663101  0.663893  0.326993  1
  Pt  Pt20  1  0.663101  0.326993  0.663893  1
  Pt  Pt21  1  0.342995  0.670252  0.670252  1
  Pt  Pt22  1  0.000000  0.011732  0.011732  1
