# generated using pymatgen
data_YEr3Al18Ir5Pd
_symmetry_space_group_name_H-M   'P 1'
_cell_length_a   7.56040408
_cell_length_b   7.56207549
_cell_length_c   9.44721025
_cell_angle_alpha   89.97086770
_cell_angle_beta   89.96349720
_cell_angle_gamma   119.55568757
_symmetry_Int_Tables_number   1
_chemical_formula_structural   YEr3Al18Ir5Pd
_chemical_formula_sum   'Y1 Er3 Al18 Ir5 Pd1'
_cell_volume   469.83677279
_cell_formula_units_Z   1
loop_
 _symmetry_equiv_pos_site_id
 _symmetry_equiv_pos_as_xyz
  1  'x, y, z'
loop_
 _atom_site_type_symbol
 _atom_site_label
 _atom_site_symmetry_multiplicity
 _atom_site_fract_x
 _atom_site_fract_y
 _atom_site_fract_z
 _atom_site_occupancy
  Y  Y0  1  0.995596  0.671087  0.248897  1
  Er  Er1  1  0.004103  0.328982  0.751381  1
  Er  Er2  1  0.670907  0.995768  0.248614  1
  Er  Er3  1  0.329013  0.004200  0.751395  1
  Al  Al4  1  0.129299  0.129794  0.247882  1
  Al  Al5  1  0.870796  0.870972  0.751944  1
  Al  Al6  1  0.000211  0.334176  0.074274  1
  Al  Al7  1  0.999867  0.665390  0.924513  1
  Al  Al8  1  0.998742  0.661034  0.577828  1
  Al  Al9  1  0.339348  0.001733  0.423400  1
  Al  Al10  1  0.001393  0.338389  0.423500  1
  Al  Al11  1  0.661169  0.998799  0.577183  1
  Al  Al12  1  0.665467  0.999880  0.925068  1
  Al  Al13  1  0.334932  0.000541  0.074370  1
  Al  Al14  1  0.336233  0.336200  0.555675  1
  Al  Al15  1  0.663218  0.663578  0.445437  1
  Al  Al16  1  0.666678  0.666993  0.051312  1
  Al  Al17  1  0.332994  0.332971  0.947647  1
  Al  Al18  1  0.339728  0.549079  0.249503  1
  Al  Al19  1  0.660644  0.450754  0.750439  1
  Al  Al20  1  0.548520  0.338540  0.249497  1
  Al  Al21  1  0.450888  0.660838  0.750420  1
  Ir  Ir22  1  0.671941  0.327812  0.999760  1
  Ir  Ir23  1  0.328103  0.672038  0.999768  1
  Ir  Ir24  1  0.327923  0.672199  0.500142  1
  Ir  Ir25  1  0.672096  0.327647  0.500122  1
  Ir  Ir26  1  0.000126  0.000207  0.999702  1
  Pd  Pd27  1  0.000065  0.000399  0.500326  1
