# generated using pymatgen
data_ZnBi3RuPt3O14
_symmetry_space_group_name_H-M   'P 1'
_cell_length_a   7.25517725
_cell_length_b   7.41227664
_cell_length_c   7.41227623
_cell_angle_alpha   59.91973502
_cell_angle_beta   59.11116767
_cell_angle_gamma   59.11117653
_symmetry_Int_Tables_number   1
_chemical_formula_structural   ZnBi3RuPt3O14
_chemical_formula_sum   'Zn1 Bi3 Ru1 Pt3 O14'
_cell_volume   277.85120931
_cell_formula_units_Z   1
loop_
 _symmetry_equiv_pos_site_id
 _symmetry_equiv_pos_as_xyz
  1  'x, y, z'
loop_
 _atom_site_type_symbol
 _atom_site_label
 _atom_site_symmetry_multiplicity
 _atom_site_fract_x
 _atom_site_fract_y
 _atom_site_fract_z
 _atom_site_occupancy
  Zn  Zn0  1  0.625000  0.125000  0.125000  1
  Bi  Bi1  1  0.125000  0.125000  0.625000  1
  Bi  Bi2  1  0.125000  0.625000  0.125000  1
  Bi  Bi3  1  0.125000  0.125000  0.125000  1
  Ru  Ru4  1  0.625000  0.625000  0.625000  1
  Pt  Pt5  1  0.625000  0.625000  0.125000  1
  Pt  Pt6  1  0.625000  0.125000  0.625000  1
  Pt  Pt7  1  0.125000  0.625000  0.625000  1
  O  O8  1  0.290253  0.237679  0.237679  1
  O  O9  1  0.959747  0.012321  0.012321  1
  O  O10  1  0.543699  0.948318  0.552357  1
  O  O11  1  0.285565  0.710710  0.290626  1
  O  O12  1  0.543699  0.552357  0.948318  1
  O  O13  1  0.958357  0.541874  0.541874  1
  O  O14  1  0.547778  0.959747  0.959747  1
  O  O15  1  0.964435  0.959374  0.539290  1
  O  O16  1  0.964435  0.539290  0.959374  1
  O  O17  1  0.702222  0.290253  0.290253  1
  O  O18  1  0.291643  0.708126  0.708126  1
  O  O19  1  0.706301  0.301682  0.697643  1
  O  O20  1  0.285565  0.290626  0.710710  1
  O  O21  1  0.706301  0.697643  0.301682  1
