# generated using pymatgen
data_Lu5(OsO6)2
_symmetry_space_group_name_H-M   'P 1'
_cell_length_a   6.73948899
_cell_length_b   6.73949013
_cell_length_c   7.32959700
_cell_angle_alpha   74.04276775
_cell_angle_beta   74.04276589
_cell_angle_gamma   48.86636196
_symmetry_Int_Tables_number   1
_chemical_formula_structural   Lu5(OsO6)2
_chemical_formula_sum   'Lu5 Os2 O12'
_cell_volume   239.03967890
_cell_formula_units_Z   1
loop_
 _symmetry_equiv_pos_site_id
 _symmetry_equiv_pos_as_xyz
  1  'x, y, z'
loop_
 _atom_site_type_symbol
 _atom_site_label
 _atom_site_symmetry_multiplicity
 _atom_site_fract_x
 _atom_site_fract_y
 _atom_site_fract_z
 _atom_site_occupancy
  Lu  Lu0  1  0.700260  0.700260  0.639853  1
  Lu  Lu1  1  0.299740  0.299740  0.360147  1
  Lu  Lu2  1  0.687936  0.687936  0.173977  1
  Lu  Lu3  1  0.312064  0.312064  0.826023  1
  Lu  Lu4  1  0.000000  0.000000  0.500000  1
  Os  Os5  1  0.779864  0.220136  0.000000  1
  Os  Os6  1  0.220136  0.779864  0.000000  1
  O  O7  1  0.001183  0.001183  0.207893  1
  O  O8  1  0.998817  0.998817  0.792107  1
  O  O9  1  0.574734  0.086755  0.089190  1
  O  O10  1  0.425266  0.913245  0.910810  1
  O  O11  1  0.913245  0.425266  0.910810  1
  O  O12  1  0.086755  0.574734  0.089190  1
  O  O13  1  0.499192  0.499192  0.181195  1
  O  O14  1  0.500808  0.500808  0.818805  1
  O  O15  1  0.403751  0.900827  0.428488  1
  O  O16  1  0.596249  0.099173  0.571512  1
  O  O17  1  0.099173  0.596249  0.571512  1
  O  O18  1  0.900827  0.403751  0.428488  1
