# generated using pymatgen
data_NaSr2(GdSn2)2
_symmetry_space_group_name_H-M   'P 1'
_cell_length_a   8.04975600
_cell_length_b   8.58109800
_cell_length_c   16.34961200
_cell_angle_alpha   90.00000000
_cell_angle_beta   90.00000000
_cell_angle_gamma   90.00000000
_symmetry_Int_Tables_number   1
_chemical_formula_structural   NaSr2(GdSn2)2
_chemical_formula_sum   'Na4 Sr8 Gd8 Sn16'
_cell_volume   1129.36163119
_cell_formula_units_Z   4
loop_
 _symmetry_equiv_pos_site_id
 _symmetry_equiv_pos_as_xyz
  1  'x, y, z'
loop_
 _atom_site_type_symbol
 _atom_site_label
 _atom_site_symmetry_multiplicity
 _atom_site_fract_x
 _atom_site_fract_y
 _atom_site_fract_z
 _atom_site_occupancy
  Na  Na0  1  0.837578  0.507881  0.750000  1
  Na  Na1  1  0.337578  0.992119  0.750000  1
  Na  Na2  1  0.162422  0.492119  0.250000  1
  Na  Na3  1  0.662422  0.007881  0.250000  1
  Sr  Sr4  1  0.505959  0.676526  0.597158  1
  Sr  Sr5  1  0.005959  0.823474  0.902842  1
  Sr  Sr6  1  0.494041  0.323474  0.097158  1
  Sr  Sr7  1  0.994041  0.176526  0.402842  1
  Sr  Sr8  1  0.494041  0.323474  0.402842  1
  Sr  Sr9  1  0.994041  0.176526  0.097158  1
  Sr  Sr10  1  0.505959  0.676526  0.902842  1
  Sr  Sr11  1  0.005959  0.823474  0.597158  1
  Gd  Gd12  1  0.673673  0.167643  0.623585  1
  Gd  Gd13  1  0.173673  0.332357  0.876415  1
  Gd  Gd14  1  0.326327  0.832357  0.123585  1
  Gd  Gd15  1  0.826327  0.667643  0.376415  1
  Gd  Gd16  1  0.326327  0.832357  0.376415  1
  Gd  Gd17  1  0.826327  0.667643  0.123585  1
  Gd  Gd18  1  0.673673  0.167643  0.876415  1
  Gd  Gd19  1  0.173673  0.332357  0.623585  1
  Sn  Sn20  1  0.660009  0.958111  0.461004  1
  Sn  Sn21  1  0.160009  0.541889  0.038996  1
  Sn  Sn22  1  0.339991  0.041889  0.961004  1
  Sn  Sn23  1  0.839991  0.458111  0.538996  1
  Sn  Sn24  1  0.339991  0.041889  0.538996  1
  Sn  Sn25  1  0.839991  0.458111  0.961004  1
  Sn  Sn26  1  0.660009  0.958111  0.038996  1
  Sn  Sn27  1  0.160009  0.541889  0.461004  1
  Sn  Sn28  1  0.470486  0.374750  0.750000  1
  Sn  Sn29  1  0.970486  0.125250  0.750000  1
  Sn  Sn30  1  0.529514  0.625250  0.250000  1
  Sn  Sn31  1  0.029514  0.874750  0.250000  1
  Sn  Sn32  1  0.716152  0.881546  0.750000  1
  Sn  Sn33  1  0.216152  0.618454  0.750000  1
  Sn  Sn34  1  0.283848  0.118454  0.250000  1
  Sn  Sn35  1  0.783848  0.381546  0.250000  1
