# generated using pymatgen
data_Sc12Tc(PdBr8)2
_symmetry_space_group_name_H-M   'P 1'
_cell_length_a   8.90002544
_cell_length_b   10.86923054
_cell_length_c   11.55735700
_cell_angle_alpha   116.58620713
_cell_angle_beta   101.79545513
_cell_angle_gamma   101.51275305
_symmetry_Int_Tables_number   1
_chemical_formula_structural   Sc12Tc(PdBr8)2
_chemical_formula_sum   'Sc12 Tc1 Pd2 Br16'
_cell_volume   923.00063365
_cell_formula_units_Z   1
loop_
 _symmetry_equiv_pos_site_id
 _symmetry_equiv_pos_as_xyz
  1  'x, y, z'
loop_
 _atom_site_type_symbol
 _atom_site_label
 _atom_site_symmetry_multiplicity
 _atom_site_fract_x
 _atom_site_fract_y
 _atom_site_fract_z
 _atom_site_occupancy
  Sc  Sc0  1  0.076195  0.251811  0.346721  1
  Sc  Sc1  1  0.923805  0.748189  0.653279  1
  Sc  Sc2  1  0.780776  0.536872  0.315721  1
  Sc  Sc3  1  0.219224  0.463128  0.684279  1
  Sc  Sc4  1  0.280259  0.748981  0.653757  1
  Sc  Sc5  1  0.719741  0.251019  0.346243  1
  Sc  Sc6  1  0.136460  0.536984  0.316140  1
  Sc  Sc7  1  0.863540  0.463016  0.683860  1
  Sc  Sc8  1  0.395390  0.343177  0.249540  1
  Sc  Sc9  1  0.604610  0.656823  0.750460  1
  Sc  Sc10  1  0.454137  0.288855  0.522862  1
  Sc  Sc11  1  0.545863  0.711145  0.477138  1
  Tc  Tc12  1  0.000000  0.500000  0.500000  1
  Pd  Pd13  1  0.344373  0.500217  0.499460  1
  Pd  Pd14  1  0.655628  0.499783  0.500540  1
  Br  Br15  1  0.400828  0.747372  0.894339  1
  Br  Br16  1  0.599172  0.252628  0.105661  1
  Br  Br17  1  0.195217  0.983044  0.792003  1
  Br  Br18  1  0.804783  0.016956  0.207997  1
  Br  Br19  1  0.333495  0.082693  0.245237  1
  Br  Br20  1  0.666505  0.917307  0.754763  1
  Br  Br21  1  0.557754  0.434240  0.806510  1
  Br  Br22  1  0.442246  0.565760  0.193490  1
  Br  Br23  1  0.310667  0.836037  0.461839  1
  Br  Br24  1  0.689333  0.163963  0.538161  1
  Br  Br25  1  0.164810  0.163452  0.535009  1
  Br  Br26  1  0.835190  0.836548  0.464991  1
  Br  Br27  1  0.925325  0.582529  0.150845  1
  Br  Br28  1  0.074675  0.417471  0.849155  1
  Br  Br29  1  0.927840  0.746040  0.894077  1
  Br  Br30  1  0.072160  0.253960  0.105923  1
