# generated using pymatgen
data_Ba5Ti2MnCr2O14
_symmetry_space_group_name_H-M   'P 1'
_cell_length_a   5.86326379
_cell_length_b   5.86198069
_cell_length_c   12.18111382
_cell_angle_alpha   89.99999942
_cell_angle_beta   89.96196239
_cell_angle_gamma   119.99278163
_symmetry_Int_Tables_number   1
_chemical_formula_structural   Ba5Ti2MnCr2O14
_chemical_formula_sum   'Ba5 Ti2 Mn1 Cr2 O14'
_cell_volume   362.60426424
_cell_formula_units_Z   1
loop_
 _symmetry_equiv_pos_site_id
 _symmetry_equiv_pos_as_xyz
  1  'x, y, z'
loop_
 _atom_site_type_symbol
 _atom_site_label
 _atom_site_symmetry_multiplicity
 _atom_site_fract_x
 _atom_site_fract_y
 _atom_site_fract_z
 _atom_site_occupancy
  Ba  Ba0  1  0.000000  0.000000  0.000000  1
  Ba  Ba1  1  0.332468  0.666235  0.767774  1
  Ba  Ba2  1  0.667532  0.333765  0.232226  1
  Ba  Ba3  1  0.333887  0.666944  0.425847  1
  Ba  Ba4  1  0.666113  0.333056  0.574153  1
  Ti  Ti5  1  0.333784  0.666892  0.132771  1
  Ti  Ti6  1  0.666216  0.333108  0.867229  1
  Mn  Mn7  1  0.000000  0.000000  0.500000  1
  Cr  Cr8  1  0.000886  0.000443  0.287222  1
  Cr  Cr9  1  0.999114  0.999557  0.712778  1
  O  O10  1  0.333572  0.666786  0.987370  1
  O  O11  1  0.666428  0.333214  0.012630  1
  O  O12  1  0.670838  0.835420  0.191262  1
  O  O13  1  0.164712  0.835471  0.190730  1
  O  O14  1  0.164712  0.329242  0.190730  1
  O  O15  1  0.329162  0.164580  0.808738  1
  O  O16  1  0.835288  0.164529  0.809270  1
  O  O17  1  0.835288  0.670758  0.809270  1
  O  O18  1  0.702766  0.851383  0.601080  1
  O  O19  1  0.147062  0.850951  0.601128  1
  O  O20  1  0.147062  0.296112  0.601128  1
  O  O21  1  0.297234  0.148617  0.398920  1
  O  O22  1  0.852938  0.149049  0.398872  1
  O  O23  1  0.852938  0.703888  0.398872  1
