# generated using pymatgen
data_BaGd2(H6Ru)2
_symmetry_space_group_name_H-M   'P 1'
_cell_length_a   5.02243100
_cell_length_b   5.02243139
_cell_length_c   8.51143400
_cell_angle_alpha   90.00000000
_cell_angle_beta   90.00000000
_cell_angle_gamma   120.00000400
_symmetry_Int_Tables_number   1
_chemical_formula_structural   BaGd2(H6Ru)2
_chemical_formula_sum   'Ba1 Gd2 H12 Ru2'
_cell_volume   185.93508300
_cell_formula_units_Z   1
loop_
 _symmetry_equiv_pos_site_id
 _symmetry_equiv_pos_as_xyz
  1  'x, y, z'
loop_
 _atom_site_type_symbol
 _atom_site_label
 _atom_site_symmetry_multiplicity
 _atom_site_fract_x
 _atom_site_fract_y
 _atom_site_fract_z
 _atom_site_occupancy
  Ba  Ba0  1  0.000000  0.000000  0.000000  1
  Gd  Gd1  1  0.666667  0.333333  0.365389  1
  Gd  Gd2  1  0.333333  0.666667  0.634611  1
  H  H3  1  0.168211  0.831789  0.384577  1
  H  H4  1  0.663578  0.831789  0.384577  1
  H  H5  1  0.168211  0.336422  0.384577  1
  H  H6  1  0.831789  0.168211  0.615423  1
  H  H7  1  0.336422  0.168211  0.615423  1
  H  H8  1  0.831789  0.663578  0.615423  1
  H  H9  1  0.509012  0.018025  0.845977  1
  H  H10  1  0.509012  0.490988  0.845977  1
  H  H11  1  0.981975  0.490988  0.845977  1
  H  H12  1  0.490988  0.981975  0.154023  1
  H  H13  1  0.490988  0.509012  0.154023  1
  H  H14  1  0.018025  0.509012  0.154023  1
  Ru  Ru15  1  0.666667  0.333333  0.724803  1
  Ru  Ru16  1  0.333333  0.666667  0.275197  1
