# generated using pymatgen
data_Ho3Tm17(GaBi2)4
_symmetry_space_group_name_H-M   'P 1'
_cell_length_a   8.01538412
_cell_length_b   9.23220800
_cell_length_c   11.88980618
_cell_angle_alpha   90.00000000
_cell_angle_beta   89.97980396
_cell_angle_gamma   90.00000000
_symmetry_Int_Tables_number   1
_chemical_formula_structural   Ho3Tm17(GaBi2)4
_chemical_formula_sum   'Ho3 Tm17 Ga4 Bi8'
_cell_volume   879.84195803
_cell_formula_units_Z   1
loop_
 _symmetry_equiv_pos_site_id
 _symmetry_equiv_pos_as_xyz
  1  'x, y, z'
loop_
 _atom_site_type_symbol
 _atom_site_label
 _atom_site_symmetry_multiplicity
 _atom_site_fract_x
 _atom_site_fract_y
 _atom_site_fract_z
 _atom_site_occupancy
  Ho  Ho0  1  0.854837  0.750000  0.794566  1
  Ho  Ho1  1  0.354963  0.250000  0.705370  1
  Ho  Ho2  1  0.144973  0.250000  0.205471  1
  Tm  Tm3  1  0.819673  0.554656  0.062489  1
  Tm  Tm4  1  0.680041  0.945510  0.561937  1
  Tm  Tm5  1  0.180222  0.054336  0.937742  1
  Tm  Tm6  1  0.319918  0.445477  0.437685  1
  Tm  Tm7  1  0.180222  0.445664  0.937742  1
  Tm  Tm8  1  0.319918  0.054523  0.437685  1
  Tm  Tm9  1  0.819673  0.945344  0.062489  1
  Tm  Tm10  1  0.680041  0.554490  0.561937  1
  Tm  Tm11  1  0.174375  0.750000  0.217127  1
  Tm  Tm12  1  0.325947  0.750000  0.716986  1
  Tm  Tm13  1  0.825836  0.250000  0.782943  1
  Tm  Tm14  1  0.674073  0.250000  0.282967  1
  Tm  Tm15  1  0.463263  0.750000  0.003803  1
  Tm  Tm16  1  0.037023  0.750000  0.503500  1
  Tm  Tm17  1  0.537137  0.250000  0.996521  1
  Tm  Tm18  1  0.962971  0.250000  0.496452  1
  Tm  Tm19  1  0.644895  0.750000  0.294719  1
  Ga  Ga20  1  0.405175  0.750000  0.475291  1
  Ga  Ga21  1  0.095569  0.750000  0.976055  1
  Ga  Ga22  1  0.595528  0.250000  0.524002  1
  Ga  Ga23  1  0.904360  0.250000  0.024073  1
  Bi  Bi24  1  0.937294  0.510181  0.324739  1
  Bi  Bi25  1  0.562021  0.990148  0.824776  1
  Bi  Bi26  1  0.062096  0.009721  0.675202  1
  Bi  Bi27  1  0.438271  0.490572  0.175506  1
  Bi  Bi28  1  0.062096  0.490279  0.675202  1
  Bi  Bi29  1  0.438271  0.009428  0.175506  1
  Bi  Bi30  1  0.937294  0.989819  0.324739  1
  Bi  Bi31  1  0.562021  0.509852  0.824776  1
