# generated using pymatgen
data_Tm2MnFe7(MoP3)2
_symmetry_space_group_name_H-M   'P 1'
_cell_length_a   3.68537200
_cell_length_b   10.37755100
_cell_length_c   12.10663200
_cell_angle_alpha   90.00000000
_cell_angle_beta   90.00000000
_cell_angle_gamma   90.00000000
_symmetry_Int_Tables_number   1
_chemical_formula_structural   Tm2MnFe7(MoP3)2
_chemical_formula_sum   'Tm4 Mn2 Fe14 Mo4 P12'
_cell_volume   463.01978594
_cell_formula_units_Z   2
loop_
 _symmetry_equiv_pos_site_id
 _symmetry_equiv_pos_as_xyz
  1  'x, y, z'
loop_
 _atom_site_type_symbol
 _atom_site_label
 _atom_site_symmetry_multiplicity
 _atom_site_fract_x
 _atom_site_fract_y
 _atom_site_fract_z
 _atom_site_occupancy
  Tm  Tm0  1  0.250000  0.582657  0.710737  1
  Tm  Tm1  1  0.250000  0.917343  0.210737  1
  Tm  Tm2  1  0.750000  0.417403  0.289168  1
  Tm  Tm3  1  0.750000  0.082597  0.789168  1
  Mn  Mn4  1  0.250000  0.411292  0.492861  1
  Mn  Mn5  1  0.250000  0.088708  0.992861  1
  Fe  Fe6  1  0.750000  0.587274  0.508073  1
  Fe  Fe7  1  0.750000  0.912726  0.008073  1
  Fe  Fe8  1  0.250000  0.216867  0.176490  1
  Fe  Fe9  1  0.250000  0.283133  0.676490  1
  Fe  Fe10  1  0.750000  0.781683  0.822024  1
  Fe  Fe11  1  0.750000  0.718317  0.322024  1
  Fe  Fe12  1  0.250000  0.876982  0.698907  1
  Fe  Fe13  1  0.250000  0.623018  0.198907  1
  Fe  Fe14  1  0.750000  0.120672  0.301477  1
  Fe  Fe15  1  0.750000  0.379328  0.801477  1
  Fe  Fe16  1  0.250000  0.464002  0.934215  1
  Fe  Fe17  1  0.250000  0.035998  0.434215  1
  Fe  Fe18  1  0.750000  0.536695  0.066804  1
  Fe  Fe19  1  0.750000  0.963305  0.566804  1
  Mo  Mo20  1  0.250000  0.706832  0.988546  1
  Mo  Mo21  1  0.250000  0.793168  0.488546  1
  Mo  Mo22  1  0.750000  0.292831  0.010834  1
  Mo  Mo23  1  0.750000  0.207169  0.510834  1
  P  P24  1  0.250000  0.424731  0.113865  1
  P  P25  1  0.250000  0.075269  0.613865  1
  P  P26  1  0.750000  0.575278  0.886754  1
  P  P27  1  0.750000  0.924722  0.386754  1
  P  P28  1  0.250000  0.267690  0.863289  1
  P  P29  1  0.250000  0.232310  0.363289  1
  P  P30  1  0.750000  0.734490  0.134490  1
  P  P31  1  0.750000  0.765510  0.634490  1
  P  P32  1  0.250000  0.597133  0.382783  1
  P  P33  1  0.250000  0.902867  0.882783  1
  P  P34  1  0.750000  0.404318  0.618684  1
  P  P35  1  0.750000  0.095682  0.118684  1
