# generated using pymatgen
data_Y2Tm2Al15(GaRh2)3
_symmetry_space_group_name_H-M   'P 1'
_cell_length_a   7.51813631
_cell_length_b   7.51976042
_cell_length_c   9.51309100
_cell_angle_alpha   90.00000000
_cell_angle_beta   90.00000000
_cell_angle_gamma   119.35852566
_symmetry_Int_Tables_number   1
_chemical_formula_structural   Y2Tm2Al15(GaRh2)3
_chemical_formula_sum   'Y2 Tm2 Al15 Ga3 Rh6'
_cell_volume   468.74601741
_cell_formula_units_Z   1
loop_
 _symmetry_equiv_pos_site_id
 _symmetry_equiv_pos_as_xyz
  1  'x, y, z'
loop_
 _atom_site_type_symbol
 _atom_site_label
 _atom_site_symmetry_multiplicity
 _atom_site_fract_x
 _atom_site_fract_y
 _atom_site_fract_z
 _atom_site_occupancy
  Y  Y0  1  0.997355  0.673883  0.250000  1
  Y  Y1  1  0.670200  0.991556  0.250000  1
  Tm  Tm2  1  0.005742  0.325831  0.750000  1
  Tm  Tm3  1  0.325540  0.004410  0.750000  1
  Al  Al4  1  0.001514  0.334996  0.071736  1
  Al  Al5  1  0.999470  0.664304  0.924975  1
  Al  Al6  1  0.999470  0.664304  0.575025  1
  Al  Al7  1  0.335871  0.003086  0.428222  1
  Al  Al8  1  0.001514  0.334996  0.428264  1
  Al  Al9  1  0.664398  0.999777  0.574820  1
  Al  Al10  1  0.664398  0.999777  0.925180  1
  Al  Al11  1  0.335871  0.003086  0.071778  1
  Al  Al12  1  0.333530  0.333508  0.556141  1
  Al  Al13  1  0.666012  0.665520  0.449944  1
  Al  Al14  1  0.666012  0.665520  0.050056  1
  Al  Al15  1  0.333530  0.333508  0.943859  1
  Al  Al16  1  0.662552  0.448903  0.750000  1
  Al  Al17  1  0.549812  0.339201  0.250000  1
  Al  Al18  1  0.449352  0.662393  0.750000  1
  Ga  Ga19  1  0.129727  0.130441  0.250000  1
  Ga  Ga20  1  0.869226  0.869031  0.750000  1
  Ga  Ga21  1  0.338289  0.547302  0.250000  1
  Rh  Rh22  1  0.671635  0.328675  0.999742  1
  Rh  Rh23  1  0.328035  0.672719  0.997394  1
  Rh  Rh24  1  0.328035  0.672719  0.502606  1
  Rh  Rh25  1  0.671635  0.328675  0.500258  1
  Rh  Rh26  1  0.000639  0.000938  0.999341  1
  Rh  Rh27  1  0.000639  0.000938  0.500659  1
