# generated using pymatgen
data_Er(Th2Fe)3
_symmetry_space_group_name_H-M   'P 1'
_cell_length_a   9.65109000
_cell_length_b   9.65108990
_cell_length_c   6.16016500
_cell_angle_alpha   90.00000000
_cell_angle_beta   90.00000000
_cell_angle_gamma   120.00000034
_symmetry_Int_Tables_number   1
_chemical_formula_structural   Er(Th2Fe)3
_chemical_formula_sum   'Er2 Th12 Fe6'
_cell_volume   496.90767174
_cell_formula_units_Z   2
loop_
 _symmetry_equiv_pos_site_id
 _symmetry_equiv_pos_as_xyz
  1  'x, y, z'
loop_
 _atom_site_type_symbol
 _atom_site_label
 _atom_site_symmetry_multiplicity
 _atom_site_fract_x
 _atom_site_fract_y
 _atom_site_fract_z
 _atom_site_occupancy
  Er  Er0  1  0.333333  0.666667  0.035592  1
  Er  Er1  1  0.666667  0.333333  0.535592  1
  Th  Th2  1  0.126037  0.873963  0.249828  1
  Th  Th3  1  0.252074  0.126037  0.749828  1
  Th  Th4  1  0.873963  0.747926  0.749828  1
  Th  Th5  1  0.126037  0.252074  0.249828  1
  Th  Th6  1  0.747926  0.873963  0.249828  1
  Th  Th7  1  0.873963  0.126037  0.749828  1
  Th  Th8  1  0.541109  0.458891  0.067135  1
  Th  Th9  1  0.082218  0.541109  0.567135  1
  Th  Th10  1  0.458891  0.917782  0.567135  1
  Th  Th11  1  0.541109  0.082218  0.067135  1
  Th  Th12  1  0.917782  0.458891  0.067135  1
  Th  Th13  1  0.458891  0.541109  0.567135  1
  Fe  Fe14  1  0.819209  0.180791  0.281173  1
  Fe  Fe15  1  0.638417  0.819209  0.781173  1
  Fe  Fe16  1  0.180791  0.361583  0.781173  1
  Fe  Fe17  1  0.819209  0.638417  0.281173  1
  Fe  Fe18  1  0.361583  0.180791  0.281173  1
  Fe  Fe19  1  0.180791  0.819209  0.781173  1
