# generated using pymatgen
data_Y5Tm3Sc12Si15Ag
_symmetry_space_group_name_H-M   'P 1'
_cell_length_a   7.12083258
_cell_length_b   7.36342639
_cell_length_c   14.05959781
_cell_angle_alpha   89.83842450
_cell_angle_beta   89.56834233
_cell_angle_gamma   90.19225682
_symmetry_Int_Tables_number   1
_chemical_formula_structural   Y5Tm3Sc12Si15Ag
_chemical_formula_sum   'Y5 Tm3 Sc12 Si15 Ag1'
_cell_volume   737.16905139
_cell_formula_units_Z   1
loop_
 _symmetry_equiv_pos_site_id
 _symmetry_equiv_pos_as_xyz
  1  'x, y, z'
loop_
 _atom_site_type_symbol
 _atom_site_label
 _atom_site_symmetry_multiplicity
 _atom_site_fract_x
 _atom_site_fract_y
 _atom_site_fract_z
 _atom_site_occupancy
  Y  Y0  1  0.011319  0.175010  0.097590  1
  Y  Y1  1  0.988708  0.826368  0.903908  1
  Y  Y2  1  0.488102  0.676854  0.904178  1
  Y  Y3  1  0.989862  0.831144  0.597134  1
  Y  Y4  1  0.511352  0.323681  0.096409  1
  Tm  Tm5  1  0.007970  0.172231  0.398398  1
  Tm  Tm6  1  0.511023  0.321725  0.400196  1
  Tm  Tm7  1  0.494595  0.678998  0.599822  1
  Sc  Sc8  1  0.163990  0.501657  0.752726  1
  Sc  Sc9  1  0.836835  0.498398  0.251665  1
  Sc  Sc10  1  0.336742  0.999999  0.249484  1
  Sc  Sc11  1  0.665764  0.996516  0.751017  1
  Sc  Sc12  1  0.343413  0.173962  0.626682  1
  Sc  Sc13  1  0.663505  0.822899  0.373750  1
  Sc  Sc14  1  0.166229  0.674843  0.371640  1
  Sc  Sc15  1  0.669017  0.824535  0.125395  1
  Sc  Sc16  1  0.826803  0.325791  0.625149  1
  Sc  Sc17  1  0.329458  0.175165  0.875906  1
  Sc  Sc18  1  0.830866  0.323166  0.875632  1
  Sc  Sc19  1  0.168697  0.676018  0.125853  1
  Si  Si20  1  0.037379  0.121433  0.749791  1
  Si  Si21  1  0.964279  0.883936  0.249200  1
  Si  Si22  1  0.466266  0.613756  0.248606  1
  Si  Si23  1  0.534778  0.387300  0.751924  1
  Si  Si24  1  0.287060  0.873572  0.750272  1
  Si  Si25  1  0.711725  0.128039  0.249657  1
  Si  Si26  1  0.213772  0.369579  0.249513  1
  Si  Si27  1  0.788147  0.627925  0.751867  1
  Si  Si28  1  0.833080  0.535569  0.459026  1
  Si  Si29  1  0.335730  0.962396  0.460717  1
  Si  Si30  1  0.843711  0.535793  0.039181  1
  Si  Si31  1  0.660090  0.036592  0.537296  1
  Si  Si32  1  0.155250  0.464262  0.962002  1
  Si  Si33  1  0.657537  0.035457  0.960785  1
  Si  Si34  1  0.342351  0.964103  0.040028  1
  Ag  Ag35  1  0.164592  0.461322  0.537600  1
