# generated using pymatgen
data_CaTb3Sc2(Si3Ru)8
_symmetry_space_group_name_H-M   'P 1'
_cell_length_a   10.06502129
_cell_length_b   10.06502191
_cell_length_c   8.10178404
_cell_angle_alpha   89.88953272
_cell_angle_beta   90.11046748
_cell_angle_gamma   132.54917883
_symmetry_Int_Tables_number   1
_chemical_formula_structural   CaTb3Sc2(Si3Ru)8
_chemical_formula_sum   'Ca1 Tb3 Sc2 Si24 Ru8'
_cell_volume   604.64175049
_cell_formula_units_Z   1
loop_
 _symmetry_equiv_pos_site_id
 _symmetry_equiv_pos_as_xyz
  1  'x, y, z'
loop_
 _atom_site_type_symbol
 _atom_site_label
 _atom_site_symmetry_multiplicity
 _atom_site_fract_x
 _atom_site_fract_y
 _atom_site_fract_z
 _atom_site_occupancy
  Ca  Ca0  1  0.501911  0.001911  0.750000  1
  Tb  Tb1  1  0.998470  0.498470  0.250000  1
  Tb  Tb2  1  0.497267  0.997267  0.250000  1
  Tb  Tb3  1  0.002545  0.502545  0.750000  1
  Sc  Sc4  1  0.500203  0.500358  0.500664  1
  Sc  Sc5  1  0.000358  0.000203  0.999336  1
  Si  Si6  1  0.793975  0.204021  0.500349  1
  Si  Si7  1  0.295514  0.705927  0.998801  1
  Si  Si8  1  0.205927  0.795514  0.501199  1
  Si  Si9  1  0.704021  0.293975  0.999651  1
  Si  Si10  1  0.331964  0.333277  0.832371  1
  Si  Si11  1  0.667619  0.669241  0.167700  1
  Si  Si12  1  0.169241  0.167619  0.332300  1
  Si  Si13  1  0.833277  0.831964  0.667629  1
  Si  Si14  1  0.119521  0.887142  0.729371  1
  Si  Si15  1  0.110278  0.878553  0.270922  1
  Si  Si16  1  0.611081  0.379435  0.229714  1
  Si  Si17  1  0.622649  0.390834  0.770611  1
  Si  Si18  1  0.879435  0.111081  0.270286  1
  Si  Si19  1  0.890834  0.122649  0.729389  1
  Si  Si20  1  0.387142  0.619521  0.770629  1
  Si  Si21  1  0.378553  0.610278  0.229078  1
  Si  Si22  1  0.344959  0.113504  0.502633  1
  Si  Si23  1  0.886110  0.654782  0.494743  1
  Si  Si24  1  0.386004  0.154493  0.005977  1
  Si  Si25  1  0.844676  0.613917  0.995341  1
  Si  Si26  1  0.654493  0.886004  0.494023  1
  Si  Si27  1  0.113917  0.344676  0.504659  1
  Si  Si28  1  0.613504  0.844959  0.997367  1
  Si  Si29  1  0.154782  0.386110  0.005257  1
  Ru  Ru30  1  0.668838  0.331957  0.499725  1
  Ru  Ru31  1  0.166834  0.830626  0.001404  1
  Ru  Ru32  1  0.330626  0.666834  0.498596  1
  Ru  Ru33  1  0.831957  0.168838  0.000275  1
  Ru  Ru34  1  0.127638  0.127237  0.627576  1
  Ru  Ru35  1  0.873052  0.873586  0.372596  1
  Ru  Ru36  1  0.373586  0.373052  0.127404  1
  Ru  Ru37  1  0.627237  0.627638  0.872424  1
