# generated using pymatgen
data_Zr24SiAs3Se8
_symmetry_space_group_name_H-M   'P 1'
_cell_length_a   3.73403700
_cell_length_b   12.63748616
_cell_length_c   15.63161791
_cell_angle_alpha   89.85321199
_cell_angle_beta   90.00000000
_cell_angle_gamma   90.00000000
_symmetry_Int_Tables_number   1
_chemical_formula_structural   Zr24SiAs3Se8
_chemical_formula_sum   'Zr24 Si1 As3 Se8'
_cell_volume   737.63550999
_cell_formula_units_Z   1
loop_
 _symmetry_equiv_pos_site_id
 _symmetry_equiv_pos_as_xyz
  1  'x, y, z'
loop_
 _atom_site_type_symbol
 _atom_site_label
 _atom_site_symmetry_multiplicity
 _atom_site_fract_x
 _atom_site_fract_y
 _atom_site_fract_z
 _atom_site_occupancy
  Zr  Zr0  1  0.000000  0.346666  0.478898  1
  Zr  Zr1  1  0.000000  0.655868  0.517628  1
  Zr  Zr2  1  0.500000  0.152510  0.979306  1
  Zr  Zr3  1  0.500000  0.848342  0.020768  1
  Zr  Zr4  1  0.000000  0.083644  0.577669  1
  Zr  Zr5  1  0.000000  0.914939  0.423555  1
  Zr  Zr6  1  0.500000  0.415938  0.077880  1
  Zr  Zr7  1  0.500000  0.584178  0.923102  1
  Zr  Zr8  1  0.000000  0.694252  0.295613  1
  Zr  Zr9  1  0.000000  0.306245  0.704821  1
  Zr  Zr10  1  0.500000  0.806025  0.794826  1
  Zr  Zr11  1  0.500000  0.193590  0.204832  1
  Zr  Zr12  1  0.000000  0.030727  0.109330  1
  Zr  Zr13  1  0.000000  0.969483  0.890215  1
  Zr  Zr14  1  0.500000  0.469616  0.608739  1
  Zr  Zr15  1  0.500000  0.531411  0.391504  1
  Zr  Zr16  1  0.000000  0.618760  0.077475  1
  Zr  Zr17  1  0.000000  0.381335  0.923300  1
  Zr  Zr18  1  0.500000  0.880405  0.577007  1
  Zr  Zr19  1  0.500000  0.118217  0.422921  1
  Zr  Zr20  1  0.000000  0.411493  0.243126  1
  Zr  Zr21  1  0.000000  0.587995  0.757037  1
  Zr  Zr22  1  0.500000  0.087736  0.743527  1
  Zr  Zr23  1  0.500000  0.911228  0.257466  1
  Si  Si24  1  0.500000  0.758166  0.412185  1
  As  As25  1  0.000000  0.256703  0.085812  1
  As  As26  1  0.000000  0.743672  0.914259  1
  As  As27  1  0.500000  0.243182  0.585911  1
  Se  Se28  1  0.000000  0.815288  0.151113  1
  Se  Se29  1  0.000000  0.185193  0.849334  1
  Se  Se30  1  0.500000  0.684236  0.650394  1
  Se  Se31  1  0.500000  0.314296  0.349404  1
  Se  Se32  1  0.000000  0.069148  0.292519  1
  Se  Se33  1  0.000000  0.929918  0.707637  1
  Se  Se34  1  0.500000  0.430252  0.792305  1
  Se  Se35  1  0.500000  0.569342  0.208586  1
