# generated using pymatgen
data_Lu2(PaOs)3
_symmetry_space_group_name_H-M   'P 1'
_cell_length_a   6.33739000
_cell_length_b   8.08541097
_cell_length_c   8.08541200
_cell_angle_alpha   120.00000422
_cell_angle_beta   90.00000000
_cell_angle_gamma   90.00000000
_symmetry_Int_Tables_number   1
_chemical_formula_structural   Lu2(PaOs)3
_chemical_formula_sum   'Lu4 Pa6 Os6'
_cell_volume   358.79410701
_cell_formula_units_Z   2
loop_
 _symmetry_equiv_pos_site_id
 _symmetry_equiv_pos_as_xyz
  1  'x, y, z'
loop_
 _atom_site_type_symbol
 _atom_site_label
 _atom_site_symmetry_multiplicity
 _atom_site_fract_x
 _atom_site_fract_y
 _atom_site_fract_z
 _atom_site_occupancy
  Lu  Lu0  1  0.000000  0.666667  0.333333  1
  Lu  Lu1  1  0.000000  0.333333  0.666667  1
  Lu  Lu2  1  0.500000  0.333333  0.666667  1
  Lu  Lu3  1  0.500000  0.666667  0.333333  1
  Pa  Pa4  1  0.750000  0.747822  0.747822  1
  Pa  Pa5  1  0.250000  0.252178  0.252178  1
  Pa  Pa6  1  0.750000  0.000000  0.252178  1
  Pa  Pa7  1  0.250000  0.000000  0.747822  1
  Pa  Pa8  1  0.750000  0.252178  0.000000  1
  Pa  Pa9  1  0.250000  0.747822  0.000000  1
  Os  Os10  1  0.750000  0.370128  0.370128  1
  Os  Os11  1  0.250000  0.629872  0.629872  1
  Os  Os12  1  0.750000  0.000000  0.629872  1
  Os  Os13  1  0.250000  0.000000  0.370128  1
  Os  Os14  1  0.750000  0.629872  0.000000  1
  Os  Os15  1  0.250000  0.370128  0.000000  1
