# generated using pymatgen
data_SmLu(IrO4)2
_symmetry_space_group_name_H-M   'P 1'
_cell_length_a   5.35940569
_cell_length_b   7.43695552
_cell_length_c   7.70673000
_cell_angle_alpha   79.72333462
_cell_angle_beta   94.15064680
_cell_angle_gamma   90.93311238
_symmetry_Int_Tables_number   1
_chemical_formula_structural   SmLu(IrO4)2
_chemical_formula_sum   'Sm2 Lu2 Ir4 O16'
_cell_volume   301.45000215
_cell_formula_units_Z   2
loop_
 _symmetry_equiv_pos_site_id
 _symmetry_equiv_pos_as_xyz
  1  'x, y, z'
loop_
 _atom_site_type_symbol
 _atom_site_label
 _atom_site_symmetry_multiplicity
 _atom_site_fract_x
 _atom_site_fract_y
 _atom_site_fract_z
 _atom_site_occupancy
  Sm  Sm0  1  0.740614  0.886243  0.372226  1
  Sm  Sm1  1  0.259386  0.113757  0.627774  1
  Lu  Lu2  1  0.804686  0.392200  0.331659  1
  Lu  Lu3  1  0.195314  0.607800  0.668341  1
  Ir  Ir4  1  0.754677  0.298435  0.840423  1
  Ir  Ir5  1  0.245323  0.701565  0.159577  1
  Ir  Ir6  1  0.284372  0.202756  0.162853  1
  Ir  Ir7  1  0.715628  0.797244  0.837147  1
  O  O8  1  0.926480  0.803555  0.049771  1
  O  O9  1  0.073520  0.196445  0.950229  1
  O  O10  1  0.389350  0.949334  0.165330  1
  O  O11  1  0.610650  0.050666  0.834670  1
  O  O12  1  0.138050  0.444988  0.172860  1
  O  O13  1  0.861950  0.555012  0.827140  1
  O  O14  1  0.602576  0.309507  0.063809  1
  O  O15  1  0.397424  0.690493  0.936191  1
  O  O16  1  0.935365  0.332192  0.611053  1
  O  O17  1  0.064635  0.667808  0.388947  1
  O  O18  1  0.510416  0.183282  0.389273  1
  O  O19  1  0.489584  0.816718  0.610727  1
  O  O20  1  0.556391  0.619226  0.291564  1
  O  O21  1  0.443609  0.380774  0.708436  1
  O  O22  1  0.022849  0.124675  0.332916  1
  O  O23  1  0.977151  0.875325  0.667084  1
