# generated using pymatgen
data_Li4DyP12Ir19
_symmetry_space_group_name_H-M   'P 1'
_cell_length_a   12.58192700
_cell_length_b   12.59374739
_cell_length_c   3.92264600
_cell_angle_alpha   90.00000000
_cell_angle_beta   90.00000000
_cell_angle_gamma   119.96895910
_symmetry_Int_Tables_number   1
_chemical_formula_structural   Li4DyP12Ir19
_chemical_formula_sum   'Li4 Dy1 P12 Ir19'
_cell_volume   538.45280657
_cell_formula_units_Z   1
loop_
 _symmetry_equiv_pos_site_id
 _symmetry_equiv_pos_as_xyz
  1  'x, y, z'
loop_
 _atom_site_type_symbol
 _atom_site_label
 _atom_site_symmetry_multiplicity
 _atom_site_fract_x
 _atom_site_fract_y
 _atom_site_fract_z
 _atom_site_occupancy
  Li  Li0  1  0.333713  0.668236  0.500000  1
  Li  Li1  1  0.665478  0.331764  0.500000  1
  Li  Li2  1  0.001631  0.822996  0.000000  1
  Li  Li3  1  0.178635  0.177004  0.000000  1
  Dy  Dy4  1  0.823945  0.000000  0.000000  1
  P  P5  1  0.999425  0.641109  0.500000  1
  P  P6  1  0.358317  0.358891  0.500000  1
  P  P7  1  0.639681  0.000000  0.500000  1
  P  P8  1  0.511033  0.687773  0.000000  1
  P  P9  1  0.310496  0.823015  0.000000  1
  P  P10  1  0.176960  0.489896  0.000000  1
  P  P11  1  0.487481  0.176985  0.000000  1
  P  P12  1  0.687063  0.510104  0.000000  1
  P  P13  1  0.823260  0.312227  0.000000  1
  P  P14  1  0.007798  0.183323  0.500000  1
  P  P15  1  0.824474  0.816677  0.500000  1
  P  P16  1  0.179972  0.000000  0.500000  1
  Ir  Ir17  1  0.507814  0.868147  0.000000  1
  Ir  Ir18  1  0.128768  0.639142  0.000000  1
  Ir  Ir19  1  0.360124  0.492089  0.000000  1
  Ir  Ir20  1  0.489628  0.360858  0.000000  1
  Ir  Ir21  1  0.868036  0.507911  0.000000  1
  Ir  Ir22  1  0.639668  0.131853  0.000000  1
  Ir  Ir23  1  0.996283  0.456403  0.500000  1
  Ir  Ir24  1  0.539880  0.543597  0.500000  1
  Ir  Ir25  1  0.457616  0.000000  0.500000  1
  Ir  Ir26  1  0.999781  0.290788  0.000000  1
  Ir  Ir27  1  0.708993  0.709212  0.000000  1
  Ir  Ir28  1  0.290748  0.000000  0.000000  1
  Ir  Ir29  1  0.626214  0.806144  0.500000  1
  Ir  Ir30  1  0.193897  0.817394  0.500000  1
  Ir  Ir31  1  0.183260  0.379565  0.500000  1
  Ir  Ir32  1  0.376503  0.182606  0.500000  1
  Ir  Ir33  1  0.803694  0.620435  0.500000  1
  Ir  Ir34  1  0.820069  0.193856  0.500000  1
  Ir  Ir35  1  0.999661  0.000000  0.500000  1
