# generated using pymatgen
data_Dy3Mg3SiGeAu
_symmetry_space_group_name_H-M   'P 1'
_cell_length_a   7.26445200
_cell_length_b   7.26445202
_cell_length_c   4.30680100
_cell_angle_alpha   90.00000000
_cell_angle_beta   90.00000000
_cell_angle_gamma   119.99999991
_symmetry_Int_Tables_number   1
_chemical_formula_structural   Dy3Mg3SiGeAu
_chemical_formula_sum   'Dy3 Mg3 Si1 Ge1 Au1'
_cell_volume   196.82993794
_cell_formula_units_Z   1
loop_
 _symmetry_equiv_pos_site_id
 _symmetry_equiv_pos_as_xyz
  1  'x, y, z'
loop_
 _atom_site_type_symbol
 _atom_site_label
 _atom_site_symmetry_multiplicity
 _atom_site_fract_x
 _atom_site_fract_y
 _atom_site_fract_z
 _atom_site_occupancy
  Dy  Dy0  1  0.584021  0.001698  0.000000  1
  Dy  Dy1  1  0.998302  0.582324  0.000000  1
  Dy  Dy2  1  0.417676  0.415979  0.000000  1
  Mg  Mg3  1  0.246942  0.000779  0.500000  1
  Mg  Mg4  1  0.999221  0.246163  0.500000  1
  Mg  Mg5  1  0.753837  0.753058  0.500000  1
  Si  Si6  1  0.666667  0.333333  0.500000  1
  Ge  Ge7  1  0.333333  0.666667  0.500000  1
  Au  Au8  1  0.000000  0.000000  0.000000  1
