# generated using pymatgen
data_La4Y11Ho5Bi12
_symmetry_space_group_name_H-M   'P 1'
_cell_length_a   8.31381284
_cell_length_b   9.53737105
_cell_length_c   12.16129400
_cell_angle_alpha   90.00486608
_cell_angle_beta   90.04733866
_cell_angle_gamma   89.99628334
_symmetry_Int_Tables_number   1
_chemical_formula_structural   La4Y11Ho5Bi12
_chemical_formula_sum   'La4 Y11 Ho5 Bi12'
_cell_volume   964.29199089
_cell_formula_units_Z   1
loop_
 _symmetry_equiv_pos_site_id
 _symmetry_equiv_pos_as_xyz
  1  'x, y, z'
loop_
 _atom_site_type_symbol
 _atom_site_label
 _atom_site_symmetry_multiplicity
 _atom_site_fract_x
 _atom_site_fract_y
 _atom_site_fract_z
 _atom_site_occupancy
  La  La0  1  0.182721  0.750075  0.721559  1
  La  La1  1  0.682840  0.750185  0.778439  1
  La  La2  1  0.817405  0.250204  0.278390  1
  La  La3  1  0.317363  0.250352  0.221437  1
  Y  Y4  1  0.807482  0.062743  0.561472  1
  Y  Y5  1  0.691769  0.936786  0.060740  1
  Y  Y6  1  0.192709  0.562650  0.438693  1
  Y  Y7  1  0.692587  0.562254  0.061152  1
  Y  Y8  1  0.192620  0.937594  0.438587  1
  Y  Y9  1  0.307506  0.061972  0.939012  1
  Y  Y10  1  0.807386  0.437672  0.561390  1
  Y  Y11  1  0.353361  0.750524  0.217198  1
  Y  Y12  1  0.852971  0.750305  0.282582  1
  Y  Y13  1  0.646360  0.250583  0.782830  1
  Y  Y14  1  0.147522  0.250719  0.717660  1
  Ho  Ho15  1  0.024106  0.750055  0.987848  1
  Ho  Ho16  1  0.524226  0.750214  0.512290  1
  Ho  Ho17  1  0.976241  0.250359  0.012067  1
  Ho  Ho18  1  0.475793  0.250268  0.487765  1
  Ho  Ho19  1  0.307278  0.434788  0.939131  1
  Bi  Bi20  1  0.433889  0.009916  0.670396  1
  Bi  Bi21  1  0.934286  0.490551  0.829704  1
  Bi  Bi22  1  0.566041  0.510015  0.329584  1
  Bi  Bi23  1  0.065952  0.990405  0.170272  1
  Bi  Bi24  1  0.566131  0.990581  0.329692  1
  Bi  Bi25  1  0.066105  0.510013  0.170261  1
  Bi  Bi26  1  0.433743  0.490553  0.670371  1
  Bi  Bi27  1  0.934008  0.010035  0.829672  1
  Bi  Bi28  1  0.405423  0.747656  0.963972  1
  Bi  Bi29  1  0.906445  0.750160  0.535514  1
  Bi  Bi30  1  0.594121  0.249755  0.035697  1
  Bi  Bi31  1  0.093612  0.250058  0.464620  1
