# generated using pymatgen
data_Li11AgRh
_symmetry_space_group_name_H-M   'P 1'
_cell_length_a   8.38573612
_cell_length_b   8.38573530
_cell_length_c   8.32123000
_cell_angle_alpha   109.40658250
_cell_angle_beta   109.40658306
_cell_angle_gamma   109.91177822
_symmetry_Int_Tables_number   1
_chemical_formula_structural   Li11AgRh
_chemical_formula_sum   'Li22 Ag2 Rh2'
_cell_volume   448.70390350
_cell_formula_units_Z   2
loop_
 _symmetry_equiv_pos_site_id
 _symmetry_equiv_pos_as_xyz
  1  'x, y, z'
loop_
 _atom_site_type_symbol
 _atom_site_label
 _atom_site_symmetry_multiplicity
 _atom_site_fract_x
 _atom_site_fract_y
 _atom_site_fract_z
 _atom_site_occupancy
  Li  Li0  1  0.799185  0.008585  0.000000  1
  Li  Li1  1  0.647143  0.251764  0.000000  1
  Li  Li2  1  0.341891  0.341891  0.000000  1
  Li  Li3  1  0.648992  0.648992  0.000000  1
  Li  Li4  1  0.251764  0.647143  0.000000  1
  Li  Li5  1  0.008585  0.799185  0.000000  1
  Li  Li6  1  0.204273  0.204273  0.196790  1
  Li  Li7  1  0.637038  0.995782  0.243045  1
  Li  Li8  1  0.995782  0.637038  0.243045  1
  Li  Li9  1  0.339234  0.605626  0.340453  1
  Li  Li10  1  0.605626  0.339234  0.340453  1
  Li  Li11  1  0.351399  0.000440  0.339905  1
  Li  Li12  1  0.000440  0.351399  0.339905  1
  Li  Li13  1  0.738673  0.738673  0.390210  1
  Li  Li14  1  0.348463  0.348463  0.609790  1
  Li  Li15  1  0.660536  0.011493  0.660095  1
  Li  Li16  1  0.011493  0.660536  0.660095  1
  Li  Li17  1  0.265172  0.998782  0.659546  1
  Li  Li18  1  0.998782  0.265172  0.659546  1
  Li  Li19  1  0.752736  0.393992  0.756954  1
  Li  Li20  1  0.393992  0.752736  0.756954  1
  Li  Li21  1  0.007484  0.007484  0.803209  1
  Ag  Ag22  1  0.998636  0.998636  0.341806  1
  Ag  Ag23  1  0.656829  0.656829  0.658193  1
  Rh  Rh24  1  0.336739  0.999107  0.000000  1
  Rh  Rh25  1  0.999107  0.336739  0.000000  1
