# generated using pymatgen
data_Mg3ZnAg4(MoO4)6
_symmetry_space_group_name_H-M   'P 1'
_cell_length_a   7.11562310
_cell_length_b   8.87518027
_cell_length_c   10.48406870
_cell_angle_alpha   107.31917213
_cell_angle_beta   104.95892906
_cell_angle_gamma   103.79316324
_symmetry_Int_Tables_number   1
_chemical_formula_structural   Mg3ZnAg4(MoO4)6
_chemical_formula_sum   'Mg3 Zn1 Ag4 Mo6 O24'
_cell_volume   573.87379883
_cell_formula_units_Z   1
loop_
 _symmetry_equiv_pos_site_id
 _symmetry_equiv_pos_as_xyz
  1  'x, y, z'
loop_
 _atom_site_type_symbol
 _atom_site_label
 _atom_site_symmetry_multiplicity
 _atom_site_fract_x
 _atom_site_fract_y
 _atom_site_fract_z
 _atom_site_occupancy
  Mg  Mg0  1  0.126595  0.538947  0.896570  1
  Mg  Mg1  1  0.464736  0.301217  0.481903  1
  Mg  Mg2  1  0.537767  0.700468  0.520309  1
  Zn  Zn3  1  0.869960  0.460121  0.103112  1
  Ag  Ag4  1  0.828461  0.840976  0.344373  1
  Ag  Ag5  1  0.175596  0.164328  0.662378  1
  Ag  Ag6  1  0.483702  0.998351  0.992209  1
  Ag  Ag7  1  0.987173  0.022167  0.056564  1
  Mo  Mo8  1  0.284832  0.834814  0.237729  1
  Mo  Mo9  1  0.714329  0.164650  0.762101  1
  Mo  Mo10  1  0.911126  0.247836  0.362425  1
  Mo  Mo11  1  0.094950  0.753889  0.637604  1
  Mo  Mo12  1  0.620559  0.592359  0.833494  1
  Mo  Mo13  1  0.376663  0.406477  0.168001  1
  O  O14  1  0.332916  0.053174  0.323706  1
  O  O15  1  0.662293  0.947153  0.674172  1
  O  O16  1  0.029235  0.723862  0.227053  1
  O  O17  1  0.968159  0.277233  0.772083  1
  O  O18  1  0.176468  0.478374  0.081971  1
  O  O19  1  0.828448  0.525140  0.918248  1
  O  O20  1  0.744396  0.301130  0.455693  1
  O  O21  1  0.251769  0.689521  0.539142  1
  O  O22  1  0.610422  0.493219  0.142937  1
  O  O23  1  0.386014  0.499874  0.855384  1
  O  O24  1  0.286060  0.791569  0.057155  1
  O  O25  1  0.717058  0.206097  0.944225  1
  O  O26  1  0.944463  0.368810  0.255459  1
  O  O27  1  0.061770  0.635092  0.745791  1
  O  O28  1  0.292303  0.183271  0.079771  1
  O  O29  1  0.692224  0.813151  0.923677  1
  O  O30  1  0.842608  0.732574  0.519364  1
  O  O31  1  0.161250  0.273479  0.483964  1
  O  O32  1  0.791636  0.030671  0.237863  1
  O  O33  1  0.231730  0.969933  0.757461  1
  O  O34  1  0.475612  0.774209  0.343812  1
  O  O35  1  0.525587  0.228700  0.657617  1
  O  O36  1  0.425245  0.449354  0.356075  1
  O  O37  1  0.577386  0.553209  0.646507  1
