# generated using pymatgen
data_Ho16ZnCd(Co2Hg)2
_symmetry_space_group_name_H-M   'P 1'
_cell_length_a   9.41106357
_cell_length_b   9.41277838
_cell_length_c   9.40735225
_cell_angle_alpha   60.00671426
_cell_angle_beta   59.98694648
_cell_angle_gamma   60.00603435
_symmetry_Int_Tables_number   1
_chemical_formula_structural   Ho16ZnCd(Co2Hg)2
_chemical_formula_sum   'Ho16 Zn1 Cd1 Co4 Hg2'
_cell_volume   589.26129333
_cell_formula_units_Z   1
loop_
 _symmetry_equiv_pos_site_id
 _symmetry_equiv_pos_as_xyz
  1  'x, y, z'
loop_
 _atom_site_type_symbol
 _atom_site_label
 _atom_site_symmetry_multiplicity
 _atom_site_fract_x
 _atom_site_fract_y
 _atom_site_fract_z
 _atom_site_occupancy
  Ho  Ho0  1  0.938115  0.937260  0.562457  1
  Ho  Ho1  1  0.811721  0.188676  0.187882  1
  Ho  Ho2  1  0.937800  0.561839  0.562561  1
  Ho  Ho3  1  0.934735  0.562263  0.940141  1
  Ho  Ho4  1  0.811444  0.810567  0.187962  1
  Ho  Ho5  1  0.347084  0.348244  0.346686  1
  Ho  Ho6  1  0.562709  0.933917  0.940664  1
  Ho  Ho7  1  0.562167  0.937260  0.562457  1
  Ho  Ho8  1  0.188596  0.811262  0.811546  1
  Ho  Ho9  1  0.188313  0.187144  0.811961  1
  Ho  Ho10  1  0.347071  0.347987  0.957872  1
  Ho  Ho11  1  0.348585  0.954555  0.348276  1
  Ho  Ho12  1  0.812581  0.187144  0.811961  1
  Ho  Ho13  1  0.562862  0.562263  0.940141  1
  Ho  Ho14  1  0.190027  0.810567  0.187962  1
  Ho  Ho15  1  0.957988  0.348244  0.346686  1
  Zn  Zn16  1  0.582633  0.581433  0.253301  1
  Cd  Cd17  1  0.579962  0.264333  0.575745  1
  Co  Co18  1  0.576614  0.140425  0.142221  1
  Co  Co19  1  0.140740  0.140425  0.142221  1
  Co  Co20  1  0.140558  0.576820  0.142066  1
  Co  Co21  1  0.141428  0.140901  0.576243  1
  Hg  Hg22  1  0.251534  0.583236  0.580496  1
  Hg  Hg23  1  0.584735  0.583236  0.580496  1
