# generated using pymatgen
data_HoEr19FeCo3Sb8
_symmetry_space_group_name_H-M   'P 1'
_cell_length_a   7.79846629
_cell_length_b   8.72067800
_cell_length_c   12.07117502
_cell_angle_alpha   90.00000000
_cell_angle_beta   90.11379392
_cell_angle_gamma   90.00000000
_symmetry_Int_Tables_number   1
_chemical_formula_structural   HoEr19FeCo3Sb8
_chemical_formula_sum   'Ho1 Er19 Fe1 Co3 Sb8'
_cell_volume   820.93380605
_cell_formula_units_Z   1
loop_
 _symmetry_equiv_pos_site_id
 _symmetry_equiv_pos_as_xyz
  1  'x, y, z'
loop_
 _atom_site_type_symbol
 _atom_site_label
 _atom_site_symmetry_multiplicity
 _atom_site_fract_x
 _atom_site_fract_y
 _atom_site_fract_z
 _atom_site_occupancy
  Ho  Ho0  1  0.377736  0.250000  0.692957  1
  Er  Er1  1  0.158104  0.750000  0.205616  1
  Er  Er2  1  0.655007  0.250000  0.296201  1
  Er  Er3  1  0.844850  0.250000  0.797733  1
  Er  Er4  1  0.344600  0.750000  0.702764  1
  Er  Er5  1  0.453123  0.750000  0.997562  1
  Er  Er6  1  0.949578  0.250000  0.502917  1
  Er  Er7  1  0.545688  0.250000  0.002042  1
  Er  Er8  1  0.047071  0.750000  0.496974  1
  Er  Er9  1  0.622165  0.750000  0.306085  1
  Er  Er10  1  0.123348  0.250000  0.191836  1
  Er  Er11  1  0.877715  0.750000  0.807540  1
  Er  Er12  1  0.822290  0.963616  0.065468  1
  Er  Er13  1  0.324637  0.032328  0.436480  1
  Er  Er14  1  0.177166  0.464444  0.934943  1
  Er  Er15  1  0.678513  0.539672  0.565019  1
  Er  Er16  1  0.177166  0.035556  0.934943  1
  Er  Er17  1  0.678513  0.960328  0.565019  1
  Er  Er18  1  0.822290  0.536384  0.065468  1
  Er  Er19  1  0.324637  0.467672  0.436480  1
  Fe  Fe20  1  0.427553  0.750000  0.487563  1
  Co  Co21  1  0.934718  0.250000  0.009672  1
  Co  Co22  1  0.567734  0.250000  0.509373  1
  Co  Co23  1  0.066368  0.750000  0.991398  1
  Sb  Sb24  1  0.929670  0.992950  0.326876  1
  Sb  Sb25  1  0.429566  0.008485  0.172244  1
  Sb  Sb26  1  0.069671  0.491606  0.672653  1
  Sb  Sb27  1  0.570809  0.508109  0.827200  1
  Sb  Sb28  1  0.069671  0.008394  0.672653  1
  Sb  Sb29  1  0.570809  0.991891  0.827200  1
  Sb  Sb30  1  0.929670  0.507050  0.326876  1
  Sb  Sb31  1  0.429566  0.491515  0.172244  1
