# generated using pymatgen
data_Cs5La(PSe3)4
_symmetry_space_group_name_H-M   'P 1'
_cell_length_a   14.24338700
_cell_length_b   14.24338700
_cell_length_c   7.76650400
_cell_angle_alpha   90.00000000
_cell_angle_beta   90.00000000
_cell_angle_gamma   90.00000000
_symmetry_Int_Tables_number   1
_chemical_formula_structural   Cs5La(PSe3)4
_chemical_formula_sum   'Cs10 La2 P8 Se24'
_cell_volume   1575.62230125
_cell_formula_units_Z   2
loop_
 _symmetry_equiv_pos_site_id
 _symmetry_equiv_pos_as_xyz
  1  'x, y, z'
loop_
 _atom_site_type_symbol
 _atom_site_label
 _atom_site_symmetry_multiplicity
 _atom_site_fract_x
 _atom_site_fract_y
 _atom_site_fract_z
 _atom_site_occupancy
  Cs  Cs0  1  0.000000  0.000000  0.500000  1
  Cs  Cs1  1  0.000000  0.000000  0.000000  1
  Cs  Cs2  1  0.319853  0.343028  0.500000  1
  Cs  Cs3  1  0.680147  0.656972  0.500000  1
  Cs  Cs4  1  0.656972  0.319853  0.000000  1
  Cs  Cs5  1  0.343028  0.680147  0.000000  1
  Cs  Cs6  1  0.317112  0.971608  0.500000  1
  Cs  Cs7  1  0.682888  0.028392  0.500000  1
  Cs  Cs8  1  0.028392  0.317112  0.000000  1
  Cs  Cs9  1  0.971608  0.682888  0.000000  1
  La  La10  1  0.000000  0.500000  0.500000  1
  La  La11  1  0.500000  0.000000  0.000000  1
  P  P12  1  0.209096  0.613864  0.500000  1
  P  P13  1  0.790904  0.386136  0.500000  1
  P  P14  1  0.386136  0.209096  0.000000  1
  P  P15  1  0.613864  0.790904  0.000000  1
  P  P16  1  0.119754  0.749579  0.500000  1
  P  P17  1  0.880246  0.250421  0.500000  1
  P  P18  1  0.250421  0.119754  0.000000  1
  P  P19  1  0.749579  0.880246  0.000000  1
  Se  Se20  1  0.154903  0.823660  0.262231  1
  Se  Se21  1  0.845097  0.176340  0.262231  1
  Se  Se22  1  0.176340  0.154903  0.762231  1
  Se  Se23  1  0.823660  0.845097  0.762231  1
  Se  Se24  1  0.845097  0.176340  0.737769  1
  Se  Se25  1  0.154903  0.823660  0.737769  1
  Se  Se26  1  0.823660  0.845097  0.237769  1
  Se  Se27  1  0.176340  0.154903  0.237769  1
  Se  Se28  1  0.031409  0.294624  0.500000  1
  Se  Se29  1  0.968591  0.705376  0.500000  1
  Se  Se30  1  0.705376  0.031409  0.000000  1
  Se  Se31  1  0.294624  0.968591  0.000000  1
  Se  Se32  1  0.356818  0.644029  0.500000  1
  Se  Se33  1  0.643182  0.355971  0.500000  1
  Se  Se34  1  0.355971  0.356818  0.000000  1
  Se  Se35  1  0.644029  0.643182  0.000000  1
  Se  Se36  1  0.163340  0.535821  0.262473  1
  Se  Se37  1  0.836660  0.464179  0.262473  1
  Se  Se38  1  0.464179  0.163340  0.762473  1
  Se  Se39  1  0.535821  0.836660  0.762473  1
  Se  Se40  1  0.836660  0.464179  0.737527  1
  Se  Se41  1  0.163340  0.535821  0.737527  1
  Se  Se42  1  0.535821  0.836660  0.237527  1
  Se  Se43  1  0.464179  0.163340  0.237527  1
