# generated using pymatgen
data_Tb13Ho3(InIr)4
_symmetry_space_group_name_H-M   'P 1'
_cell_length_a   9.69397077
_cell_length_b   9.69204690
_cell_length_c   9.68757731
_cell_angle_alpha   60.12265916
_cell_angle_beta   60.06868910
_cell_angle_gamma   60.09601248
_symmetry_Int_Tables_number   1
_chemical_formula_structural   Tb13Ho3(InIr)4
_chemical_formula_sum   'Tb13 Ho3 In4 Ir4'
_cell_volume   644.99861404
_cell_formula_units_Z   1
loop_
 _symmetry_equiv_pos_site_id
 _symmetry_equiv_pos_as_xyz
  1  'x, y, z'
loop_
 _atom_site_type_symbol
 _atom_site_label
 _atom_site_symmetry_multiplicity
 _atom_site_fract_x
 _atom_site_fract_y
 _atom_site_fract_z
 _atom_site_occupancy
  Tb  Tb0  1  0.310277  0.689981  0.310775  1
  Tb  Tb1  1  0.939782  0.559232  0.558892  1
  Tb  Tb2  1  0.310406  0.310975  0.689853  1
  Tb  Tb3  1  0.097665  0.098242  0.098319  1
  Tb  Tb4  1  0.558859  0.558825  0.939783  1
  Tb  Tb5  1  0.099820  0.099938  0.702312  1
  Tb  Tb6  1  0.690265  0.310487  0.689796  1
  Tb  Tb7  1  0.690616  0.689958  0.310135  1
  Tb  Tb8  1  0.690127  0.310724  0.310649  1
  Tb  Tb9  1  0.309523  0.690460  0.690619  1
  Tb  Tb10  1  0.559261  0.939517  0.558862  1
  Tb  Tb11  1  0.702615  0.099889  0.099890  1
  Tb  Tb12  1  0.559116  0.940241  0.940337  1
  Ho  Ho13  1  0.099551  0.703206  0.099685  1
  Ho  Ho14  1  0.940763  0.940157  0.558827  1
  Ho  Ho15  1  0.941009  0.558812  0.940515  1
  In  In16  1  0.332433  0.333079  0.332558  1
  In  In17  1  0.002229  0.332734  0.332358  1
  In  In18  1  0.332299  0.002295  0.332618  1
  In  In19  1  0.332201  0.332993  0.002256  1
  Ir  Ir20  1  0.892493  0.889850  0.891323  1
  Ir  Ir21  1  0.891979  0.890962  0.326034  1
  Ir  Ir22  1  0.325370  0.890640  0.891962  1
  Ir  Ir23  1  0.891340  0.326803  0.891640  1
