# generated using pymatgen
data_YbEuCuPd3
_symmetry_space_group_name_H-M   'P 1'
_cell_length_a   5.30447866
_cell_length_b   5.30447972
_cell_length_c   5.30447949
_cell_angle_alpha   63.38039469
_cell_angle_beta   63.38038957
_cell_angle_gamma   63.38039114
_symmetry_Int_Tables_number   1
_chemical_formula_structural   YbEuCuPd3
_chemical_formula_sum   'Yb1 Eu1 Cu1 Pd3'
_cell_volume   113.43582306
_cell_formula_units_Z   1
loop_
 _symmetry_equiv_pos_site_id
 _symmetry_equiv_pos_as_xyz
  1  'x, y, z'
loop_
 _atom_site_type_symbol
 _atom_site_label
 _atom_site_symmetry_multiplicity
 _atom_site_fract_x
 _atom_site_fract_y
 _atom_site_fract_z
 _atom_site_occupancy
  Yb  Yb0  1  0.372231  0.372231  0.372231  1
  Eu  Eu1  1  0.625658  0.625658  0.625658  1
  Cu  Cu2  1  0.000572  0.000572  0.000572  1
  Pd  Pd3  1  0.001143  0.499253  0.001143  1
  Pd  Pd4  1  0.499253  0.001143  0.001143  1
  Pd  Pd5  1  0.001143  0.001143  0.499253  1
