# generated using pymatgen
data_ErCoSi2IrRh
_symmetry_space_group_name_H-M   'P 1'
_cell_length_a   6.44044877
_cell_length_b   6.59634160
_cell_length_c   6.44044897
_cell_angle_alpha   131.27961817
_cell_angle_beta   112.89624407
_cell_angle_gamma   86.37439750
_symmetry_Int_Tables_number   1
_chemical_formula_structural   ErCoSi2IrRh
_chemical_formula_sum   'Er2 Co2 Si4 Ir2 Rh2'
_cell_volume   181.87372562
_cell_formula_units_Z   2
loop_
 _symmetry_equiv_pos_site_id
 _symmetry_equiv_pos_as_xyz
  1  'x, y, z'
loop_
 _atom_site_type_symbol
 _atom_site_label
 _atom_site_symmetry_multiplicity
 _atom_site_fract_x
 _atom_site_fract_y
 _atom_site_fract_z
 _atom_site_occupancy
  Er  Er0  1  0.754104  0.038044  0.283941  1
  Er  Er1  1  0.245896  0.961956  0.716059  1
  Co  Co2  1  0.220780  0.500000  0.720780  1
  Co  Co3  1  0.779220  0.500000  0.279220  1
  Si  Si4  1  0.576225  0.387289  0.811064  1
  Si  Si5  1  0.926238  0.712742  0.786504  1
  Si  Si6  1  0.423775  0.612711  0.188936  1
  Si  Si7  1  0.073762  0.287258  0.213496  1
  Ir  Ir8  1  0.719092  0.000000  0.719092  1
  Ir  Ir9  1  0.280908  0.000000  0.280908  1
  Rh  Rh10  1  0.500000  0.500000  0.500000  1
  Rh  Rh11  1  0.000000  0.500000  0.000000  1
