# generated using pymatgen
data_Hf3Zr3(B2Ru5)2
_symmetry_space_group_name_H-M   'P 1'
_cell_length_a   9.52713435
_cell_length_b   9.52713516
_cell_length_c   3.14446600
_cell_angle_alpha   90.00000000
_cell_angle_beta   90.00000000
_cell_angle_gamma   90.12423639
_symmetry_Int_Tables_number   1
_chemical_formula_structural   Hf3Zr3(B2Ru5)2
_chemical_formula_sum   'Hf3 Zr3 B4 Ru10'
_cell_volume   285.41086270
_cell_formula_units_Z   1
loop_
 _symmetry_equiv_pos_site_id
 _symmetry_equiv_pos_as_xyz
  1  'x, y, z'
loop_
 _atom_site_type_symbol
 _atom_site_label
 _atom_site_symmetry_multiplicity
 _atom_site_fract_x
 _atom_site_fract_y
 _atom_site_fract_z
 _atom_site_occupancy
  Hf  Hf0  1  0.675133  0.175133  0.000000  1
  Hf  Hf1  1  0.499943  0.499993  0.000000  1
  Hf  Hf2  1  0.999993  0.999943  0.000000  1
  Zr  Zr3  1  0.824265  0.675420  0.000000  1
  Zr  Zr4  1  0.175420  0.324265  0.000000  1
  Zr  Zr5  1  0.325452  0.825452  0.000000  1
  B  B6  1  0.622327  0.879085  0.000000  1
  B  B7  1  0.379085  0.122327  0.000000  1
  B  B8  1  0.121722  0.621722  0.000000  1
  B  B9  1  0.876928  0.376928  0.000000  1
  Ru  Ru10  1  0.572404  0.721149  0.500000  1
  Ru  Ru11  1  0.428936  0.279224  0.500000  1
  Ru  Ru12  1  0.072551  0.778924  0.500000  1
  Ru  Ru13  1  0.925932  0.220113  0.500000  1
  Ru  Ru14  1  0.278924  0.572551  0.500000  1
  Ru  Ru15  1  0.720113  0.425932  0.500000  1
  Ru  Ru16  1  0.221149  0.072404  0.500000  1
  Ru  Ru17  1  0.779224  0.928936  0.500000  1
  Ru  Ru18  1  0.500985  0.000985  0.500000  1
  Ru  Ru19  1  0.999518  0.499518  0.500000  1
