# generated using pymatgen
data_Nd12Zn(IrI4)3
_symmetry_space_group_name_H-M   'P 1'
_cell_length_a   10.93467936
_cell_length_b   10.93468022
_cell_length_c   10.93467787
_cell_angle_alpha   109.88570413
_cell_angle_beta   109.88570473
_cell_angle_gamma   109.88570243
_symmetry_Int_Tables_number   1
_chemical_formula_structural   Nd12Zn(IrI4)3
_chemical_formula_sum   'Nd12 Zn1 Ir3 I12'
_cell_volume   990.71357454
_cell_formula_units_Z   1
loop_
 _symmetry_equiv_pos_site_id
 _symmetry_equiv_pos_as_xyz
  1  'x, y, z'
loop_
 _atom_site_type_symbol
 _atom_site_label
 _atom_site_symmetry_multiplicity
 _atom_site_fract_x
 _atom_site_fract_y
 _atom_site_fract_z
 _atom_site_occupancy
  Nd  Nd0  1  0.460824  0.489039  0.223652  1
  Nd  Nd1  1  0.750000  0.228088  0.271912  1
  Nd  Nd2  1  0.750000  0.019278  0.480722  1
  Nd  Nd3  1  0.223652  0.460824  0.489039  1
  Nd  Nd4  1  0.271912  0.750000  0.228088  1
  Nd  Nd5  1  0.039176  0.276348  0.010961  1
  Nd  Nd6  1  0.010961  0.039176  0.276348  1
  Nd  Nd7  1  0.480722  0.750000  0.019278  1
  Nd  Nd8  1  0.489039  0.223652  0.460824  1
  Nd  Nd9  1  0.019278  0.480722  0.750000  1
  Nd  Nd10  1  0.276348  0.010961  0.039176  1
  Nd  Nd11  1  0.228088  0.271912  0.750000  1
  Zn  Zn12  1  0.250000  0.250000  0.250000  1
  Ir  Ir13  1  0.501674  0.998326  0.250000  1
  Ir  Ir14  1  0.998326  0.250000  0.501674  1
  Ir  Ir15  1  0.250000  0.501674  0.998326  1
  I  I16  1  0.250000  0.761755  0.738245  1
  I  I17  1  0.515467  0.504632  0.754121  1
  I  I18  1  0.984533  0.745879  0.995368  1
  I  I19  1  0.738245  0.250000  0.761755  1
  I  I20  1  0.995368  0.984533  0.745879  1
  I  I21  1  0.250000  0.994224  0.505776  1
  I  I22  1  0.754121  0.515467  0.504632  1
  I  I23  1  0.505776  0.250000  0.994224  1
  I  I24  1  0.761755  0.738245  0.250000  1
  I  I25  1  0.745879  0.995368  0.984533  1
  I  I26  1  0.994224  0.505776  0.250000  1
  I  I27  1  0.504632  0.754121  0.515467  1
