# generated using pymatgen
data_Sr4Ho5Lu3Se16
_symmetry_space_group_name_H-M   'P 1'
_cell_length_a   4.11496500
_cell_length_b   12.61475971
_cell_length_c   14.88406802
_cell_angle_alpha   89.94032205
_cell_angle_beta   90.00000000
_cell_angle_gamma   90.00000000
_symmetry_Int_Tables_number   1
_chemical_formula_structural   Sr4Ho5Lu3Se16
_chemical_formula_sum   'Sr4 Ho5 Lu3 Se16'
_cell_volume   772.62105390
_cell_formula_units_Z   1
loop_
 _symmetry_equiv_pos_site_id
 _symmetry_equiv_pos_as_xyz
  1  'x, y, z'
loop_
 _atom_site_type_symbol
 _atom_site_label
 _atom_site_symmetry_multiplicity
 _atom_site_fract_x
 _atom_site_fract_y
 _atom_site_fract_z
 _atom_site_occupancy
  Sr  Sr0  1  0.250000  0.759145  0.335195  1
  Sr  Sr1  1  0.250000  0.258132  0.166165  1
  Sr  Sr2  1  0.750000  0.240682  0.663743  1
  Sr  Sr3  1  0.750000  0.740576  0.834865  1
  Ho  Ho4  1  0.250000  0.437196  0.388229  1
  Ho  Ho5  1  0.250000  0.937238  0.111634  1
  Ho  Ho6  1  0.750000  0.563589  0.610750  1
  Ho  Ho7  1  0.750000  0.061913  0.887720  1
  Ho  Ho8  1  0.250000  0.417666  0.903263  1
  Lu  Lu9  1  0.250000  0.918118  0.597105  1
  Lu  Lu10  1  0.750000  0.582699  0.098364  1
  Lu  Lu11  1  0.750000  0.081442  0.402534  1
  Se  Se12  1  0.250000  0.205775  0.826935  1
  Se  Se13  1  0.250000  0.708012  0.670661  1
  Se  Se14  1  0.750000  0.792713  0.171915  1
  Se  Se15  1  0.750000  0.292078  0.329402  1
  Se  Se16  1  0.250000  0.127027  0.528425  1
  Se  Se17  1  0.250000  0.629349  0.972913  1
  Se  Se18  1  0.750000  0.872744  0.470965  1
  Se  Se19  1  0.750000  0.372692  0.031935  1
  Se  Se20  1  0.250000  0.027452  0.286254  1
  Se  Se21  1  0.250000  0.527938  0.214256  1
  Se  Se22  1  0.750000  0.971877  0.713208  1
  Se  Se23  1  0.750000  0.474131  0.784899  1
  Se  Se24  1  0.250000  0.410472  0.577088  1
  Se  Se25  1  0.250000  0.909904  0.922599  1
  Se  Se26  1  0.750000  0.589769  0.422069  1
  Se  Se27  1  0.750000  0.089671  0.076911  1
