# generated using pymatgen
data_Ba6Lu2Fe2O13
_symmetry_space_group_name_H-M   'P 1'
_cell_length_a   11.55622069
_cell_length_b   11.55622073
_cell_length_c   5.80667000
_cell_angle_alpha   90.00000000
_cell_angle_beta   90.00000000
_cell_angle_gamma   150.83905516
_symmetry_Int_Tables_number   1
_chemical_formula_structural   Ba6Lu2Fe2O13
_chemical_formula_sum   'Ba6 Lu2 Fe2 O13'
_cell_volume   377.85362741
_cell_formula_units_Z   1
loop_
 _symmetry_equiv_pos_site_id
 _symmetry_equiv_pos_as_xyz
  1  'x, y, z'
loop_
 _atom_site_type_symbol
 _atom_site_label
 _atom_site_symmetry_multiplicity
 _atom_site_fract_x
 _atom_site_fract_y
 _atom_site_fract_z
 _atom_site_occupancy
  Ba  Ba0  1  0.500000  0.500000  0.000000  1
  Ba  Ba1  1  0.000000  0.000000  0.500000  1
  Ba  Ba2  1  0.184707  0.815293  0.500000  1
  Ba  Ba3  1  0.685506  0.314494  0.000000  1
  Ba  Ba4  1  0.314494  0.685506  0.000000  1
  Ba  Ba5  1  0.815293  0.184707  0.500000  1
  Lu  Lu6  1  0.903969  0.096031  0.000000  1
  Lu  Lu7  1  0.096031  0.903969  0.000000  1
  Fe  Fe8  1  0.394051  0.605949  0.500000  1
  Fe  Fe9  1  0.605949  0.394051  0.500000  1
  O  O10  1  0.637540  0.820229  0.728767  1
  O  O11  1  0.179771  0.362460  0.271233  1
  O  O12  1  0.820229  0.637540  0.728767  1
  O  O13  1  0.362460  0.179771  0.271233  1
  O  O14  1  0.179771  0.362460  0.728767  1
  O  O15  1  0.637540  0.820229  0.271233  1
  O  O16  1  0.362460  0.179771  0.728767  1
  O  O17  1  0.820229  0.637540  0.271233  1
  O  O18  1  0.306250  0.693750  0.500000  1
  O  O19  1  0.806097  0.193903  0.000000  1
  O  O20  1  0.193903  0.806097  0.000000  1
  O  O21  1  0.693750  0.306250  0.500000  1
  O  O22  1  0.000000  0.000000  0.000000  1
