# generated using pymatgen
data_Er4Ga4Ir3Rh
_symmetry_space_group_name_H-M   'P 1'
_cell_length_a   4.30184200
_cell_length_b   6.77998795
_cell_length_c   7.78921203
_cell_angle_alpha   89.94010605
_cell_angle_beta   90.00000000
_cell_angle_gamma   90.00000000
_symmetry_Int_Tables_number   1
_chemical_formula_structural   Er4Ga4Ir3Rh
_chemical_formula_sum   'Er4 Ga4 Ir3 Rh1'
_cell_volume   227.18343743
_cell_formula_units_Z   1
loop_
 _symmetry_equiv_pos_site_id
 _symmetry_equiv_pos_as_xyz
  1  'x, y, z'
loop_
 _atom_site_type_symbol
 _atom_site_label
 _atom_site_symmetry_multiplicity
 _atom_site_fract_x
 _atom_site_fract_y
 _atom_site_fract_z
 _atom_site_occupancy
  Er  Er0  1  0.250000  0.974196  0.312390  1
  Er  Er1  1  0.250000  0.475951  0.188945  1
  Er  Er2  1  0.750000  0.023914  0.686628  1
  Er  Er3  1  0.750000  0.527580  0.812398  1
  Ga  Ga4  1  0.250000  0.344725  0.567951  1
  Ga  Ga5  1  0.250000  0.846738  0.931492  1
  Ga  Ga6  1  0.750000  0.653509  0.431270  1
  Ga  Ga7  1  0.750000  0.154624  0.067129  1
  Ir  Ir8  1  0.250000  0.731694  0.612905  1
  Ir  Ir9  1  0.750000  0.767249  0.111922  1
  Ir  Ir10  1  0.750000  0.266007  0.387632  1
  Rh  Rh11  1  0.250000  0.233813  0.889337  1
