# generated using pymatgen
data_Hf6Al9(SiIr)7
_symmetry_space_group_name_H-M   'P 1'
_cell_length_a   8.57685184
_cell_length_b   8.60657970
_cell_length_c   8.60658000
_cell_angle_alpha   59.99999884
_cell_angle_beta   59.88527620
_cell_angle_gamma   59.88527933
_symmetry_Int_Tables_number   1
_chemical_formula_structural   Hf6Al9(SiIr)7
_chemical_formula_sum   'Hf6 Al9 Si7 Ir7'
_cell_volume   448.45498157
_cell_formula_units_Z   1
loop_
 _symmetry_equiv_pos_site_id
 _symmetry_equiv_pos_as_xyz
  1  'x, y, z'
loop_
 _atom_site_type_symbol
 _atom_site_label
 _atom_site_symmetry_multiplicity
 _atom_site_fract_x
 _atom_site_fract_y
 _atom_site_fract_z
 _atom_site_occupancy
  Hf  Hf0  1  0.689543  0.309955  0.309955  1
  Hf  Hf1  1  0.311051  0.689316  0.689316  1
  Hf  Hf2  1  0.311051  0.689316  0.310316  1
  Hf  Hf3  1  0.689543  0.309955  0.690547  1
  Hf  Hf4  1  0.311051  0.310316  0.689316  1
  Hf  Hf5  1  0.689543  0.690547  0.309955  1
  Al  Al6  1  0.004941  0.665020  0.665020  1
  Al  Al7  1  0.119780  0.120468  0.120468  1
  Al  Al8  1  0.882945  0.879482  0.879482  1
  Al  Al9  1  0.119780  0.120468  0.639284  1
  Al  Al10  1  0.119780  0.639284  0.120468  1
  Al  Al11  1  0.882945  0.879482  0.358091  1
  Al  Al12  1  0.882945  0.358091  0.879482  1
  Al  Al13  1  0.638454  0.120515  0.120515  1
  Al  Al14  1  0.360778  0.879741  0.879741  1
  Si  Si15  1  0.343837  0.344425  0.344425  1
  Si  Si16  1  0.661835  0.658417  0.658417  1
  Si  Si17  1  0.343837  0.344425  0.967313  1
  Si  Si18  1  0.343837  0.967313  0.344425  1
  Si  Si19  1  0.661835  0.658417  0.021331  1
  Si  Si20  1  0.661835  0.021331  0.658417  1
  Si  Si21  1  0.965614  0.344795  0.344795  1
  Ir  Ir22  1  0.499134  0.001043  0.001043  1
  Ir  Ir23  1  0.001924  0.495300  0.495300  1
  Ir  Ir24  1  0.001924  0.495300  0.007476  1
  Ir  Ir25  1  0.499134  0.001043  0.498781  1
  Ir  Ir26  1  0.001924  0.007476  0.495300  1
  Ir  Ir27  1  0.499134  0.498781  0.001043  1
  Ir  Ir28  1  0.000065  0.999978  0.999978  1
