# generated using pymatgen
data_HoLu4Bi2Sb
_symmetry_space_group_name_H-M   'P 1'
_cell_length_a   8.08727900
_cell_length_b   9.34016200
_cell_length_c   11.80082300
_cell_angle_alpha   90.00000000
_cell_angle_beta   90.00000000
_cell_angle_gamma   90.00000000
_symmetry_Int_Tables_number   1
_chemical_formula_structural   HoLu4Bi2Sb
_chemical_formula_sum   'Ho4 Lu16 Bi8 Sb4'
_cell_volume   891.39281933
_cell_formula_units_Z   4
loop_
 _symmetry_equiv_pos_site_id
 _symmetry_equiv_pos_as_xyz
  1  'x, y, z'
loop_
 _atom_site_type_symbol
 _atom_site_label
 _atom_site_symmetry_multiplicity
 _atom_site_fract_x
 _atom_site_fract_y
 _atom_site_fract_z
 _atom_site_occupancy
  Ho  Ho0  1  0.315610  0.250000  0.217091  1
  Ho  Ho1  1  0.815610  0.250000  0.282909  1
  Ho  Ho2  1  0.684390  0.750000  0.782909  1
  Ho  Ho3  1  0.184390  0.750000  0.717091  1
  Lu  Lu4  1  0.352486  0.750000  0.215764  1
  Lu  Lu5  1  0.852486  0.750000  0.284236  1
  Lu  Lu6  1  0.647514  0.250000  0.784236  1
  Lu  Lu7  1  0.147514  0.250000  0.715764  1
  Lu  Lu8  1  0.688928  0.565624  0.058959  1
  Lu  Lu9  1  0.188928  0.934376  0.441041  1
  Lu  Lu10  1  0.311072  0.065624  0.941041  1
  Lu  Lu11  1  0.811072  0.434376  0.558959  1
  Lu  Lu12  1  0.311072  0.434376  0.941041  1
  Lu  Lu13  1  0.811072  0.065624  0.558959  1
  Lu  Lu14  1  0.688928  0.934376  0.058959  1
  Lu  Lu15  1  0.188928  0.565624  0.441041  1
  Lu  Lu16  1  0.474206  0.250000  0.489105  1
  Lu  Lu17  1  0.974206  0.250000  0.010895  1
  Lu  Lu18  1  0.525794  0.750000  0.510895  1
  Lu  Lu19  1  0.025794  0.750000  0.989105  1
  Bi  Bi20  1  0.565382  0.994642  0.325977  1
  Bi  Bi21  1  0.065382  0.505358  0.174023  1
  Bi  Bi22  1  0.434618  0.494642  0.674023  1
  Bi  Bi23  1  0.934618  0.005358  0.825977  1
  Bi  Bi24  1  0.434618  0.005358  0.674023  1
  Bi  Bi25  1  0.934618  0.494642  0.825977  1
  Bi  Bi26  1  0.565382  0.505358  0.325977  1
  Bi  Bi27  1  0.065382  0.994642  0.174023  1
  Sb  Sb28  1  0.403403  0.750000  0.959794  1
  Sb  Sb29  1  0.903403  0.750000  0.540206  1
  Sb  Sb30  1  0.596597  0.250000  0.040206  1
  Sb  Sb31  1  0.096597  0.250000  0.459794  1
