# generated using pymatgen
data_U2TaIr3
_symmetry_space_group_name_H-M   'P 1'
_cell_length_a   5.62805100
_cell_length_b   5.62805063
_cell_length_c   8.11777700
_cell_angle_alpha   90.00000000
_cell_angle_beta   90.00000000
_cell_angle_gamma   119.99999630
_symmetry_Int_Tables_number   1
_chemical_formula_structural   U2TaIr3
_chemical_formula_sum   'U4 Ta2 Ir6'
_cell_volume   222.68131873
_cell_formula_units_Z   2
loop_
 _symmetry_equiv_pos_site_id
 _symmetry_equiv_pos_as_xyz
  1  'x, y, z'
loop_
 _atom_site_type_symbol
 _atom_site_label
 _atom_site_symmetry_multiplicity
 _atom_site_fract_x
 _atom_site_fract_y
 _atom_site_fract_z
 _atom_site_occupancy
  U  U0  1  0.333333  0.666667  0.411669  1
  U  U1  1  0.666667  0.333333  0.588331  1
  U  U2  1  0.666667  0.333333  0.911669  1
  U  U3  1  0.333333  0.666667  0.088331  1
  Ta  Ta4  1  0.000000  0.000000  0.500000  1
  Ta  Ta5  1  0.000000  0.000000  0.000000  1
  Ir  Ir6  1  0.826670  0.173330  0.250000  1
  Ir  Ir7  1  0.826670  0.653342  0.250000  1
  Ir  Ir8  1  0.346658  0.173330  0.250000  1
  Ir  Ir9  1  0.173330  0.826670  0.750000  1
  Ir  Ir10  1  0.173330  0.346658  0.750000  1
  Ir  Ir11  1  0.653342  0.826670  0.750000  1
