# generated using pymatgen
data_ErTiGa4Mo
_symmetry_space_group_name_H-M   'P 1'
_cell_length_a   5.44960144
_cell_length_b   5.44960189
_cell_length_c   5.44960123
_cell_angle_alpha   104.20993462
_cell_angle_beta   104.20993485
_cell_angle_gamma   120.60050812
_symmetry_Int_Tables_number   1
_chemical_formula_structural   ErTiGa4Mo
_chemical_formula_sum   'Er1 Ti1 Ga4 Mo1'
_cell_volume   121.00453621
_cell_formula_units_Z   1
loop_
 _symmetry_equiv_pos_site_id
 _symmetry_equiv_pos_as_xyz
  1  'x, y, z'
loop_
 _atom_site_type_symbol
 _atom_site_label
 _atom_site_symmetry_multiplicity
 _atom_site_fract_x
 _atom_site_fract_y
 _atom_site_fract_z
 _atom_site_occupancy
  Er  Er0  1  0.000000  0.000000  0.000000  1
  Ti  Ti1  1  0.750000  0.250000  0.500000  1
  Ga  Ga2  1  0.304212  0.304212  0.608423  1
  Ga  Ga3  1  0.695788  0.695788  0.391577  1
  Ga  Ga4  1  0.695788  0.304212  0.000000  1
  Ga  Ga5  1  0.304212  0.695788  0.000000  1
  Mo  Mo6  1  0.250000  0.750000  0.500000  1
