# generated using pymatgen
data_Ba10Si17Rh
_symmetry_space_group_name_H-M   'P 1'
_cell_length_a   6.69277233
_cell_length_b   6.69277311
_cell_length_c   17.77753116
_cell_angle_alpha   81.72064869
_cell_angle_beta   81.72064640
_cell_angle_gamma   100.26021960
_symmetry_Int_Tables_number   1
_chemical_formula_structural   Ba10Si17Rh
_chemical_formula_sum   'Ba10 Si17 Rh1'
_cell_volume   763.55333073
_cell_formula_units_Z   1
loop_
 _symmetry_equiv_pos_site_id
 _symmetry_equiv_pos_as_xyz
  1  'x, y, z'
loop_
 _atom_site_type_symbol
 _atom_site_label
 _atom_site_symmetry_multiplicity
 _atom_site_fract_x
 _atom_site_fract_y
 _atom_site_fract_z
 _atom_site_occupancy
  Ba  Ba0  1  0.750603  0.255914  0.998898  1
  Ba  Ba1  1  0.111407  0.580155  0.790937  1
  Ba  Ba2  1  0.285617  0.708836  0.499626  1
  Ba  Ba3  1  0.756150  0.756150  0.648293  1
  Ba  Ba4  1  0.241866  0.241866  0.348657  1
  Ba  Ba5  1  0.580155  0.111407  0.790937  1
  Ba  Ba6  1  0.255914  0.750603  0.998898  1
  Ba  Ba7  1  0.708836  0.285617  0.499626  1
  Ba  Ba8  1  0.422856  0.892271  0.209596  1
  Ba  Ba9  1  0.892271  0.422856  0.209596  1
  Si  Si10  1  0.917655  0.917655  0.257955  1
  Si  Si11  1  0.077470  0.077470  0.736675  1
  Si  Si12  1  0.779009  0.779009  0.931134  1
  Si  Si13  1  0.345992  0.345992  0.646990  1
  Si  Si14  1  0.288712  0.288712  0.944220  1
  Si  Si15  1  0.939765  0.939765  0.124884  1
  Si  Si16  1  0.647719  0.647719  0.356218  1
  Si  Si17  1  0.439329  0.439329  0.135354  1
  Si  Si18  1  0.067027  0.067027  0.870595  1
  Si  Si19  1  0.818219  0.818219  0.450869  1
  Si  Si20  1  0.327968  0.971112  0.642884  1
  Si  Si21  1  0.672519  0.023543  0.354810  1
  Si  Si22  1  0.179730  0.179730  0.548633  1
  Si  Si23  1  0.971112  0.327968  0.642884  1
  Si  Si24  1  0.023543  0.672519  0.354810  1
  Si  Si25  1  0.710404  0.710404  0.070116  1
  Si  Si26  1  0.569306  0.569306  0.857641  1
  Rh  Rh27  1  0.218845  0.218845  0.078265  1
