# generated using pymatgen
data_Y2Er2LuSn4
_symmetry_space_group_name_H-M   'P 1'
_cell_length_a   7.98200100
_cell_length_b   8.12615500
_cell_length_c   15.37326400
_cell_angle_alpha   90.00000000
_cell_angle_beta   90.00000000
_cell_angle_gamma   90.00000000
_symmetry_Int_Tables_number   1
_chemical_formula_structural   Y2Er2LuSn4
_chemical_formula_sum   'Y8 Er8 Lu4 Sn16'
_cell_volume   997.15567441
_cell_formula_units_Z   4
loop_
 _symmetry_equiv_pos_site_id
 _symmetry_equiv_pos_as_xyz
  1  'x, y, z'
loop_
 _atom_site_type_symbol
 _atom_site_label
 _atom_site_symmetry_multiplicity
 _atom_site_fract_x
 _atom_site_fract_y
 _atom_site_fract_z
 _atom_site_occupancy
  Y  Y0  1  0.520724  0.320289  0.902833  1
  Y  Y1  1  0.020724  0.179711  0.597167  1
  Y  Y2  1  0.479276  0.679711  0.402833  1
  Y  Y3  1  0.979276  0.820289  0.097167  1
  Y  Y4  1  0.479276  0.679711  0.097167  1
  Y  Y5  1  0.979276  0.820289  0.402833  1
  Y  Y6  1  0.520724  0.320289  0.597167  1
  Y  Y7  1  0.020724  0.179711  0.902833  1
  Er  Er8  1  0.366709  0.836659  0.877386  1
  Er  Er9  1  0.866709  0.663341  0.622614  1
  Er  Er10  1  0.633291  0.163341  0.377386  1
  Er  Er11  1  0.133291  0.336659  0.122614  1
  Er  Er12  1  0.633291  0.163341  0.122614  1
  Er  Er13  1  0.133291  0.336659  0.377386  1
  Er  Er14  1  0.366709  0.836659  0.622614  1
  Er  Er15  1  0.866709  0.663341  0.877386  1
  Lu  Lu16  1  0.197689  0.503810  0.750000  1
  Lu  Lu17  1  0.697689  0.996190  0.750000  1
  Lu  Lu18  1  0.802311  0.496190  0.250000  1
  Lu  Lu19  1  0.302311  0.003810  0.250000  1
  Sn  Sn20  1  0.294490  0.037095  0.042030  1
  Sn  Sn21  1  0.794490  0.462905  0.457970  1
  Sn  Sn22  1  0.705510  0.962905  0.542030  1
  Sn  Sn23  1  0.205510  0.537095  0.957970  1
  Sn  Sn24  1  0.705510  0.962905  0.957970  1
  Sn  Sn25  1  0.205510  0.537095  0.542030  1
  Sn  Sn26  1  0.294490  0.037095  0.457970  1
  Sn  Sn27  1  0.794490  0.462905  0.042030  1
  Sn  Sn28  1  0.563399  0.620082  0.750000  1
  Sn  Sn29  1  0.063399  0.879918  0.750000  1
  Sn  Sn30  1  0.436601  0.379918  0.250000  1
  Sn  Sn31  1  0.936601  0.120082  0.250000  1
  Sn  Sn32  1  0.329920  0.148238  0.750000  1
  Sn  Sn33  1  0.829920  0.351762  0.750000  1
  Sn  Sn34  1  0.670080  0.851762  0.250000  1
  Sn  Sn35  1  0.170080  0.648238  0.250000  1
