# generated using pymatgen
data_Y4Tm4Tc3B24Ru
_symmetry_space_group_name_H-M   'P 1'
_cell_length_a   3.65525400
_cell_length_b   9.11777957
_cell_length_c   11.51025500
_cell_angle_alpha   89.92115651
_cell_angle_beta   90.00000000
_cell_angle_gamma   90.00000000
_symmetry_Int_Tables_number   1
_chemical_formula_structural   Y4Tm4Tc3B24Ru
_chemical_formula_sum   'Y4 Tm4 Tc3 B24 Ru1'
_cell_volume   383.61111637
_cell_formula_units_Z   1
loop_
 _symmetry_equiv_pos_site_id
 _symmetry_equiv_pos_as_xyz
  1  'x, y, z'
loop_
 _atom_site_type_symbol
 _atom_site_label
 _atom_site_symmetry_multiplicity
 _atom_site_fract_x
 _atom_site_fract_y
 _atom_site_fract_z
 _atom_site_occupancy
  Y  Y0  1  0.000000  0.322868  0.414038  1
  Y  Y1  1  0.000000  0.675905  0.584230  1
  Y  Y2  1  0.000000  0.822504  0.087175  1
  Y  Y3  1  0.000000  0.178670  0.914482  1
  Tm  Tm4  1  0.000000  0.942665  0.370267  1
  Tm  Tm5  1  0.000000  0.057604  0.630570  1
  Tm  Tm6  1  0.000000  0.443225  0.130027  1
  Tm  Tm7  1  0.000000  0.557619  0.869259  1
  Tc  Tc8  1  0.000000  0.639031  0.319548  1
  Tc  Tc9  1  0.000000  0.361071  0.680867  1
  Tc  Tc10  1  0.000000  0.138616  0.179217  1
  B  B11  1  0.500000  0.553282  0.432449  1
  B  B12  1  0.500000  0.446355  0.567196  1
  B  B13  1  0.500000  0.053326  0.067181  1
  B  B14  1  0.500000  0.945825  0.932408  1
  B  B15  1  0.500000  0.749530  0.418331  1
  B  B16  1  0.500000  0.249770  0.581862  1
  B  B17  1  0.500000  0.250266  0.081639  1
  B  B18  1  0.500000  0.750484  0.917985  1
  B  B19  1  0.500000  0.792294  0.265611  1
  B  B20  1  0.500000  0.207904  0.735098  1
  B  B21  1  0.500000  0.292275  0.234583  1
  B  B22  1  0.500000  0.708731  0.765269  1
  B  B23  1  0.500000  0.630268  0.185171  1
  B  B24  1  0.500000  0.369870  0.815340  1
  B  B25  1  0.500000  0.129695  0.314497  1
  B  B26  1  0.500000  0.869629  0.685322  1
  B  B27  1  0.500000  0.981553  0.212401  1
  B  B28  1  0.500000  0.016909  0.787781  1
  B  B29  1  0.500000  0.481868  0.287377  1
  B  B30  1  0.500000  0.518015  0.712247  1
  B  B31  1  0.500000  0.600432  0.027432  1
  B  B32  1  0.500000  0.401305  0.972231  1
  B  B33  1  0.500000  0.099655  0.472697  1
  B  B34  1  0.500000  0.899981  0.528174  1
  Ru  Ru35  1  0.000000  0.861002  0.820040  1
