# generated using pymatgen
data_Hf5In3S
_symmetry_space_group_name_H-M   'P 1'
_cell_length_a   8.48661200
_cell_length_b   8.48661186
_cell_length_c   6.01674500
_cell_angle_alpha   90.00000000
_cell_angle_beta   90.00000000
_cell_angle_gamma   119.99999275
_symmetry_Int_Tables_number   1
_chemical_formula_structural   Hf5In3S
_chemical_formula_sum   'Hf10 In6 S2'
_cell_volume   375.28478398
_cell_formula_units_Z   2
loop_
 _symmetry_equiv_pos_site_id
 _symmetry_equiv_pos_as_xyz
  1  'x, y, z'
loop_
 _atom_site_type_symbol
 _atom_site_label
 _atom_site_symmetry_multiplicity
 _atom_site_fract_x
 _atom_site_fract_y
 _atom_site_fract_z
 _atom_site_occupancy
  Hf  Hf0  1  0.333333  0.666667  0.000000  1
  Hf  Hf1  1  0.666667  0.333333  0.500000  1
  Hf  Hf2  1  0.666667  0.333333  0.000000  1
  Hf  Hf3  1  0.333333  0.666667  0.500000  1
  Hf  Hf4  1  0.249140  0.000000  0.250000  1
  Hf  Hf5  1  0.249140  0.249140  0.750000  1
  Hf  Hf6  1  0.000000  0.750860  0.750000  1
  Hf  Hf7  1  0.000000  0.249140  0.250000  1
  Hf  Hf8  1  0.750860  0.750860  0.250000  1
  Hf  Hf9  1  0.750860  0.000000  0.750000  1
  In  In10  1  0.602803  0.000000  0.250000  1
  In  In11  1  0.602803  0.602803  0.750000  1
  In  In12  1  0.000000  0.397197  0.750000  1
  In  In13  1  0.000000  0.602803  0.250000  1
  In  In14  1  0.397197  0.397197  0.250000  1
  In  In15  1  0.397197  0.000000  0.750000  1
  S  S16  1  0.000000  0.000000  0.000000  1
  S  S17  1  0.000000  0.000000  0.500000  1
