# generated using pymatgen
data_Zr6Zn23Ag
_symmetry_space_group_name_H-M   'P 1'
_cell_length_a   8.83564160
_cell_length_b   8.83540007
_cell_length_c   8.83566233
_cell_angle_alpha   119.99714556
_cell_angle_beta   90.00606299
_cell_angle_gamma   119.99766257
_symmetry_Int_Tables_number   1
_chemical_formula_structural   Zr6Zn23Ag
_chemical_formula_sum   'Zr6 Zn23 Ag1'
_cell_volume   487.75252212
_cell_formula_units_Z   1
loop_
 _symmetry_equiv_pos_site_id
 _symmetry_equiv_pos_as_xyz
  1  'x, y, z'
loop_
 _atom_site_type_symbol
 _atom_site_label
 _atom_site_symmetry_multiplicity
 _atom_site_fract_x
 _atom_site_fract_y
 _atom_site_fract_z
 _atom_site_occupancy
  Zr  Zr0  1  0.280608  0.999985  0.280617  1
  Zr  Zr1  1  0.719332  0.999982  0.280640  1
  Zr  Zr2  1  0.280618  0.561253  0.280624  1
  Zr  Zr3  1  0.280651  0.999988  0.719328  1
  Zr  Zr4  1  0.719361  0.999988  0.719373  1
  Zr  Zr5  1  0.719342  0.438706  0.719357  1
  Zn  Zn6  1  0.499985  0.999996  0.999997  1
  Zn  Zn7  1  0.000017  0.500014  0.000017  1
  Zn  Zn8  1  0.499984  0.499987  0.000002  1
  Zn  Zn9  1  0.344242  0.688528  0.032817  1
  Zn  Zn10  1  0.381444  0.254307  0.127133  1
  Zn  Zn11  1  0.872880  0.254326  0.127194  1
  Zn  Zn12  1  0.872854  0.745731  0.127184  1
  Zn  Zn13  1  0.655707  0.311454  0.344251  1
  Zn  Zn14  1  0.032824  0.688537  0.344254  1
  Zn  Zn15  1  0.655705  0.688521  0.344270  1
  Zn  Zn16  1  0.127149  0.254317  0.381448  1
  Zn  Zn17  1  0.000012  0.999996  0.500001  1
  Zn  Zn18  1  0.000017  0.500017  0.499999  1
  Zn  Zn19  1  0.499987  0.499991  0.499987  1
  Zn  Zn20  1  0.499969  0.999955  0.499967  1
  Zn  Zn21  1  0.872899  0.745719  0.618542  1
  Zn  Zn22  1  0.344265  0.688527  0.655711  1
  Zn  Zn23  1  0.344247  0.311450  0.655712  1
  Zn  Zn24  1  0.967219  0.311474  0.655748  1
  Zn  Zn25  1  0.127198  0.254315  0.872870  1
  Zn  Zn26  1  0.127187  0.745738  0.872845  1
  Zn  Zn27  1  0.618543  0.745712  0.872883  1
  Zn  Zn28  1  0.655741  0.311473  0.967226  1
  Ag  Ag29  1  0.000011  0.000007  0.000000  1
