# generated using pymatgen
data_Na2Ni11As7Ru
_symmetry_space_group_name_H-M   'P 1'
_cell_length_a   3.73577600
_cell_length_b   9.42845716
_cell_length_c   9.47917897
_cell_angle_alpha   119.89735483
_cell_angle_beta   90.00000000
_cell_angle_gamma   90.00000000
_symmetry_Int_Tables_number   1
_chemical_formula_structural   Na2Ni11As7Ru
_chemical_formula_sum   'Na2 Ni11 As7 Ru1'
_cell_volume   289.44835487
_cell_formula_units_Z   1
loop_
 _symmetry_equiv_pos_site_id
 _symmetry_equiv_pos_as_xyz
  1  'x, y, z'
loop_
 _atom_site_type_symbol
 _atom_site_label
 _atom_site_symmetry_multiplicity
 _atom_site_fract_x
 _atom_site_fract_y
 _atom_site_fract_z
 _atom_site_occupancy
  Na  Na0  1  0.500000  0.332858  0.665467  1
  Na  Na1  1  0.000000  0.669342  0.336518  1
  Ni  Ni2  1  0.000000  0.876781  0.720182  1
  Ni  Ni3  1  0.000000  0.282123  0.161421  1
  Ni  Ni4  1  0.000000  0.841967  0.120922  1
  Ni  Ni5  1  0.500000  0.950158  0.569448  1
  Ni  Ni6  1  0.500000  0.426852  0.378902  1
  Ni  Ni7  1  0.500000  0.619279  0.043939  1
  Ni  Ni8  1  0.000000  0.381390  0.946239  1
  Ni  Ni9  1  0.000000  0.051933  0.433684  1
  Ni  Ni10  1  0.000000  0.562940  0.616144  1
  Ni  Ni11  1  0.500000  0.095488  0.216981  1
  Ni  Ni12  1  0.500000  0.785175  0.878982  1
  As  As13  1  0.500000  0.706225  0.591581  1
  As  As14  1  0.500000  0.415163  0.118845  1
  As  As15  1  0.500000  0.883928  0.294056  1
  As  As16  1  0.000000  0.999459  0.000057  1
  As  As17  1  0.000000  0.122403  0.711025  1
  As  As18  1  0.000000  0.286537  0.410548  1
  As  As19  1  0.000000  0.589139  0.874290  1
  Ru  Ru20  1  0.500000  0.120862  0.910766  1
