# generated using pymatgen
data_Li4TaMo7N12
_symmetry_space_group_name_H-M   'P 1'
_cell_length_a   5.04846500
_cell_length_b   5.04846394
_cell_length_c   10.51547700
_cell_angle_alpha   90.00000000
_cell_angle_beta   90.00000000
_cell_angle_gamma   120.00000042
_symmetry_Int_Tables_number   1
_chemical_formula_structural   Li4TaMo7N12
_chemical_formula_sum   'Li4 Ta1 Mo7 N12'
_cell_volume   232.10164344
_cell_formula_units_Z   1
loop_
 _symmetry_equiv_pos_site_id
 _symmetry_equiv_pos_as_xyz
  1  'x, y, z'
loop_
 _atom_site_type_symbol
 _atom_site_label
 _atom_site_symmetry_multiplicity
 _atom_site_fract_x
 _atom_site_fract_y
 _atom_site_fract_z
 _atom_site_occupancy
  Li  Li0  1  0.333333  0.666667  0.000000  1
  Li  Li1  1  0.333333  0.666667  0.500000  1
  Li  Li2  1  0.666667  0.333333  0.500000  1
  Li  Li3  1  0.666667  0.333333  0.000000  1
  Ta  Ta4  1  0.000000  0.000000  0.000000  1
  Mo  Mo5  1  0.000000  0.337772  0.247563  1
  Mo  Mo6  1  0.662228  0.000000  0.752437  1
  Mo  Mo7  1  0.337772  0.337772  0.752437  1
  Mo  Mo8  1  0.000000  0.000000  0.500000  1
  Mo  Mo9  1  0.662228  0.662228  0.247563  1
  Mo  Mo10  1  0.337772  0.000000  0.247563  1
  Mo  Mo11  1  0.000000  0.662228  0.752437  1
  N  N12  1  0.671052  0.671052  0.630210  1
  N  N13  1  0.670892  0.670892  0.877004  1
  N  N14  1  0.329108  0.329108  0.122996  1
  N  N15  1  0.328948  0.328948  0.369790  1
  N  N16  1  0.329108  0.000000  0.877004  1
  N  N17  1  0.328948  0.000000  0.630210  1
  N  N18  1  0.000000  0.671052  0.369790  1
  N  N19  1  0.000000  0.670892  0.122996  1
  N  N20  1  0.670892  0.000000  0.122996  1
  N  N21  1  0.671052  0.000000  0.369790  1
  N  N22  1  0.000000  0.329108  0.877004  1
  N  N23  1  0.000000  0.328948  0.630210  1
