# generated using pymatgen
data_ErAl3NiHg
_symmetry_space_group_name_H-M   'P 1'
_cell_length_a   8.06676343
_cell_length_b   8.06676340
_cell_length_c   6.75884300
_cell_angle_alpha   90.00000000
_cell_angle_beta   90.00000000
_cell_angle_gamma   150.99562029
_symmetry_Int_Tables_number   1
_chemical_formula_structural   ErAl3NiHg
_chemical_formula_sum   'Er2 Al6 Ni2 Hg2'
_cell_volume   213.25641876
_cell_formula_units_Z   2
loop_
 _symmetry_equiv_pos_site_id
 _symmetry_equiv_pos_as_xyz
  1  'x, y, z'
loop_
 _atom_site_type_symbol
 _atom_site_label
 _atom_site_symmetry_multiplicity
 _atom_site_fract_x
 _atom_site_fract_y
 _atom_site_fract_z
 _atom_site_occupancy
  Er  Er0  1  0.124840  0.875160  0.750000  1
  Er  Er1  1  0.875160  0.124840  0.250000  1
  Al  Al2  1  0.922483  0.077517  0.750000  1
  Al  Al3  1  0.690458  0.309542  0.445859  1
  Al  Al4  1  0.077517  0.922483  0.250000  1
  Al  Al5  1  0.309542  0.690458  0.945859  1
  Al  Al6  1  0.690458  0.309542  0.054141  1
  Al  Al7  1  0.309542  0.690458  0.554141  1
  Ni  Ni8  1  0.227557  0.772443  0.250000  1
  Ni  Ni9  1  0.772443  0.227557  0.750000  1
  Hg  Hg10  1  0.500000  0.500000  0.000000  1
  Hg  Hg11  1  0.500000  0.500000  0.500000  1
