# generated using pymatgen
data_Ce4Dy3Ho(ReC2)4
_symmetry_space_group_name_H-M   'P 1'
_cell_length_a   5.21826700
_cell_length_b   6.52956049
_cell_length_c   9.87862574
_cell_angle_alpha   89.95557968
_cell_angle_beta   90.00000000
_cell_angle_gamma   90.00000000
_symmetry_Int_Tables_number   1
_chemical_formula_structural   Ce4Dy3Ho(ReC2)4
_chemical_formula_sum   'Ce4 Dy3 Ho1 Re4 C8'
_cell_volume   336.59421529
_cell_formula_units_Z   1
loop_
 _symmetry_equiv_pos_site_id
 _symmetry_equiv_pos_as_xyz
  1  'x, y, z'
loop_
 _atom_site_type_symbol
 _atom_site_label
 _atom_site_symmetry_multiplicity
 _atom_site_fract_x
 _atom_site_fract_y
 _atom_site_fract_z
 _atom_site_occupancy
  Ce  Ce0  1  0.250000  0.470393  0.782111  1
  Ce  Ce1  1  0.750000  0.029400  0.281728  1
  Ce  Ce2  1  0.250000  0.970768  0.718014  1
  Ce  Ce3  1  0.750000  0.529441  0.217883  1
  Dy  Dy4  1  0.250000  0.819011  0.051742  1
  Dy  Dy5  1  0.750000  0.680986  0.552004  1
  Dy  Dy6  1  0.250000  0.318834  0.448065  1
  Ho  Ho7  1  0.750000  0.180274  0.947673  1
  Re  Re8  1  0.250000  0.278086  0.134157  1
  Re  Re9  1  0.750000  0.222123  0.634798  1
  Re  Re10  1  0.250000  0.777964  0.365363  1
  Re  Re11  1  0.750000  0.721977  0.865733  1
  C  C12  1  0.250000  0.175292  0.947093  1
  C  C13  1  0.750000  0.825457  0.052734  1
  C  C14  1  0.250000  0.675551  0.552596  1
  C  C15  1  0.750000  0.324601  0.447550  1
  C  C16  1  0.250000  0.044580  0.258949  1
  C  C17  1  0.750000  0.455203  0.759813  1
  C  C18  1  0.250000  0.544430  0.240748  1
  C  C19  1  0.750000  0.955627  0.741248  1
