# generated using pymatgen
data_HfZr16Fe4Rh3
_symmetry_space_group_name_H-M   'P 1'
_cell_length_a   8.75674675
_cell_length_b   8.76784737
_cell_length_c   8.76784900
_cell_angle_alpha   60.00000516
_cell_angle_beta   59.95806230
_cell_angle_gamma   59.95806634
_symmetry_Int_Tables_number   1
_chemical_formula_structural   HfZr16Fe4Rh3
_chemical_formula_sum   'Hf1 Zr16 Fe4 Rh3'
_cell_volume   475.70561738
_cell_formula_units_Z   1
loop_
 _symmetry_equiv_pos_site_id
 _symmetry_equiv_pos_as_xyz
  1  'x, y, z'
loop_
 _atom_site_type_symbol
 _atom_site_label
 _atom_site_symmetry_multiplicity
 _atom_site_fract_x
 _atom_site_fract_y
 _atom_site_fract_z
 _atom_site_occupancy
  Hf  Hf0  1  0.698656  0.433782  0.433782  1
  Zr  Zr1  1  0.060388  0.646537  0.646537  1
  Zr  Zr2  1  0.654862  0.039784  0.652677  1
  Zr  Zr3  1  0.654862  0.652677  0.039784  1
  Zr  Zr4  1  0.654862  0.652677  0.652677  1
  Zr  Zr5  1  0.811385  0.808162  0.190226  1
  Zr  Zr6  1  0.199341  0.198831  0.800914  1
  Zr  Zr7  1  0.811385  0.190226  0.808162  1
  Zr  Zr8  1  0.199341  0.800914  0.198831  1
  Zr  Zr9  1  0.199341  0.800914  0.800914  1
  Zr  Zr10  1  0.811385  0.190226  0.190226  1
  Zr  Zr11  1  0.440826  0.437024  0.061075  1
  Zr  Zr12  1  0.062021  0.066630  0.435675  1
  Zr  Zr13  1  0.440826  0.061075  0.437024  1
  Zr  Zr14  1  0.062021  0.435675  0.066630  1
  Zr  Zr15  1  0.062021  0.435675  0.435675  1
  Zr  Zr16  1  0.440826  0.061075  0.061075  1
  Fe  Fe17  1  0.417855  0.860715  0.860715  1
  Fe  Fe18  1  0.863013  0.419268  0.858859  1
  Fe  Fe19  1  0.863013  0.858859  0.419268  1
  Fe  Fe20  1  0.863013  0.858859  0.858859  1
  Rh  Rh21  1  0.409586  0.764952  0.412731  1
  Rh  Rh22  1  0.409586  0.412731  0.764952  1
  Rh  Rh23  1  0.409586  0.412731  0.412731  1
