# generated using pymatgen
data_Pr4PtRh3O14
_symmetry_space_group_name_H-M   'P 1'
_cell_length_a   7.44888110
_cell_length_b   7.43188354
_cell_length_c   7.44888100
_cell_angle_alpha   59.92431003
_cell_angle_beta   59.99999599
_cell_angle_gamma   59.92430879
_symmetry_Int_Tables_number   1
_chemical_formula_structural   Pr4PtRh3O14
_chemical_formula_sum   'Pr4 Pt1 Rh3 O14'
_cell_volume   291.25148892
_cell_formula_units_Z   1
loop_
 _symmetry_equiv_pos_site_id
 _symmetry_equiv_pos_as_xyz
  1  'x, y, z'
loop_
 _atom_site_type_symbol
 _atom_site_label
 _atom_site_symmetry_multiplicity
 _atom_site_fract_x
 _atom_site_fract_y
 _atom_site_fract_z
 _atom_site_occupancy
  Pr  Pr0  1  0.625000  0.625000  0.125000  1
  Pr  Pr1  1  0.625000  0.125000  0.625000  1
  Pr  Pr2  1  0.125000  0.625000  0.625000  1
  Pr  Pr3  1  0.625000  0.625000  0.625000  1
  Pt  Pt4  1  0.125000  0.625000  0.125000  1
  Rh  Rh5  1  0.125000  0.125000  0.625000  1
  Rh  Rh6  1  0.625000  0.125000  0.125000  1
  Rh  Rh7  1  0.125000  0.125000  0.125000  1
  O  O8  1  0.499866  0.500402  0.499866  1
  O  O9  1  0.750134  0.749598  0.750134  1
  O  O10  1  0.455643  0.045155  0.455643  1
  O  O11  1  0.208305  0.791486  0.208305  1
  O  O12  1  0.458097  0.458514  0.041695  1
  O  O13  1  0.041695  0.458514  0.458097  1
  O  O14  1  0.455643  0.045155  0.043557  1
  O  O15  1  0.043557  0.045155  0.455643  1
  O  O16  1  0.041695  0.458514  0.041695  1
  O  O17  1  0.794357  0.204845  0.206443  1
  O  O18  1  0.208305  0.791486  0.791903  1
  O  O19  1  0.794357  0.204845  0.794357  1
  O  O20  1  0.206443  0.204845  0.794357  1
  O  O21  1  0.791903  0.791486  0.208305  1
