# generated using pymatgen
data_Nd4Cd(AgAu5)2
_symmetry_space_group_name_H-M   'P 1'
_cell_length_a   8.77717934
_cell_length_b   8.77801197
_cell_length_c   10.34491000
_cell_angle_alpha   89.97795114
_cell_angle_beta   89.77556671
_cell_angle_gamma   108.26200754
_symmetry_Int_Tables_number   1
_chemical_formula_structural   Nd4Cd(AgAu5)2
_chemical_formula_sum   'Nd8 Cd2 Ag4 Au20'
_cell_volume   756.88502911
_cell_formula_units_Z   2
loop_
 _symmetry_equiv_pos_site_id
 _symmetry_equiv_pos_as_xyz
  1  'x, y, z'
loop_
 _atom_site_type_symbol
 _atom_site_label
 _atom_site_symmetry_multiplicity
 _atom_site_fract_x
 _atom_site_fract_y
 _atom_site_fract_z
 _atom_site_occupancy
  Nd  Nd0  1  0.703505  0.300867  0.000489  1
  Nd  Nd1  1  0.201214  0.798700  0.499789  1
  Nd  Nd2  1  0.797740  0.793587  0.300053  1
  Nd  Nd3  1  0.297999  0.302725  0.203863  1
  Nd  Nd4  1  0.801032  0.203226  0.499780  1
  Nd  Nd5  1  0.298693  0.701038  0.000140  1
  Nd  Nd6  1  0.698108  0.697057  0.794732  1
  Nd  Nd7  1  0.201505  0.203185  0.700698  1
  Cd  Cd8  1  0.521195  0.021211  0.251195  1
  Cd  Cd9  1  0.000849  0.000613  0.999454  1
  Ag  Ag10  1  0.974534  0.474872  0.749262  1
  Ag  Ag11  1  0.024277  0.523804  0.250721  1
  Ag  Ag12  1  0.474809  0.974377  0.749347  1
  Ag  Ag13  1  0.500769  0.501225  0.501059  1
  Au  Au14  1  0.153205  0.431638  0.483168  1
  Au  Au15  1  0.903706  0.903651  0.594773  1
  Au  Au16  1  0.571277  0.849657  0.516919  1
  Au  Au17  1  0.887279  0.168054  0.210980  1
  Au  Au18  1  0.387697  0.666315  0.291745  1
  Au  Au19  1  0.666198  0.388650  0.290631  1
  Au  Au20  1  0.403294  0.402784  0.906283  1
  Au  Au21  1  0.930847  0.651643  0.016544  1
  Au  Au22  1  0.331222  0.610447  0.708061  1
  Au  Au23  1  0.351936  0.071754  0.983426  1
  Au  Au24  1  0.597483  0.597966  0.092470  1
  Au  Au25  1  0.651616  0.930378  0.015207  1
  Au  Au26  1  0.097021  0.096345  0.406230  1
  Au  Au27  1  0.611637  0.331614  0.708262  1
  Au  Au28  1  0.112456  0.831035  0.790616  1
  Au  Au29  1  0.070710  0.350013  0.983345  1
  Au  Au30  1  0.848295  0.569450  0.516681  1
  Au  Au31  1  0.166033  0.884823  0.209963  1
  Au  Au32  1  0.431396  0.154523  0.483995  1
  Au  Au33  1  0.830461  0.112774  0.790115  1
