# generated using pymatgen
data_Ho2Np2Ga12Ru
_symmetry_space_group_name_H-M   'P 1'
_cell_length_a   7.37687889
_cell_length_b   7.47093222
_cell_length_c   7.37687955
_cell_angle_alpha   109.19467073
_cell_angle_beta   109.51528864
_cell_angle_gamma   109.19467957
_symmetry_Int_Tables_number   1
_chemical_formula_structural   Ho2Np2Ga12Ru
_chemical_formula_sum   'Ho2 Np2 Ga12 Ru1'
_cell_volume   314.91503479
_cell_formula_units_Z   1
loop_
 _symmetry_equiv_pos_site_id
 _symmetry_equiv_pos_as_xyz
  1  'x, y, z'
loop_
 _atom_site_type_symbol
 _atom_site_label
 _atom_site_symmetry_multiplicity
 _atom_site_fract_x
 _atom_site_fract_y
 _atom_site_fract_z
 _atom_site_occupancy
  Ho  Ho0  1  0.000000  0.500000  0.000000  1
  Ho  Ho1  1  0.500000  0.500000  0.500000  1
  Np  Np2  1  0.000000  0.000000  0.500000  1
  Np  Np3  1  0.500000  0.000000  0.000000  1
  Ga  Ga4  1  0.749925  0.248202  0.498277  1
  Ga  Ga5  1  0.750000  0.500000  0.250000  1
  Ga  Ga6  1  0.498277  0.248202  0.749925  1
  Ga  Ga7  1  0.250000  0.500000  0.750000  1
  Ga  Ga8  1  0.250075  0.751798  0.501723  1
  Ga  Ga9  1  0.501723  0.751798  0.250075  1
  Ga  Ga10  1  0.709335  0.712444  0.003110  1
  Ga  Ga11  1  0.291496  0.000000  0.291496  1
  Ga  Ga12  1  0.996890  0.287556  0.290665  1
  Ga  Ga13  1  0.290665  0.287556  0.996890  1
  Ga  Ga14  1  0.708504  0.000000  0.708504  1
  Ga  Ga15  1  0.003110  0.712444  0.709335  1
  Ru  Ru16  1  0.000000  0.000000  0.000000  1
