# generated using pymatgen
data_Nb6Pd11Rh7
_symmetry_space_group_name_H-M   'P 1'
_cell_length_a   5.61308540
_cell_length_b   5.61308463
_cell_length_c   13.69497600
_cell_angle_alpha   90.33550027
_cell_angle_beta   89.66449840
_cell_angle_gamma   120.19377793
_symmetry_Int_Tables_number   1
_chemical_formula_structural   Nb6Pd11Rh7
_chemical_formula_sum   'Nb6 Pd11 Rh7'
_cell_volume   372.93565364
_cell_formula_units_Z   1
loop_
 _symmetry_equiv_pos_site_id
 _symmetry_equiv_pos_as_xyz
  1  'x, y, z'
loop_
 _atom_site_type_symbol
 _atom_site_label
 _atom_site_symmetry_multiplicity
 _atom_site_fract_x
 _atom_site_fract_y
 _atom_site_fract_z
 _atom_site_occupancy
  Nb  Nb0  1  0.999743  0.000257  0.250453  1
  Nb  Nb1  1  0.004631  0.995369  0.745467  1
  Nb  Nb2  1  0.330490  0.669510  0.404229  1
  Nb  Nb3  1  0.666724  0.333276  0.597989  1
  Nb  Nb4  1  0.666771  0.333229  0.900188  1
  Nb  Nb5  1  0.333802  0.666198  0.099150  1
  Pd  Pd6  1  0.166056  0.332766  0.917623  1
  Pd  Pd7  1  0.667234  0.833944  0.917623  1
  Pd  Pd8  1  0.166683  0.833317  0.917702  1
  Pd  Pd9  1  0.833579  0.666717  0.082097  1
  Pd  Pd10  1  0.333283  0.166421  0.082097  1
  Pd  Pd11  1  0.833769  0.166231  0.082385  1
  Pd  Pd12  1  0.833972  0.668729  0.417917  1
  Pd  Pd13  1  0.331271  0.166028  0.417917  1
  Pd  Pd14  1  0.832874  0.167126  0.417121  1
  Pd  Pd15  1  0.166351  0.334655  0.582049  1
  Pd  Pd16  1  0.665345  0.833649  0.582049  1
  Rh  Rh17  1  0.500522  0.499478  0.250198  1
  Rh  Rh18  1  0.500893  0.003253  0.250077  1
  Rh  Rh19  1  0.996747  0.499107  0.250077  1
  Rh  Rh20  1  0.500324  0.499676  0.750508  1
  Rh  Rh21  1  0.499712  0.995396  0.750409  1
  Rh  Rh22  1  0.004604  0.500288  0.750409  1
  Rh  Rh23  1  0.164620  0.835380  0.584269  1
