# generated using pymatgen
data_Y8Ta11Si16Ag
_symmetry_space_group_name_H-M   'P 1'
_cell_length_a   6.85462109
_cell_length_b   7.07512408
_cell_length_c   13.39922100
_cell_angle_alpha   90.00000000
_cell_angle_beta   90.00000000
_cell_angle_gamma   90.45984145
_symmetry_Int_Tables_number   1
_chemical_formula_structural   Y8Ta11Si16Ag
_chemical_formula_sum   'Y8 Ta11 Si16 Ag1'
_cell_volume   649.80504159
_cell_formula_units_Z   1
loop_
 _symmetry_equiv_pos_site_id
 _symmetry_equiv_pos_as_xyz
  1  'x, y, z'
loop_
 _atom_site_type_symbol
 _atom_site_label
 _atom_site_symmetry_multiplicity
 _atom_site_fract_x
 _atom_site_fract_y
 _atom_site_fract_z
 _atom_site_occupancy
  Y  Y0  1  0.502167  0.671727  0.593787  1
  Y  Y1  1  0.003757  0.828792  0.905622  1
  Y  Y2  1  0.495542  0.329313  0.095956  1
  Y  Y3  1  0.999592  0.169345  0.402018  1
  Y  Y4  1  0.495542  0.329313  0.404044  1
  Y  Y5  1  0.999592  0.169345  0.097982  1
  Y  Y6  1  0.502167  0.671727  0.906213  1
  Y  Y7  1  0.003757  0.828792  0.594378  1
  Ta  Ta8  1  0.665144  0.174524  0.625963  1
  Ta  Ta9  1  0.157836  0.322941  0.873811  1
  Ta  Ta10  1  0.337951  0.826618  0.126014  1
  Ta  Ta11  1  0.837499  0.674620  0.374706  1
  Ta  Ta12  1  0.337951  0.826618  0.373986  1
  Ta  Ta13  1  0.837499  0.674620  0.125294  1
  Ta  Ta14  1  0.665144  0.174524  0.874037  1
  Ta  Ta15  1  0.157836  0.322941  0.626189  1
  Ta  Ta16  1  0.337081  0.005539  0.750000  1
  Ta  Ta17  1  0.162064  0.510928  0.250000  1
  Ta  Ta18  1  0.662559  0.990426  0.250000  1
  Si  Si19  1  0.664732  0.963320  0.459060  1
  Si  Si20  1  0.163472  0.537471  0.041073  1
  Si  Si21  1  0.337634  0.037539  0.958469  1
  Si  Si22  1  0.836156  0.456271  0.532699  1
  Si  Si23  1  0.337634  0.037539  0.541531  1
  Si  Si24  1  0.836156  0.456271  0.967301  1
  Si  Si25  1  0.664732  0.963320  0.040940  1
  Si  Si26  1  0.163472  0.537471  0.458927  1
  Si  Si27  1  0.455629  0.370428  0.750000  1
  Si  Si28  1  0.960960  0.116893  0.750000  1
  Si  Si29  1  0.540584  0.622427  0.250000  1
  Si  Si30  1  0.041436  0.877220  0.250000  1
  Si  Si31  1  0.700553  0.883297  0.750000  1
  Si  Si32  1  0.214356  0.622846  0.750000  1
  Si  Si33  1  0.298228  0.126841  0.250000  1
  Si  Si34  1  0.794800  0.372426  0.250000  1
  Ag  Ag35  1  0.828780  0.515773  0.750000  1
