# generated using pymatgen
data_La10Ge4OsRh
_symmetry_space_group_name_H-M   'P 1'
_cell_length_a   8.18440600
_cell_length_b   9.02923200
_cell_length_c   12.62069700
_cell_angle_alpha   90.00000000
_cell_angle_beta   90.00000000
_cell_angle_gamma   90.00000000
_symmetry_Int_Tables_number   1
_chemical_formula_structural   La10Ge4OsRh
_chemical_formula_sum   'La20 Ge8 Os2 Rh2'
_cell_volume   932.65563255
_cell_formula_units_Z   2
loop_
 _symmetry_equiv_pos_site_id
 _symmetry_equiv_pos_as_xyz
  1  'x, y, z'
loop_
 _atom_site_type_symbol
 _atom_site_label
 _atom_site_symmetry_multiplicity
 _atom_site_fract_x
 _atom_site_fract_y
 _atom_site_fract_z
 _atom_site_occupancy
  La  La0  1  0.680178  0.468155  0.073221  1
  La  La1  1  0.180178  0.531845  0.426779  1
  La  La2  1  0.319847  0.965496  0.926901  1
  La  La3  1  0.819847  0.034504  0.573099  1
  La  La4  1  0.319847  0.534504  0.926901  1
  La  La5  1  0.819847  0.465496  0.573099  1
  La  La6  1  0.680178  0.031845  0.073221  1
  La  La7  1  0.180178  0.968155  0.426779  1
  La  La8  1  0.956111  0.750000  0.999928  1
  La  La9  1  0.456111  0.250000  0.500072  1
  La  La10  1  0.042527  0.250000  0.999415  1
  La  La11  1  0.542527  0.750000  0.500585  1
  La  La12  1  0.356511  0.750000  0.203844  1
  La  La13  1  0.856511  0.250000  0.296156  1
  La  La14  1  0.645172  0.250000  0.794777  1
  La  La15  1  0.145172  0.750000  0.705223  1
  La  La16  1  0.832755  0.750000  0.283806  1
  La  La17  1  0.332755  0.250000  0.216194  1
  La  La18  1  0.165567  0.250000  0.713786  1
  La  La19  1  0.665567  0.750000  0.786214  1
  Ge  Ge20  1  0.562590  0.495318  0.329173  1
  Ge  Ge21  1  0.062590  0.504682  0.170827  1
  Ge  Ge22  1  0.437632  0.995056  0.671149  1
  Ge  Ge23  1  0.937632  0.004944  0.828851  1
  Ge  Ge24  1  0.437632  0.504944  0.671149  1
  Ge  Ge25  1  0.937632  0.495056  0.828851  1
  Ge  Ge26  1  0.562590  0.004682  0.329173  1
  Ge  Ge27  1  0.062590  0.995318  0.170827  1
  Os  Os28  1  0.579507  0.750000  0.016489  1
  Os  Os29  1  0.079507  0.250000  0.483511  1
  Rh  Rh30  1  0.421357  0.250000  0.983202  1
  Rh  Rh31  1  0.921357  0.750000  0.516798  1
