# generated using pymatgen
data_AlCr20(RuC3)2
_symmetry_space_group_name_H-M   'P 1'
_cell_length_a   7.50888461
_cell_length_b   7.50888417
_cell_length_c   7.50888500
_cell_angle_alpha   60.00000074
_cell_angle_beta   60.00000268
_cell_angle_gamma   59.99999476
_symmetry_Int_Tables_number   1
_chemical_formula_structural   AlCr20(RuC3)2
_chemical_formula_sum   'Al1 Cr20 Ru2 C6'
_cell_volume   299.37207300
_cell_formula_units_Z   1
loop_
 _symmetry_equiv_pos_site_id
 _symmetry_equiv_pos_as_xyz
  1  'x, y, z'
loop_
 _atom_site_type_symbol
 _atom_site_label
 _atom_site_symmetry_multiplicity
 _atom_site_fract_x
 _atom_site_fract_y
 _atom_site_fract_z
 _atom_site_occupancy
  Al  Al0  1  0.000000  0.000000  0.000000  1
  Cr  Cr1  1  0.615909  0.615909  0.152272  1
  Cr  Cr2  1  0.615909  0.152271  0.615909  1
  Cr  Cr3  1  0.152272  0.615909  0.615909  1
  Cr  Cr4  1  0.615909  0.615909  0.615909  1
  Cr  Cr5  1  0.384091  0.384091  0.847728  1
  Cr  Cr6  1  0.384091  0.847728  0.384091  1
  Cr  Cr7  1  0.847728  0.384091  0.384091  1
  Cr  Cr8  1  0.384091  0.384091  0.384091  1
  Cr  Cr9  1  0.000000  0.000000  0.342127  1
  Cr  Cr10  1  0.657873  0.000000  0.342127  1
  Cr  Cr11  1  0.000000  0.657873  0.342127  1
  Cr  Cr12  1  0.657873  0.342127  0.000000  1
  Cr  Cr13  1  0.000000  0.342127  0.000000  1
  Cr  Cr14  1  0.000000  0.342127  0.657873  1
  Cr  Cr15  1  0.342127  0.657873  0.000000  1
  Cr  Cr16  1  0.342127  0.000000  0.657873  1
  Cr  Cr17  1  0.342127  0.000000  0.000000  1
  Cr  Cr18  1  0.000000  0.000000  0.657873  1
  Cr  Cr19  1  0.000000  0.657873  0.000000  1
  Cr  Cr20  1  0.657873  0.000000  0.000000  1
  Ru  Ru21  1  0.750000  0.750000  0.750000  1
  Ru  Ru22  1  0.250000  0.250000  0.250000  1
  C  C23  1  0.722177  0.722177  0.277823  1
  C  C24  1  0.277823  0.722177  0.277823  1
  C  C25  1  0.722177  0.277823  0.277823  1
  C  C26  1  0.277823  0.277823  0.722177  1
  C  C27  1  0.722177  0.277823  0.722177  1
  C  C28  1  0.277823  0.722177  0.722177  1
