# generated using pymatgen
data_Tb3Sm(DySn)16
_symmetry_space_group_name_H-M   'P 1'
_cell_length_a   8.05349774
_cell_length_b   8.18408589
_cell_length_c   15.49620990
_cell_angle_alpha   89.98212088
_cell_angle_beta   89.90161811
_cell_angle_gamma   90.05011888
_symmetry_Int_Tables_number   1
_chemical_formula_structural   Tb3Sm(DySn)16
_chemical_formula_sum   'Tb3 Sm1 Dy16 Sn16'
_cell_volume   1021.36126180
_cell_formula_units_Z   1
loop_
 _symmetry_equiv_pos_site_id
 _symmetry_equiv_pos_as_xyz
  1  'x, y, z'
loop_
 _atom_site_type_symbol
 _atom_site_label
 _atom_site_symmetry_multiplicity
 _atom_site_fract_x
 _atom_site_fract_y
 _atom_site_fract_z
 _atom_site_occupancy
  Tb  Tb0  1  0.979781  0.820490  0.402497  1
  Tb  Tb1  1  0.520201  0.320393  0.597608  1
  Tb  Tb2  1  0.020132  0.179680  0.902393  1
  Sm  Sm3  1  0.480159  0.679730  0.097234  1
  Dy  Dy4  1  0.367321  0.836560  0.877791  1
  Dy  Dy5  1  0.867541  0.663572  0.621996  1
  Dy  Dy6  1  0.632466  0.163651  0.378075  1
  Dy  Dy7  1  0.132381  0.336121  0.122056  1
  Dy  Dy8  1  0.632589  0.163710  0.122029  1
  Dy  Dy9  1  0.132433  0.336309  0.378053  1
  Dy  Dy10  1  0.367530  0.836385  0.621996  1
  Dy  Dy11  1  0.867440  0.663528  0.877952  1
  Dy  Dy12  1  0.520413  0.320244  0.902002  1
  Dy  Dy13  1  0.020513  0.179558  0.597905  1
  Dy  Dy14  1  0.479421  0.679636  0.401963  1
  Dy  Dy15  1  0.979457  0.820608  0.097935  1
  Dy  Dy16  1  0.198855  0.502630  0.750051  1
  Dy  Dy17  1  0.698873  0.997350  0.749916  1
  Dy  Dy18  1  0.801424  0.497118  0.250289  1
  Dy  Dy19  1  0.300987  0.002858  0.250140  1
  Sn  Sn20  1  0.292245  0.036597  0.041758  1
  Sn  Sn21  1  0.792632  0.464256  0.458126  1
  Sn  Sn22  1  0.707347  0.964178  0.541886  1
  Sn  Sn23  1  0.206265  0.535328  0.957632  1
  Sn  Sn24  1  0.707009  0.963937  0.958322  1
  Sn  Sn25  1  0.206912  0.536177  0.541635  1
  Sn  Sn26  1  0.293090  0.036172  0.458360  1
  Sn  Sn27  1  0.794380  0.462826  0.041391  1
  Sn  Sn28  1  0.565360  0.619016  0.749940  1
  Sn  Sn29  1  0.065339  0.881055  0.750009  1
  Sn  Sn30  1  0.434602  0.380490  0.250132  1
  Sn  Sn31  1  0.934659  0.119027  0.250051  1
  Sn  Sn32  1  0.328898  0.146737  0.750085  1
  Sn  Sn33  1  0.828869  0.353301  0.749884  1
  Sn  Sn34  1  0.671975  0.854011  0.250754  1
  Sn  Sn35  1  0.170499  0.646761  0.250156  1
