# generated using pymatgen
data_Dy3Y(Tc3Os)2
_symmetry_space_group_name_H-M   'P 1'
_cell_length_a   5.29333900
_cell_length_b   5.29333835
_cell_length_c   9.11469700
_cell_angle_alpha   90.00000000
_cell_angle_beta   90.00000000
_cell_angle_gamma   120.00001034
_symmetry_Int_Tables_number   1
_chemical_formula_structural   Dy3Y(Tc3Os)2
_chemical_formula_sum   'Dy3 Y1 Tc6 Os2'
_cell_volume   221.17303896
_cell_formula_units_Z   1
loop_
 _symmetry_equiv_pos_site_id
 _symmetry_equiv_pos_as_xyz
  1  'x, y, z'
loop_
 _atom_site_type_symbol
 _atom_site_label
 _atom_site_symmetry_multiplicity
 _atom_site_fract_x
 _atom_site_fract_y
 _atom_site_fract_z
 _atom_site_occupancy
  Dy  Dy0  1  0.666667  0.333333  0.563616  1
  Dy  Dy1  1  0.666667  0.333333  0.936453  1
  Dy  Dy2  1  0.333333  0.666667  0.063557  1
  Y  Y3  1  0.333333  0.666667  0.436370  1
  Tc  Tc4  1  0.829437  0.170563  0.249938  1
  Tc  Tc5  1  0.829437  0.658872  0.249938  1
  Tc  Tc6  1  0.341128  0.170563  0.249938  1
  Tc  Tc7  1  0.170573  0.829427  0.750018  1
  Tc  Tc8  1  0.170573  0.341148  0.750018  1
  Tc  Tc9  1  0.658852  0.829427  0.750018  1
  Os  Os10  1  0.000000  0.000000  0.500071  1
  Os  Os11  1  0.000000  0.000000  0.000064  1
