# generated using pymatgen
data_Sc2Co5(NiP)7
_symmetry_space_group_name_H-M   'P 1'
_cell_length_a   3.55054800
_cell_length_b   8.97903904
_cell_length_c   8.95282781
_cell_angle_alpha   120.04201573
_cell_angle_beta   90.00000000
_cell_angle_gamma   90.00000000
_symmetry_Int_Tables_number   1
_chemical_formula_structural   Sc2Co5(NiP)7
_chemical_formula_sum   'Sc2 Co5 Ni7 P7'
_cell_volume   247.07686681
_cell_formula_units_Z   1
loop_
 _symmetry_equiv_pos_site_id
 _symmetry_equiv_pos_as_xyz
  1  'x, y, z'
loop_
 _atom_site_type_symbol
 _atom_site_label
 _atom_site_symmetry_multiplicity
 _atom_site_fract_x
 _atom_site_fract_y
 _atom_site_fract_z
 _atom_site_occupancy
  Sc  Sc0  1  0.000000  0.665850  0.332924  1
  Sc  Sc1  1  0.500000  0.334985  0.667310  1
  Co  Co2  1  0.000000  0.881910  0.159012  1
  Co  Co3  1  0.000000  0.275404  0.117454  1
  Co  Co4  1  0.000000  0.842777  0.724181  1
  Co  Co5  1  0.500000  0.435908  0.049323  1
  Co  Co6  1  0.500000  0.613582  0.562795  1
  Ni  Ni7  1  0.000000  0.563458  0.934185  1
  Ni  Ni8  1  0.000000  0.372492  0.436377  1
  Ni  Ni9  1  0.000000  0.065808  0.627819  1
  Ni  Ni10  1  0.500000  0.782030  0.908351  1
  Ni  Ni11  1  0.500000  0.128413  0.220031  1
  Ni  Ni12  1  0.500000  0.089770  0.874538  1
  Ni  Ni13  1  0.500000  0.948026  0.387363  1
  P  P14  1  0.000000  0.999860  0.001050  1
  P  P15  1  0.500000  0.709170  0.118381  1
  P  P16  1  0.500000  0.409530  0.286920  1
  P  P17  1  0.500000  0.876934  0.592623  1
  P  P18  1  0.000000  0.589132  0.703221  1
  P  P19  1  0.000000  0.117939  0.410983  1
  P  P20  1  0.000000  0.297023  0.885159  1
