# generated using pymatgen
data_UGaCo3
_symmetry_space_group_name_H-M   'P 1'
_cell_length_a   5.10347200
_cell_length_b   6.97777900
_cell_length_c   7.88590700
_cell_angle_alpha   90.00000000
_cell_angle_beta   90.00000000
_cell_angle_gamma   90.00000000
_symmetry_Int_Tables_number   1
_chemical_formula_structural   UGaCo3
_chemical_formula_sum   'U4 Ga4 Co12'
_cell_volume   280.82424360
_cell_formula_units_Z   4
loop_
 _symmetry_equiv_pos_site_id
 _symmetry_equiv_pos_as_xyz
  1  'x, y, z'
loop_
 _atom_site_type_symbol
 _atom_site_label
 _atom_site_symmetry_multiplicity
 _atom_site_fract_x
 _atom_site_fract_y
 _atom_site_fract_z
 _atom_site_occupancy
  U  U0  1  0.750000  0.894063  0.829404  1
  U  U1  1  0.750000  0.394063  0.670596  1
  U  U2  1  0.250000  0.105937  0.170596  1
  U  U3  1  0.250000  0.605937  0.329404  1
  Ga  Ga4  1  0.750000  0.925681  0.392444  1
  Ga  Ga5  1  0.750000  0.425681  0.107556  1
  Ga  Ga6  1  0.250000  0.074319  0.607556  1
  Ga  Ga7  1  0.250000  0.574319  0.892444  1
  Co  Co8  1  0.750000  0.562394  0.397396  1
  Co  Co9  1  0.750000  0.062394  0.102604  1
  Co  Co10  1  0.250000  0.437606  0.602604  1
  Co  Co11  1  0.250000  0.937606  0.897396  1
  Co  Co12  1  0.995458  0.245818  0.378702  1
  Co  Co13  1  0.504542  0.745818  0.121298  1
  Co  Co14  1  0.495458  0.754182  0.621298  1
  Co  Co15  1  0.004542  0.254182  0.878702  1
  Co  Co16  1  0.004542  0.754182  0.621298  1
  Co  Co17  1  0.495458  0.254182  0.878702  1
  Co  Co18  1  0.504542  0.245818  0.378702  1
  Co  Co19  1  0.995458  0.745818  0.121298  1
