# generated using pymatgen
data_Tl3Ru2Cl9
_symmetry_space_group_name_H-M   'P 1'
_cell_length_a   7.08823300
_cell_length_b   7.08823165
_cell_length_c   17.32653300
_cell_angle_alpha   90.00000000
_cell_angle_beta   90.00000000
_cell_angle_gamma   120.00001096
_symmetry_Int_Tables_number   1
_chemical_formula_structural   Tl3Ru2Cl9
_chemical_formula_sum   'Tl6 Ru4 Cl18'
_cell_volume   753.90763426
_cell_formula_units_Z   2
loop_
 _symmetry_equiv_pos_site_id
 _symmetry_equiv_pos_as_xyz
  1  'x, y, z'
loop_
 _atom_site_type_symbol
 _atom_site_label
 _atom_site_symmetry_multiplicity
 _atom_site_fract_x
 _atom_site_fract_y
 _atom_site_fract_z
 _atom_site_occupancy
  Tl  Tl0  1  0.000000  0.000000  0.250000  1
  Tl  Tl1  1  0.000000  0.000000  0.750000  1
  Tl  Tl2  1  0.333333  0.666667  0.060605  1
  Tl  Tl3  1  0.666667  0.333333  0.560605  1
  Tl  Tl4  1  0.333333  0.666667  0.439395  1
  Tl  Tl5  1  0.666667  0.333333  0.939395  1
  Ru  Ru6  1  0.333333  0.666667  0.827145  1
  Ru  Ru7  1  0.666667  0.333333  0.327145  1
  Ru  Ru8  1  0.666667  0.333333  0.172855  1
  Ru  Ru9  1  0.333333  0.666667  0.672855  1
  Cl  Cl10  1  0.822315  0.177685  0.406710  1
  Cl  Cl11  1  0.822315  0.644629  0.406710  1
  Cl  Cl12  1  0.355371  0.177685  0.406710  1
  Cl  Cl13  1  0.644629  0.822315  0.906710  1
  Cl  Cl14  1  0.177685  0.355371  0.593290  1
  Cl  Cl15  1  0.177685  0.822315  0.906710  1
  Cl  Cl16  1  0.177685  0.355371  0.906710  1
  Cl  Cl17  1  0.822315  0.177685  0.093290  1
  Cl  Cl18  1  0.355371  0.177685  0.093290  1
  Cl  Cl19  1  0.644629  0.822315  0.593290  1
  Cl  Cl20  1  0.505116  0.010234  0.250000  1
  Cl  Cl21  1  0.494884  0.505116  0.750000  1
  Cl  Cl22  1  0.010234  0.505116  0.750000  1
  Cl  Cl23  1  0.989766  0.494884  0.250000  1
  Cl  Cl24  1  0.505116  0.494884  0.250000  1
  Cl  Cl25  1  0.494884  0.989766  0.750000  1
  Cl  Cl26  1  0.822315  0.644629  0.093290  1
  Cl  Cl27  1  0.177685  0.822315  0.593290  1
