# generated using pymatgen
data_Pr7Sm(TcO5)4
_symmetry_space_group_name_H-M   'P 1'
_cell_length_a   8.81276895
_cell_length_b   8.80433494
_cell_length_c   5.89617203
_cell_angle_alpha   90.00607443
_cell_angle_beta   90.00878518
_cell_angle_gamma   90.07574542
_symmetry_Int_Tables_number   1
_chemical_formula_structural   Pr7Sm(TcO5)4
_chemical_formula_sum   'Pr7 Sm1 Tc4 O20'
_cell_volume   457.48693795
_cell_formula_units_Z   1
loop_
 _symmetry_equiv_pos_site_id
 _symmetry_equiv_pos_as_xyz
  1  'x, y, z'
loop_
 _atom_site_type_symbol
 _atom_site_label
 _atom_site_symmetry_multiplicity
 _atom_site_fract_x
 _atom_site_fract_y
 _atom_site_fract_z
 _atom_site_occupancy
  Pr  Pr0  1  0.356945  0.653747  0.250002  1
  Pr  Pr1  1  0.153549  0.140906  0.249711  1
  Pr  Pr2  1  0.847988  0.857533  0.250208  1
  Pr  Pr3  1  0.642139  0.347005  0.249969  1
  Pr  Pr4  1  0.858823  0.152140  0.749881  1
  Pr  Pr5  1  0.653197  0.642046  0.749682  1
  Pr  Pr6  1  0.346949  0.358147  0.750423  1
  Sm  Sm7  1  0.140587  0.847289  0.749426  1
  Tc  Tc8  1  0.000401  0.500727  0.158769  1
  Tc  Tc9  1  0.498965  0.999499  0.840330  1
  Tc  Tc10  1  0.000782  0.501370  0.537744  1
  Tc  Tc11  1  0.499371  0.999632  0.462315  1
  O  O12  1  0.698404  0.087112  0.403151  1
  O  O13  1  0.587411  0.802398  0.402052  1
  O  O14  1  0.412546  0.197364  0.401928  1
  O  O15  1  0.300991  0.911517  0.408998  1
  O  O16  1  0.802935  0.413693  0.597206  1
  O  O17  1  0.913875  0.699364  0.599546  1
  O  O18  1  0.087691  0.303339  0.596302  1
  O  O19  1  0.197141  0.591087  0.599495  1
  O  O20  1  0.696949  0.910484  0.893324  1
  O  O21  1  0.406711  0.802791  0.891014  1
  O  O22  1  0.588606  0.197715  0.892494  1
  O  O23  1  0.300982  0.088788  0.891493  1
  O  O24  1  0.499964  0.500547  0.000139  1
  O  O25  1  0.002718  0.996812  0.996718  1
  O  O26  1  0.499586  0.500056  0.499849  1
  O  O27  1  0.002741  0.997291  0.503084  1
  O  O28  1  0.198064  0.410600  0.107659  1
  O  O29  1  0.911426  0.301486  0.107692  1
  O  O30  1  0.089549  0.698339  0.101647  1
  O  O31  1  0.802014  0.589176  0.107748  1
