# generated using pymatgen
data_Sc2Si2OsPt
_symmetry_space_group_name_H-M   'P 1'
_cell_length_a   4.08555000
_cell_length_b   6.48920600
_cell_length_c   7.38861100
_cell_angle_alpha   90.00000000
_cell_angle_beta   90.00000000
_cell_angle_gamma   90.00000000
_symmetry_Int_Tables_number   1
_chemical_formula_structural   Sc2Si2OsPt
_chemical_formula_sum   'Sc4 Si4 Os2 Pt2'
_cell_volume   195.88667435
_cell_formula_units_Z   2
loop_
 _symmetry_equiv_pos_site_id
 _symmetry_equiv_pos_as_xyz
  1  'x, y, z'
loop_
 _atom_site_type_symbol
 _atom_site_label
 _atom_site_symmetry_multiplicity
 _atom_site_fract_x
 _atom_site_fract_y
 _atom_site_fract_z
 _atom_site_occupancy
  Sc  Sc0  1  0.750000  0.485396  0.314202  1
  Sc  Sc1  1  0.250000  0.013883  0.817641  1
  Sc  Sc2  1  0.750000  0.985396  0.185798  1
  Sc  Sc3  1  0.250000  0.513883  0.682359  1
  Si  Si4  1  0.250000  0.289893  0.131565  1
  Si  Si5  1  0.250000  0.789893  0.368435  1
  Si  Si6  1  0.750000  0.715471  0.888140  1
  Si  Si7  1  0.750000  0.215471  0.611860  1
  Os  Os8  1  0.250000  0.658823  0.057232  1
  Os  Os9  1  0.250000  0.158823  0.442768  1
  Pt  Pt10  1  0.750000  0.836534  0.563847  1
  Pt  Pt11  1  0.750000  0.336534  0.936153  1
