# generated using pymatgen
data_Rb2Mn(BrO3)6
_symmetry_space_group_name_H-M   'P 1'
_cell_length_a   7.85121432
_cell_length_b   7.85121382
_cell_length_c   7.85121407
_cell_angle_alpha   96.81179090
_cell_angle_beta   96.81178898
_cell_angle_gamma   96.81179626
_symmetry_Int_Tables_number   1
_chemical_formula_structural   Rb2Mn(BrO3)6
_chemical_formula_sum   'Rb2 Mn1 Br6 O18'
_cell_volume   472.81267035
_cell_formula_units_Z   1
loop_
 _symmetry_equiv_pos_site_id
 _symmetry_equiv_pos_as_xyz
  1  'x, y, z'
loop_
 _atom_site_type_symbol
 _atom_site_label
 _atom_site_symmetry_multiplicity
 _atom_site_fract_x
 _atom_site_fract_y
 _atom_site_fract_z
 _atom_site_occupancy
  Rb  Rb0  1  0.822701  0.822701  0.822701  1
  Rb  Rb1  1  0.177299  0.177299  0.177299  1
  Mn  Mn2  1  0.500000  0.500000  0.500000  1
  Br  Br3  1  0.296949  0.824488  0.672842  1
  Br  Br4  1  0.175512  0.327158  0.703051  1
  Br  Br5  1  0.824488  0.672842  0.296949  1
  Br  Br6  1  0.672842  0.296949  0.824488  1
  Br  Br7  1  0.703051  0.175512  0.327158  1
  Br  Br8  1  0.327158  0.703051  0.175512  1
  O  O9  1  0.299338  0.368774  0.893812  1
  O  O10  1  0.368774  0.893812  0.299338  1
  O  O11  1  0.106188  0.700662  0.631226  1
  O  O12  1  0.118787  0.669364  0.099446  1
  O  O13  1  0.329888  0.318243  0.549278  1
  O  O14  1  0.669364  0.099446  0.118787  1
  O  O15  1  0.893812  0.299338  0.368774  1
  O  O16  1  0.330636  0.900554  0.881213  1
  O  O17  1  0.670112  0.681757  0.450722  1
  O  O18  1  0.318243  0.549278  0.329888  1
  O  O19  1  0.700662  0.631226  0.106188  1
  O  O20  1  0.681757  0.450722  0.670112  1
  O  O21  1  0.631226  0.106188  0.700662  1
  O  O22  1  0.099446  0.118787  0.669364  1
  O  O23  1  0.900554  0.881213  0.330636  1
  O  O24  1  0.549278  0.329888  0.318243  1
  O  O25  1  0.881213  0.330636  0.900554  1
  O  O26  1  0.450722  0.670112  0.681757  1
