# generated using pymatgen
data_Ce2DyTm5(Si3Rh)4
_symmetry_space_group_name_H-M   'P 1'
_cell_length_a   8.14947803
_cell_length_b   8.15062039
_cell_length_c   7.91046900
_cell_angle_alpha   90.00000000
_cell_angle_beta   90.00000000
_cell_angle_gamma   120.00463052
_symmetry_Int_Tables_number   1
_chemical_formula_structural   Ce2DyTm5(Si3Rh)4
_chemical_formula_sum   'Ce2 Dy1 Tm5 Si12 Rh4'
_cell_volume   455.02269467
_cell_formula_units_Z   1
loop_
 _symmetry_equiv_pos_site_id
 _symmetry_equiv_pos_as_xyz
  1  'x, y, z'
loop_
 _atom_site_type_symbol
 _atom_site_label
 _atom_site_symmetry_multiplicity
 _atom_site_fract_x
 _atom_site_fract_y
 _atom_site_fract_z
 _atom_site_occupancy
  Ce  Ce0  1  0.999873  0.999936  0.250000  1
  Ce  Ce1  1  0.999953  0.999976  0.750000  1
  Dy  Dy2  1  0.017988  0.508994  0.750000  1
  Tm  Tm3  1  0.508735  0.491116  0.250000  1
  Tm  Tm4  1  0.508735  0.017620  0.250000  1
  Tm  Tm5  1  0.982281  0.491141  0.250000  1
  Tm  Tm6  1  0.491817  0.508615  0.750000  1
  Tm  Tm7  1  0.491817  0.983200  0.750000  1
  Si  Si8  1  0.168072  0.832706  0.500483  1
  Si  Si9  1  0.168072  0.335367  0.500483  1
  Si  Si10  1  0.664585  0.832293  0.501556  1
  Si  Si11  1  0.832120  0.167337  0.498137  1
  Si  Si12  1  0.832120  0.664782  0.498137  1
  Si  Si13  1  0.334906  0.167452  0.498319  1
  Si  Si14  1  0.832120  0.167337  0.001863  1
  Si  Si15  1  0.832120  0.664782  0.001863  1
  Si  Si16  1  0.334906  0.167452  0.001681  1
  Si  Si17  1  0.168072  0.832706  0.999517  1
  Si  Si18  1  0.168072  0.335367  0.999517  1
  Si  Si19  1  0.664585  0.832293  0.998444  1
  Rh  Rh20  1  0.333895  0.666948  0.464626  1
  Rh  Rh21  1  0.665632  0.332816  0.532113  1
  Rh  Rh22  1  0.665632  0.332816  0.967887  1
  Rh  Rh23  1  0.333895  0.666948  0.035374  1
