# generated using pymatgen
data_Eu4Cd3SnAu4
_symmetry_space_group_name_H-M   'P 1'
_cell_length_a   4.60693000
_cell_length_b   7.63456178
_cell_length_c   8.91072081
_cell_angle_alpha   88.77333126
_cell_angle_beta   90.00000000
_cell_angle_gamma   90.00000000
_symmetry_Int_Tables_number   1
_chemical_formula_structural   Eu4Cd3SnAu4
_chemical_formula_sum   'Eu4 Cd3 Sn1 Au4'
_cell_volume   313.33508285
_cell_formula_units_Z   1
loop_
 _symmetry_equiv_pos_site_id
 _symmetry_equiv_pos_as_xyz
  1  'x, y, z'
loop_
 _atom_site_type_symbol
 _atom_site_label
 _atom_site_symmetry_multiplicity
 _atom_site_fract_x
 _atom_site_fract_y
 _atom_site_fract_z
 _atom_site_occupancy
  Eu  Eu0  1  0.750000  0.463170  0.814711  1
  Eu  Eu1  1  0.250000  0.034651  0.316708  1
  Eu  Eu2  1  0.750000  0.963198  0.683995  1
  Eu  Eu3  1  0.250000  0.539022  0.183553  1
  Cd  Cd4  1  0.250000  0.143449  0.940035  1
  Cd  Cd5  1  0.750000  0.351093  0.437067  1
  Cd  Cd6  1  0.750000  0.855249  0.059755  1
  Sn  Sn7  1  0.250000  0.646404  0.559922  1
  Au  Au8  1  0.250000  0.756729  0.875524  1
  Au  Au9  1  0.250000  0.260470  0.625859  1
  Au  Au10  1  0.750000  0.742451  0.376737  1
  Au  Au11  1  0.750000  0.244114  0.126134  1
