# generated using pymatgen
data_Tb19DyPt12
_symmetry_space_group_name_H-M   'P 1'
_cell_length_a   11.10156400
_cell_length_b   11.10139300
_cell_length_c   6.45087900
_cell_angle_alpha   90.00000000
_cell_angle_beta   90.00000000
_cell_angle_gamma   90.00027870
_symmetry_Int_Tables_number   1
_chemical_formula_structural   Tb19DyPt12
_chemical_formula_sum   'Tb19 Dy1 Pt12'
_cell_volume   795.02455091
_cell_formula_units_Z   1
loop_
 _symmetry_equiv_pos_site_id
 _symmetry_equiv_pos_as_xyz
  1  'x, y, z'
loop_
 _atom_site_type_symbol
 _atom_site_label
 _atom_site_symmetry_multiplicity
 _atom_site_fract_x
 _atom_site_fract_y
 _atom_site_fract_z
 _atom_site_occupancy
  Tb  Tb0  1  0.292841  0.089104  0.376870  1
  Tb  Tb1  1  0.292860  0.910903  0.876874  1
  Tb  Tb2  1  0.707140  0.089097  0.876874  1
  Tb  Tb3  1  0.707159  0.910896  0.376870  1
  Tb  Tb4  1  0.589091  0.792737  0.876877  1
  Tb  Tb5  1  0.589038  0.207345  0.377011  1
  Tb  Tb6  1  0.410962  0.792655  0.377011  1
  Tb  Tb7  1  0.410909  0.207263  0.876877  1
  Tb  Tb8  1  0.206861  0.411055  0.622851  1
  Tb  Tb9  1  0.206777  0.588994  0.123013  1
  Tb  Tb10  1  0.793223  0.411006  0.123013  1
  Tb  Tb11  1  0.793139  0.588945  0.622851  1
  Tb  Tb12  1  0.910995  0.706652  0.123014  1
  Tb  Tb13  1  0.910994  0.293334  0.623001  1
  Tb  Tb14  1  0.089006  0.706666  0.623001  1
  Tb  Tb15  1  0.089005  0.293348  0.123014  1
  Tb  Tb16  1  0.000000  0.000000  0.500562  1
  Tb  Tb17  1  0.000000  0.000000  0.000564  1
  Tb  Tb18  1  0.500000  0.500000  0.000576  1
  Dy  Dy19  1  0.500000  0.500000  0.500569  1
  Pt  Pt20  1  0.000000  0.500000  0.880220  1
  Pt  Pt21  1  0.000000  0.500000  0.380244  1
  Pt  Pt22  1  0.846078  0.153501  0.250223  1
  Pt  Pt23  1  0.846084  0.846493  0.750216  1
  Pt  Pt24  1  0.153916  0.153507  0.750216  1
  Pt  Pt25  1  0.153922  0.846499  0.250223  1
  Pt  Pt26  1  0.653227  0.346376  0.749728  1
  Pt  Pt27  1  0.653216  0.653643  0.250722  1
  Pt  Pt28  1  0.346784  0.346357  0.250722  1
  Pt  Pt29  1  0.346773  0.653624  0.749728  1
  Pt  Pt30  1  0.500000  0.000000  0.118234  1
  Pt  Pt31  1  0.500000  0.000000  0.618235  1
