# generated using pymatgen
data_YTm3Fe8(PIr)12
_symmetry_space_group_name_H-M   'P 1'
_cell_length_a   3.84419300
_cell_length_b   10.47477906
_cell_length_c   12.28808306
_cell_angle_alpha   90.01160091
_cell_angle_beta   90.00000000
_cell_angle_gamma   90.00000000
_symmetry_Int_Tables_number   1
_chemical_formula_structural   YTm3Fe8(PIr)12
_chemical_formula_sum   'Y1 Tm3 Fe8 P12 Ir12'
_cell_volume   494.80511918
_cell_formula_units_Z   1
loop_
 _symmetry_equiv_pos_site_id
 _symmetry_equiv_pos_as_xyz
  1  'x, y, z'
loop_
 _atom_site_type_symbol
 _atom_site_label
 _atom_site_symmetry_multiplicity
 _atom_site_fract_x
 _atom_site_fract_y
 _atom_site_fract_z
 _atom_site_occupancy
  Y  Y0  1  0.250000  0.578764  0.713022  1
  Tm  Tm1  1  0.250000  0.921296  0.212968  1
  Tm  Tm2  1  0.750000  0.420872  0.287228  1
  Tm  Tm3  1  0.750000  0.078899  0.786968  1
  Fe  Fe4  1  0.250000  0.875521  0.697210  1
  Fe  Fe5  1  0.250000  0.624806  0.198054  1
  Fe  Fe6  1  0.750000  0.124987  0.302293  1
  Fe  Fe7  1  0.750000  0.374356  0.802900  1
  Fe  Fe8  1  0.250000  0.457081  0.936741  1
  Fe  Fe9  1  0.250000  0.042567  0.435570  1
  Fe  Fe10  1  0.750000  0.542324  0.064942  1
  Fe  Fe11  1  0.750000  0.957900  0.563874  1
  P  P12  1  0.250000  0.441654  0.112964  1
  P  P13  1  0.250000  0.058429  0.612113  1
  P  P14  1  0.750000  0.558304  0.889018  1
  P  P15  1  0.750000  0.941994  0.387506  1
  P  P16  1  0.250000  0.271120  0.862857  1
  P  P17  1  0.250000  0.228596  0.362499  1
  P  P18  1  0.750000  0.728844  0.137203  1
  P  P19  1  0.750000  0.771919  0.636704  1
  P  P20  1  0.250000  0.599809  0.376861  1
  P  P21  1  0.250000  0.900058  0.876271  1
  P  P22  1  0.750000  0.399360  0.622761  1
  P  P23  1  0.750000  0.099754  0.123544  1
  Ir  Ir24  1  0.250000  0.718761  0.991000  1
  Ir  Ir25  1  0.250000  0.781767  0.489954  1
  Ir  Ir26  1  0.750000  0.280949  0.009612  1
  Ir  Ir27  1  0.750000  0.218457  0.509214  1
  Ir  Ir28  1  0.250000  0.408976  0.473532  1
  Ir  Ir29  1  0.250000  0.090178  0.973624  1
  Ir  Ir30  1  0.750000  0.590550  0.524376  1
  Ir  Ir31  1  0.750000  0.909625  0.026426  1
  Ir  Ir32  1  0.250000  0.232309  0.173492  1
  Ir  Ir33  1  0.250000  0.267207  0.673540  1
  Ir  Ir34  1  0.750000  0.768700  0.827008  1
  Ir  Ir35  1  0.750000  0.733309  0.326149  1
