# generated using pymatgen
data_CePr4Ni4P3
_symmetry_space_group_name_H-M   'P 1'
_cell_length_a   4.09732100
_cell_length_b   4.09731982
_cell_length_c   16.84790400
_cell_angle_alpha   90.00000000
_cell_angle_beta   90.00000000
_cell_angle_gamma   120.00000145
_symmetry_Int_Tables_number   1
_chemical_formula_structural   CePr4Ni4P3
_chemical_formula_sum   'Ce1 Pr4 Ni4 P3'
_cell_volume   244.94938801
_cell_formula_units_Z   1
loop_
 _symmetry_equiv_pos_site_id
 _symmetry_equiv_pos_as_xyz
  1  'x, y, z'
loop_
 _atom_site_type_symbol
 _atom_site_label
 _atom_site_symmetry_multiplicity
 _atom_site_fract_x
 _atom_site_fract_y
 _atom_site_fract_z
 _atom_site_occupancy
  Ce  Ce0  1  0.333333  0.666667  0.874034  1
  Pr  Pr1  1  0.000000  0.000000  0.492661  1
  Pr  Pr2  1  0.000000  0.000000  0.025861  1
  Pr  Pr3  1  0.000000  0.000000  0.257807  1
  Pr  Pr4  1  0.000000  0.000000  0.723923  1
  Ni  Ni5  1  0.333333  0.666667  0.376444  1
  Ni  Ni6  1  0.666667  0.333333  0.615973  1
  Ni  Ni7  1  0.666667  0.333333  0.874526  1
  Ni  Ni8  1  0.333333  0.666667  0.130179  1
  P  P9  1  0.666667  0.333333  0.140386  1
  P  P10  1  0.666667  0.333333  0.376329  1
  P  P11  1  0.333333  0.666667  0.611878  1
