# generated using pymatgen
data_YEr3Zn2(Co2B)6
_symmetry_space_group_name_H-M   'P 1'
_cell_length_a   5.08609693
_cell_length_b   5.08521272
_cell_length_c   12.64319600
_cell_angle_alpha   90.00000000
_cell_angle_beta   90.00000000
_cell_angle_gamma   120.06959161
_symmetry_Int_Tables_number   1
_chemical_formula_structural   YEr3Zn2(Co2B)6
_chemical_formula_sum   'Y1 Er3 Zn2 Co12 B6'
_cell_volume   282.99338418
_cell_formula_units_Z   1
loop_
 _symmetry_equiv_pos_site_id
 _symmetry_equiv_pos_as_xyz
  1  'x, y, z'
loop_
 _atom_site_type_symbol
 _atom_site_label
 _atom_site_symmetry_multiplicity
 _atom_site_fract_x
 _atom_site_fract_y
 _atom_site_fract_z
 _atom_site_occupancy
  Y  Y0  1  0.000000  0.000000  0.000000  1
  Er  Er1  1  0.000000  0.000000  0.500000  1
  Er  Er2  1  0.000000  0.000000  0.739089  1
  Er  Er3  1  0.000000  0.000000  0.260911  1
  Zn  Zn4  1  0.666736  0.333186  0.000000  1
  Zn  Zn5  1  0.333264  0.666814  0.000000  1
  Co  Co6  1  0.500000  0.500000  0.838159  1
  Co  Co7  1  0.500000  0.000000  0.838252  1
  Co  Co8  1  0.000000  0.500000  0.838208  1
  Co  Co9  1  0.500000  0.500000  0.161841  1
  Co  Co10  1  0.500000  0.000000  0.161748  1
  Co  Co11  1  0.000000  0.500000  0.161792  1
  Co  Co12  1  0.500000  0.500000  0.613773  1
  Co  Co13  1  0.500000  0.000000  0.613804  1
  Co  Co14  1  0.000000  0.500000  0.613804  1
  Co  Co15  1  0.500000  0.500000  0.386227  1
  Co  Co16  1  0.500000  0.000000  0.386196  1
  Co  Co17  1  0.000000  0.500000  0.386196  1
  B  B18  1  0.666722  0.333224  0.500000  1
  B  B19  1  0.333278  0.666776  0.500000  1
  B  B20  1  0.666674  0.333254  0.730287  1
  B  B21  1  0.333326  0.666746  0.730287  1
  B  B22  1  0.333326  0.666746  0.269713  1
  B  B23  1  0.666674  0.333254  0.269713  1
