# generated using pymatgen
data_Tm2Lu2B12IrRh
_symmetry_space_group_name_H-M   'P 1'
_cell_length_a   3.59702900
_cell_length_b   9.08996761
_cell_length_c   11.42187952
_cell_angle_alpha   90.10204414
_cell_angle_beta   90.00000000
_cell_angle_gamma   90.00000000
_symmetry_Int_Tables_number   1
_chemical_formula_structural   Tm2Lu2B12IrRh
_chemical_formula_sum   'Tm4 Lu4 B24 Ir2 Rh2'
_cell_volume   373.45919868
_cell_formula_units_Z   2
loop_
 _symmetry_equiv_pos_site_id
 _symmetry_equiv_pos_as_xyz
  1  'x, y, z'
loop_
 _atom_site_type_symbol
 _atom_site_label
 _atom_site_symmetry_multiplicity
 _atom_site_fract_x
 _atom_site_fract_y
 _atom_site_fract_z
 _atom_site_occupancy
  Tm  Tm0  1  0.500000  0.322102  0.414313  1
  Tm  Tm1  1  0.500000  0.677898  0.585687  1
  Tm  Tm2  1  0.500000  0.179798  0.913024  1
  Tm  Tm3  1  0.500000  0.820202  0.086976  1
  Lu  Lu4  1  0.500000  0.445380  0.126620  1
  Lu  Lu5  1  0.500000  0.554620  0.873380  1
  Lu  Lu6  1  0.500000  0.056343  0.625954  1
  Lu  Lu7  1  0.500000  0.943657  0.374046  1
  B  B8  1  0.000000  0.107326  0.470841  1
  B  B9  1  0.000000  0.892674  0.529159  1
  B  B10  1  0.000000  0.392786  0.971030  1
  B  B11  1  0.000000  0.607214  0.028970  1
  B  B12  1  0.000000  0.132234  0.316907  1
  B  B13  1  0.000000  0.867766  0.683093  1
  B  B14  1  0.000000  0.367040  0.816918  1
  B  B15  1  0.000000  0.632960  0.183082  1
  B  B16  1  0.000000  0.054297  0.065232  1
  B  B17  1  0.000000  0.945703  0.934768  1
  B  B18  1  0.000000  0.446226  0.564836  1
  B  B19  1  0.000000  0.553774  0.435164  1
  B  B20  1  0.000000  0.482126  0.286629  1
  B  B21  1  0.000000  0.517874  0.713371  1
  B  B22  1  0.000000  0.018052  0.786118  1
  B  B23  1  0.000000  0.981948  0.213882  1
  B  B24  1  0.000000  0.251057  0.079049  1
  B  B25  1  0.000000  0.748943  0.920951  1
  B  B26  1  0.000000  0.249783  0.579169  1
  B  B27  1  0.000000  0.750217  0.420831  1
  B  B28  1  0.000000  0.295004  0.235942  1
  B  B29  1  0.000000  0.704996  0.764058  1
  B  B30  1  0.000000  0.205024  0.736332  1
  B  B31  1  0.000000  0.794976  0.263668  1
  Ir  Ir32  1  0.500000  0.139531  0.178573  1
  Ir  Ir33  1  0.500000  0.860469  0.821427  1
  Rh  Rh34  1  0.500000  0.359911  0.679906  1
  Rh  Rh35  1  0.500000  0.640089  0.320094  1
