# generated using pymatgen
data_Gd3VFeC6
_symmetry_space_group_name_H-M   'P 1'
_cell_length_a   8.21771400
_cell_length_b   8.21771393
_cell_length_c   5.02426500
_cell_angle_alpha   90.00000000
_cell_angle_beta   90.00000000
_cell_angle_gamma   120.00000030
_symmetry_Int_Tables_number   1
_chemical_formula_structural   Gd3VFeC6
_chemical_formula_sum   'Gd6 V2 Fe2 C12'
_cell_volume   293.83613935
_cell_formula_units_Z   2
loop_
 _symmetry_equiv_pos_site_id
 _symmetry_equiv_pos_as_xyz
  1  'x, y, z'
loop_
 _atom_site_type_symbol
 _atom_site_label
 _atom_site_symmetry_multiplicity
 _atom_site_fract_x
 _atom_site_fract_y
 _atom_site_fract_z
 _atom_site_occupancy
  Gd  Gd0  1  0.621680  0.681691  0.750000  1
  Gd  Gd1  1  0.939989  0.621680  0.250000  1
  Gd  Gd2  1  0.681691  0.060011  0.250000  1
  Gd  Gd3  1  0.318309  0.939989  0.750000  1
  Gd  Gd4  1  0.060011  0.378320  0.750000  1
  Gd  Gd5  1  0.378320  0.318309  0.250000  1
  V  V6  1  0.000000  0.000000  0.500000  1
  V  V7  1  0.000000  0.000000  0.000000  1
  Fe  Fe8  1  0.666667  0.333333  0.750000  1
  Fe  Fe9  1  0.333333  0.666667  0.250000  1
  C  C10  1  0.958427  0.764225  0.750000  1
  C  C11  1  0.194203  0.958427  0.250000  1
  C  C12  1  0.764225  0.805797  0.250000  1
  C  C13  1  0.235775  0.194203  0.750000  1
  C  C14  1  0.805797  0.041573  0.750000  1
  C  C15  1  0.041573  0.235775  0.250000  1
  C  C16  1  0.864913  0.572526  0.750000  1
  C  C17  1  0.292387  0.864913  0.250000  1
  C  C18  1  0.572526  0.707613  0.250000  1
  C  C19  1  0.427474  0.292387  0.750000  1
  C  C20  1  0.135087  0.427474  0.250000  1
  C  C21  1  0.707613  0.135087  0.750000  1
