# generated using pymatgen
data_Tb10ZnBi6As
_symmetry_space_group_name_H-M   'P 1'
_cell_length_a   9.38723300
_cell_length_b   9.38723353
_cell_length_c   6.48131600
_cell_angle_alpha   90.00000000
_cell_angle_beta   90.00000000
_cell_angle_gamma   120.00000869
_symmetry_Int_Tables_number   1
_chemical_formula_structural   Tb10ZnBi6As
_chemical_formula_sum   'Tb10 Zn1 Bi6 As1'
_cell_volume   494.61696676
_cell_formula_units_Z   1
loop_
 _symmetry_equiv_pos_site_id
 _symmetry_equiv_pos_as_xyz
  1  'x, y, z'
loop_
 _atom_site_type_symbol
 _atom_site_label
 _atom_site_symmetry_multiplicity
 _atom_site_fract_x
 _atom_site_fract_y
 _atom_site_fract_z
 _atom_site_occupancy
  Tb  Tb0  1  0.666667  0.333333  0.500000  1
  Tb  Tb1  1  0.333333  0.666667  0.500000  1
  Tb  Tb2  1  0.333333  0.666667  0.000000  1
  Tb  Tb3  1  0.666667  0.333333  0.000000  1
  Tb  Tb4  1  0.744628  0.744628  0.250762  1
  Tb  Tb5  1  0.255372  0.000000  0.250762  1
  Tb  Tb6  1  0.000000  0.255372  0.250762  1
  Tb  Tb7  1  0.255372  0.255372  0.749238  1
  Tb  Tb8  1  0.744628  0.000000  0.749238  1
  Tb  Tb9  1  0.000000  0.744628  0.749238  1
  Zn  Zn10  1  0.000000  0.000000  0.000000  1
  Bi  Bi11  1  0.390343  0.390343  0.248920  1
  Bi  Bi12  1  0.609657  0.000000  0.248920  1
  Bi  Bi13  1  0.000000  0.609657  0.248920  1
  Bi  Bi14  1  0.609657  0.609657  0.751080  1
  Bi  Bi15  1  0.390343  0.000000  0.751080  1
  Bi  Bi16  1  0.000000  0.390343  0.751080  1
  As  As17  1  0.000000  0.000000  0.500000  1
