# generated using pymatgen
data_Y4HfPt3F28
_symmetry_space_group_name_H-M   'P 1'
_cell_length_a   5.59891554
_cell_length_b   8.96017797
_cell_length_c   12.07310386
_cell_angle_alpha   62.40655269
_cell_angle_beta   90.05909761
_cell_angle_gamma   90.08221603
_symmetry_Int_Tables_number   1
_chemical_formula_structural   Y4HfPt3F28
_chemical_formula_sum   'Y4 Hf1 Pt3 F28'
_cell_volume   536.78264579
_cell_formula_units_Z   1
loop_
 _symmetry_equiv_pos_site_id
 _symmetry_equiv_pos_as_xyz
  1  'x, y, z'
loop_
 _atom_site_type_symbol
 _atom_site_label
 _atom_site_symmetry_multiplicity
 _atom_site_fract_x
 _atom_site_fract_y
 _atom_site_fract_z
 _atom_site_occupancy
  Y  Y0  1  0.258390  0.812939  0.268469  1
  Y  Y1  1  0.739963  0.186303  0.735785  1
  Y  Y2  1  0.761208  0.182767  0.237647  1
  Y  Y3  1  0.240181  0.814837  0.762193  1
  Hf  Hf4  1  0.755776  0.724820  0.043566  1
  Pt  Pt5  1  0.240028  0.273054  0.956556  1
  Pt  Pt6  1  0.259802  0.272281  0.457177  1
  Pt  Pt7  1  0.741163  0.725804  0.544190  1
  F  F8  1  0.934438  0.702944  0.416761  1
  F  F9  1  0.064538  0.295836  0.583557  1
  F  F10  1  0.435036  0.295727  0.083978  1
  F  F11  1  0.543979  0.710694  0.915865  1
  F  F12  1  0.474581  0.731314  0.143997  1
  F  F13  1  0.529899  0.275271  0.863546  1
  F  F14  1  0.969120  0.272550  0.364797  1
  F  F15  1  0.033059  0.726028  0.635007  1
  F  F16  1  0.959595  0.748885  0.172477  1
  F  F17  1  0.051785  0.257061  0.824103  1
  F  F18  1  0.451668  0.256109  0.325627  1
  F  F19  1  0.553232  0.742731  0.676034  1
  F  F20  1  0.775114  0.473125  0.140803  1
  F  F21  1  0.224407  0.520446  0.857229  1
  F  F22  1  0.270077  0.519841  0.359574  1
  F  F23  1  0.729963  0.478301  0.642270  1
  F  F24  1  0.942632  0.276893  0.043730  1
  F  F25  1  0.055203  0.722992  0.951455  1
  F  F26  1  0.442392  0.718026  0.459829  1
  F  F27  1  0.557178  0.280295  0.542403  1
  F  F28  1  0.742396  0.973247  0.450816  1
  F  F29  1  0.258634  0.024823  0.549128  1
  F  F30  1  0.243505  0.025727  0.051062  1
  F  F31  1  0.760153  0.976029  0.941762  1
  F  F32  1  0.584088  0.968772  0.233607  1
  F  F33  1  0.415402  0.031719  0.765395  1
  F  F34  1  0.085290  0.030010  0.269973  1
  F  F35  1  0.916124  0.971798  0.729635  1
