# generated using pymatgen
data_Ag3RhF6
_symmetry_space_group_name_H-M   'P 1'
_cell_length_a   5.95505168
_cell_length_b   6.06370700
_cell_length_c   8.49563346
_cell_angle_alpha   90.00000000
_cell_angle_beta   90.67349378
_cell_angle_gamma   90.00000000
_symmetry_Int_Tables_number   1
_chemical_formula_structural   Ag3RhF6
_chemical_formula_sum   'Ag6 Rh2 F12'
_cell_volume   306.75348453
_cell_formula_units_Z   2
loop_
 _symmetry_equiv_pos_site_id
 _symmetry_equiv_pos_as_xyz
  1  'x, y, z'
loop_
 _atom_site_type_symbol
 _atom_site_label
 _atom_site_symmetry_multiplicity
 _atom_site_fract_x
 _atom_site_fract_y
 _atom_site_fract_z
 _atom_site_occupancy
  Ag  Ag0  1  0.000000  0.000000  0.500000  1
  Ag  Ag1  1  0.500000  0.500000  0.000000  1
  Ag  Ag2  1  0.982557  0.560079  0.255914  1
  Ag  Ag3  1  0.017443  0.439921  0.744086  1
  Ag  Ag4  1  0.517443  0.060079  0.244086  1
  Ag  Ag5  1  0.482557  0.939921  0.755914  1
  Rh  Rh6  1  0.000000  0.000000  0.000000  1
  Rh  Rh7  1  0.500000  0.500000  0.500000  1
  F  F8  1  0.843375  0.277010  0.074809  1
  F  F9  1  0.156625  0.722990  0.925191  1
  F  F10  1  0.656625  0.777010  0.425191  1
  F  F11  1  0.343375  0.222990  0.574809  1
  F  F12  1  0.121426  0.936704  0.219108  1
  F  F13  1  0.878574  0.063296  0.780892  1
  F  F14  1  0.378574  0.436704  0.280892  1
  F  F15  1  0.621426  0.563296  0.719108  1
  F  F16  1  0.718495  0.830898  0.054912  1
  F  F17  1  0.281505  0.169102  0.945088  1
  F  F18  1  0.781505  0.330898  0.445088  1
  F  F19  1  0.218495  0.669102  0.554912  1
