# generated using pymatgen
data_Dy4Lu4V(CoB8)3
_symmetry_space_group_name_H-M   'P 1'
_cell_length_a   3.53335800
_cell_length_b   9.06038021
_cell_length_c   11.44965907
_cell_angle_alpha   90.23546778
_cell_angle_beta   90.00000000
_cell_angle_gamma   90.00000000
_symmetry_Int_Tables_number   1
_chemical_formula_structural   Dy4Lu4V(CoB8)3
_chemical_formula_sum   'Dy4 Lu4 V1 Co3 B24'
_cell_volume   366.54133120
_cell_formula_units_Z   1
loop_
 _symmetry_equiv_pos_site_id
 _symmetry_equiv_pos_as_xyz
  1  'x, y, z'
loop_
 _atom_site_type_symbol
 _atom_site_label
 _atom_site_symmetry_multiplicity
 _atom_site_fract_x
 _atom_site_fract_y
 _atom_site_fract_z
 _atom_site_occupancy
  Dy  Dy0  1  0.000000  0.823787  0.085383  1
  Dy  Dy1  1  0.000000  0.176177  0.915428  1
  Dy  Dy2  1  0.000000  0.322465  0.413557  1
  Dy  Dy3  1  0.000000  0.675491  0.584628  1
  Lu  Lu4  1  0.000000  0.446187  0.127937  1
  Lu  Lu5  1  0.000000  0.557579  0.869209  1
  Lu  Lu6  1  0.000000  0.943394  0.372763  1
  Lu  Lu7  1  0.000000  0.056352  0.631192  1
  V  V8  1  0.000000  0.140039  0.180478  1
  Co  Co9  1  0.000000  0.858822  0.818587  1
  Co  Co10  1  0.000000  0.640203  0.319853  1
  Co  Co11  1  0.000000  0.359709  0.680640  1
  B  B12  1  0.500000  0.052449  0.065969  1
  B  B13  1  0.500000  0.945494  0.931803  1
  B  B14  1  0.500000  0.554377  0.432577  1
  B  B15  1  0.500000  0.444993  0.567406  1
  B  B16  1  0.500000  0.251573  0.080307  1
  B  B17  1  0.500000  0.752145  0.916935  1
  B  B18  1  0.500000  0.747623  0.417712  1
  B  B19  1  0.500000  0.251135  0.582568  1
  B  B20  1  0.500000  0.296021  0.235836  1
  B  B21  1  0.500000  0.707521  0.764045  1
  B  B22  1  0.500000  0.791784  0.265299  1
  B  B23  1  0.500000  0.208844  0.735977  1
  B  B24  1  0.500000  0.132115  0.317002  1
  B  B25  1  0.500000  0.866416  0.683842  1
  B  B26  1  0.500000  0.633270  0.184852  1
  B  B27  1  0.500000  0.367834  0.816115  1
  B  B28  1  0.500000  0.486291  0.288203  1
  B  B29  1  0.500000  0.513551  0.711737  1
  B  B30  1  0.500000  0.980851  0.213559  1
  B  B31  1  0.500000  0.012920  0.787813  1
  B  B32  1  0.500000  0.103851  0.473945  1
  B  B33  1  0.500000  0.895561  0.529241  1
  B  B34  1  0.500000  0.604667  0.027137  1
  B  B35  1  0.500000  0.398512  0.970465  1
