# generated using pymatgen
data_DyLu2Mg(ZnPt)4
_symmetry_space_group_name_H-M   'P 1'
_cell_length_a   4.18156500
_cell_length_b   6.71562205
_cell_length_c   8.01921282
_cell_angle_alpha   92.02188254
_cell_angle_beta   90.00000000
_cell_angle_gamma   90.00000000
_symmetry_Int_Tables_number   1
_chemical_formula_structural   DyLu2Mg(ZnPt)4
_chemical_formula_sum   'Dy1 Lu2 Mg1 Zn4 Pt4'
_cell_volume   225.05381136
_cell_formula_units_Z   1
loop_
 _symmetry_equiv_pos_site_id
 _symmetry_equiv_pos_as_xyz
  1  'x, y, z'
loop_
 _atom_site_type_symbol
 _atom_site_label
 _atom_site_symmetry_multiplicity
 _atom_site_fract_x
 _atom_site_fract_y
 _atom_site_fract_z
 _atom_site_occupancy
  Dy  Dy0  1  0.250000  0.036633  0.311983  1
  Lu  Lu1  1  0.750000  0.465899  0.825114  1
  Lu  Lu2  1  0.750000  0.957936  0.680684  1
  Mg  Mg3  1  0.250000  0.539234  0.178935  1
  Zn  Zn4  1  0.250000  0.634919  0.555776  1
  Zn  Zn5  1  0.750000  0.363294  0.442351  1
  Zn  Zn6  1  0.750000  0.854537  0.062571  1
  Zn  Zn7  1  0.250000  0.146324  0.940701  1
  Pt  Pt8  1  0.250000  0.755738  0.876195  1
  Pt  Pt9  1  0.750000  0.254105  0.122686  1
  Pt  Pt10  1  0.750000  0.739949  0.372923  1
  Pt  Pt11  1  0.250000  0.251432  0.630081  1
