# generated using pymatgen
data_Sc2Tc3Ge4
_symmetry_space_group_name_H-M   'P 1'
_cell_length_a   6.78003356
_cell_length_b   6.82618760
_cell_length_c   12.63899800
_cell_angle_alpha   90.00000000
_cell_angle_beta   90.00000000
_cell_angle_gamma   90.19969723
_symmetry_Int_Tables_number   1
_chemical_formula_structural   Sc2Tc3Ge4
_chemical_formula_sum   'Sc8 Tc12 Ge16'
_cell_volume   584.95178454
_cell_formula_units_Z   4
loop_
 _symmetry_equiv_pos_site_id
 _symmetry_equiv_pos_as_xyz
  1  'x, y, z'
loop_
 _atom_site_type_symbol
 _atom_site_label
 _atom_site_symmetry_multiplicity
 _atom_site_fract_x
 _atom_site_fract_y
 _atom_site_fract_z
 _atom_site_occupancy
  Sc  Sc0  1  0.012010  0.169607  0.089686  1
  Sc  Sc1  1  0.518665  0.329497  0.409363  1
  Sc  Sc2  1  0.486977  0.668552  0.910615  1
  Sc  Sc3  1  0.981215  0.829302  0.590042  1
  Sc  Sc4  1  0.981215  0.829302  0.909958  1
  Sc  Sc5  1  0.486977  0.668552  0.589385  1
  Sc  Sc6  1  0.518665  0.329497  0.090637  1
  Sc  Sc7  1  0.012010  0.169607  0.410314  1
  Tc  Tc8  1  0.324423  0.991589  0.750000  1
  Tc  Tc9  1  0.667480  0.014093  0.250000  1
  Tc  Tc10  1  0.177895  0.493389  0.250000  1
  Tc  Tc11  1  0.831270  0.509525  0.750000  1
  Tc  Tc12  1  0.834043  0.641499  0.120910  1
  Tc  Tc13  1  0.309014  0.860672  0.374040  1
  Tc  Tc14  1  0.670561  0.138148  0.876536  1
  Tc  Tc15  1  0.187555  0.358787  0.625741  1
  Tc  Tc16  1  0.187555  0.358787  0.874259  1
  Tc  Tc17  1  0.670561  0.138148  0.623464  1
  Tc  Tc18  1  0.309014  0.860672  0.125960  1
  Tc  Tc19  1  0.834043  0.641499  0.379090  1
  Ge  Ge20  1  0.817877  0.352684  0.250000  1
  Ge  Ge21  1  0.313257  0.156946  0.250000  1
  Ge  Ge22  1  0.682761  0.846353  0.750000  1
  Ge  Ge23  1  0.186035  0.655132  0.750000  1
  Ge  Ge24  1  0.013301  0.867656  0.250000  1
  Ge  Ge25  1  0.526982  0.643265  0.250000  1
  Ge  Ge26  1  0.483877  0.365300  0.750000  1
  Ge  Ge27  1  0.975849  0.138707  0.750000  1
  Ge  Ge28  1  0.831700  0.445681  0.949509  1
  Ge  Ge29  1  0.322696  0.048080  0.547961  1
  Ge  Ge30  1  0.666216  0.945619  0.050286  1
  Ge  Ge31  1  0.178846  0.547237  0.452036  1
  Ge  Ge32  1  0.178846  0.547237  0.047964  1
  Ge  Ge33  1  0.666216  0.945619  0.449714  1
  Ge  Ge34  1  0.322696  0.048080  0.952039  1
  Ge  Ge35  1  0.831700  0.445681  0.550491  1
