# generated using pymatgen
data_Th2Mn12Si5C2
_symmetry_space_group_name_H-M   'P 1'
_cell_length_a   6.56229874
_cell_length_b   6.50200987
_cell_length_c   6.56229846
_cell_angle_alpha   83.23945981
_cell_angle_beta   84.38957349
_cell_angle_gamma   83.23945485
_symmetry_Int_Tables_number   1
_chemical_formula_structural   Th2Mn12Si5C2
_chemical_formula_sum   'Th2 Mn12 Si5 C2'
_cell_volume   275.11944995
_cell_formula_units_Z   1
loop_
 _symmetry_equiv_pos_site_id
 _symmetry_equiv_pos_as_xyz
  1  'x, y, z'
loop_
 _atom_site_type_symbol
 _atom_site_label
 _atom_site_symmetry_multiplicity
 _atom_site_fract_x
 _atom_site_fract_y
 _atom_site_fract_z
 _atom_site_occupancy
  Th  Th0  1  0.649398  0.670822  0.649398  1
  Th  Th1  1  0.350602  0.329178  0.350602  1
  Mn  Mn2  1  0.851900  0.338656  0.345191  1
  Mn  Mn3  1  0.345191  0.338656  0.851900  1
  Mn  Mn4  1  0.148100  0.661344  0.654809  1
  Mn  Mn5  1  0.654809  0.661344  0.148100  1
  Mn  Mn6  1  0.500000  0.000000  0.000000  1
  Mn  Mn7  1  0.000000  0.000000  0.500000  1
  Mn  Mn8  1  0.997205  0.290670  0.720390  1
  Mn  Mn9  1  0.279610  0.709330  0.002795  1
  Mn  Mn10  1  0.002795  0.709330  0.279610  1
  Mn  Mn11  1  0.720390  0.290670  0.997205  1
  Mn  Mn12  1  0.895484  0.899945  0.895484  1
  Mn  Mn13  1  0.104516  0.100055  0.104516  1
  Si  Si14  1  0.325540  0.838811  0.325540  1
  Si  Si15  1  0.674460  0.161189  0.674460  1
  Si  Si16  1  0.000000  0.500000  0.000000  1
  Si  Si17  1  0.757684  0.000000  0.242316  1
  Si  Si18  1  0.242316  0.000000  0.757684  1
  C  C19  1  0.000000  0.500000  0.500000  1
  C  C20  1  0.500000  0.500000  0.000000  1
