# generated using pymatgen
data_TmLu3(ScAu)4
_symmetry_space_group_name_H-M   'P 1'
_cell_length_a   4.72257500
_cell_length_b   7.07845106
_cell_length_c   8.50680400
_cell_angle_alpha   90.37801909
_cell_angle_beta   90.00000000
_cell_angle_gamma   90.00000000
_symmetry_Int_Tables_number   1
_chemical_formula_structural   TmLu3(ScAu)4
_chemical_formula_sum   'Tm1 Lu3 Sc4 Au4'
_cell_volume   284.36364454
_cell_formula_units_Z   1
loop_
 _symmetry_equiv_pos_site_id
 _symmetry_equiv_pos_as_xyz
  1  'x, y, z'
loop_
 _atom_site_type_symbol
 _atom_site_label
 _atom_site_symmetry_multiplicity
 _atom_site_fract_x
 _atom_site_fract_y
 _atom_site_fract_z
 _atom_site_occupancy
  Tm  Tm0  1  0.750000  0.516183  0.824136  1
  Lu  Lu1  1  0.250000  0.983590  0.322925  1
  Lu  Lu2  1  0.750000  0.018205  0.676250  1
  Lu  Lu3  1  0.250000  0.482184  0.176679  1
  Sc  Sc4  1  0.750000  0.643295  0.424210  1
  Sc  Sc5  1  0.250000  0.358638  0.575917  1
  Sc  Sc6  1  0.750000  0.142073  0.075770  1
  Sc  Sc7  1  0.250000  0.855249  0.923693  1
  Au  Au8  1  0.250000  0.246229  0.898183  1
  Au  Au9  1  0.750000  0.751656  0.103197  1
  Au  Au10  1  0.250000  0.750571  0.600187  1
  Au  Au11  1  0.750000  0.252130  0.398854  1
