# generated using pymatgen
data_Hf3Ta2Nb5N12
_symmetry_space_group_name_H-M   'P 1'
_cell_length_a   5.30154720
_cell_length_b   5.31067711
_cell_length_c   10.51941903
_cell_angle_alpha   89.99085161
_cell_angle_beta   90.00391061
_cell_angle_gamma   120.06892450
_symmetry_Int_Tables_number   1
_chemical_formula_structural   Hf3Ta2Nb5N12
_chemical_formula_sum   'Hf3 Ta2 Nb5 N12'
_cell_volume   256.31431470
_cell_formula_units_Z   1
loop_
 _symmetry_equiv_pos_site_id
 _symmetry_equiv_pos_as_xyz
  1  'x, y, z'
loop_
 _atom_site_type_symbol
 _atom_site_label
 _atom_site_symmetry_multiplicity
 _atom_site_fract_x
 _atom_site_fract_y
 _atom_site_fract_z
 _atom_site_occupancy
  Hf  Hf0  1  0.665713  0.332192  0.999880  1
  Hf  Hf1  1  0.334327  0.666424  0.999838  1
  Hf  Hf2  1  0.334387  0.666627  0.499838  1
  Ta  Ta3  1  0.001212  0.680254  0.251575  1
  Ta  Ta4  1  0.665834  0.332564  0.500308  1
  Nb  Nb5  1  0.677678  0.678534  0.748104  1
  Nb  Nb6  1  0.321268  0.998636  0.748061  1
  Nb  Nb7  1  0.001161  0.322708  0.748052  1
  Nb  Nb8  1  0.320715  0.322108  0.252078  1
  Nb  Nb9  1  0.678139  0.999136  0.252080  1
  N  N10  1  0.662225  0.652366  0.378631  1
  N  N11  1  0.343840  0.002729  0.378561  1
  N  N12  1  0.993509  0.346246  0.377954  1
  N  N13  1  0.347928  0.341301  0.620851  1
  N  N14  1  0.658559  0.006419  0.620831  1
  N  N15  1  0.993453  0.651246  0.620854  1
  N  N16  1  0.345416  0.345181  0.873788  1
  N  N17  1  0.654649  0.999947  0.873783  1
  N  N18  1  0.999951  0.653881  0.873790  1
  N  N19  1  0.658579  0.654754  0.126868  1
  N  N20  1  0.341578  0.996462  0.126849  1
  N  N21  1  0.999875  0.350288  0.127426  1
