# generated using pymatgen
data_Ca4Al17SiIr6
_symmetry_space_group_name_H-M   'P 1'
_cell_length_a   7.54645799
_cell_length_b   7.54644910
_cell_length_c   9.56626800
_cell_angle_alpha   90.00000000
_cell_angle_beta   90.00000000
_cell_angle_gamma   119.44147357
_symmetry_Int_Tables_number   1
_chemical_formula_structural   Ca4Al17SiIr6
_chemical_formula_sum   'Ca4 Al17 Si1 Ir6'
_cell_volume   474.43401188
_cell_formula_units_Z   1
loop_
 _symmetry_equiv_pos_site_id
 _symmetry_equiv_pos_as_xyz
  1  'x, y, z'
loop_
 _atom_site_type_symbol
 _atom_site_label
 _atom_site_symmetry_multiplicity
 _atom_site_fract_x
 _atom_site_fract_y
 _atom_site_fract_z
 _atom_site_occupancy
  Ca  Ca0  1  0.993341  0.677621  0.250000  1
  Ca  Ca1  1  0.003319  0.329628  0.750000  1
  Ca  Ca2  1  0.677621  0.993341  0.250000  1
  Ca  Ca3  1  0.329628  0.003318  0.750000  1
  Al  Al4  1  0.872344  0.872344  0.750000  1
  Al  Al5  1  0.002194  0.337119  0.070271  1
  Al  Al6  1  0.997669  0.665493  0.929971  1
  Al  Al7  1  0.997669  0.665493  0.570029  1
  Al  Al8  1  0.337118  0.002194  0.429729  1
  Al  Al9  1  0.002194  0.337119  0.429729  1
  Al  Al10  1  0.665494  0.997670  0.570029  1
  Al  Al11  1  0.665494  0.997670  0.929971  1
  Al  Al12  1  0.337118  0.002194  0.070271  1
  Al  Al13  1  0.332924  0.332924  0.552139  1
  Al  Al14  1  0.662508  0.662508  0.453898  1
  Al  Al15  1  0.662508  0.662508  0.046102  1
  Al  Al16  1  0.332924  0.332924  0.947861  1
  Al  Al17  1  0.333261  0.545029  0.250000  1
  Al  Al18  1  0.663604  0.453987  0.750000  1
  Al  Al19  1  0.545030  0.333262  0.250000  1
  Al  Al20  1  0.453988  0.663604  0.750000  1
  Si  Si21  1  0.136985  0.136985  0.250000  1
  Ir  Ir22  1  0.669598  0.327712  0.000959  1
  Ir  Ir23  1  0.327712  0.669597  0.000958  1
  Ir  Ir24  1  0.327712  0.669597  0.499042  1
  Ir  Ir25  1  0.669598  0.327712  0.499041  1
  Ir  Ir26  1  0.000220  0.000220  0.007775  1
  Ir  Ir27  1  0.000220  0.000220  0.492225  1
