# generated using pymatgen
data_Ho7Er4TmCo4
_symmetry_space_group_name_H-M   'P 1'
_cell_length_a   6.14856190
_cell_length_b   6.90413106
_cell_length_c   9.34974400
_cell_angle_alpha   90.00558415
_cell_angle_beta   90.04562149
_cell_angle_gamma   90.00497995
_symmetry_Int_Tables_number   1
_chemical_formula_structural   Ho7Er4TmCo4
_chemical_formula_sum   'Ho7 Er4 Tm1 Co4'
_cell_volume   396.90096521
_cell_formula_units_Z   1
loop_
 _symmetry_equiv_pos_site_id
 _symmetry_equiv_pos_as_xyz
  1  'x, y, z'
loop_
 _atom_site_type_symbol
 _atom_site_label
 _atom_site_symmetry_multiplicity
 _atom_site_fract_x
 _atom_site_fract_y
 _atom_site_fract_z
 _atom_site_occupancy
  Ho  Ho0  1  0.323594  0.675456  0.067263  1
  Ho  Ho1  1  0.176195  0.175168  0.432189  1
  Ho  Ho2  1  0.676063  0.324782  0.567601  1
  Ho  Ho3  1  0.860528  0.541564  0.250006  1
  Ho  Ho4  1  0.639318  0.041383  0.249627  1
  Ho  Ho5  1  0.138907  0.458774  0.750258  1
  Ho  Ho6  1  0.361126  0.958088  0.750058  1
  Er  Er7  1  0.675680  0.324720  0.932998  1
  Er  Er8  1  0.824217  0.824697  0.567742  1
  Er  Er9  1  0.324279  0.675272  0.432784  1
  Er  Er10  1  0.175591  0.175273  0.066768  1
  Tm  Tm11  1  0.823940  0.824711  0.932401  1
  Co  Co12  1  0.049808  0.886504  0.249893  1
  Co  Co13  1  0.450005  0.386488  0.249353  1
  Co  Co14  1  0.950332  0.113436  0.751285  1
  Co  Co15  1  0.550417  0.613683  0.749777  1
