# generated using pymatgen
data_Dy2YTm(Al3Ir)6
_symmetry_space_group_name_H-M   'P 1'
_cell_length_a   7.54741411
_cell_length_b   7.54948357
_cell_length_c   9.47422500
_cell_angle_alpha   90.00000000
_cell_angle_beta   90.00000000
_cell_angle_gamma   119.50087145
_symmetry_Int_Tables_number   1
_chemical_formula_structural   Dy2YTm(Al3Ir)6
_chemical_formula_sum   'Dy2 Y1 Tm1 Al18 Ir6'
_cell_volume   469.84234657
_cell_formula_units_Z   1
loop_
 _symmetry_equiv_pos_site_id
 _symmetry_equiv_pos_as_xyz
  1  'x, y, z'
loop_
 _atom_site_type_symbol
 _atom_site_label
 _atom_site_symmetry_multiplicity
 _atom_site_fract_x
 _atom_site_fract_y
 _atom_site_fract_z
 _atom_site_occupancy
  Dy  Dy0  1  0.005351  0.328557  0.750000  1
  Dy  Dy1  1  0.671322  0.994730  0.250000  1
  Y  Y2  1  0.994711  0.671145  0.250000  1
  Tm  Tm3  1  0.328448  0.005392  0.750000  1
  Al  Al4  1  0.129356  0.129484  0.250000  1
  Al  Al5  1  0.871149  0.870905  0.750000  1
  Al  Al6  1  0.001277  0.335202  0.073600  1
  Al  Al7  1  0.999406  0.665321  0.925129  1
  Al  Al8  1  0.999406  0.665321  0.574871  1
  Al  Al9  1  0.335118  0.001191  0.426954  1
  Al  Al10  1  0.001277  0.335202  0.426400  1
  Al  Al11  1  0.664180  0.998912  0.574635  1
  Al  Al12  1  0.664180  0.998912  0.925365  1
  Al  Al13  1  0.335118  0.001191  0.073046  1
  Al  Al14  1  0.333518  0.333016  0.552361  1
  Al  Al15  1  0.666592  0.666487  0.449158  1
  Al  Al16  1  0.666592  0.666487  0.050842  1
  Al  Al17  1  0.333518  0.333016  0.947639  1
  Al  Al18  1  0.339746  0.548388  0.250000  1
  Al  Al19  1  0.659875  0.450854  0.750000  1
  Al  Al20  1  0.547966  0.338906  0.250000  1
  Al  Al21  1  0.451548  0.661180  0.750000  1
  Ir  Ir22  1  0.671761  0.327800  0.999636  1
  Ir  Ir23  1  0.328010  0.672124  0.999643  1
  Ir  Ir24  1  0.328010  0.672124  0.500357  1
  Ir  Ir25  1  0.671761  0.327800  0.500364  1
  Ir  Ir26  1  0.000401  0.000177  0.999541  1
  Ir  Ir27  1  0.000401  0.000177  0.500459  1
