# generated using pymatgen
data_Pr(EuP)3
_symmetry_space_group_name_H-M   'P 1'
_cell_length_a   7.74596230
_cell_length_b   7.74629576
_cell_length_c   7.73890435
_cell_angle_alpha   109.48703521
_cell_angle_beta   109.48529079
_cell_angle_gamma   109.47915486
_symmetry_Int_Tables_number   1
_chemical_formula_structural   Pr(EuP)3
_chemical_formula_sum   'Pr2 Eu6 P6'
_cell_volume   357.29272508
_cell_formula_units_Z   2
loop_
 _symmetry_equiv_pos_site_id
 _symmetry_equiv_pos_as_xyz
  1  'x, y, z'
loop_
 _atom_site_type_symbol
 _atom_site_label
 _atom_site_symmetry_multiplicity
 _atom_site_fract_x
 _atom_site_fract_y
 _atom_site_fract_z
 _atom_site_occupancy
  Pr  Pr0  1  0.131242  0.131941  0.130533  1
  Pr  Pr1  1  0.500709  0.001408  0.869467  1
  Eu  Eu2  1  0.872086  0.505148  0.002142  1
  Eu  Eu3  1  0.996291  0.867272  0.497503  1
  Eu  Eu4  1  0.369943  0.503005  0.997858  1
  Eu  Eu5  1  0.998788  0.369769  0.502497  1
  Eu  Eu6  1  0.502793  0.998456  0.371734  1
  Eu  Eu7  1  0.631059  0.626722  0.628266  1
  P  P8  1  0.618451  0.368550  0.244236  1
  P  P9  1  0.250127  0.622767  0.376773  1
  P  P10  1  0.752023  0.878879  0.123106  1
  P  P11  1  0.128917  0.755773  0.876894  1
  P  P12  1  0.373355  0.245994  0.623227  1
  P  P13  1  0.874215  0.124314  0.755764  1
