# generated using pymatgen
data_LaTb5(AuO7)2
_symmetry_space_group_name_H-M   'P 1'
_cell_length_a   6.55615027
_cell_length_b   6.55615000
_cell_length_c   7.54426026
_cell_angle_alpha   89.94832339
_cell_angle_beta   90.05167562
_cell_angle_gamma   108.70266558
_symmetry_Int_Tables_number   1
_chemical_formula_structural   LaTb5(AuO7)2
_chemical_formula_sum   'La1 Tb5 Au2 O14'
_cell_volume   307.15227597
_cell_formula_units_Z   1
loop_
 _symmetry_equiv_pos_site_id
 _symmetry_equiv_pos_as_xyz
  1  'x, y, z'
loop_
 _atom_site_type_symbol
 _atom_site_label
 _atom_site_symmetry_multiplicity
 _atom_site_fract_x
 _atom_site_fract_y
 _atom_site_fract_z
 _atom_site_occupancy
  La  La0  1  0.500000  0.500000  0.500000  1
  Tb  Tb1  1  0.500000  0.500000  0.000000  1
  Tb  Tb2  1  0.529378  0.998074  0.753130  1
  Tb  Tb3  1  0.998074  0.529378  0.246870  1
  Tb  Tb4  1  0.470622  0.001926  0.246870  1
  Tb  Tb5  1  0.001926  0.470622  0.753130  1
  Au  Au6  1  0.000000  0.000000  0.500000  1
  Au  Au7  1  0.000000  0.000000  0.000000  1
  O  O8  1  0.673683  0.929740  0.475612  1
  O  O9  1  0.929740  0.673683  0.524388  1
  O  O10  1  0.673383  0.920857  0.024676  1
  O  O11  1  0.920857  0.673383  0.975324  1
  O  O12  1  0.326317  0.070260  0.524388  1
  O  O13  1  0.070260  0.326317  0.475612  1
  O  O14  1  0.326617  0.079143  0.975324  1
  O  O15  1  0.079143  0.326617  0.024676  1
  O  O16  1  0.922423  0.077577  0.750219  1
  O  O17  1  0.077577  0.922423  0.249781  1
  O  O18  1  0.365797  0.634203  0.759682  1
  O  O19  1  0.634203  0.365797  0.240318  1
  O  O20  1  0.641262  0.358738  0.759571  1
  O  O21  1  0.358738  0.641262  0.240429  1
