# generated using pymatgen
data_Cs8SrCaI12
_symmetry_space_group_name_H-M   'P 1'
_cell_length_a   10.63458921
_cell_length_b   10.63458939
_cell_length_c   10.63459013
_cell_angle_alpha   89.09683127
_cell_angle_beta   89.09683180
_cell_angle_gamma   89.09683662
_symmetry_Int_Tables_number   1
_chemical_formula_structural   Cs8SrCaI12
_chemical_formula_sum   'Cs8 Sr1 Ca1 I12'
_cell_volume   1202.26993305
_cell_formula_units_Z   1
loop_
 _symmetry_equiv_pos_site_id
 _symmetry_equiv_pos_as_xyz
  1  'x, y, z'
loop_
 _atom_site_type_symbol
 _atom_site_label
 _atom_site_symmetry_multiplicity
 _atom_site_fract_x
 _atom_site_fract_y
 _atom_site_fract_z
 _atom_site_occupancy
  Cs  Cs0  1  0.249424  0.249424  0.249424  1
  Cs  Cs1  1  0.750576  0.750576  0.750576  1
  Cs  Cs2  1  0.870601  0.630246  0.249479  1
  Cs  Cs3  1  0.630246  0.249479  0.870601  1
  Cs  Cs4  1  0.249479  0.870601  0.630246  1
  Cs  Cs5  1  0.129399  0.369754  0.750521  1
  Cs  Cs6  1  0.369754  0.750521  0.129399  1
  Cs  Cs7  1  0.750521  0.129399  0.369754  1
  Sr  Sr8  1  0.500000  0.500000  0.500000  1
  Ca  Ca9  1  0.000000  0.000000  0.000000  1
  I  I10  1  0.201775  0.559456  0.429530  1
  I  I11  1  0.057128  0.713209  0.932653  1
  I  I12  1  0.932653  0.057128  0.713209  1
  I  I13  1  0.798225  0.440544  0.570470  1
  I  I14  1  0.713209  0.932653  0.057128  1
  I  I15  1  0.440544  0.570470  0.798225  1
  I  I16  1  0.570470  0.798225  0.440544  1
  I  I17  1  0.559456  0.429530  0.201775  1
  I  I18  1  0.067347  0.942872  0.286791  1
  I  I19  1  0.942872  0.286791  0.067347  1
  I  I20  1  0.286791  0.067347  0.942872  1
  I  I21  1  0.429530  0.201775  0.559456  1
