# generated using pymatgen
data_LiNb3N4
_symmetry_space_group_name_H-M   'P 1'
_cell_length_a   5.22427800
_cell_length_b   9.04648800
_cell_length_c   10.40461900
_cell_angle_alpha   90.00000000
_cell_angle_beta   90.00000000
_cell_angle_gamma   90.00000000
_symmetry_Int_Tables_number   1
_chemical_formula_structural   LiNb3N4
_chemical_formula_sum   'Li6 Nb18 N24'
_cell_volume   491.73652991
_cell_formula_units_Z   6
loop_
 _symmetry_equiv_pos_site_id
 _symmetry_equiv_pos_as_xyz
  1  'x, y, z'
loop_
 _atom_site_type_symbol
 _atom_site_label
 _atom_site_symmetry_multiplicity
 _atom_site_fract_x
 _atom_site_fract_y
 _atom_site_fract_z
 _atom_site_occupancy
  Li  Li0  1  0.000000  0.006665  0.500000  1
  Li  Li1  1  0.000000  0.672194  0.000000  1
  Li  Li2  1  0.000000  0.988499  0.000000  1
  Li  Li3  1  0.500000  0.506665  0.000000  1
  Li  Li4  1  0.500000  0.488499  0.500000  1
  Li  Li5  1  0.500000  0.172194  0.500000  1
  Nb  Nb6  1  0.160498  0.834080  0.752443  1
  Nb  Nb7  1  0.330565  0.001280  0.252261  1
  Nb  Nb8  1  0.500000  0.818173  0.000000  1
  Nb  Nb9  1  0.500000  0.849697  0.500000  1
  Nb  Nb10  1  0.665962  0.664586  0.750786  1
  Nb  Nb11  1  0.660498  0.334080  0.747557  1
  Nb  Nb12  1  0.669435  0.001280  0.747739  1
  Nb  Nb13  1  0.830565  0.501280  0.247739  1
  Nb  Nb14  1  0.839502  0.834080  0.247557  1
  Nb  Nb15  1  0.000000  0.663434  0.500000  1
  Nb  Nb16  1  0.000000  0.349697  0.000000  1
  Nb  Nb17  1  0.000000  0.318173  0.500000  1
  Nb  Nb18  1  0.165962  0.164586  0.749214  1
  Nb  Nb19  1  0.169435  0.501280  0.752261  1
  Nb  Nb20  1  0.334038  0.664586  0.249214  1
  Nb  Nb21  1  0.339502  0.334080  0.252443  1
  Nb  Nb22  1  0.500000  0.163434  0.000000  1
  Nb  Nb23  1  0.834038  0.164586  0.250786  1
  N  N24  1  0.175180  0.832651  0.122718  1
  N  N25  1  0.333614  0.667950  0.878611  1
  N  N26  1  0.332962  0.999423  0.621379  1
  N  N27  1  0.666415  0.998259  0.120616  1
  N  N28  1  0.666508  0.668206  0.379208  1
  N  N29  1  0.666386  0.667950  0.121389  1
  N  N30  1  0.833359  0.834236  0.620134  1
  N  N31  1  0.824820  0.832651  0.877282  1
  N  N32  1  0.833614  0.167950  0.621389  1
  N  N33  1  0.833492  0.168206  0.879208  1
  N  N34  1  0.832962  0.499423  0.878621  1
  N  N35  1  0.833585  0.498259  0.620616  1
  N  N36  1  0.166415  0.498259  0.379384  1
  N  N37  1  0.167038  0.499423  0.121379  1
  N  N38  1  0.166641  0.834236  0.379866  1
  N  N39  1  0.166508  0.168206  0.120792  1
  N  N40  1  0.166386  0.167950  0.378611  1
  N  N41  1  0.333492  0.668206  0.620792  1
  N  N42  1  0.324820  0.332651  0.622718  1
  N  N43  1  0.333359  0.334236  0.879866  1
  N  N44  1  0.333585  0.998259  0.879384  1
  N  N45  1  0.667038  0.999423  0.378621  1
  N  N46  1  0.675180  0.332651  0.377282  1
  N  N47  1  0.666641  0.334236  0.120134  1
