# generated using pymatgen
data_Dy2CoNi3B4
_symmetry_space_group_name_H-M   'P 1'
_cell_length_a   4.93401855
_cell_length_b   4.95464340
_cell_length_c   6.90166619
_cell_angle_alpha   59.09127781
_cell_angle_beta   59.38404715
_cell_angle_gamma   63.75131011
_symmetry_Int_Tables_number   1
_chemical_formula_structural   Dy2CoNi3B4
_chemical_formula_sum   'Dy2 Co1 Ni3 B4'
_cell_volume   120.79360873
_cell_formula_units_Z   1
loop_
 _symmetry_equiv_pos_site_id
 _symmetry_equiv_pos_as_xyz
  1  'x, y, z'
loop_
 _atom_site_type_symbol
 _atom_site_label
 _atom_site_symmetry_multiplicity
 _atom_site_fract_x
 _atom_site_fract_y
 _atom_site_fract_z
 _atom_site_occupancy
  Dy  Dy0  1  0.121216  0.876421  0.253393  1
  Dy  Dy1  1  0.874861  0.118670  0.756486  1
  Co  Co2  1  0.466752  0.280133  0.200722  1
  Ni  Ni3  1  0.727019  0.532810  0.298369  1
  Ni  Ni4  1  0.534126  0.727054  0.794612  1
  Ni  Ni5  1  0.277439  0.467687  0.700672  1
  B  B6  1  0.163095  0.497896  0.023516  1
  B  B7  1  0.494685  0.848886  0.473090  1
  B  B8  1  0.842101  0.487591  0.979754  1
  B  B9  1  0.498705  0.162852  0.519387  1
