# generated using pymatgen
data_NdDy3Zn2(Co2B)6
_symmetry_space_group_name_H-M   'P 1'
_cell_length_a   5.10774815
_cell_length_b   5.10792146
_cell_length_c   12.63862300
_cell_angle_alpha   89.99995174
_cell_angle_beta   89.99998211
_cell_angle_gamma   119.98839783
_symmetry_Int_Tables_number   1
_chemical_formula_structural   NdDy3Zn2(Co2B)6
_chemical_formula_sum   'Nd1 Dy3 Zn2 Co12 B6'
_cell_volume   285.59778741
_cell_formula_units_Z   1
loop_
 _symmetry_equiv_pos_site_id
 _symmetry_equiv_pos_as_xyz
  1  'x, y, z'
loop_
 _atom_site_type_symbol
 _atom_site_label
 _atom_site_symmetry_multiplicity
 _atom_site_fract_x
 _atom_site_fract_y
 _atom_site_fract_z
 _atom_site_occupancy
  Nd  Nd0  1  0.000008  0.999982  0.999866  1
  Dy  Dy1  1  0.999999  0.000004  0.261503  1
  Dy  Dy2  1  0.999998  0.000003  0.499971  1
  Dy  Dy3  1  0.999998  0.000001  0.738366  1
  Zn  Zn4  1  0.333300  0.666424  0.000040  1
  Zn  Zn5  1  0.666712  0.333550  0.000040  1
  Co  Co6  1  0.499998  0.000002  0.613264  1
  Co  Co7  1  0.499999  0.999998  0.836747  1
  Co  Co8  1  0.500000  0.499998  0.836701  1
  Co  Co9  1  0.499998  0.500004  0.386732  1
  Co  Co10  1  0.999998  0.500003  0.613270  1
  Co  Co11  1  0.000001  0.500003  0.163293  1
  Co  Co12  1  0.000000  0.499999  0.836748  1
  Co  Co13  1  0.500001  0.500002  0.163310  1
  Co  Co14  1  0.499998  0.000004  0.386745  1
  Co  Co15  1  0.500001  0.000002  0.163294  1
  Co  Co16  1  0.499998  0.500003  0.613299  1
  Co  Co17  1  0.999999  0.500004  0.386738  1
  B  B18  1  0.666736  0.333304  0.729649  1
  B  B19  1  0.333262  0.666697  0.729649  1
  B  B20  1  0.333312  0.666674  0.270368  1
  B  B21  1  0.666623  0.333355  0.500020  1
  B  B22  1  0.666686  0.333333  0.270368  1
  B  B23  1  0.333373  0.666652  0.500020  1
