# generated using pymatgen
data_Y2ThZn3PdPt2
_symmetry_space_group_name_H-M   'P 1'
_cell_length_a   7.49030857
_cell_length_b   7.49030755
_cell_length_c   3.78838200
_cell_angle_alpha   90.00000000
_cell_angle_beta   90.00000000
_cell_angle_gamma   120.06269656
_symmetry_Int_Tables_number   1
_chemical_formula_structural   Y2ThZn3PdPt2
_chemical_formula_sum   'Y2 Th1 Zn3 Pd1 Pt2'
_cell_volume   183.95391424
_cell_formula_units_Z   1
loop_
 _symmetry_equiv_pos_site_id
 _symmetry_equiv_pos_as_xyz
  1  'x, y, z'
loop_
 _atom_site_type_symbol
 _atom_site_label
 _atom_site_symmetry_multiplicity
 _atom_site_fract_x
 _atom_site_fract_y
 _atom_site_fract_z
 _atom_site_occupancy
  Y  Y0  1  0.405994  0.003163  0.000000  1
  Y  Y1  1  0.003163  0.405994  0.000000  1
  Th  Th2  1  0.590583  0.590583  0.000000  1
  Zn  Zn3  1  0.240341  0.240341  0.500000  1
  Zn  Zn4  1  0.747626  0.010597  0.500000  1
  Zn  Zn5  1  0.010597  0.747626  0.500000  1
  Pd  Pd6  1  0.993407  0.993407  0.000000  1
  Pt  Pt7  1  0.340093  0.668196  0.500000  1
  Pt  Pt8  1  0.668196  0.340093  0.500000  1
