# generated using pymatgen
data_Sc12Mn(HgI8)2
_symmetry_space_group_name_H-M   'P 1'
_cell_length_a   9.56611719
_cell_length_b   12.02134229
_cell_length_c   12.69380564
_cell_angle_alpha   116.85209838
_cell_angle_beta   101.63924719
_cell_angle_gamma   101.10518702
_symmetry_Int_Tables_number   1
_chemical_formula_structural   Sc12Mn(HgI8)2
_chemical_formula_sum   'Sc12 Mn1 Hg2 I16'
_cell_volume   1206.46153818
_cell_formula_units_Z   1
loop_
 _symmetry_equiv_pos_site_id
 _symmetry_equiv_pos_as_xyz
  1  'x, y, z'
loop_
 _atom_site_type_symbol
 _atom_site_label
 _atom_site_symmetry_multiplicity
 _atom_site_fract_x
 _atom_site_fract_y
 _atom_site_fract_z
 _atom_site_occupancy
  Sc  Sc0  1  0.089173  0.261337  0.353501  1
  Sc  Sc1  1  0.893904  0.725423  0.638356  1
  Sc  Sc2  1  0.766072  0.535349  0.333362  1
  Sc  Sc3  1  0.224638  0.462390  0.676296  1
  Sc  Sc4  1  0.283099  0.738980  0.645799  1
  Sc  Sc5  1  0.710360  0.274127  0.362112  1
  Sc  Sc6  1  0.147762  0.537609  0.323409  1
  Sc  Sc7  1  0.838239  0.464522  0.667038  1
  Sc  Sc8  1  0.424306  0.362483  0.279393  1
  Sc  Sc9  1  0.608486  0.637651  0.720695  1
  Sc  Sc10  1  0.475766  0.311791  0.520805  1
  Sc  Sc11  1  0.556711  0.688455  0.479359  1
  Mn  Mn12  1  0.660082  0.499966  0.500377  1
  Hg  Hg13  1  0.990573  0.499726  0.500043  1
  Hg  Hg14  1  0.351617  0.500147  0.499707  1
  I  I15  1  0.399197  0.735516  0.877060  1
  I  I16  1  0.603110  0.259623  0.114699  1
  I  I17  1  0.179099  0.953851  0.776375  1
  I  I18  1  0.811678  0.046071  0.223824  1
  I  I19  1  0.330595  0.097341  0.252926  1
  I  I20  1  0.656835  0.902781  0.746807  1
  I  I21  1  0.555571  0.437248  0.798022  1
  I  I22  1  0.431409  0.563128  0.202110  1
  I  I23  1  0.312268  0.822935  0.463799  1
  I  I24  1  0.691672  0.170386  0.537355  1
  I  I25  1  0.174651  0.176989  0.534881  1
  I  I26  1  0.833392  0.829256  0.464008  1
  I  I27  1  0.923255  0.573766  0.166685  1
  I  I28  1  0.067337  0.426139  0.833119  1
  I  I29  1  0.924868  0.739848  0.885646  1
  I  I30  1  0.084276  0.265165  0.122432  1
