# generated using pymatgen
data_Lu5CoSb2
_symmetry_space_group_name_H-M   'P 1'
_cell_length_a   7.68202000
_cell_length_b   8.67061200
_cell_length_c   11.92939500
_cell_angle_alpha   90.00000000
_cell_angle_beta   90.00000000
_cell_angle_gamma   90.00000000
_symmetry_Int_Tables_number   1
_chemical_formula_structural   Lu5CoSb2
_chemical_formula_sum   'Lu20 Co4 Sb8'
_cell_volume   794.59093279
_cell_formula_units_Z   4
loop_
 _symmetry_equiv_pos_site_id
 _symmetry_equiv_pos_as_xyz
  1  'x, y, z'
loop_
 _atom_site_type_symbol
 _atom_site_label
 _atom_site_symmetry_multiplicity
 _atom_site_fract_x
 _atom_site_fract_y
 _atom_site_fract_z
 _atom_site_occupancy
  Lu  Lu0  1  0.155359  0.750000  0.202861  1
  Lu  Lu1  1  0.344641  0.750000  0.702861  1
  Lu  Lu2  1  0.844641  0.250000  0.797139  1
  Lu  Lu3  1  0.655359  0.250000  0.297139  1
  Lu  Lu4  1  0.450189  0.750000  0.998471  1
  Lu  Lu5  1  0.049811  0.750000  0.498471  1
  Lu  Lu6  1  0.549811  0.250000  0.001529  1
  Lu  Lu7  1  0.950189  0.250000  0.501529  1
  Lu  Lu8  1  0.619329  0.750000  0.308657  1
  Lu  Lu9  1  0.880671  0.750000  0.808657  1
  Lu  Lu10  1  0.380671  0.250000  0.691343  1
  Lu  Lu11  1  0.119329  0.250000  0.191343  1
  Lu  Lu12  1  0.823797  0.536890  0.064763  1
  Lu  Lu13  1  0.676203  0.963110  0.564763  1
  Lu  Lu14  1  0.176203  0.036890  0.935237  1
  Lu  Lu15  1  0.323797  0.463110  0.435237  1
  Lu  Lu16  1  0.176203  0.463110  0.935237  1
  Lu  Lu17  1  0.323797  0.036890  0.435237  1
  Lu  Lu18  1  0.823797  0.963110  0.064763  1
  Lu  Lu19  1  0.676203  0.536890  0.564763  1
  Co  Co20  1  0.432995  0.750000  0.490796  1
  Co  Co21  1  0.067005  0.750000  0.990796  1
  Co  Co22  1  0.567005  0.250000  0.509204  1
  Co  Co23  1  0.932995  0.250000  0.009204  1
  Sb  Sb24  1  0.929943  0.509183  0.327509  1
  Sb  Sb25  1  0.570057  0.990817  0.827509  1
  Sb  Sb26  1  0.070057  0.009183  0.672491  1
  Sb  Sb27  1  0.429943  0.490817  0.172491  1
  Sb  Sb28  1  0.070057  0.490817  0.672491  1
  Sb  Sb29  1  0.429943  0.009183  0.172491  1
  Sb  Sb30  1  0.929943  0.990817  0.327509  1
  Sb  Sb31  1  0.570057  0.509183  0.827509  1
