# generated using pymatgen
data_Nd4Re15Si8Rh
_symmetry_space_group_name_H-M   'P 1'
_cell_length_a   7.38338029
_cell_length_b   15.53566359
_cell_length_c   4.14481700
_cell_angle_alpha   90.00000000
_cell_angle_beta   90.00000000
_cell_angle_gamma   89.96818062
_symmetry_Int_Tables_number   1
_chemical_formula_structural   Nd4Re15Si8Rh
_chemical_formula_sum   'Nd4 Re15 Si8 Rh1'
_cell_volume   475.43411313
_cell_formula_units_Z   1
loop_
 _symmetry_equiv_pos_site_id
 _symmetry_equiv_pos_as_xyz
  1  'x, y, z'
loop_
 _atom_site_type_symbol
 _atom_site_label
 _atom_site_symmetry_multiplicity
 _atom_site_fract_x
 _atom_site_fract_y
 _atom_site_fract_z
 _atom_site_occupancy
  Nd  Nd0  1  0.580682  0.119650  0.000000  1
  Nd  Nd1  1  0.421137  0.881827  0.000000  1
  Nd  Nd2  1  0.080652  0.383871  0.500001  1
  Nd  Nd3  1  0.921430  0.618459  0.500001  1
  Re  Re4  1  0.268350  0.679109  0.000000  1
  Re  Re5  1  0.227206  0.178485  0.500001  1
  Re  Re6  1  0.768078  0.820753  0.500001  1
  Re  Re7  1  0.430752  0.417329  0.000000  1
  Re  Re8  1  0.569149  0.579398  0.000000  1
  Re  Re9  1  0.927614  0.082407  0.500001  1
  Re  Re10  1  0.067200  0.919096  0.500001  1
  Re  Re11  1  0.138822  0.050778  0.000000  1
  Re  Re12  1  0.862020  0.948447  0.000000  1
  Re  Re13  1  0.636733  0.445809  0.500001  1
  Re  Re14  1  0.365176  0.550610  0.500001  1
  Re  Re15  1  0.000028  0.202441  0.000000  1
  Re  Re16  1  0.006695  0.792963  0.000000  1
  Re  Re17  1  0.483128  0.294062  0.500001  1
  Re  Re18  1  0.506777  0.706457  0.500001  1
  Si  Si19  1  0.292082  0.273962  0.000000  1
  Si  Si20  1  0.705225  0.725089  0.000000  1
  Si  Si21  1  0.790402  0.230957  0.500001  1
  Si  Si22  1  0.207325  0.774444  0.500001  1
  Si  Si23  1  0.828113  0.476427  0.000000  1
  Si  Si24  1  0.172821  0.524981  0.000000  1
  Si  Si25  1  0.328517  0.023253  0.500001  1
  Si  Si26  1  0.670563  0.975620  0.500001  1
  Rh  Rh27  1  0.743320  0.323317  0.000000  1
