# generated using pymatgen
data_Y7Co6Sn22Pd
_symmetry_space_group_name_H-M   'P 1'
_cell_length_a   9.67698600
_cell_length_b   9.67698675
_cell_length_c   9.92147200
_cell_angle_alpha   90.00000000
_cell_angle_beta   90.00000000
_cell_angle_gamma   120.00000426
_symmetry_Int_Tables_number   1
_chemical_formula_structural   Y7Co6Sn22Pd
_chemical_formula_sum   'Y7 Co6 Sn22 Pd1'
_cell_volume   804.61288562
_cell_formula_units_Z   1
loop_
 _symmetry_equiv_pos_site_id
 _symmetry_equiv_pos_as_xyz
  1  'x, y, z'
loop_
 _atom_site_type_symbol
 _atom_site_label
 _atom_site_symmetry_multiplicity
 _atom_site_fract_x
 _atom_site_fract_y
 _atom_site_fract_z
 _atom_site_occupancy
  Y  Y0  1  0.000000  0.000000  0.000000  1
  Y  Y1  1  0.043395  0.521697  0.307415  1
  Y  Y2  1  0.478303  0.956605  0.307415  1
  Y  Y3  1  0.478303  0.521697  0.307415  1
  Y  Y4  1  0.956605  0.478303  0.692585  1
  Y  Y5  1  0.521697  0.043395  0.692585  1
  Y  Y6  1  0.521697  0.478303  0.692585  1
  Co  Co7  1  0.168087  0.831913  0.803831  1
  Co  Co8  1  0.663826  0.831913  0.803831  1
  Co  Co9  1  0.168087  0.336174  0.803831  1
  Co  Co10  1  0.831913  0.168087  0.196169  1
  Co  Co11  1  0.336174  0.168087  0.196169  1
  Co  Co12  1  0.831913  0.663826  0.196169  1
  Sn  Sn13  1  0.111233  0.888767  0.282826  1
  Sn  Sn14  1  0.777533  0.888767  0.282826  1
  Sn  Sn15  1  0.111233  0.222467  0.282826  1
  Sn  Sn16  1  0.888767  0.111233  0.717174  1
  Sn  Sn17  1  0.222467  0.111233  0.717174  1
  Sn  Sn18  1  0.888767  0.777533  0.717174  1
  Sn  Sn19  1  0.346079  0.000000  0.000000  1
  Sn  Sn20  1  0.653921  0.653921  0.000000  1
  Sn  Sn21  1  0.000000  0.346079  0.000000  1
  Sn  Sn22  1  0.346079  0.346079  0.000000  1
  Sn  Sn23  1  0.000000  0.653921  0.000000  1
  Sn  Sn24  1  0.653921  0.000000  0.000000  1
  Sn  Sn25  1  0.784802  0.569604  0.452269  1
  Sn  Sn26  1  0.784802  0.215198  0.452269  1
  Sn  Sn27  1  0.430396  0.215198  0.452269  1
  Sn  Sn28  1  0.215198  0.430396  0.547731  1
  Sn  Sn29  1  0.215198  0.784802  0.547731  1
  Sn  Sn30  1  0.569604  0.784802  0.547731  1
  Sn  Sn31  1  0.666667  0.333333  0.184331  1
  Sn  Sn32  1  0.333333  0.666667  0.815669  1
  Sn  Sn33  1  0.666667  0.333333  0.882074  1
  Sn  Sn34  1  0.333333  0.666667  0.117926  1
  Pd  Pd35  1  0.000000  0.000000  0.500000  1
