# generated using pymatgen
data_SrAc3(Sn2Ir)4
_symmetry_space_group_name_H-M   'P 1'
_cell_length_a   8.99457308
_cell_length_b   8.99457235
_cell_length_c   9.87224300
_cell_angle_alpha   90.00000000
_cell_angle_beta   90.00000000
_cell_angle_gamma   148.88632270
_symmetry_Int_Tables_number   1
_chemical_formula_structural   SrAc3(Sn2Ir)4
_chemical_formula_sum   'Sr1 Ac3 Sn8 Ir4'
_cell_volume   412.71197785
_cell_formula_units_Z   1
loop_
 _symmetry_equiv_pos_site_id
 _symmetry_equiv_pos_as_xyz
  1  'x, y, z'
loop_
 _atom_site_type_symbol
 _atom_site_label
 _atom_site_symmetry_multiplicity
 _atom_site_fract_x
 _atom_site_fract_y
 _atom_site_fract_z
 _atom_site_occupancy
  Sr  Sr0  1  0.703019  0.296981  0.750000  1
  Ac  Ac1  1  0.499678  0.500322  0.501910  1
  Ac  Ac2  1  0.499678  0.500322  0.998090  1
  Ac  Ac3  1  0.297007  0.702993  0.250000  1
  Sn  Sn4  1  0.908811  0.091189  0.750000  1
  Sn  Sn5  1  0.926016  0.073984  0.250000  1
  Sn  Sn6  1  0.092676  0.907324  0.250000  1
  Sn  Sn7  1  0.077351  0.922649  0.750000  1
  Sn  Sn8  1  0.697683  0.302317  0.412587  1
  Sn  Sn9  1  0.301232  0.698768  0.593592  1
  Sn  Sn10  1  0.301232  0.698768  0.906408  1
  Sn  Sn11  1  0.697683  0.302317  0.087413  1
  Ir  Ir12  1  0.146576  0.853424  0.502409  1
  Ir  Ir13  1  0.852389  0.147611  0.002945  1
  Ir  Ir14  1  0.146576  0.853424  0.997591  1
  Ir  Ir15  1  0.852389  0.147611  0.497055  1
