# generated using pymatgen
data_GaCu3Pd4
_symmetry_space_group_name_H-M   'P 1'
_cell_length_a   5.23324443
_cell_length_b   5.23318118
_cell_length_c   4.30322000
_cell_angle_alpha   90.00000000
_cell_angle_beta   90.00000000
_cell_angle_gamma   109.35705692
_symmetry_Int_Tables_number   1
_chemical_formula_structural   GaCu3Pd4
_chemical_formula_sum   'Ga1 Cu3 Pd4'
_cell_volume   111.18829113
_cell_formula_units_Z   1
loop_
 _symmetry_equiv_pos_site_id
 _symmetry_equiv_pos_as_xyz
  1  'x, y, z'
loop_
 _atom_site_type_symbol
 _atom_site_label
 _atom_site_symmetry_multiplicity
 _atom_site_fract_x
 _atom_site_fract_y
 _atom_site_fract_z
 _atom_site_occupancy
  Ga  Ga0  1  0.126012  0.372608  0.250000  1
  Cu  Cu1  1  0.626487  0.875116  0.250000  1
  Cu  Cu2  1  0.380344  0.117484  0.750001  1
  Cu  Cu3  1  0.867349  0.634688  0.750001  1
  Pd  Pd4  1  0.625871  0.375185  0.250000  1
  Pd  Pd5  1  0.125883  0.872998  0.250000  1
  Pd  Pd6  1  0.880800  0.134062  0.750001  1
  Pd  Pd7  1  0.367258  0.617864  0.750001  1
