# generated using pymatgen
data_Sm5Ge9P3Rh19
_symmetry_space_group_name_H-M   'P 1'
_cell_length_a   13.08797700
_cell_length_b   13.08797713
_cell_length_c   3.99846500
_cell_angle_alpha   90.00000000
_cell_angle_beta   90.00000000
_cell_angle_gamma   119.99999715
_symmetry_Int_Tables_number   1
_chemical_formula_structural   Sm5Ge9P3Rh19
_chemical_formula_sum   'Sm5 Ge9 P3 Rh19'
_cell_volume   593.15608958
_cell_formula_units_Z   1
loop_
 _symmetry_equiv_pos_site_id
 _symmetry_equiv_pos_as_xyz
  1  'x, y, z'
loop_
 _atom_site_type_symbol
 _atom_site_label
 _atom_site_symmetry_multiplicity
 _atom_site_fract_x
 _atom_site_fract_y
 _atom_site_fract_z
 _atom_site_occupancy
  Sm  Sm0  1  0.666667  0.333333  0.000000  1
  Sm  Sm1  1  0.333333  0.666667  0.000000  1
  Sm  Sm2  1  0.184095  0.184095  0.500000  1
  Sm  Sm3  1  0.815905  0.000000  0.500000  1
  Sm  Sm4  1  0.000000  0.815905  0.500000  1
  Ge  Ge5  1  0.367813  0.367813  0.000000  1
  Ge  Ge6  1  0.632187  0.000000  0.000000  1
  Ge  Ge7  1  0.000000  0.632187  0.000000  1
  Ge  Ge8  1  0.838819  0.317700  0.500000  1
  Ge  Ge9  1  0.682300  0.521120  0.500000  1
  Ge  Ge10  1  0.478880  0.161181  0.500000  1
  Ge  Ge11  1  0.317700  0.838819  0.500000  1
  Ge  Ge12  1  0.521120  0.682300  0.500000  1
  Ge  Ge13  1  0.161181  0.478880  0.500000  1
  P  P14  1  0.820554  0.820554  0.000000  1
  P  P15  1  0.179446  0.000000  0.000000  1
  P  P16  1  0.000000  0.179446  0.000000  1
  Rh  Rh17  1  0.825097  0.192300  0.000000  1
  Rh  Rh18  1  0.807700  0.632795  0.000000  1
  Rh  Rh19  1  0.367205  0.174903  0.000000  1
  Rh  Rh20  1  0.192300  0.825097  0.000000  1
  Rh  Rh21  1  0.632795  0.807700  0.000000  1
  Rh  Rh22  1  0.174903  0.367205  0.000000  1
  Rh  Rh23  1  0.555830  0.555830  0.000000  1
  Rh  Rh24  1  0.444170  0.000000  0.000000  1
  Rh  Rh25  1  0.000000  0.444170  0.000000  1
  Rh  Rh26  1  0.644871  0.126743  0.500000  1
  Rh  Rh27  1  0.873257  0.518129  0.500000  1
  Rh  Rh28  1  0.481871  0.355129  0.500000  1
  Rh  Rh29  1  0.126743  0.644871  0.500000  1
  Rh  Rh30  1  0.518129  0.873257  0.500000  1
  Rh  Rh31  1  0.355129  0.481871  0.500000  1
  Rh  Rh32  1  0.729414  0.729414  0.500000  1
  Rh  Rh33  1  0.270586  0.000000  0.500000  1
  Rh  Rh34  1  0.000000  0.270586  0.500000  1
  Rh  Rh35  1  0.000000  0.000000  0.000000  1
