# generated using pymatgen
data_Ho20Cd6FeNi
_symmetry_space_group_name_H-M   'P 1'
_cell_length_a   9.53320100
_cell_length_b   9.53320190
_cell_length_c   9.76466000
_cell_angle_alpha   90.00000000
_cell_angle_beta   90.00000000
_cell_angle_gamma   120.00000033
_symmetry_Int_Tables_number   1
_chemical_formula_structural   Ho20Cd6FeNi
_chemical_formula_sum   'Ho20 Cd6 Fe1 Ni1'
_cell_volume   768.53791379
_cell_formula_units_Z   1
loop_
 _symmetry_equiv_pos_site_id
 _symmetry_equiv_pos_as_xyz
  1  'x, y, z'
loop_
 _atom_site_type_symbol
 _atom_site_label
 _atom_site_symmetry_multiplicity
 _atom_site_fract_x
 _atom_site_fract_y
 _atom_site_fract_z
 _atom_site_occupancy
  Ho  Ho0  1  0.000000  0.000000  0.500041  1
  Ho  Ho1  1  0.000000  0.000000  0.999959  1
  Ho  Ho2  1  0.541727  0.458273  0.250000  1
  Ho  Ho3  1  0.541727  0.083454  0.250000  1
  Ho  Ho4  1  0.916546  0.458273  0.250000  1
  Ho  Ho5  1  0.456519  0.543481  0.750000  1
  Ho  Ho6  1  0.456519  0.913037  0.750000  1
  Ho  Ho7  1  0.086963  0.543481  0.750000  1
  Ho  Ho8  1  0.211978  0.788022  0.436267  1
  Ho  Ho9  1  0.211978  0.423958  0.436267  1
  Ho  Ho10  1  0.576042  0.788022  0.436267  1
  Ho  Ho11  1  0.789008  0.210992  0.562330  1
  Ho  Ho12  1  0.789008  0.578014  0.562330  1
  Ho  Ho13  1  0.421986  0.210992  0.562330  1
  Ho  Ho14  1  0.789008  0.210992  0.937670  1
  Ho  Ho15  1  0.789008  0.578014  0.937670  1
  Ho  Ho16  1  0.421986  0.210992  0.937670  1
  Ho  Ho17  1  0.211978  0.788022  0.063733  1
  Ho  Ho18  1  0.211978  0.423958  0.063733  1
  Ho  Ho19  1  0.576042  0.788022  0.063733  1
  Cd  Cd20  1  0.885162  0.114838  0.250000  1
  Cd  Cd21  1  0.885162  0.770324  0.250000  1
  Cd  Cd22  1  0.229676  0.114838  0.250000  1
  Cd  Cd23  1  0.114903  0.885097  0.750000  1
  Cd  Cd24  1  0.114903  0.229805  0.750000  1
  Cd  Cd25  1  0.770195  0.885097  0.750000  1
  Fe  Fe26  1  0.333333  0.666667  0.250000  1
  Ni  Ni27  1  0.666667  0.333333  0.750000  1
