# generated using pymatgen
data_TbY(Co5P3)2
_symmetry_space_group_name_H-M   'P 1'
_cell_length_a   3.65586000
_cell_length_b   10.29163700
_cell_length_c   11.75148800
_cell_angle_alpha   90.00000000
_cell_angle_beta   90.00000000
_cell_angle_gamma   90.00000000
_symmetry_Int_Tables_number   1
_chemical_formula_structural   TbY(Co5P3)2
_chemical_formula_sum   'Tb2 Y2 Co20 P12'
_cell_volume   442.14719818
_cell_formula_units_Z   2
loop_
 _symmetry_equiv_pos_site_id
 _symmetry_equiv_pos_as_xyz
  1  'x, y, z'
loop_
 _atom_site_type_symbol
 _atom_site_label
 _atom_site_symmetry_multiplicity
 _atom_site_fract_x
 _atom_site_fract_y
 _atom_site_fract_z
 _atom_site_occupancy
  Tb  Tb0  1  0.750000  0.416963  0.297284  1
  Tb  Tb1  1  0.750000  0.083037  0.797284  1
  Y  Y2  1  0.250000  0.582977  0.702667  1
  Y  Y3  1  0.250000  0.917023  0.202667  1
  Co  Co4  1  0.250000  0.715869  0.990992  1
  Co  Co5  1  0.250000  0.784131  0.490992  1
  Co  Co6  1  0.750000  0.284184  0.009235  1
  Co  Co7  1  0.750000  0.215816  0.509235  1
  Co  Co8  1  0.250000  0.406588  0.488424  1
  Co  Co9  1  0.250000  0.093412  0.988424  1
  Co  Co10  1  0.750000  0.593391  0.511741  1
  Co  Co11  1  0.750000  0.906609  0.011741  1
  Co  Co12  1  0.250000  0.221061  0.176522  1
  Co  Co13  1  0.250000  0.278939  0.676522  1
  Co  Co14  1  0.750000  0.778751  0.823497  1
  Co  Co15  1  0.750000  0.721249  0.323497  1
  Co  Co16  1  0.250000  0.882442  0.698293  1
  Co  Co17  1  0.250000  0.617558  0.198293  1
  Co  Co18  1  0.750000  0.117387  0.301668  1
  Co  Co19  1  0.750000  0.382613  0.801668  1
  Co  Co20  1  0.250000  0.467867  0.931763  1
  Co  Co21  1  0.250000  0.032133  0.431763  1
  Co  Co22  1  0.750000  0.532384  0.067987  1
  Co  Co23  1  0.750000  0.967616  0.567987  1
  P  P24  1  0.250000  0.418451  0.111575  1
  P  P25  1  0.250000  0.081549  0.611575  1
  P  P26  1  0.750000  0.581520  0.888141  1
  P  P27  1  0.750000  0.918480  0.388141  1
  P  P28  1  0.250000  0.271347  0.870403  1
  P  P29  1  0.250000  0.228653  0.370403  1
  P  P30  1  0.750000  0.728914  0.129725  1
  P  P31  1  0.750000  0.771086  0.629725  1
  P  P32  1  0.250000  0.602363  0.391571  1
  P  P33  1  0.250000  0.897637  0.891571  1
  P  P34  1  0.750000  0.397773  0.608514  1
  P  P35  1  0.750000  0.102227  0.108514  1
