# generated using pymatgen
data_CsK2Cu3As2
_symmetry_space_group_name_H-M   'P 1'
_cell_length_a   7.80290887
_cell_length_b   7.80290862
_cell_length_c   7.80290924
_cell_angle_alpha   44.74963788
_cell_angle_beta   44.74963825
_cell_angle_gamma   44.74964194
_symmetry_Int_Tables_number   1
_chemical_formula_structural   CsK2Cu3As2
_chemical_formula_sum   'Cs1 K2 Cu3 As2'
_cell_volume   214.20273426
_cell_formula_units_Z   1
loop_
 _symmetry_equiv_pos_site_id
 _symmetry_equiv_pos_as_xyz
  1  'x, y, z'
loop_
 _atom_site_type_symbol
 _atom_site_label
 _atom_site_symmetry_multiplicity
 _atom_site_fract_x
 _atom_site_fract_y
 _atom_site_fract_z
 _atom_site_occupancy
  Cs  Cs0  1  0.500000  0.500000  0.500000  1
  K  K1  1  0.088544  0.088544  0.088544  1
  K  K2  1  0.911456  0.911456  0.911456  1
  Cu  Cu3  1  0.500000  0.500000  0.000000  1
  Cu  Cu4  1  0.500000  0.000000  0.500000  1
  Cu  Cu5  1  0.000000  0.500000  0.500000  1
  As  As6  1  0.744205  0.744205  0.744205  1
  As  As7  1  0.255795  0.255795  0.255795  1
