# generated using pymatgen
data_Pr12Si(GeBr4)3
_symmetry_space_group_name_H-M   'P 1'
_cell_length_a   10.52644965
_cell_length_b   10.52644912
_cell_length_c   10.52644871
_cell_angle_alpha   109.45570402
_cell_angle_beta   109.45570377
_cell_angle_gamma   109.45569857
_symmetry_Int_Tables_number   1
_chemical_formula_structural   Pr12Si(GeBr4)3
_chemical_formula_sum   'Pr12 Si1 Ge3 Br12'
_cell_volume   898.40689783
_cell_formula_units_Z   1
loop_
 _symmetry_equiv_pos_site_id
 _symmetry_equiv_pos_as_xyz
  1  'x, y, z'
loop_
 _atom_site_type_symbol
 _atom_site_label
 _atom_site_symmetry_multiplicity
 _atom_site_fract_x
 _atom_site_fract_y
 _atom_site_fract_z
 _atom_site_occupancy
  Pr  Pr0  1  0.477622  0.486733  0.240376  1
  Pr  Pr1  1  0.750000  0.239772  0.260228  1
  Pr  Pr2  1  0.750000  0.010386  0.489614  1
  Pr  Pr3  1  0.240376  0.477622  0.486733  1
  Pr  Pr4  1  0.260228  0.750000  0.239772  1
  Pr  Pr5  1  0.022378  0.259624  0.013267  1
  Pr  Pr6  1  0.013267  0.022378  0.259624  1
  Pr  Pr7  1  0.489614  0.750000  0.010386  1
  Pr  Pr8  1  0.486733  0.240376  0.477622  1
  Pr  Pr9  1  0.010386  0.489614  0.750000  1
  Pr  Pr10  1  0.259624  0.013267  0.022378  1
  Pr  Pr11  1  0.239772  0.260228  0.750000  1
  Si  Si12  1  0.250000  0.250000  0.250000  1
  Ge  Ge13  1  0.499957  0.000043  0.250000  1
  Ge  Ge14  1  0.000043  0.250000  0.499957  1
  Ge  Ge15  1  0.250000  0.499957  0.000043  1
  Br  Br16  1  0.250000  0.753852  0.746148  1
  Br  Br17  1  0.508366  0.504367  0.754626  1
  Br  Br18  1  0.991634  0.745374  0.995633  1
  Br  Br19  1  0.746148  0.250000  0.753852  1
  Br  Br20  1  0.995633  0.991634  0.745374  1
  Br  Br21  1  0.250000  0.995571  0.504429  1
  Br  Br22  1  0.754626  0.508366  0.504367  1
  Br  Br23  1  0.504429  0.250000  0.995571  1
  Br  Br24  1  0.753852  0.746148  0.250000  1
  Br  Br25  1  0.745374  0.995633  0.991634  1
  Br  Br26  1  0.995571  0.504429  0.250000  1
  Br  Br27  1  0.504367  0.754626  0.508366  1
