# generated using pymatgen
data_Ho4Er4Si8Pd5Pt3
_symmetry_space_group_name_H-M   'P 1'
_cell_length_a   4.27734900
_cell_length_b   7.48487613
_cell_length_c   13.93740500
_cell_angle_alpha   90.01168247
_cell_angle_beta   90.00000000
_cell_angle_gamma   90.00000000
_symmetry_Int_Tables_number   1
_chemical_formula_structural   Ho4Er4Si8Pd5Pt3
_chemical_formula_sum   'Ho4 Er4 Si8 Pd5 Pt3'
_cell_volume   446.21196926
_cell_formula_units_Z   1
loop_
 _symmetry_equiv_pos_site_id
 _symmetry_equiv_pos_as_xyz
  1  'x, y, z'
loop_
 _atom_site_type_symbol
 _atom_site_label
 _atom_site_symmetry_multiplicity
 _atom_site_fract_x
 _atom_site_fract_y
 _atom_site_fract_z
 _atom_site_occupancy
  Ho  Ho0  1  0.000000  0.299527  0.000112  1
  Ho  Ho1  1  0.500000  0.701737  0.500231  1
  Ho  Ho2  1  0.000000  0.291986  0.499933  1
  Ho  Ho3  1  0.500000  0.708252  0.999765  1
  Er  Er4  1  0.000000  0.205409  0.250350  1
  Er  Er5  1  0.500000  0.793377  0.250201  1
  Er  Er6  1  0.000000  0.205096  0.749753  1
  Er  Er7  1  0.500000  0.794757  0.750405  1
  Si  Si8  1  0.000000  0.908387  0.592664  1
  Si  Si9  1  0.500000  0.091388  0.908614  1
  Si  Si10  1  0.000000  0.908169  0.406970  1
  Si  Si11  1  0.500000  0.093728  0.093593  1
  Si  Si12  1  0.000000  0.593167  0.143981  1
  Si  Si13  1  0.500000  0.405547  0.356728  1
  Si  Si14  1  0.000000  0.594553  0.856639  1
  Si  Si15  1  0.500000  0.405288  0.643048  1
  Pd  Pd16  1  0.000000  0.923814  0.107359  1
  Pd  Pd17  1  0.500000  0.421247  0.157635  1
  Pd  Pd18  1  0.000000  0.579715  0.341844  1
  Pd  Pd19  1  0.500000  0.420688  0.842461  1
  Pd  Pd20  1  0.000000  0.579203  0.658025  1
  Pt  Pt21  1  0.500000  0.074944  0.609308  1
  Pt  Pt22  1  0.000000  0.925103  0.890212  1
  Pt  Pt23  1  0.500000  0.074918  0.390171  1
