# generated using pymatgen
data_Pr2Zn21Cu
_symmetry_space_group_name_H-M   'P 1'
_cell_length_a   8.26210931
_cell_length_b   8.26898439
_cell_length_c   8.26898396
_cell_angle_alpha   99.92106686
_cell_angle_beta   99.87590716
_cell_angle_gamma   131.06255002
_symmetry_Int_Tables_number   1
_chemical_formula_structural   Pr2Zn21Cu
_chemical_formula_sum   'Pr2 Zn21 Cu1'
_cell_volume   387.53645328
_cell_formula_units_Z   1
loop_
 _symmetry_equiv_pos_site_id
 _symmetry_equiv_pos_as_xyz
  1  'x, y, z'
loop_
 _atom_site_type_symbol
 _atom_site_label
 _atom_site_symmetry_multiplicity
 _atom_site_fract_x
 _atom_site_fract_y
 _atom_site_fract_z
 _atom_site_occupancy
  Pr  Pr0  1  0.499008  0.498175  0.000832  1
  Pr  Pr1  1  0.750992  0.251825  0.499168  1
  Zn  Zn2  1  0.846330  0.430495  0.172606  1
  Zn  Zn3  1  0.125000  0.875000  0.750000  1
  Zn  Zn4  1  0.326494  0.155523  0.585802  1
  Zn  Zn5  1  0.261988  0.434607  0.586736  1
  Zn  Zn6  1  0.326494  0.740693  0.170971  1
  Zn  Zn7  1  0.988012  0.315393  0.913264  1
  Zn  Zn8  1  0.261988  0.675253  0.827382  1
  Zn  Zn9  1  0.255860  0.751959  0.503902  1
  Zn  Zn10  1  0.988012  0.074747  0.672618  1
  Zn  Zn11  1  0.994140  0.998041  0.996098  1
  Zn  Zn12  1  0.680623  0.006810  0.079441  1
  Zn  Zn13  1  0.403670  0.319505  0.327394  1
  Zn  Zn14  1  0.923506  0.009307  0.329029  1
  Zn  Zn15  1  0.846330  0.673724  0.415835  1
  Zn  Zn16  1  0.569377  0.743190  0.420559  1
  Zn  Zn17  1  0.680623  0.601182  0.673813  1
  Zn  Zn18  1  0.403670  0.076276  0.084165  1
  Zn  Zn19  1  0.923506  0.594477  0.914198  1
  Zn  Zn20  1  0.569377  0.148818  0.826187  1
  Zn  Zn21  1  0.125000  0.875000  0.250000  1
  Zn  Zn22  1  0.125000  0.375000  0.250000  1
  Cu  Cu23  1  0.625000  0.875000  0.750000  1
