# generated using pymatgen
data_CsRb(SnSe2)4
_symmetry_space_group_name_H-M   'P 1'
_cell_length_a   10.39299961
_cell_length_b   10.43103743
_cell_length_c   7.77079773
_cell_angle_alpha   87.23359796
_cell_angle_beta   89.54965215
_cell_angle_gamma   141.14911344
_symmetry_Int_Tables_number   1
_chemical_formula_structural   CsRb(SnSe2)4
_chemical_formula_sum   'Cs1 Rb1 Sn4 Se8'
_cell_volume   526.44677421
_cell_formula_units_Z   1
loop_
 _symmetry_equiv_pos_site_id
 _symmetry_equiv_pos_as_xyz
  1  'x, y, z'
loop_
 _atom_site_type_symbol
 _atom_site_label
 _atom_site_symmetry_multiplicity
 _atom_site_fract_x
 _atom_site_fract_y
 _atom_site_fract_z
 _atom_site_occupancy
  Cs  Cs0  1  0.340670  0.027527  0.974621  1
  Rb  Rb1  1  0.032666  0.346227  0.965255  1
  Sn  Sn2  1  0.590180  0.592834  0.378755  1
  Sn  Sn3  1  0.481605  0.857558  0.555037  1
  Sn  Sn4  1  0.857316  0.478862  0.556143  1
  Sn  Sn5  1  0.679555  0.681914  0.869005  1
  Se  Se6  1  0.505359  0.118950  0.463387  1
  Se  Se7  1  0.120544  0.506848  0.463301  1
  Se  Se8  1  0.379881  0.385062  0.124389  1
  Se  Se9  1  0.745431  0.944042  0.353941  1
  Se  Se10  1  0.381621  0.384087  0.663041  1
  Se  Se11  1  0.855461  0.527226  0.866857  1
  Se  Se12  1  0.536908  0.851294  0.867712  1
  Se  Se13  1  0.939800  0.744565  0.355156  1
