# generated using pymatgen
data_MnAlV10Si3Os
_symmetry_space_group_name_H-M   'P 1'
_cell_length_a   4.67829900
_cell_length_b   4.67457800
_cell_length_c   9.48548400
_cell_angle_alpha   90.00000000
_cell_angle_beta   90.00000000
_cell_angle_gamma   90.00000000
_symmetry_Int_Tables_number   1
_chemical_formula_structural   MnAlV10Si3Os
_chemical_formula_sum   'Mn1 Al1 V10 Si3 Os1'
_cell_volume   207.43874756
_cell_formula_units_Z   1
loop_
 _symmetry_equiv_pos_site_id
 _symmetry_equiv_pos_as_xyz
  1  'x, y, z'
loop_
 _atom_site_type_symbol
 _atom_site_label
 _atom_site_symmetry_multiplicity
 _atom_site_fract_x
 _atom_site_fract_y
 _atom_site_fract_z
 _atom_site_occupancy
  Mn  Mn0  1  0.000000  0.500000  0.624492  1
  Al  Al1  1  0.500000  0.500000  0.996916  1
  V  V2  1  0.500000  0.247326  0.744967  1
  V  V3  1  0.500000  0.246139  0.254578  1
  V  V4  1  0.751925  0.000000  0.999112  1
  V  V5  1  0.749883  0.000000  0.500853  1
  V  V6  1  0.000000  0.500000  0.865101  1
  V  V7  1  0.000000  0.500000  0.383175  1
  V  V8  1  0.500000  0.752674  0.744967  1
  V  V9  1  0.500000  0.753861  0.254578  1
  V  V10  1  0.248075  0.000000  0.999112  1
  V  V11  1  0.250117  0.000000  0.500853  1
  Si  Si12  1  0.500000  0.500000  0.499588  1
  Si  Si13  1  0.000000  0.000000  0.750642  1
  Si  Si14  1  0.000000  0.000000  0.255260  1
  Os  Os15  1  0.000000  0.500000  0.125809  1
