# generated using pymatgen
data_Yb3ScBi3
_symmetry_space_group_name_H-M   'P 1'
_cell_length_a   8.02538438
_cell_length_b   8.27879998
_cell_length_c   8.27879998
_cell_angle_alpha   110.08296698
_cell_angle_beta   108.85231661
_cell_angle_gamma   108.85232425
_symmetry_Int_Tables_number   1
_chemical_formula_structural   Yb3ScBi3
_chemical_formula_sum   'Yb6 Sc2 Bi6'
_cell_volume   426.61785995
_cell_formula_units_Z   2
loop_
 _symmetry_equiv_pos_site_id
 _symmetry_equiv_pos_as_xyz
  1  'x, y, z'
loop_
 _atom_site_type_symbol
 _atom_site_label
 _atom_site_symmetry_multiplicity
 _atom_site_fract_x
 _atom_site_fract_y
 _atom_site_fract_z
 _atom_site_occupancy
  Yb  Yb0  1  0.501787  0.001565  0.649447  1
  Yb  Yb1  1  0.352339  0.352117  0.350553  1
  Yb  Yb2  1  0.500222  0.998435  0.147883  1
  Yb  Yb3  1  0.000222  0.647883  0.498435  1
  Yb  Yb4  1  0.852339  0.850553  0.852117  1
  Yb  Yb5  1  0.001787  0.149447  0.501565  1
  Sc  Sc6  1  0.140797  0.500000  0.000000  1
  Sc  Sc7  1  0.640797  0.500000  0.000000  1
  Bi  Bi8  1  0.378560  0.618219  0.762608  1
  Bi  Bi9  1  0.878560  0.262608  0.118219  1
  Bi  Bi10  1  0.615952  0.737392  0.355610  1
  Bi  Bi11  1  0.115952  0.855610  0.237392  1
  Bi  Bi12  1  0.260342  0.144390  0.881781  1
  Bi  Bi13  1  0.760342  0.381781  0.644390  1
