# generated using pymatgen
data_Tb6Tm10CdHg3Ir4
_symmetry_space_group_name_H-M   'P 1'
_cell_length_a   9.52890584
_cell_length_b   9.54433581
_cell_length_c   9.54433500
_cell_angle_alpha   59.99999934
_cell_angle_beta   59.94641949
_cell_angle_gamma   59.94642708
_symmetry_Int_Tables_number   1
_chemical_formula_structural   Tb6Tm10CdHg3Ir4
_chemical_formula_sum   'Tb6 Tm10 Cd1 Hg3 Ir4'
_cell_volume   613.29192846
_cell_formula_units_Z   1
loop_
 _symmetry_equiv_pos_site_id
 _symmetry_equiv_pos_as_xyz
  1  'x, y, z'
loop_
 _atom_site_type_symbol
 _atom_site_label
 _atom_site_symmetry_multiplicity
 _atom_site_fract_x
 _atom_site_fract_y
 _atom_site_fract_z
 _atom_site_occupancy
  Tb  Tb0  1  0.187763  0.811608  0.811608  1
  Tb  Tb1  1  0.810980  0.188733  0.188733  1
  Tb  Tb2  1  0.810980  0.188733  0.811554  1
  Tb  Tb3  1  0.187763  0.811608  0.189021  1
  Tb  Tb4  1  0.810980  0.811554  0.188733  1
  Tb  Tb5  1  0.187763  0.189021  0.811608  1
  Tm  Tm6  1  0.600576  0.600189  0.600189  1
  Tm  Tm7  1  0.600576  0.600189  0.199045  1
  Tm  Tm8  1  0.600576  0.199045  0.600189  1
  Tm  Tm9  1  0.196071  0.601310  0.601310  1
  Tm  Tm10  1  0.062194  0.437882  0.437882  1
  Tm  Tm11  1  0.436927  0.062624  0.062624  1
  Tm  Tm12  1  0.436927  0.062624  0.437826  1
  Tm  Tm13  1  0.062194  0.437882  0.062041  1
  Tm  Tm14  1  0.436927  0.437826  0.062624  1
  Tm  Tm15  1  0.062194  0.062041  0.437882  1
  Cd  Cd16  1  0.513468  0.828844  0.828844  1
  Hg  Hg17  1  0.832181  0.834051  0.834051  1
  Hg  Hg18  1  0.832181  0.834051  0.499716  1
  Hg  Hg19  1  0.832181  0.499716  0.834051  1
  Ir  Ir20  1  0.392068  0.392856  0.392856  1
  Ir  Ir21  1  0.392068  0.392856  0.822219  1
  Ir  Ir22  1  0.392068  0.822219  0.392856  1
  Ir  Ir23  1  0.822391  0.392536  0.392536  1
