# generated using pymatgen
data_Y3TmAl2(B2Rh5)2
_symmetry_space_group_name_H-M   'P 1'
_cell_length_a   9.51975757
_cell_length_b   9.51978757
_cell_length_c   3.17613600
_cell_angle_alpha   90.00000000
_cell_angle_beta   90.00000000
_cell_angle_gamma   90.35063261
_symmetry_Int_Tables_number   1
_chemical_formula_structural   Y3TmAl2(B2Rh5)2
_chemical_formula_sum   'Y3 Tm1 Al2 B4 Rh10'
_cell_volume   287.83533259
_cell_formula_units_Z   1
loop_
 _symmetry_equiv_pos_site_id
 _symmetry_equiv_pos_as_xyz
  1  'x, y, z'
loop_
 _atom_site_type_symbol
 _atom_site_label
 _atom_site_symmetry_multiplicity
 _atom_site_fract_x
 _atom_site_fract_y
 _atom_site_fract_z
 _atom_site_occupancy
  Y  Y0  1  0.324759  0.176154  0.000000  1
  Y  Y1  1  0.676151  0.824760  0.000000  1
  Y  Y2  1  0.175028  0.675026  0.000000  1
  Tm  Tm3  1  0.824850  0.324850  0.000000  1
  Al  Al4  1  0.000098  0.999219  0.000000  1
  Al  Al5  1  0.499220  0.500098  0.000000  1
  B  B6  1  0.623229  0.123229  0.000000  1
  B  B7  1  0.119643  0.377446  0.000000  1
  B  B8  1  0.877445  0.619641  0.000000  1
  B  B9  1  0.378865  0.878864  0.000000  1
  Rh  Rh10  1  0.067824  0.218728  0.500000  1
  Rh  Rh11  1  0.219546  0.930466  0.500000  1
  Rh  Rh12  1  0.782396  0.072263  0.500000  1
  Rh  Rh13  1  0.929937  0.779981  0.500000  1
  Rh  Rh14  1  0.430471  0.719548  0.500000  1
  Rh  Rh15  1  0.572262  0.282396  0.500000  1
  Rh  Rh16  1  0.718727  0.567823  0.500000  1
  Rh  Rh17  1  0.279984  0.429940  0.500000  1
  Rh  Rh18  1  0.501079  0.001080  0.500000  1
  Rh  Rh19  1  0.998485  0.498486  0.500000  1
