# generated using pymatgen
data_Hf8FeCo6Si14Rh
_symmetry_space_group_name_H-M   'P 1'
_cell_length_a   9.46271801
_cell_length_b   9.44582757
_cell_length_c   9.45748030
_cell_angle_alpha   94.10948691
_cell_angle_beta   94.21041039
_cell_angle_gamma   148.75119264
_symmetry_Int_Tables_number   1
_chemical_formula_structural   Hf8FeCo6Si14Rh
_chemical_formula_sum   'Hf8 Fe1 Co6 Si14 Rh1'
_cell_volume   422.31903653
_cell_formula_units_Z   1
loop_
 _symmetry_equiv_pos_site_id
 _symmetry_equiv_pos_as_xyz
  1  'x, y, z'
loop_
 _atom_site_type_symbol
 _atom_site_label
 _atom_site_symmetry_multiplicity
 _atom_site_fract_x
 _atom_site_fract_y
 _atom_site_fract_z
 _atom_site_occupancy
  Hf  Hf0  1  0.137107  0.137091  0.274305  1
  Hf  Hf1  1  0.862008  0.862015  0.724082  1
  Hf  Hf2  1  0.135463  0.861205  0.998964  1
  Hf  Hf3  1  0.863469  0.137732  0.999006  1
  Hf  Hf4  1  0.303517  0.498641  0.803043  1
  Hf  Hf5  1  0.695197  0.501177  0.195252  1
  Hf  Hf6  1  0.499916  0.693920  0.195248  1
  Hf  Hf7  1  0.499489  0.304414  0.803037  1
  Fe  Fe8  1  0.396456  0.896398  0.792045  1
  Co  Co9  1  0.900963  0.103939  0.503180  1
  Co  Co10  1  0.602141  0.399115  0.503180  1
  Co  Co11  1  0.602545  0.102565  0.204892  1
  Co  Co12  1  0.899692  0.399713  0.798605  1
  Co  Co13  1  0.100529  0.897099  0.499005  1
  Co  Co14  1  0.398354  0.601798  0.499018  1
  Si  Si15  1  0.290117  0.290116  0.580259  1
  Si  Si16  1  0.709668  0.709665  0.419469  1
  Si  Si17  1  0.301602  0.719442  0.995251  1
  Si  Si18  1  0.693718  0.275906  0.995379  1
  Si  Si19  1  0.095619  0.504554  0.592766  1
  Si  Si20  1  0.890934  0.485836  0.412629  1
  Si  Si21  1  0.521553  0.926642  0.412652  1
  Si  Si22  1  0.497243  0.088312  0.592709  1
  Si  Si23  1  0.250343  0.250244  0.999053  1
  Si  Si24  1  0.748661  0.748769  0.999062  1
  Si  Si25  1  0.306840  0.011886  0.301617  1
  Si  Si26  1  0.698656  0.999593  0.700014  1
  Si  Si27  1  0.001561  0.700596  0.700046  1
  Si  Si28  1  0.994506  0.289492  0.301586  1
  Rh  Rh29  1  0.102130  0.602125  0.204647  1
