# generated using pymatgen
data_Pr12BAs(PBr6)2
_symmetry_space_group_name_H-M   'P 1'
_cell_length_a   10.49832489
_cell_length_b   10.33288257
_cell_length_c   10.35034316
_cell_angle_alpha   109.11824150
_cell_angle_beta   109.76820751
_cell_angle_gamma   109.78166674
_symmetry_Int_Tables_number   1
_chemical_formula_structural   Pr12BAs(PBr6)2
_chemical_formula_sum   'Pr12 B1 As1 P2 Br12'
_cell_volume   861.56646172
_cell_formula_units_Z   1
loop_
 _symmetry_equiv_pos_site_id
 _symmetry_equiv_pos_as_xyz
  1  'x, y, z'
loop_
 _atom_site_type_symbol
 _atom_site_label
 _atom_site_symmetry_multiplicity
 _atom_site_fract_x
 _atom_site_fract_y
 _atom_site_fract_z
 _atom_site_occupancy
  Pr  Pr0  1  0.466348  0.489265  0.227996  1
  Pr  Pr1  1  0.742266  0.234151  0.259172  1
  Pr  Pr2  1  0.742888  0.007343  0.483837  1
  Pr  Pr3  1  0.240949  0.476495  0.483837  1
  Pr  Pr4  1  0.261649  0.738731  0.227996  1
  Pr  Pr5  1  0.034159  0.273740  0.011526  1
  Pr  Pr6  1  0.016906  0.025020  0.259172  1
  Pr  Pr7  1  0.477365  0.737786  0.011526  1
  Pr  Pr8  1  0.484996  0.234996  0.469993  1
  Pr  Pr9  1  0.025784  0.494713  0.769505  1
  Pr  Pr10  1  0.264110  0.014110  0.028220  1
  Pr  Pr11  1  0.243721  0.274792  0.769505  1
  B  B12  1  0.249981  0.499981  0.999962  1
  As  As13  1  0.000387  0.250387  0.500773  1
  P  P14  1  0.250829  0.251180  0.248723  1
  P  P15  1  0.497893  0.997542  0.248723  1
  Br  Br16  1  0.250150  0.756101  0.744513  1
  Br  Br17  1  0.510718  0.504917  0.755890  1
  Br  Br18  1  0.987952  0.743372  0.994737  1
  Br  Br19  1  0.745172  0.250974  0.755890  1
  Br  Br20  1  0.994363  0.988412  0.744513  1
  Br  Br21  1  0.249816  0.995365  0.503718  1
  Br  Br22  1  0.753902  0.508353  0.503718  1
  Br  Br23  1  0.506785  0.251366  0.994737  1
  Br  Br24  1  0.754271  0.743550  0.248589  1
  Br  Br25  1  0.745855  0.995855  0.991710  1
  Br  Br26  1  0.994318  0.505040  0.248589  1
  Br  Br27  1  0.506466  0.756466  0.512931  1
