# generated using pymatgen
data_Hf14Cu17PtAu2
_symmetry_space_group_name_H-M   'P 1'
_cell_length_a   7.89012574
_cell_length_b   7.89012627
_cell_length_c   9.34478562
_cell_angle_alpha   89.91514279
_cell_angle_beta   89.91514149
_cell_angle_gamma   107.22740690
_symmetry_Int_Tables_number   1
_chemical_formula_structural   Hf14Cu17PtAu2
_chemical_formula_sum   'Hf14 Cu17 Pt1 Au2'
_cell_volume   555.65016383
_cell_formula_units_Z   1
loop_
 _symmetry_equiv_pos_site_id
 _symmetry_equiv_pos_as_xyz
  1  'x, y, z'
loop_
 _atom_site_type_symbol
 _atom_site_label
 _atom_site_symmetry_multiplicity
 _atom_site_fract_x
 _atom_site_fract_y
 _atom_site_fract_z
 _atom_site_occupancy
  Hf  Hf0  1  0.693339  0.306740  0.000244  1
  Hf  Hf1  1  0.306740  0.693339  0.000244  1
  Hf  Hf2  1  0.810332  0.187266  0.500444  1
  Hf  Hf3  1  0.187266  0.810332  0.500444  1
  Hf  Hf4  1  0.999776  0.999776  0.999738  1
  Hf  Hf5  1  0.500364  0.500364  0.500699  1
  Hf  Hf6  1  0.006601  0.508500  0.250105  1
  Hf  Hf7  1  0.993682  0.492132  0.749074  1
  Hf  Hf8  1  0.492132  0.993682  0.749074  1
  Hf  Hf9  1  0.508500  0.006601  0.250105  1
  Hf  Hf10  1  0.309111  0.309111  0.193118  1
  Hf  Hf11  1  0.692596  0.692596  0.806327  1
  Hf  Hf12  1  0.182456  0.182456  0.682241  1
  Hf  Hf13  1  0.816688  0.816688  0.318801  1
  Cu  Cu14  1  0.866658  0.158063  0.205369  1
  Cu  Cu15  1  0.138927  0.841125  0.798063  1
  Cu  Cu16  1  0.641641  0.342170  0.701810  1
  Cu  Cu17  1  0.657538  0.357711  0.299006  1
  Cu  Cu18  1  0.357711  0.657538  0.299006  1
  Cu  Cu19  1  0.342170  0.641641  0.701810  1
  Cu  Cu20  1  0.841125  0.138927  0.798063  1
  Cu  Cu21  1  0.158063  0.866658  0.205369  1
  Cu  Cu22  1  0.947441  0.649053  0.003890  1
  Cu  Cu23  1  0.051147  0.350196  0.996183  1
  Cu  Cu24  1  0.551452  0.850296  0.505256  1
  Cu  Cu25  1  0.149243  0.442467  0.492568  1
  Cu  Cu26  1  0.442467  0.149243  0.492568  1
  Cu  Cu27  1  0.850296  0.551452  0.505256  1
  Cu  Cu28  1  0.350196  0.051147  0.996183  1
  Cu  Cu29  1  0.649053  0.947441  0.003890  1
  Cu  Cu30  1  0.108991  0.108991  0.391455  1
  Pt  Pt31  1  0.897725  0.897725  0.602242  1
  Au  Au32  1  0.387765  0.387765  0.890431  1
  Au  Au33  1  0.610808  0.610808  0.110925  1
