# generated using pymatgen
data_Ti3AsN
_symmetry_space_group_name_H-M   'P 1'
_cell_length_a   5.40040701
_cell_length_b   5.40040682
_cell_length_c   7.98056000
_cell_angle_alpha   90.00000000
_cell_angle_beta   90.00000000
_cell_angle_gamma   144.80620738
_symmetry_Int_Tables_number   1
_chemical_formula_structural   Ti3AsN
_chemical_formula_sum   'Ti6 As2 N2'
_cell_volume   134.14298001
_cell_formula_units_Z   2
loop_
 _symmetry_equiv_pos_site_id
 _symmetry_equiv_pos_as_xyz
  1  'x, y, z'
loop_
 _atom_site_type_symbol
 _atom_site_label
 _atom_site_symmetry_multiplicity
 _atom_site_fract_x
 _atom_site_fract_y
 _atom_site_fract_z
 _atom_site_occupancy
  Ti  Ti0  1  0.946923  0.053077  0.250000  1
  Ti  Ti1  1  0.053077  0.946923  0.750000  1
  Ti  Ti2  1  0.628843  0.371157  0.449708  1
  Ti  Ti3  1  0.371157  0.628843  0.550292  1
  Ti  Ti4  1  0.628843  0.371157  0.050292  1
  Ti  Ti5  1  0.371157  0.628843  0.949708  1
  As  As6  1  0.253838  0.746162  0.250000  1
  As  As7  1  0.746162  0.253838  0.750000  1
  N  N8  1  0.000000  0.000000  0.500000  1
  N  N9  1  0.000000  0.000000  0.000000  1
