# generated using pymatgen
data_Tb13Dy7Si15Os
_symmetry_space_group_name_H-M   'P 1'
_cell_length_a   7.41041530
_cell_length_b   7.76919682
_cell_length_c   14.64357110
_cell_angle_alpha   90.00473998
_cell_angle_beta   90.01276477
_cell_angle_gamma   90.07616279
_symmetry_Int_Tables_number   1
_chemical_formula_structural   Tb13Dy7Si15Os
_chemical_formula_sum   'Tb13 Dy7 Si15 Os1'
_cell_volume   843.07318426
_cell_formula_units_Z   1
loop_
 _symmetry_equiv_pos_site_id
 _symmetry_equiv_pos_as_xyz
  1  'x, y, z'
loop_
 _atom_site_type_symbol
 _atom_site_label
 _atom_site_symmetry_multiplicity
 _atom_site_fract_x
 _atom_site_fract_y
 _atom_site_fract_z
 _atom_site_occupancy
  Tb  Tb0  1  0.817581  0.679335  0.377160  1
  Tb  Tb1  1  0.318904  0.819194  0.376576  1
  Tb  Tb2  1  0.817541  0.679380  0.122839  1
  Tb  Tb3  1  0.672049  0.185143  0.874966  1
  Tb  Tb4  1  0.190777  0.323489  0.626372  1
  Tb  Tb5  1  0.522781  0.674239  0.597396  1
  Tb  Tb6  1  0.027120  0.816068  0.903204  1
  Tb  Tb7  1  0.473024  0.315481  0.097373  1
  Tb  Tb8  1  0.973109  0.183741  0.402648  1
  Tb  Tb9  1  0.473142  0.315422  0.402656  1
  Tb  Tb10  1  0.973167  0.183827  0.097331  1
  Tb  Tb11  1  0.522499  0.674220  0.902585  1
  Tb  Tb12  1  0.027065  0.815983  0.596835  1
  Dy  Dy13  1  0.672148  0.185056  0.625033  1
  Dy  Dy14  1  0.190740  0.323721  0.873702  1
  Dy  Dy15  1  0.318901  0.819192  0.123386  1
  Dy  Dy16  1  0.840119  0.512179  0.749985  1
  Dy  Dy17  1  0.354470  0.986310  0.750017  1
  Dy  Dy18  1  0.150556  0.484181  0.249979  1
  Dy  Dy19  1  0.650050  0.014832  0.249975  1
  Si  Si20  1  0.645503  0.971987  0.460416  1
  Si  Si21  1  0.148276  0.528354  0.039367  1
  Si  Si22  1  0.349761  0.025213  0.961095  1
  Si  Si23  1  0.856639  0.471362  0.539146  1
  Si  Si24  1  0.350273  0.025346  0.539094  1
  Si  Si25  1  0.857178  0.471426  0.960819  1
  Si  Si26  1  0.645103  0.971649  0.039797  1
  Si  Si27  1  0.147947  0.528283  0.460592  1
  Si  Si28  1  0.978508  0.100161  0.749955  1
  Si  Si29  1  0.524326  0.602882  0.249892  1
  Si  Si30  1  0.021903  0.895801  0.249885  1
  Si  Si31  1  0.741423  0.876340  0.749922  1
  Si  Si32  1  0.232212  0.632487  0.750138  1
  Si  Si33  1  0.266830  0.126976  0.249923  1
  Si  Si34  1  0.767761  0.373616  0.249975  1
  Os  Os35  1  0.480611  0.407122  0.749968  1
