# generated using pymatgen
data_TbTh2Ni9
_symmetry_space_group_name_H-M   'P 1'
_cell_length_a   4.99982722
_cell_length_b   4.99982731
_cell_length_c   8.76824940
_cell_angle_alpha   73.43459363
_cell_angle_beta   73.43459071
_cell_angle_gamma   60.00000231
_symmetry_Int_Tables_number   1
_chemical_formula_structural   TbTh2Ni9
_chemical_formula_sum   'Tb1 Th2 Ni9'
_cell_volume   179.24316607
_cell_formula_units_Z   1
loop_
 _symmetry_equiv_pos_site_id
 _symmetry_equiv_pos_as_xyz
  1  'x, y, z'
loop_
 _atom_site_type_symbol
 _atom_site_label
 _atom_site_symmetry_multiplicity
 _atom_site_fract_x
 _atom_site_fract_y
 _atom_site_fract_z
 _atom_site_occupancy
  Tb  Tb0  1  0.862311  0.862311  0.413067  1
  Th  Th1  1  0.138726  0.138726  0.583822  1
  Th  Th2  1  0.998591  0.998591  0.004228  1
  Ni  Ni3  1  0.080883  0.583330  0.752456  1
  Ni  Ni4  1  0.583330  0.583330  0.752456  1
  Ni  Ni5  1  0.583330  0.080883  0.752456  1
  Ni  Ni6  1  0.918504  0.417001  0.247495  1
  Ni  Ni7  1  0.417001  0.417001  0.247495  1
  Ni  Ni8  1  0.417001  0.918504  0.247495  1
  Ni  Ni9  1  0.333077  0.333077  0.000767  1
  Ni  Ni10  1  0.666715  0.666715  0.999855  1
  Ni  Ni11  1  0.500531  0.500531  0.498406  1
