# generated using pymatgen
data_Sm5Dy2CoBr12
_symmetry_space_group_name_H-M   'P 1'
_cell_length_a   9.32116520
_cell_length_b   9.33763410
_cell_length_c   9.35330506
_cell_angle_alpha   107.02225162
_cell_angle_beta   106.66721405
_cell_angle_gamma   106.79365754
_symmetry_Int_Tables_number   1
_chemical_formula_structural   Sm5Dy2CoBr12
_chemical_formula_sum   'Sm5 Dy2 Co1 Br12'
_cell_volume   681.13766959
_cell_formula_units_Z   1
loop_
 _symmetry_equiv_pos_site_id
 _symmetry_equiv_pos_as_xyz
  1  'x, y, z'
loop_
 _atom_site_type_symbol
 _atom_site_label
 _atom_site_symmetry_multiplicity
 _atom_site_fract_x
 _atom_site_fract_y
 _atom_site_fract_z
 _atom_site_occupancy
  Sm  Sm0  1  0.021002  0.098791  0.304726  1
  Sm  Sm1  1  0.097297  0.305012  0.021956  1
  Sm  Sm2  1  0.306106  0.022075  0.098573  1
  Sm  Sm3  1  0.979146  0.901116  0.695066  1
  Sm  Sm4  1  0.899850  0.694038  0.977304  1
  Dy  Dy5  1  0.499137  0.500369  0.499905  1
  Dy  Dy6  1  0.700154  0.977808  0.902873  1
  Co  Co7  1  0.000059  0.999539  0.999856  1
  Br  Br8  1  0.171614  0.464703  0.388443  1
  Br  Br9  1  0.464027  0.388948  0.172717  1
  Br  Br10  1  0.388115  0.172630  0.463910  1
  Br  Br11  1  0.826889  0.535315  0.611491  1
  Br  Br12  1  0.535904  0.616607  0.828107  1
  Br  Br13  1  0.612350  0.830397  0.541869  1
  Br  Br14  1  0.678064  0.068980  0.216999  1
  Br  Br15  1  0.071160  0.224357  0.680117  1
  Br  Br16  1  0.223462  0.679574  0.071109  1
  Br  Br17  1  0.325639  0.930246  0.777709  1
  Br  Br18  1  0.928606  0.775612  0.319970  1
  Br  Br19  1  0.771418  0.313883  0.927301  1
