# generated using pymatgen
data_Na2Nb3Ni9As7
_symmetry_space_group_name_H-M   'P 1'
_cell_length_a   9.65838400
_cell_length_b   9.65838372
_cell_length_c   3.81521300
_cell_angle_alpha   90.00000000
_cell_angle_beta   90.00000000
_cell_angle_gamma   120.00000782
_symmetry_Int_Tables_number   1
_chemical_formula_structural   Na2Nb3Ni9As7
_chemical_formula_sum   'Na2 Nb3 Ni9 As7'
_cell_volume   308.21822169
_cell_formula_units_Z   1
loop_
 _symmetry_equiv_pos_site_id
 _symmetry_equiv_pos_as_xyz
  1  'x, y, z'
loop_
 _atom_site_type_symbol
 _atom_site_label
 _atom_site_symmetry_multiplicity
 _atom_site_fract_x
 _atom_site_fract_y
 _atom_site_fract_z
 _atom_site_occupancy
  Na  Na0  1  0.333333  0.666667  0.000000  1
  Na  Na1  1  0.666667  0.333333  0.500000  1
  Nb  Nb2  1  0.222931  0.122449  0.500000  1
  Nb  Nb3  1  0.877551  0.100483  0.500000  1
  Nb  Nb4  1  0.899517  0.777069  0.500000  1
  Ni  Ni5  1  0.123906  0.284533  0.000000  1
  Ni  Ni6  1  0.715467  0.839374  0.000000  1
  Ni  Ni7  1  0.160626  0.876094  0.000000  1
  Ni  Ni8  1  0.426403  0.368863  0.000000  1
  Ni  Ni9  1  0.631137  0.057540  0.000000  1
  Ni  Ni10  1  0.942460  0.573597  0.000000  1
  Ni  Ni11  1  0.050708  0.435564  0.500000  1
  Ni  Ni12  1  0.564436  0.615145  0.500000  1
  Ni  Ni13  1  0.384855  0.949292  0.500000  1
  As  As14  1  0.291994  0.418238  0.500000  1
  As  As15  1  0.581762  0.873757  0.500000  1
  As  As16  1  0.126243  0.708006  0.500000  1
  As  As17  1  0.420185  0.116314  0.000000  1
  As  As18  1  0.883686  0.303872  0.000000  1
  As  As19  1  0.696128  0.579815  0.000000  1
  As  As20  1  0.000000  0.000000  0.000000  1
