# generated using pymatgen
data_Ca2Nd2MgAl17Pd6
_symmetry_space_group_name_H-M   'P 1'
_cell_length_a   7.73105383
_cell_length_b   7.72081199
_cell_length_c   9.56433734
_cell_angle_alpha   90.16953269
_cell_angle_beta   89.82788156
_cell_angle_gamma   119.45762436
_symmetry_Int_Tables_number   1
_chemical_formula_structural   Ca2Nd2MgAl17Pd6
_chemical_formula_sum   'Ca2 Nd2 Mg1 Al17 Pd6'
_cell_volume   497.08689969
_cell_formula_units_Z   1
loop_
 _symmetry_equiv_pos_site_id
 _symmetry_equiv_pos_as_xyz
  1  'x, y, z'
loop_
 _atom_site_type_symbol
 _atom_site_label
 _atom_site_symmetry_multiplicity
 _atom_site_fract_x
 _atom_site_fract_y
 _atom_site_fract_z
 _atom_site_occupancy
  Ca  Ca0  1  0.995577  0.674650  0.251428  1
  Ca  Ca1  1  0.004955  0.330202  0.748521  1
  Nd  Nd2  1  0.668877  0.991726  0.252483  1
  Nd  Nd3  1  0.328128  0.002709  0.748893  1
  Mg  Mg4  1  0.997763  0.337947  0.076437  1
  Al  Al5  1  0.131560  0.132975  0.250526  1
  Al  Al6  1  0.869308  0.866565  0.751413  1
  Al  Al7  1  0.997289  0.661266  0.924738  1
  Al  Al8  1  0.996554  0.662027  0.575908  1
  Al  Al9  1  0.333227  0.001554  0.421555  1
  Al  Al10  1  0.003585  0.336796  0.422326  1
  Al  Al11  1  0.668810  0.000052  0.578039  1
  Al  Al12  1  0.669207  0.001914  0.924036  1
  Al  Al13  1  0.333397  0.001115  0.077377  1
  Al  Al14  1  0.332994  0.335030  0.552614  1
  Al  Al15  1  0.666221  0.664021  0.447260  1
  Al  Al16  1  0.666769  0.664681  0.050750  1
  Al  Al17  1  0.330928  0.334661  0.946858  1
  Al  Al18  1  0.344263  0.546156  0.250198  1
  Al  Al19  1  0.657052  0.453946  0.749260  1
  Al  Al20  1  0.547046  0.338615  0.249214  1
  Al  Al21  1  0.457043  0.662878  0.751013  1
  Pd  Pd22  1  0.659807  0.326776  0.996232  1
  Pd  Pd23  1  0.336826  0.679808  0.999459  1
  Pd  Pd24  1  0.329471  0.671958  0.501726  1
  Pd  Pd25  1  0.671548  0.328370  0.499940  1
  Pd  Pd26  1  0.001085  0.992912  0.000220  1
  Pd  Pd27  1  0.000705  0.998690  0.501579  1
