# generated using pymatgen
data_Sm3YGa18(Co2Pt)2
_symmetry_space_group_name_H-M   'P 1'
_cell_length_a   7.51011929
_cell_length_b   7.50696942
_cell_length_c   9.50849570
_cell_angle_alpha   89.96256939
_cell_angle_beta   89.96868519
_cell_angle_gamma   119.78950460
_symmetry_Int_Tables_number   1
_chemical_formula_structural   Sm3YGa18(Co2Pt)2
_chemical_formula_sum   'Sm3 Y1 Ga18 Co4 Pt2'
_cell_volume   465.23340711
_cell_formula_units_Z   1
loop_
 _symmetry_equiv_pos_site_id
 _symmetry_equiv_pos_as_xyz
  1  'x, y, z'
loop_
 _atom_site_type_symbol
 _atom_site_label
 _atom_site_symmetry_multiplicity
 _atom_site_fract_x
 _atom_site_fract_y
 _atom_site_fract_z
 _atom_site_occupancy
  Sm  Sm0  1  0.664674  0.996378  0.750446  1
  Sm  Sm1  1  0.335406  0.003671  0.250593  1
  Sm  Sm2  1  0.996141  0.664541  0.749400  1
  Y  Y3  1  0.003793  0.335309  0.249435  1
  Ga  Ga4  1  0.010103  0.674902  0.074664  1
  Ga  Ga5  1  0.677402  0.011537  0.425339  1
  Ga  Ga6  1  0.989561  0.666261  0.425359  1
  Ga  Ga7  1  0.010079  0.332466  0.926913  1
  Ga  Ga8  1  0.668567  0.990663  0.074618  1
  Ga  Ga9  1  0.323771  0.989837  0.926194  1
  Ga  Ga10  1  0.675243  0.669292  0.559463  1
  Ga  Ga11  1  0.323810  0.330679  0.060575  1
  Ga  Ga12  1  0.669279  0.675209  0.940529  1
  Ga  Ga13  1  0.329847  0.324825  0.439493  1
  Ga  Ga14  1  0.117623  0.117880  0.750005  1
  Ga  Ga15  1  0.882912  0.883677  0.250034  1
  Ga  Ga16  1  0.661106  0.456397  0.258274  1
  Ga  Ga17  1  0.339469  0.543227  0.758240  1
  Ga  Ga18  1  0.455369  0.659353  0.241761  1
  Ga  Ga19  1  0.543482  0.339684  0.741758  1
  Ga  Ga20  1  0.332633  0.010466  0.573858  1
  Ga  Ga21  1  0.989717  0.323938  0.572992  1
  Co  Co22  1  0.330130  0.669361  0.000451  1
  Co  Co23  1  0.669611  0.330313  0.499584  1
  Co  Co24  1  0.000657  0.999662  0.000538  1
  Co  Co25  1  0.999732  0.000661  0.499477  1
  Pt  Pt26  1  0.671323  0.328486  0.000521  1
  Pt  Pt27  1  0.328557  0.671324  0.499484  1
