# generated using pymatgen
data_Tb4Lu8TlZnCo4
_symmetry_space_group_name_H-M   'P 1'
_cell_length_a   8.24932927
_cell_length_b   8.24932959
_cell_length_c   8.24933077
_cell_angle_alpha   112.05028218
_cell_angle_beta   109.86018079
_cell_angle_gamma   106.55011875
_symmetry_Int_Tables_number   1
_chemical_formula_structural   Tb4Lu8TlZnCo4
_chemical_formula_sum   'Tb4 Lu8 Tl1 Zn1 Co4'
_cell_volume   431.14611042
_cell_formula_units_Z   1
loop_
 _symmetry_equiv_pos_site_id
 _symmetry_equiv_pos_as_xyz
  1  'x, y, z'
loop_
 _atom_site_type_symbol
 _atom_site_label
 _atom_site_symmetry_multiplicity
 _atom_site_fract_x
 _atom_site_fract_y
 _atom_site_fract_z
 _atom_site_occupancy
  Tb  Tb0  1  0.569912  0.774719  0.795195  1
  Tb  Tb1  1  0.430088  0.225281  0.204805  1
  Tb  Tb2  1  0.979524  0.774719  0.204805  1
  Tb  Tb3  1  0.020476  0.225281  0.795195  1
  Lu  Lu4  1  0.818133  0.712070  0.530204  1
  Lu  Lu5  1  0.181867  0.287930  0.469796  1
  Lu  Lu6  1  0.181867  0.712070  0.893937  1
  Lu  Lu7  1  0.818133  0.287930  0.106063  1
  Lu  Lu8  1  0.683039  0.378498  0.695459  1
  Lu  Lu9  1  0.316961  0.621502  0.304541  1
  Lu  Lu10  1  0.683039  0.987578  0.304541  1
  Lu  Lu11  1  0.316961  0.012422  0.695459  1
  Tl  Tl12  1  0.500000  0.500000  0.000000  1
  Zn  Zn13  1  0.000000  0.000000  0.000000  1
  Co  Co14  1  0.623213  0.000000  0.623213  1
  Co  Co15  1  0.376787  0.000000  0.376787  1
  Co  Co16  1  0.114033  0.614033  0.500000  1
  Co  Co17  1  0.885967  0.385967  0.500000  1
