# generated using pymatgen
data_Ag2Pd(NO3)4
_symmetry_space_group_name_H-M   'P 1'
_cell_length_a   8.04440800
_cell_length_b   7.34427828
_cell_length_c   9.28193563
_cell_angle_alpha   86.60010449
_cell_angle_beta   90.00000000
_cell_angle_gamma   90.00000000
_symmetry_Int_Tables_number   1
_chemical_formula_structural   Ag2Pd(NO3)4
_chemical_formula_sum   'Ag4 Pd2 N8 O24'
_cell_volume   547.41501618
_cell_formula_units_Z   2
loop_
 _symmetry_equiv_pos_site_id
 _symmetry_equiv_pos_as_xyz
  1  'x, y, z'
loop_
 _atom_site_type_symbol
 _atom_site_label
 _atom_site_symmetry_multiplicity
 _atom_site_fract_x
 _atom_site_fract_y
 _atom_site_fract_z
 _atom_site_occupancy
  Ag  Ag0  1  0.067469  0.229026  0.385197  1
  Ag  Ag1  1  0.932531  0.770974  0.614803  1
  Ag  Ag2  1  0.432531  0.229026  0.885197  1
  Ag  Ag3  1  0.567469  0.770974  0.114803  1
  Pd  Pd4  1  0.000000  0.500000  0.000000  1
  Pd  Pd5  1  0.500000  0.500000  0.500000  1
  N  N6  1  0.896307  0.643636  0.273886  1
  N  N7  1  0.603693  0.643636  0.773886  1
  N  N8  1  0.285465  0.816676  0.440350  1
  N  N9  1  0.103693  0.356364  0.726114  1
  N  N10  1  0.785465  0.183324  0.059650  1
  N  N11  1  0.714535  0.183324  0.559650  1
  N  N12  1  0.396307  0.356364  0.226114  1
  N  N13  1  0.214535  0.816676  0.940350  1
  O  O14  1  0.148087  0.361119  0.864375  1
  O  O15  1  0.890247  0.139023  0.152716  1
  O  O16  1  0.023378  0.561404  0.317794  1
  O  O17  1  0.695230  0.327817  0.470327  1
  O  O18  1  0.390247  0.860977  0.347284  1
  O  O19  1  0.347154  0.905471  0.958391  1
  O  O20  1  0.351913  0.361119  0.364375  1
  O  O21  1  0.976622  0.438596  0.682206  1
  O  O22  1  0.696915  0.733546  0.849875  1
  O  O23  1  0.195230  0.672183  0.029673  1
  O  O24  1  0.803085  0.733546  0.349875  1
  O  O25  1  0.109753  0.860977  0.847284  1
  O  O26  1  0.804770  0.327817  0.970327  1
  O  O27  1  0.476622  0.561404  0.817794  1
  O  O28  1  0.648087  0.638881  0.635625  1
  O  O29  1  0.609753  0.139023  0.652716  1
  O  O30  1  0.304770  0.672183  0.529673  1
  O  O31  1  0.851913  0.638881  0.135625  1
  O  O32  1  0.652846  0.094529  0.041609  1
  O  O33  1  0.196915  0.266454  0.650125  1
  O  O34  1  0.523378  0.438596  0.182206  1
  O  O35  1  0.152846  0.905471  0.458391  1
  O  O36  1  0.847154  0.094529  0.541609  1
  O  O37  1  0.303085  0.266454  0.150125  1
