# generated using pymatgen
data_Tm5V3Si2(P5Ir8)2
_symmetry_space_group_name_H-M   'P 1'
_cell_length_a   12.65043100
_cell_length_b   12.60675933
_cell_length_c   3.89706200
_cell_angle_alpha   90.00000000
_cell_angle_beta   90.00000000
_cell_angle_gamma   120.08644672
_symmetry_Int_Tables_number   1
_chemical_formula_structural   Tm5V3Si2(P5Ir8)2
_chemical_formula_sum   'Tm5 V3 Si2 P10 Ir16'
_cell_volume   537.77147217
_cell_formula_units_Z   1
loop_
 _symmetry_equiv_pos_site_id
 _symmetry_equiv_pos_as_xyz
  1  'x, y, z'
loop_
 _atom_site_type_symbol
 _atom_site_label
 _atom_site_symmetry_multiplicity
 _atom_site_fract_x
 _atom_site_fract_y
 _atom_site_fract_z
 _atom_site_occupancy
  Tm  Tm0  1  0.333325  0.666766  0.000000  1
  Tm  Tm1  1  0.667616  0.333759  0.000000  1
  Tm  Tm2  1  0.808212  0.998592  0.500000  1
  Tm  Tm3  1  0.001388  0.812119  0.500000  1
  Tm  Tm4  1  0.188207  0.189399  0.500000  1
  V  V5  1  0.448419  0.003464  0.000000  1
  V  V6  1  0.997563  0.446375  0.000000  1
  V  V7  1  0.555673  0.551013  0.000000  1
  Si  Si8  1  0.166795  0.482315  0.500000  1
  Si  Si9  1  0.516452  0.681916  0.500000  1
  P  P10  1  0.177551  0.001764  0.000000  1
  P  P11  1  0.998148  0.176149  0.000000  1
  P  P12  1  0.822724  0.823646  0.000000  1
  P  P13  1  0.315813  0.833019  0.500000  1
  P  P14  1  0.686795  0.518262  0.500000  1
  P  P15  1  0.832467  0.315128  0.500000  1
  P  P16  1  0.483254  0.168125  0.500000  1
  P  P17  1  0.632389  0.997166  0.000000  1
  P  P18  1  0.002685  0.636440  0.000000  1
  P  P19  1  0.363210  0.366769  0.000000  1
  Ir  Ir20  1  0.358799  0.481649  0.500000  1
  Ir  Ir21  1  0.509989  0.871771  0.500000  1
  Ir  Ir22  1  0.129564  0.643634  0.500000  1
  Ir  Ir23  1  0.867715  0.508337  0.500000  1
  Ir  Ir24  1  0.640686  0.133603  0.500000  1
  Ir  Ir25  1  0.495648  0.358901  0.500000  1
  Ir  Ir26  1  0.176670  0.372451  0.000000  1
  Ir  Ir27  1  0.625629  0.804908  0.000000  1
  Ir  Ir28  1  0.196629  0.823240  0.000000  1
  Ir  Ir29  1  0.809470  0.627279  0.000000  1
  Ir  Ir30  1  0.816794  0.191255  0.000000  1
  Ir  Ir31  1  0.372489  0.182094  0.000000  1
  Ir  Ir32  1  0.283171  0.001907  0.500000  1
  Ir  Ir33  1  0.995310  0.277213  0.500000  1
  Ir  Ir34  1  0.722423  0.719462  0.500000  1
  Ir  Ir35  1  0.000334  0.000112  0.000000  1
