# generated using pymatgen
data_Dy3HoHf3O12
_symmetry_space_group_name_H-M   'P 1'
_cell_length_a   6.31693253
_cell_length_b   6.36683105
_cell_length_c   6.58584525
_cell_angle_alpha   99.97853516
_cell_angle_beta   98.12568631
_cell_angle_gamma   99.76697800
_symmetry_Int_Tables_number   1
_chemical_formula_structural   Dy3HoHf3O12
_chemical_formula_sum   'Dy3 Ho1 Hf3 O12'
_cell_volume   253.07809598
_cell_formula_units_Z   1
loop_
 _symmetry_equiv_pos_site_id
 _symmetry_equiv_pos_as_xyz
  1  'x, y, z'
loop_
 _atom_site_type_symbol
 _atom_site_label
 _atom_site_symmetry_multiplicity
 _atom_site_fract_x
 _atom_site_fract_y
 _atom_site_fract_z
 _atom_site_occupancy
  Dy  Dy0  1  0.385383  0.699231  0.866334  1
  Dy  Dy1  1  0.696859  0.865338  0.389500  1
  Dy  Dy2  1  0.614242  0.300307  0.133339  1
  Ho  Ho3  1  0.303645  0.134901  0.610547  1
  Hf  Hf4  1  0.000356  0.000264  0.000127  1
  Hf  Hf5  1  0.848394  0.397485  0.667674  1
  Hf  Hf6  1  0.151685  0.602325  0.332857  1
  O  O7  1  0.018888  0.679241  0.878313  1
  O  O8  1  0.686695  0.933867  0.058931  1
  O  O9  1  0.920409  0.089518  0.699623  1
  O  O10  1  0.980913  0.320708  0.121627  1
  O  O11  1  0.313257  0.066327  0.939806  1
  O  O12  1  0.080508  0.911323  0.300751  1
  O  O13  1  0.590721  0.190386  0.436327  1
  O  O14  1  0.169742  0.427722  0.572922  1
  O  O15  1  0.412619  0.583162  0.181035  1
  O  O16  1  0.407671  0.810521  0.564247  1
  O  O17  1  0.831124  0.571127  0.427141  1
  O  O18  1  0.586889  0.416244  0.818897  1
