# generated using pymatgen
data_Sb(RuCl6)5
_symmetry_space_group_name_H-M   'P 1'
_cell_length_a   13.42281235
_cell_length_b   13.42224751
_cell_length_c   6.35854117
_cell_angle_alpha   88.71877470
_cell_angle_beta   88.71246849
_cell_angle_gamma   86.71093768
_symmetry_Int_Tables_number   1
_chemical_formula_structural   Sb(RuCl6)5
_chemical_formula_sum   'Sb1 Ru5 Cl30'
_cell_volume   1143.15159147
_cell_formula_units_Z   1
loop_
 _symmetry_equiv_pos_site_id
 _symmetry_equiv_pos_as_xyz
  1  'x, y, z'
loop_
 _atom_site_type_symbol
 _atom_site_label
 _atom_site_symmetry_multiplicity
 _atom_site_fract_x
 _atom_site_fract_y
 _atom_site_fract_z
 _atom_site_occupancy
  Sb  Sb0  1  0.561335  0.772594  0.524173  1
  Ru  Ru1  1  0.769998  0.563882  0.524130  1
  Ru  Ru2  1  0.434678  0.231310  0.475722  1
  Ru  Ru3  1  0.231530  0.434718  0.475918  1
  Ru  Ru4  1  0.101754  0.898325  0.000042  1
  Ru  Ru5  1  0.898295  0.101686  0.000050  1
  Cl  Cl6  1  0.669552  0.474641  0.741205  1
  Cl  Cl7  1  0.524577  0.331870  0.258238  1
  Cl  Cl8  1  0.331589  0.524449  0.257898  1
  Cl  Cl9  1  0.472762  0.664054  0.749539  1
  Cl  Cl10  1  0.799209  0.433369  0.311014  1
  Cl  Cl11  1  0.564994  0.202300  0.688709  1
  Cl  Cl12  1  0.951309  0.951486  0.207222  1
  Cl  Cl13  1  0.048590  0.048647  0.792908  1
  Cl  Cl14  1  0.766999  0.129768  0.220333  1
  Cl  Cl15  1  0.870313  0.233016  0.779550  1
  Cl  Cl16  1  0.232774  0.870449  0.779557  1
  Cl  Cl17  1  0.129567  0.767012  0.220427  1
  Cl  Cl18  1  0.809630  0.002266  0.796282  1
  Cl  Cl19  1  0.997836  0.190491  0.203792  1
  Cl  Cl20  1  0.190355  0.997864  0.203747  1
  Cl  Cl21  1  0.002122  0.809529  0.796299  1
  Cl  Cl22  1  0.718872  0.712840  0.729791  1
  Cl  Cl23  1  0.285366  0.285404  0.275753  1
  Cl  Cl24  1  0.535506  0.907008  0.751243  1
  Cl  Cl25  1  0.101097  0.463320  0.262717  1
  Cl  Cl26  1  0.463279  0.101323  0.262426  1
  Cl  Cl27  1  0.900461  0.535210  0.737517  1
  Cl  Cl28  1  0.670006  0.861001  0.298992  1
  Cl  Cl29  1  0.141751  0.334205  0.693288  1
  Cl  Cl30  1  0.334213  0.141867  0.693305  1
  Cl  Cl31  1  0.859076  0.664472  0.307304  1
  Cl  Cl32  1  0.620992  0.614886  0.318842  1
  Cl  Cl33  1  0.380683  0.380819  0.675676  1
  Cl  Cl34  1  0.426752  0.798886  0.297635  1
  Cl  Cl35  1  0.202177  0.565036  0.688757  1
