# generated using pymatgen
data_U3Al12FeSi2
_symmetry_space_group_name_H-M   'P 1'
_cell_length_a   9.41320000
_cell_length_b   9.41319885
_cell_length_c   4.04551500
_cell_angle_alpha   90.00000000
_cell_angle_beta   90.00000000
_cell_angle_gamma   120.00000405
_symmetry_Int_Tables_number   1
_chemical_formula_structural   U3Al12FeSi2
_chemical_formula_sum   'U3 Al12 Fe1 Si2'
_cell_volume   310.44091074
_cell_formula_units_Z   1
loop_
 _symmetry_equiv_pos_site_id
 _symmetry_equiv_pos_as_xyz
  1  'x, y, z'
loop_
 _atom_site_type_symbol
 _atom_site_label
 _atom_site_symmetry_multiplicity
 _atom_site_fract_x
 _atom_site_fract_y
 _atom_site_fract_z
 _atom_site_occupancy
  U  U0  1  0.000000  0.408519  0.000000  1
  U  U1  1  0.591481  0.591481  0.000000  1
  U  U2  1  0.408519  0.000000  0.000000  1
  Al  Al3  1  0.000000  0.749576  0.000000  1
  Al  Al4  1  0.250424  0.250424  0.000000  1
  Al  Al5  1  0.749576  0.000000  0.000000  1
  Al  Al6  1  0.000000  0.165214  0.500000  1
  Al  Al7  1  0.834786  0.834786  0.500000  1
  Al  Al8  1  0.165214  0.000000  0.500000  1
  Al  Al9  1  0.293326  0.470492  0.500000  1
  Al  Al10  1  0.177166  0.706674  0.500000  1
  Al  Al11  1  0.529508  0.822834  0.500000  1
  Al  Al12  1  0.822834  0.529508  0.500000  1
  Al  Al13  1  0.706674  0.177166  0.500000  1
  Al  Al14  1  0.470492  0.293326  0.500000  1
  Fe  Fe15  1  0.000000  0.000000  0.000000  1
  Si  Si16  1  0.666667  0.333333  0.000000  1
  Si  Si17  1  0.333333  0.666667  0.000000  1
