# generated using pymatgen
data_Mg2Co9Mo3As7
_symmetry_space_group_name_H-M   'P 1'
_cell_length_a   3.78770900
_cell_length_b   9.36199705
_cell_length_c   9.36199700
_cell_angle_alpha   119.99999724
_cell_angle_beta   90.00000000
_cell_angle_gamma   90.00000000
_symmetry_Int_Tables_number   1
_chemical_formula_structural   Mg2Co9Mo3As7
_chemical_formula_sum   'Mg2 Co9 Mo3 As7'
_cell_volume   287.50423556
_cell_formula_units_Z   1
loop_
 _symmetry_equiv_pos_site_id
 _symmetry_equiv_pos_as_xyz
  1  'x, y, z'
loop_
 _atom_site_type_symbol
 _atom_site_label
 _atom_site_symmetry_multiplicity
 _atom_site_fract_x
 _atom_site_fract_y
 _atom_site_fract_z
 _atom_site_occupancy
  Mg  Mg0  1  0.000000  0.666667  0.333333  1
  Mg  Mg1  1  0.500000  0.333333  0.666667  1
  Co  Co2  1  0.000000  0.568761  0.939317  1
  Co  Co3  1  0.000000  0.370556  0.431239  1
  Co  Co4  1  0.000000  0.060683  0.629444  1
  Co  Co5  1  0.500000  0.950826  0.386486  1
  Co  Co6  1  0.500000  0.435660  0.049174  1
  Co  Co7  1  0.500000  0.613514  0.564340  1
  Co  Co8  1  0.000000  0.878763  0.162357  1
  Co  Co9  1  0.000000  0.283594  0.121237  1
  Co  Co10  1  0.000000  0.837643  0.716406  1
  Mo  Mo11  1  0.500000  0.782247  0.904684  1
  Mo  Mo12  1  0.500000  0.122438  0.217753  1
  Mo  Mo13  1  0.500000  0.095316  0.877562  1
  As  As14  1  0.500000  0.709348  0.127371  1
  As  As15  1  0.500000  0.418023  0.290652  1
  As  As16  1  0.500000  0.872629  0.581977  1
  As  As17  1  0.000000  0.000000  0.000000  1
  As  As18  1  0.000000  0.580027  0.700102  1
  As  As19  1  0.000000  0.120076  0.419973  1
  As  As20  1  0.000000  0.299898  0.879924  1
