# generated using pymatgen
data_Er2Lu2Co2C5
_symmetry_space_group_name_H-M   'P 1'
_cell_length_a   3.54209300
_cell_length_b   3.63337400
_cell_length_c   11.49593800
_cell_angle_alpha   90.00000000
_cell_angle_beta   90.00000000
_cell_angle_gamma   90.00000000
_symmetry_Int_Tables_number   1
_chemical_formula_structural   Er2Lu2Co2C5
_chemical_formula_sum   'Er2 Lu2 Co2 C5'
_cell_volume   147.94983212
_cell_formula_units_Z   1
loop_
 _symmetry_equiv_pos_site_id
 _symmetry_equiv_pos_as_xyz
  1  'x, y, z'
loop_
 _atom_site_type_symbol
 _atom_site_label
 _atom_site_symmetry_multiplicity
 _atom_site_fract_x
 _atom_site_fract_y
 _atom_site_fract_z
 _atom_site_occupancy
  Er  Er0  1  0.500000  0.216496  0.500000  1
  Er  Er1  1  0.000000  0.000904  0.000000  1
  Lu  Lu2  1  0.500000  0.500844  0.204582  1
  Lu  Lu3  1  0.500000  0.500844  0.795418  1
  Co  Co4  1  0.000000  0.697089  0.383849  1
  Co  Co5  1  0.000000  0.697089  0.616151  1
  C  C6  1  0.000000  0.993604  0.228473  1
  C  C7  1  0.000000  0.993604  0.771527  1
  C  C8  1  0.000000  0.199922  0.331824  1
  C  C9  1  0.000000  0.199922  0.668176  1
  C  C10  1  0.500000  0.501183  0.000000  1
