# generated using pymatgen
data_BaSr2Yb7
_symmetry_space_group_name_H-M   'P 1'
_cell_length_a   15.88005709
_cell_length_b   15.88005701
_cell_length_c   6.27879700
_cell_angle_alpha   90.00000000
_cell_angle_beta   90.00000000
_cell_angle_gamma   164.32874643
_symmetry_Int_Tables_number   1
_chemical_formula_structural   BaSr2Yb7
_chemical_formula_sum   'Ba1 Sr2 Yb7'
_cell_volume   427.69397885
_cell_formula_units_Z   1
loop_
 _symmetry_equiv_pos_site_id
 _symmetry_equiv_pos_as_xyz
  1  'x, y, z'
loop_
 _atom_site_type_symbol
 _atom_site_label
 _atom_site_symmetry_multiplicity
 _atom_site_fract_x
 _atom_site_fract_y
 _atom_site_fract_z
 _atom_site_occupancy
  Ba  Ba0  1  0.000000  0.000000  0.000000  1
  Sr  Sr1  1  0.801936  0.198065  0.000000  1
  Sr  Sr2  1  0.198065  0.801936  0.000000  1
  Yb  Yb3  1  0.599455  0.400546  0.000000  1
  Yb  Yb4  1  0.400546  0.599455  0.000000  1
  Yb  Yb5  1  0.900507  0.099493  0.499999  1
  Yb  Yb6  1  0.699423  0.300577  0.499999  1
  Yb  Yb7  1  0.500000  0.500000  0.499999  1
  Yb  Yb8  1  0.300577  0.699423  0.499999  1
  Yb  Yb9  1  0.099493  0.900507  0.499999  1
