# generated using pymatgen
data_Dy5Tm2(LuPb2)3
_symmetry_space_group_name_H-M   'P 1'
_cell_length_a   6.55403000
_cell_length_b   8.99054853
_cell_length_c   9.00143002
_cell_angle_alpha   119.96734872
_cell_angle_beta   89.99911158
_cell_angle_gamma   90.00233023
_symmetry_Int_Tables_number   1
_chemical_formula_structural   Dy5Tm2(LuPb2)3
_chemical_formula_sum   'Dy5 Tm2 Lu3 Pb6'
_cell_volume   459.49368931
_cell_formula_units_Z   1
loop_
 _symmetry_equiv_pos_site_id
 _symmetry_equiv_pos_as_xyz
  1  'x, y, z'
loop_
 _atom_site_type_symbol
 _atom_site_label
 _atom_site_symmetry_multiplicity
 _atom_site_fract_x
 _atom_site_fract_y
 _atom_site_fract_z
 _atom_site_occupancy
  Dy  Dy0  1  0.750096  0.236717  0.000071  1
  Dy  Dy1  1  0.750086  0.763338  0.762762  1
  Dy  Dy2  1  0.750081  0.000335  0.237679  1
  Dy  Dy3  1  0.249936  0.763161  0.999547  1
  Dy  Dy4  1  0.249925  0.237049  0.236846  1
  Tm  Tm5  1  0.249899  0.999600  0.763090  1
  Tm  Tm6  1  0.499863  0.333195  0.666906  1
  Lu  Lu7  1  0.499897  0.666722  0.333083  1
  Lu  Lu8  1  0.000111  0.666732  0.333098  1
  Lu  Lu9  1  0.000116  0.333236  0.666923  1
  Pb  Pb10  1  0.750203  0.603759  0.000190  1
  Pb  Pb11  1  0.750218  0.396125  0.395872  1
  Pb  Pb12  1  0.750226  0.999695  0.603303  1
  Pb  Pb13  1  0.249754  0.394833  0.999217  1
  Pb  Pb14  1  0.249804  0.605725  0.604419  1
  Pb  Pb15  1  0.249783  0.999779  0.396997  1
