# generated using pymatgen
data_SrTl3Os6O18F
_symmetry_space_group_name_H-M   'P 1'
_cell_length_a   8.22216114
_cell_length_b   8.11342787
_cell_length_c   8.11342823
_cell_angle_alpha   109.19815187
_cell_angle_beta   109.74292336
_cell_angle_gamma   109.74292773
_symmetry_Int_Tables_number   1
_chemical_formula_structural   SrTl3Os6O18F
_chemical_formula_sum   'Sr1 Tl3 Os6 O18 F1'
_cell_volume   415.24614399
_cell_formula_units_Z   1
loop_
 _symmetry_equiv_pos_site_id
 _symmetry_equiv_pos_as_xyz
  1  'x, y, z'
loop_
 _atom_site_type_symbol
 _atom_site_label
 _atom_site_symmetry_multiplicity
 _atom_site_fract_x
 _atom_site_fract_y
 _atom_site_fract_z
 _atom_site_occupancy
  Sr  Sr0  1  0.309630  0.000000  0.000000  1
  Tl  Tl1  1  0.000478  0.315944  0.001390  1
  Tl  Tl2  1  0.999088  0.998610  0.314554  1
  Tl  Tl3  1  0.684534  0.685446  0.684056  1
  Os  Os4  1  0.498353  0.358881  0.859452  1
  Os  Os5  1  0.501096  0.638267  0.141974  1
  Os  Os6  1  0.359122  0.858026  0.496293  1
  Os  Os7  1  0.638902  0.140548  0.499429  1
  Os  Os8  1  0.862829  0.503707  0.361733  1
  Os  Os9  1  0.139472  0.500571  0.641119  1
  O  O10  1  0.701392  0.358615  0.066822  1
  O  O11  1  0.634475  0.340387  0.704843  1
  O  O12  1  0.292383  0.642528  0.936857  1
  O  O13  1  0.649855  0.294331  0.357472  1
  O  O14  1  0.342777  0.708206  0.641385  1
  O  O15  1  0.929632  0.295157  0.635544  1
  O  O16  1  0.068956  0.701391  0.356372  1
  O  O17  1  0.007528  0.667838  0.663378  1
  O  O18  1  0.656091  0.660366  0.999935  1
  O  O19  1  0.712582  0.643628  0.345019  1
  O  O20  1  0.355524  0.063143  0.705669  1
  O  O21  1  0.656156  0.000065  0.660431  1
  O  O22  1  0.995725  0.339569  0.339634  1
  O  O23  1  0.634571  0.933178  0.291794  1
  O  O24  1  0.367564  0.654981  0.298609  1
  O  O25  1  0.294089  0.364456  0.659613  1
  O  O26  1  0.339690  0.995541  0.332162  1
  O  O27  1  0.344150  0.336622  0.004459  1
  F  F28  1  0.023357  0.000000  0.000000  1
