# generated using pymatgen
data_NbTcMoS6
_symmetry_space_group_name_H-M   'P 1'
_cell_length_a   5.56955384
_cell_length_b   5.56959915
_cell_length_c   7.08110596
_cell_angle_alpha   82.47126919
_cell_angle_beta   82.48658185
_cell_angle_gamma   120.00042340
_symmetry_Int_Tables_number   1
_chemical_formula_structural   NbTcMoS6
_chemical_formula_sum   'Nb1 Tc1 Mo1 S6'
_cell_volume   183.59401651
_cell_formula_units_Z   1
loop_
 _symmetry_equiv_pos_site_id
 _symmetry_equiv_pos_as_xyz
  1  'x, y, z'
loop_
 _atom_site_type_symbol
 _atom_site_label
 _atom_site_symmetry_multiplicity
 _atom_site_fract_x
 _atom_site_fract_y
 _atom_site_fract_z
 _atom_site_occupancy
  Nb  Nb0  1  0.499977  0.833338  0.500024  1
  Tc  Tc1  1  0.833307  0.499982  0.500037  1
  Mo  Mo2  1  0.166682  0.166656  0.500006  1
  S  S3  1  0.578866  0.253063  0.271097  1
  S  S4  1  0.232679  0.568764  0.270977  1
  S  S5  1  0.916974  0.906859  0.271025  1
  S  S6  1  0.764673  0.754445  0.729006  1
  S  S7  1  0.426541  0.100650  0.729080  1
  S  S8  1  0.080205  0.416147  0.729046  1
