# generated using pymatgen
data_ErCo4P3Rh
_symmetry_space_group_name_H-M   'P 1'
_cell_length_a   3.68037200
_cell_length_b   10.37978700
_cell_length_c   11.79634000
_cell_angle_alpha   90.00000000
_cell_angle_beta   90.00000000
_cell_angle_gamma   90.00000000
_symmetry_Int_Tables_number   1
_chemical_formula_structural   ErCo4P3Rh
_chemical_formula_sum   'Er4 Co16 P12 Rh4'
_cell_volume   450.63761639
_cell_formula_units_Z   4
loop_
 _symmetry_equiv_pos_site_id
 _symmetry_equiv_pos_as_xyz
  1  'x, y, z'
loop_
 _atom_site_type_symbol
 _atom_site_label
 _atom_site_symmetry_multiplicity
 _atom_site_fract_x
 _atom_site_fract_y
 _atom_site_fract_z
 _atom_site_occupancy
  Er  Er0  1  0.250000  0.584450  0.703721  1
  Er  Er1  1  0.250000  0.915550  0.203721  1
  Er  Er2  1  0.750000  0.415550  0.296279  1
  Er  Er3  1  0.750000  0.084450  0.796279  1
  Co  Co4  1  0.250000  0.409132  0.487353  1
  Co  Co5  1  0.250000  0.090868  0.987353  1
  Co  Co6  1  0.750000  0.590868  0.512647  1
  Co  Co7  1  0.750000  0.909132  0.012647  1
  Co  Co8  1  0.250000  0.221495  0.176506  1
  Co  Co9  1  0.250000  0.278505  0.676506  1
  Co  Co10  1  0.750000  0.778505  0.823494  1
  Co  Co11  1  0.750000  0.721495  0.323494  1
  Co  Co12  1  0.250000  0.884923  0.701546  1
  Co  Co13  1  0.250000  0.615077  0.201546  1
  Co  Co14  1  0.750000  0.115077  0.298454  1
  Co  Co15  1  0.750000  0.384923  0.798454  1
  Co  Co16  1  0.250000  0.465009  0.930249  1
  Co  Co17  1  0.250000  0.034991  0.430249  1
  Co  Co18  1  0.750000  0.534991  0.069751  1
  Co  Co19  1  0.750000  0.965009  0.569751  1
  P  P20  1  0.250000  0.421307  0.113323  1
  P  P21  1  0.250000  0.078693  0.613323  1
  P  P22  1  0.750000  0.578693  0.886677  1
  P  P23  1  0.750000  0.921307  0.386677  1
  P  P24  1  0.250000  0.270436  0.865435  1
  P  P25  1  0.250000  0.229564  0.365435  1
  P  P26  1  0.750000  0.729564  0.134565  1
  P  P27  1  0.750000  0.770436  0.634565  1
  P  P28  1  0.250000  0.594912  0.388765  1
  P  P29  1  0.250000  0.905088  0.888765  1
  P  P30  1  0.750000  0.405088  0.611235  1
  P  P31  1  0.750000  0.094912  0.111235  1
  Rh  Rh32  1  0.250000  0.716798  0.990831  1
  Rh  Rh33  1  0.250000  0.783202  0.490831  1
  Rh  Rh34  1  0.750000  0.283202  0.009169  1
  Rh  Rh35  1  0.750000  0.216798  0.509169  1
