# generated using pymatgen
data_TiAlAu4
_symmetry_space_group_name_H-M   'P 1'
_cell_length_a   5.02376251
_cell_length_b   5.02376196
_cell_length_c   4.83461200
_cell_angle_alpha   90.00000000
_cell_angle_beta   90.00000000
_cell_angle_gamma   122.55784174
_symmetry_Int_Tables_number   1
_chemical_formula_structural   TiAlAu4
_chemical_formula_sum   'Ti1 Al1 Au4'
_cell_volume   102.84172375
_cell_formula_units_Z   1
loop_
 _symmetry_equiv_pos_site_id
 _symmetry_equiv_pos_as_xyz
  1  'x, y, z'
loop_
 _atom_site_type_symbol
 _atom_site_label
 _atom_site_symmetry_multiplicity
 _atom_site_fract_x
 _atom_site_fract_y
 _atom_site_fract_z
 _atom_site_occupancy
  Ti  Ti0  1  0.757856  0.757856  0.750000  1
  Al  Al1  1  0.241496  0.241496  0.250000  1
  Au  Au2  1  0.582290  0.901580  0.250000  1
  Au  Au3  1  0.096927  0.419850  0.750000  1
  Au  Au4  1  0.419850  0.096927  0.750000  1
  Au  Au5  1  0.901580  0.582290  0.250000  1
