# generated using pymatgen
data_LaPr3(Cu5Au)4
_symmetry_space_group_name_H-M   'P 1'
_cell_length_a   5.16057100
_cell_length_b   8.25569618
_cell_length_c   10.37326723
_cell_angle_alpha   89.97604939
_cell_angle_beta   90.00000000
_cell_angle_gamma   90.00000000
_symmetry_Int_Tables_number   1
_chemical_formula_structural   LaPr3(Cu5Au)4
_chemical_formula_sum   'La1 Pr3 Cu20 Au4'
_cell_volume   441.94374091
_cell_formula_units_Z   1
loop_
 _symmetry_equiv_pos_site_id
 _symmetry_equiv_pos_as_xyz
  1  'x, y, z'
loop_
 _atom_site_type_symbol
 _atom_site_label
 _atom_site_symmetry_multiplicity
 _atom_site_fract_x
 _atom_site_fract_y
 _atom_site_fract_z
 _atom_site_occupancy
  La  La0  1  0.250000  0.260134  0.563092  1
  Pr  Pr1  1  0.750000  0.739844  0.436325  1
  Pr  Pr2  1  0.250000  0.759852  0.936735  1
  Pr  Pr3  1  0.750000  0.240435  0.063188  1
  Cu  Cu4  1  0.500710  0.565900  0.186377  1
  Cu  Cu5  1  0.000630  0.434559  0.814054  1
  Cu  Cu6  1  0.998945  0.065399  0.312749  1
  Cu  Cu7  1  0.499665  0.933970  0.686998  1
  Cu  Cu8  1  0.499370  0.434559  0.814054  1
  Cu  Cu9  1  0.999290  0.565900  0.186377  1
  Cu  Cu10  1  0.000335  0.933970  0.686998  1
  Cu  Cu11  1  0.501055  0.065399  0.312749  1
  Cu  Cu12  1  0.750000  0.942919  0.892522  1
  Cu  Cu13  1  0.250000  0.056720  0.107764  1
  Cu  Cu14  1  0.750000  0.443969  0.608072  1
  Cu  Cu15  1  0.250000  0.557622  0.391825  1
  Cu  Cu16  1  0.750000  0.684753  0.752626  1
  Cu  Cu17  1  0.250000  0.315003  0.246947  1
  Cu  Cu18  1  0.750000  0.185134  0.748742  1
  Cu  Cu19  1  0.250000  0.814933  0.251726  1
  Cu  Cu20  1  0.750000  0.590520  0.983100  1
  Cu  Cu21  1  0.250000  0.410402  0.017058  1
  Cu  Cu22  1  0.750000  0.088919  0.516727  1
  Cu  Cu23  1  0.250000  0.908950  0.482721  1
  Au  Au24  1  0.250000  0.140944  0.862385  1
  Au  Au25  1  0.750000  0.858382  0.138213  1
  Au  Au26  1  0.250000  0.642066  0.638546  1
  Au  Au27  1  0.750000  0.358840  0.361332  1
