# generated using pymatgen
data_YbTmPa2(Al8Pt3)3
_symmetry_space_group_name_H-M   'P 1'
_cell_length_a   7.56230520
_cell_length_b   7.56065191
_cell_length_c   13.11775828
_cell_angle_alpha   84.44914780
_cell_angle_beta   101.10716993
_cell_angle_gamma   119.89668311
_symmetry_Int_Tables_number   1
_chemical_formula_structural   YbTmPa2(Al8Pt3)3
_chemical_formula_sum   'Yb1 Tm1 Pa2 Al24 Pt9'
_cell_volume   638.03225496
_cell_formula_units_Z   1
loop_
 _symmetry_equiv_pos_site_id
 _symmetry_equiv_pos_as_xyz
  1  'x, y, z'
loop_
 _atom_site_type_symbol
 _atom_site_label
 _atom_site_symmetry_multiplicity
 _atom_site_fract_x
 _atom_site_fract_y
 _atom_site_fract_z
 _atom_site_occupancy
  Yb  Yb0  1  0.232372  0.498720  0.192478  1
  Tm  Tm1  1  0.767987  0.501662  0.807561  1
  Pa  Pa2  1  0.435142  0.830763  0.804826  1
  Pa  Pa3  1  0.564584  0.168356  0.195673  1
  Al  Al4  1  0.482859  0.167502  0.944176  1
  Al  Al5  1  0.517415  0.832969  0.055765  1
  Al  Al6  1  0.022049  0.167567  0.561028  1
  Al  Al7  1  0.978158  0.832560  0.438809  1
  Al  Al8  1  0.351998  0.832103  0.558177  1
  Al  Al9  1  0.647887  0.167362  0.441950  1
  Al  Al10  1  0.616127  0.830648  0.330959  1
  Al  Al11  1  0.383212  0.168596  0.669477  1
  Al  Al12  1  0.052460  0.490329  0.670182  1
  Al  Al13  1  0.948577  0.509865  0.329928  1
  Al  Al14  1  0.732511  0.839658  0.668685  1
  Al  Al15  1  0.267235  0.160985  0.331564  1
  Al  Al16  1  0.146625  0.499793  0.944899  1
  Al  Al17  1  0.853152  0.499729  0.055635  1
  Al  Al18  1  0.816650  0.831570  0.952737  1
  Al  Al19  1  0.183549  0.168262  0.047414  1
  Al  Al20  1  0.313798  0.499533  0.440617  1
  Al  Al21  1  0.685697  0.500589  0.558775  1
  Al  Al22  1  0.102674  0.840790  0.182466  1
  Al  Al23  1  0.897600  0.161144  0.817368  1
  Al  Al24  1  0.305730  0.369585  0.816048  1
  Al  Al25  1  0.695828  0.630061  0.183691  1
  Al  Al26  1  0.105129  0.960513  0.817009  1
  Al  Al27  1  0.892947  0.038401  0.182747  1
  Pt  Pt28  1  0.389072  0.508939  0.640264  1
  Pt  Pt29  1  0.612659  0.491023  0.360425  1
  Pt  Pt30  1  0.171164  0.828162  0.999185  1
  Pt  Pt31  1  0.827897  0.171810  0.999184  1
  Pt  Pt32  1  0.296585  0.835229  0.360871  1
  Pt  Pt33  1  0.703717  0.166337  0.639759  1
  Pt  Pt34  1  0.046886  0.824328  0.639369  1
  Pt  Pt35  1  0.951844  0.174338  0.361249  1
  Pt  Pt36  1  0.500224  0.500218  0.999050  1
