# generated using pymatgen
data_Dy2TmIn3Cu2Ir
_symmetry_space_group_name_H-M   'P 1'
_cell_length_a   7.53106257
_cell_length_b   7.52188549
_cell_length_c   3.88316000
_cell_angle_alpha   90.00000000
_cell_angle_beta   90.00000000
_cell_angle_gamma   119.99541288
_symmetry_Int_Tables_number   1
_chemical_formula_structural   Dy2TmIn3Cu2Ir
_chemical_formula_sum   'Dy2 Tm1 In3 Cu2 Ir1'
_cell_volume   190.51052040
_cell_formula_units_Z   1
loop_
 _symmetry_equiv_pos_site_id
 _symmetry_equiv_pos_as_xyz
  1  'x, y, z'
loop_
 _atom_site_type_symbol
 _atom_site_label
 _atom_site_symmetry_multiplicity
 _atom_site_fract_x
 _atom_site_fract_y
 _atom_site_fract_z
 _atom_site_occupancy
  Dy  Dy0  1  0.017119  0.418980  0.500000  1
  Dy  Dy1  1  0.581913  0.599142  0.500000  1
  Tm  Tm2  1  0.399663  0.980441  0.500000  1
  In  In3  1  0.750025  0.007977  0.000000  1
  In  In4  1  0.993066  0.743819  0.000000  1
  In  In5  1  0.257777  0.248764  0.000000  1
  Cu  Cu6  1  0.000862  0.000041  0.500000  1
  Cu  Cu7  1  0.665222  0.331331  0.000000  1
  Ir  Ir8  1  0.334352  0.669506  0.000000  1
