# generated using pymatgen
data_NbSe27
_symmetry_space_group_name_H-M   'P 1'
_cell_length_a   15.50299190
_cell_length_b   15.50299236
_cell_length_c   15.50299093
_cell_angle_alpha   118.95023411
_cell_angle_beta   118.95022850
_cell_angle_gamma   118.95023148
_symmetry_Int_Tables_number   1
_chemical_formula_structural   NbSe27
_chemical_formula_sum   'Nb1 Se27'
_cell_volume   987.62973432
_cell_formula_units_Z   1
loop_
 _symmetry_equiv_pos_site_id
 _symmetry_equiv_pos_as_xyz
  1  'x, y, z'
loop_
 _atom_site_type_symbol
 _atom_site_label
 _atom_site_symmetry_multiplicity
 _atom_site_fract_x
 _atom_site_fract_y
 _atom_site_fract_z
 _atom_site_occupancy
  Nb  Nb0  1  0.795245  0.795245  0.795245  1
  Se  Se1  1  0.806781  0.544824  0.544824  1
  Se  Se2  1  0.544824  0.544824  0.806781  1
  Se  Se3  1  0.544824  0.806781  0.544824  1
  Se  Se4  1  0.217028  0.361478  0.602476  1
  Se  Se5  1  0.361176  0.980743  0.361176  1
  Se  Se6  1  0.361176  0.361176  0.980743  1
  Se  Se7  1  0.980743  0.361176  0.361176  1
  Se  Se8  1  0.083517  0.712588  0.223972  1
  Se  Se9  1  0.223972  0.083517  0.712588  1
  Se  Se10  1  0.712588  0.223972  0.083517  1
  Se  Se11  1  0.712588  0.083517  0.223972  1
  Se  Se12  1  0.223972  0.712588  0.083517  1
  Se  Se13  1  0.083517  0.223972  0.712588  1
  Se  Se14  1  0.369223  0.911344  0.569183  1
  Se  Se15  1  0.569183  0.369223  0.911344  1
  Se  Se16  1  0.911344  0.569183  0.369223  1
  Se  Se17  1  0.911344  0.369223  0.569183  1
  Se  Se18  1  0.569183  0.911344  0.369223  1
  Se  Se19  1  0.369223  0.569183  0.911344  1
  Se  Se20  1  0.217028  0.602476  0.361478  1
  Se  Se21  1  0.361478  0.217028  0.602476  1
  Se  Se22  1  0.602476  0.361478  0.217028  1
  Se  Se23  1  0.602476  0.217028  0.361478  1
  Se  Se24  1  0.361478  0.602476  0.217028  1
  Se  Se25  1  0.918241  0.055334  0.055334  1
  Se  Se26  1  0.055334  0.055334  0.918241  1
  Se  Se27  1  0.055334  0.918241  0.055334  1
