# generated using pymatgen
data_Y2Co3Ni4B3
_symmetry_space_group_name_H-M   'P 1'
_cell_length_a   5.01466300
_cell_length_b   5.01398670
_cell_length_c   12.95837100
_cell_angle_alpha   89.99989755
_cell_angle_beta   90.00016254
_cell_angle_gamma   119.97184167
_symmetry_Int_Tables_number   1
_chemical_formula_structural   Y2Co3Ni4B3
_chemical_formula_sum   'Y4 Co6 Ni8 B6'
_cell_volume   282.24686694
_cell_formula_units_Z   2
loop_
 _symmetry_equiv_pos_site_id
 _symmetry_equiv_pos_as_xyz
  1  'x, y, z'
loop_
 _atom_site_type_symbol
 _atom_site_label
 _atom_site_symmetry_multiplicity
 _atom_site_fract_x
 _atom_site_fract_y
 _atom_site_fract_z
 _atom_site_occupancy
  Y  Y0  1  0.999986  0.000000  0.999992  1
  Y  Y1  1  0.999992  0.000000  0.499994  1
  Y  Y2  1  0.999986  0.000000  0.262825  1
  Y  Y3  1  0.999999  0.000000  0.737174  1
  Co  Co4  1  0.499989  0.000002  0.383759  1
  Co  Co5  1  0.499989  0.500000  0.383771  1
  Co  Co6  1  0.999987  0.499999  0.383776  1
  Co  Co7  1  0.499997  0.000002  0.616239  1
  Co  Co8  1  0.499998  0.499999  0.616244  1
  Co  Co9  1  0.999995  0.499999  0.616236  1
  Ni  Ni10  1  0.333322  0.666722  0.999996  1
  Ni  Ni11  1  0.666654  0.333272  0.999998  1
  Ni  Ni12  1  0.499987  0.000005  0.157363  1
  Ni  Ni13  1  0.499987  0.499998  0.157371  1
  Ni  Ni14  1  0.999981  0.499998  0.157369  1
  Ni  Ni15  1  0.500001  0.000004  0.842647  1
  Ni  Ni16  1  0.500001  0.499999  0.842621  1
  Ni  Ni17  1  0.999994  0.499997  0.842626  1
  B  B18  1  0.333398  0.666741  0.500000  1
  B  B19  1  0.666586  0.333259  0.499999  1
  B  B20  1  0.333297  0.666646  0.270606  1
  B  B21  1  0.666675  0.333355  0.270604  1
  B  B22  1  0.666610  0.333260  0.729395  1
  B  B23  1  0.333386  0.666740  0.729393  1
