# generated using pymatgen
data_Sc3NiSn3IrRh
_symmetry_space_group_name_H-M   'P 1'
_cell_length_a   7.57182500
_cell_length_b   7.57182629
_cell_length_c   3.35302700
_cell_angle_alpha   90.00000000
_cell_angle_beta   90.00000000
_cell_angle_gamma   119.99999875
_symmetry_Int_Tables_number   1
_chemical_formula_structural   Sc3NiSn3IrRh
_chemical_formula_sum   'Sc3 Ni1 Sn3 Ir1 Rh1'
_cell_volume   166.48261832
_cell_formula_units_Z   1
loop_
 _symmetry_equiv_pos_site_id
 _symmetry_equiv_pos_as_xyz
  1  'x, y, z'
loop_
 _atom_site_type_symbol
 _atom_site_label
 _atom_site_symmetry_multiplicity
 _atom_site_fract_x
 _atom_site_fract_y
 _atom_site_fract_z
 _atom_site_occupancy
  Sc  Sc0  1  0.605136  0.001181  0.000000  1
  Sc  Sc1  1  0.998819  0.603956  0.000000  1
  Sc  Sc2  1  0.396044  0.394864  0.000000  1
  Ni  Ni3  1  0.000000  0.000000  0.000000  1
  Sn  Sn4  1  0.267360  0.998005  0.500000  1
  Sn  Sn5  1  0.001995  0.269355  0.500000  1
  Sn  Sn6  1  0.730645  0.732640  0.500000  1
  Ir  Ir7  1  0.666667  0.333333  0.500000  1
  Rh  Rh8  1  0.333333  0.666667  0.500000  1
