# generated using pymatgen
data_Li4AlBi3Rh8
_symmetry_space_group_name_H-M   'P 1'
_cell_length_a   4.42100300
_cell_length_b   6.24358000
_cell_length_c   8.82034900
_cell_angle_alpha   90.00000000
_cell_angle_beta   89.99904629
_cell_angle_gamma   90.00000000
_symmetry_Int_Tables_number   1
_chemical_formula_structural   Li4AlBi3Rh8
_chemical_formula_sum   'Li4 Al1 Bi3 Rh8'
_cell_volume   243.46708712
_cell_formula_units_Z   1
loop_
 _symmetry_equiv_pos_site_id
 _symmetry_equiv_pos_as_xyz
  1  'x, y, z'
loop_
 _atom_site_type_symbol
 _atom_site_label
 _atom_site_symmetry_multiplicity
 _atom_site_fract_x
 _atom_site_fract_y
 _atom_site_fract_z
 _atom_site_occupancy
  Li  Li0  1  0.250034  0.749999  0.124996  1
  Li  Li1  1  0.749997  0.250000  0.371288  1
  Li  Li2  1  0.249974  0.749999  0.625039  1
  Li  Li3  1  0.750004  0.250000  0.878708  1
  Al  Al4  1  0.250009  0.250000  0.124978  1
  Bi  Bi5  1  0.750015  0.749999  0.367201  1
  Bi  Bi6  1  0.249979  0.250000  0.624980  1
  Bi  Bi7  1  0.749993  0.749999  0.882759  1
  Rh  Rh8  1  0.750011  0.479945  0.125003  1
  Rh  Rh9  1  0.750011  0.020055  0.125003  1
  Rh  Rh10  1  0.250019  0.009779  0.364105  1
  Rh  Rh11  1  0.250019  0.490222  0.364105  1
  Rh  Rh12  1  0.749984  0.502991  0.624997  1
  Rh  Rh13  1  0.749984  0.997009  0.624997  1
  Rh  Rh14  1  0.249987  0.009785  0.885920  1
  Rh  Rh15  1  0.249987  0.490216  0.885920  1
