# generated using pymatgen
data_Pr9Nd(Ir2Rh)2
_symmetry_space_group_name_H-M   'P 1'
_cell_length_a   11.29874400
_cell_length_b   11.29874400
_cell_length_c   6.67474600
_cell_angle_alpha   90.00000000
_cell_angle_beta   90.00000000
_cell_angle_gamma   90.00000000
_symmetry_Int_Tables_number   1
_chemical_formula_structural   Pr9Nd(Ir2Rh)2
_chemical_formula_sum   'Pr18 Nd2 Ir8 Rh4'
_cell_volume   852.10886060
_cell_formula_units_Z   2
loop_
 _symmetry_equiv_pos_site_id
 _symmetry_equiv_pos_as_xyz
  1  'x, y, z'
loop_
 _atom_site_type_symbol
 _atom_site_label
 _atom_site_symmetry_multiplicity
 _atom_site_fract_x
 _atom_site_fract_y
 _atom_site_fract_z
 _atom_site_occupancy
  Pr  Pr0  1  0.090765  0.291097  0.115807  1
  Pr  Pr1  1  0.791097  0.409235  0.115807  1
  Pr  Pr2  1  0.208903  0.590765  0.115807  1
  Pr  Pr3  1  0.909235  0.708903  0.115807  1
  Pr  Pr4  1  0.409194  0.790966  0.384426  1
  Pr  Pr5  1  0.590806  0.209034  0.384426  1
  Pr  Pr6  1  0.290966  0.090806  0.384426  1
  Pr  Pr7  1  0.709034  0.909194  0.384426  1
  Pr  Pr8  1  0.409235  0.208903  0.884193  1
  Pr  Pr9  1  0.708903  0.090765  0.884193  1
  Pr  Pr10  1  0.291097  0.909235  0.884193  1
  Pr  Pr11  1  0.590765  0.791097  0.884193  1
  Pr  Pr12  1  0.090806  0.709034  0.615574  1
  Pr  Pr13  1  0.909194  0.290966  0.615574  1
  Pr  Pr14  1  0.209034  0.409194  0.615574  1
  Pr  Pr15  1  0.790966  0.590806  0.615574  1
  Pr  Pr16  1  0.000000  0.000000  0.000000  1
  Pr  Pr17  1  0.500000  0.500000  0.000000  1
  Nd  Nd18  1  0.500000  0.500000  0.500000  1
  Nd  Nd19  1  0.000000  0.000000  0.500000  1
  Ir  Ir20  1  0.153616  0.846396  0.250728  1
  Ir  Ir21  1  0.346396  0.346384  0.250728  1
  Ir  Ir22  1  0.653604  0.653616  0.250728  1
  Ir  Ir23  1  0.846384  0.153604  0.250728  1
  Ir  Ir24  1  0.346384  0.653604  0.749272  1
  Ir  Ir25  1  0.153604  0.153616  0.749272  1
  Ir  Ir26  1  0.846396  0.846384  0.749272  1
  Ir  Ir27  1  0.653616  0.346396  0.749272  1
  Rh  Rh28  1  0.000000  0.500000  0.380428  1
  Rh  Rh29  1  0.500000  0.000000  0.119381  1
  Rh  Rh30  1  0.500000  0.000000  0.619572  1
  Rh  Rh31  1  0.000000  0.500000  0.880619  1
