# generated using pymatgen
data_Ho3MgIn2Au3
_symmetry_space_group_name_H-M   'P 1'
_cell_length_a   7.62137515
_cell_length_b   7.62137485
_cell_length_c   4.12252100
_cell_angle_alpha   90.00000000
_cell_angle_beta   90.00000000
_cell_angle_gamma   120.10424898
_symmetry_Int_Tables_number   1
_chemical_formula_structural   Ho3MgIn2Au3
_chemical_formula_sum   'Ho3 Mg1 In2 Au3'
_cell_volume   207.15861218
_cell_formula_units_Z   1
loop_
 _symmetry_equiv_pos_site_id
 _symmetry_equiv_pos_as_xyz
  1  'x, y, z'
loop_
 _atom_site_type_symbol
 _atom_site_label
 _atom_site_symmetry_multiplicity
 _atom_site_fract_x
 _atom_site_fract_y
 _atom_site_fract_z
 _atom_site_occupancy
  Ho  Ho0  1  0.406174  0.406174  0.500000  1
  Ho  Ho1  1  0.592227  0.002063  0.500000  1
  Ho  Ho2  1  0.002063  0.592227  0.500000  1
  Mg  Mg3  1  0.747863  0.747863  0.000000  1
  In  In4  1  0.254553  0.998980  0.000000  1
  In  In5  1  0.998980  0.254553  0.000000  1
  Au  Au6  1  0.668076  0.344389  0.000000  1
  Au  Au7  1  0.344389  0.668076  0.000000  1
  Au  Au8  1  0.985675  0.985675  0.500000  1
