# generated using pymatgen
data_La6Pr2Sc12Si15As
_symmetry_space_group_name_H-M   'P 1'
_cell_length_a   7.32281547
_cell_length_b   7.61039009
_cell_length_c   14.29196496
_cell_angle_alpha   90.00756649
_cell_angle_beta   89.95872767
_cell_angle_gamma   90.40823584
_symmetry_Int_Tables_number   1
_chemical_formula_structural   La6Pr2Sc12Si15As
_chemical_formula_sum   'La6 Pr2 Sc12 Si15 As1'
_cell_volume   796.46337811
_cell_formula_units_Z   1
loop_
 _symmetry_equiv_pos_site_id
 _symmetry_equiv_pos_as_xyz
  1  'x, y, z'
loop_
 _atom_site_type_symbol
 _atom_site_label
 _atom_site_symmetry_multiplicity
 _atom_site_fract_x
 _atom_site_fract_y
 _atom_site_fract_z
 _atom_site_occupancy
  La  La0  1  0.012180  0.171486  0.402084  1
  La  La1  1  0.511790  0.328499  0.401487  1
  La  La2  1  0.492015  0.667594  0.904978  1
  La  La3  1  0.492300  0.667446  0.595302  1
  La  La4  1  0.989133  0.830101  0.598792  1
  La  La5  1  0.988877  0.830121  0.901543  1
  Pr  Pr6  1  0.511809  0.327260  0.098981  1
  Pr  Pr7  1  0.012199  0.172516  0.098356  1
  Sc  Sc8  1  0.327913  0.174597  0.626527  1
  Sc  Sc9  1  0.670239  0.824647  0.373697  1
  Sc  Sc10  1  0.661514  0.003658  0.750013  1
  Sc  Sc11  1  0.169745  0.675774  0.374297  1
  Sc  Sc12  1  0.828134  0.326057  0.875606  1
  Sc  Sc13  1  0.828289  0.326242  0.624590  1
  Sc  Sc14  1  0.840774  0.502577  0.249597  1
  Sc  Sc15  1  0.341466  0.996982  0.249565  1
  Sc  Sc16  1  0.327888  0.175081  0.873765  1
  Sc  Sc17  1  0.169646  0.675855  0.125219  1
  Sc  Sc18  1  0.670248  0.824555  0.125757  1
  Sc  Sc19  1  0.156992  0.493470  0.749990  1
  Si  Si20  1  0.465351  0.626575  0.249512  1
  Si  Si21  1  0.021735  0.141088  0.750026  1
  Si  Si22  1  0.531668  0.370021  0.750047  1
  Si  Si23  1  0.150658  0.463972  0.540639  1
  Si  Si24  1  0.967489  0.873381  0.249534  1
  Si  Si25  1  0.710504  0.115421  0.249095  1
  Si  Si26  1  0.848769  0.536365  0.040890  1
  Si  Si27  1  0.349169  0.965017  0.039987  1
  Si  Si28  1  0.150934  0.462726  0.960153  1
  Si  Si29  1  0.648788  0.036500  0.540564  1
  Si  Si30  1  0.349926  0.963403  0.460550  1
  Si  Si31  1  0.849535  0.538056  0.459591  1
  Si  Si32  1  0.791396  0.616804  0.749984  1
  Si  Si33  1  0.210506  0.385534  0.249109  1
  Si  Si34  1  0.649164  0.037753  0.960143  1
  As  As35  1  0.301254  0.872865  0.750029  1
