# generated using pymatgen
data_Lu3B6Ir7Os
_symmetry_space_group_name_H-M   'P 1'
_cell_length_a   9.94660584
_cell_length_b   9.14310455
_cell_length_c   5.52562665
_cell_angle_alpha   81.35154699
_cell_angle_beta   65.33546268
_cell_angle_gamma   33.31299206
_symmetry_Int_Tables_number   1
_chemical_formula_structural   Lu3B6Ir7Os
_chemical_formula_sum   'Lu3 B6 Ir7 Os1'
_cell_volume   230.14959669
_cell_formula_units_Z   1
loop_
 _symmetry_equiv_pos_site_id
 _symmetry_equiv_pos_as_xyz
  1  'x, y, z'
loop_
 _atom_site_type_symbol
 _atom_site_label
 _atom_site_symmetry_multiplicity
 _atom_site_fract_x
 _atom_site_fract_y
 _atom_site_fract_z
 _atom_site_occupancy
  Lu  Lu0  1  0.000000  0.000000  0.000000  1
  Lu  Lu1  1  0.178180  0.178180  0.821820  1
  Lu  Lu2  1  0.821820  0.821820  0.178180  1
  B  B3  1  0.818620  0.533968  0.478650  1
  B  B4  1  0.168761  0.478650  0.533968  1
  B  B5  1  0.478650  0.168761  0.818620  1
  B  B6  1  0.672311  0.327689  0.672311  1
  B  B7  1  0.533968  0.818620  0.168761  1
  B  B8  1  0.327689  0.672311  0.327689  1
  Ir  Ir9  1  0.414942  0.414942  0.585058  1
  Ir  Ir10  1  0.586135  0.586135  0.913865  1
  Ir  Ir11  1  0.086326  0.086326  0.413674  1
  Ir  Ir12  1  0.913865  0.913865  0.586135  1
  Ir  Ir13  1  0.585058  0.585058  0.414942  1
  Ir  Ir14  1  0.250000  0.250000  0.250000  1
  Ir  Ir15  1  0.413674  0.413674  0.086326  1
  Os  Os16  1  0.750000  0.750000  0.750000  1
