# generated using pymatgen
data_BaLi4Pr3Si8
_symmetry_space_group_name_H-M   'P 1'
_cell_length_a   3.89666000
_cell_length_b   7.97003897
_cell_length_c   10.85663862
_cell_angle_alpha   89.56172019
_cell_angle_beta   90.00000000
_cell_angle_gamma   90.00000000
_symmetry_Int_Tables_number   1
_chemical_formula_structural   BaLi4Pr3Si8
_chemical_formula_sum   'Ba1 Li4 Pr3 Si8'
_cell_volume   337.15968082
_cell_formula_units_Z   1
loop_
 _symmetry_equiv_pos_site_id
 _symmetry_equiv_pos_as_xyz
  1  'x, y, z'
loop_
 _atom_site_type_symbol
 _atom_site_label
 _atom_site_symmetry_multiplicity
 _atom_site_fract_x
 _atom_site_fract_y
 _atom_site_fract_z
 _atom_site_occupancy
  Ba  Ba0  1  0.750000  0.359807  0.366233  1
  Li  Li1  1  0.250000  0.002005  0.391119  1
  Li  Li2  1  0.750000  0.003666  0.613559  1
  Li  Li3  1  0.250000  0.494356  0.107287  1
  Li  Li4  1  0.750000  0.503622  0.890750  1
  Pr  Pr5  1  0.250000  0.128208  0.864724  1
  Pr  Pr6  1  0.750000  0.865236  0.130798  1
  Pr  Pr7  1  0.250000  0.634920  0.636512  1
  Si  Si8  1  0.750000  0.264566  0.061961  1
  Si  Si9  1  0.250000  0.727097  0.927792  1
  Si  Si10  1  0.750000  0.782125  0.430336  1
  Si  Si11  1  0.250000  0.227650  0.585220  1
  Si  Si12  1  0.750000  0.830664  0.821580  1
  Si  Si13  1  0.250000  0.156141  0.162757  1
  Si  Si14  1  0.750000  0.332830  0.687220  1
  Si  Si15  1  0.250000  0.687103  0.322151  1
