# generated using pymatgen
data_Nd2Sm4IrI10
_symmetry_space_group_name_H-M   'P 1'
_cell_length_a   7.89395958
_cell_length_b   9.91116259
_cell_length_c   9.85291300
_cell_angle_alpha   107.01610778
_cell_angle_beta   96.55624839
_cell_angle_gamma   105.01181887
_symmetry_Int_Tables_number   1
_chemical_formula_structural   Nd2Sm4IrI10
_chemical_formula_sum   'Nd2 Sm4 Ir1 I10'
_cell_volume   696.74721014
_cell_formula_units_Z   1
loop_
 _symmetry_equiv_pos_site_id
 _symmetry_equiv_pos_as_xyz
  1  'x, y, z'
loop_
 _atom_site_type_symbol
 _atom_site_label
 _atom_site_symmetry_multiplicity
 _atom_site_fract_x
 _atom_site_fract_y
 _atom_site_fract_z
 _atom_site_occupancy
  Nd  Nd0  1  0.882471  0.956979  0.240310  1
  Nd  Nd1  1  0.117529  0.043021  0.759690  1
  Sm  Sm2  1  0.031503  0.710182  0.912824  1
  Sm  Sm3  1  0.968497  0.289818  0.087176  1
  Sm  Sm4  1  0.648486  0.873857  0.832664  1
  Sm  Sm5  1  0.351514  0.126143  0.167336  1
  Ir  Ir6  1  0.000000  0.000000  0.000000  1
  I  I7  1  0.648365  0.548159  0.727693  1
  I  I8  1  0.351635  0.451841  0.272307  1
  I  I9  1  0.738280  0.912173  0.539509  1
  I  I10  1  0.261720  0.087827  0.460491  1
  I  I11  1  0.085455  0.373472  0.818895  1
  I  I12  1  0.914545  0.626528  0.181105  1
  I  I13  1  0.451901  0.815151  0.092156  1
  I  I14  1  0.548099  0.184849  0.907844  1
  I  I15  1  0.222065  0.740446  0.652132  1
  I  I16  1  0.777935  0.259554  0.347868  1
