# generated using pymatgen
data_Tb6Ga2Tc14O
_symmetry_space_group_name_H-M   'P 1'
_cell_length_a   8.06648217
_cell_length_b   8.06648118
_cell_length_c   8.02414700
_cell_angle_alpha   110.14611869
_cell_angle_beta   110.14612366
_cell_angle_gamma   108.34778142
_symmetry_Int_Tables_number   1
_chemical_formula_structural   Tb6Ga2Tc14O
_chemical_formula_sum   'Tb6 Ga2 Tc14 O1'
_cell_volume   400.70035992
_cell_formula_units_Z   1
loop_
 _symmetry_equiv_pos_site_id
 _symmetry_equiv_pos_as_xyz
  1  'x, y, z'
loop_
 _atom_site_type_symbol
 _atom_site_label
 _atom_site_symmetry_multiplicity
 _atom_site_fract_x
 _atom_site_fract_y
 _atom_site_fract_z
 _atom_site_occupancy
  Tb  Tb0  1  0.740293  0.740293  0.000000  1
  Tb  Tb1  1  0.266369  0.002287  0.268658  1
  Tb  Tb2  1  0.733630  0.997713  0.731342  1
  Tb  Tb3  1  0.997713  0.733630  0.731343  1
  Tb  Tb4  1  0.002287  0.266369  0.268658  1
  Tb  Tb5  1  0.259706  0.259706  0.000000  1
  Ga  Ga6  1  0.346615  0.346615  0.693231  1
  Ga  Ga7  1  0.653385  0.653385  0.306769  1
  Tc  Tc8  1  0.000000  0.500000  0.000000  1
  Tc  Tc9  1  0.500000  0.000000  0.000000  1
  Tc  Tc10  1  0.000000  0.000000  0.500000  1
  Tc  Tc11  1  0.500000  0.500000  0.500000  1
  Tc  Tc12  1  0.000752  0.341560  0.659635  1
  Tc  Tc13  1  0.318074  0.658883  0.659635  1
  Tc  Tc14  1  0.658883  0.318074  0.659635  1
  Tc  Tc15  1  0.341560  0.000752  0.659635  1
  Tc  Tc16  1  0.662528  0.337472  0.000000  1
  Tc  Tc17  1  0.337472  0.662528  0.000000  1
  Tc  Tc18  1  0.341117  0.681926  0.340365  1
  Tc  Tc19  1  0.999248  0.658440  0.340365  1
  Tc  Tc20  1  0.658440  0.999248  0.340365  1
  Tc  Tc21  1  0.681926  0.341117  0.340365  1
  O  O22  1  0.000000  0.000000  0.000000  1
