# generated using pymatgen
data_Pr8Ho3Sc9Pb16
_symmetry_space_group_name_H-M   'P 1'
_cell_length_a   8.09951328
_cell_length_b   8.22262171
_cell_length_c   15.48197478
_cell_angle_alpha   90.04970761
_cell_angle_beta   89.93702055
_cell_angle_gamma   90.16041569
_symmetry_Int_Tables_number   1
_chemical_formula_structural   Pr8Ho3Sc9Pb16
_chemical_formula_sum   'Pr8 Ho3 Sc9 Pb16'
_cell_volume   1031.08260751
_cell_formula_units_Z   1
loop_
 _symmetry_equiv_pos_site_id
 _symmetry_equiv_pos_as_xyz
  1  'x, y, z'
loop_
 _atom_site_type_symbol
 _atom_site_label
 _atom_site_symmetry_multiplicity
 _atom_site_fract_x
 _atom_site_fract_y
 _atom_site_fract_z
 _atom_site_occupancy
  Pr  Pr0  1  0.477828  0.677255  0.594088  1
  Pr  Pr1  1  0.977255  0.823587  0.903916  1
  Pr  Pr2  1  0.521950  0.323351  0.097434  1
  Pr  Pr3  1  0.022346  0.175440  0.403821  1
  Pr  Pr4  1  0.520419  0.322466  0.404039  1
  Pr  Pr5  1  0.021301  0.176183  0.097002  1
  Pr  Pr6  1  0.479397  0.676933  0.904129  1
  Pr  Pr7  1  0.978263  0.823060  0.595418  1
  Ho  Ho8  1  0.862465  0.658596  0.125399  1
  Ho  Ho9  1  0.637237  0.157432  0.876591  1
  Ho  Ho10  1  0.138964  0.342008  0.621426  1
  Sc  Sc11  1  0.640529  0.157924  0.625011  1
  Sc  Sc12  1  0.140269  0.341918  0.874656  1
  Sc  Sc13  1  0.359902  0.842218  0.125519  1
  Sc  Sc14  1  0.860381  0.656241  0.375198  1
  Sc  Sc15  1  0.361810  0.844137  0.374697  1
  Sc  Sc16  1  0.806231  0.493036  0.749342  1
  Sc  Sc17  1  0.305923  0.006319  0.749670  1
  Sc  Sc18  1  0.195283  0.507391  0.250230  1
  Sc  Sc19  1  0.693238  0.992513  0.251542  1
  Pb  Pb20  1  0.696092  0.953096  0.455126  1
  Pb  Pb21  1  0.203099  0.544302  0.044208  1
  Pb  Pb22  1  0.295683  0.045002  0.956447  1
  Pb  Pb23  1  0.796918  0.455254  0.543514  1
  Pb  Pb24  1  0.309674  0.040113  0.543312  1
  Pb  Pb25  1  0.808680  0.457277  0.953558  1
  Pb  Pb26  1  0.692178  0.957017  0.047897  1
  Pb  Pb27  1  0.195795  0.550144  0.450911  1
  Pb  Pb28  1  0.445482  0.367856  0.748772  1
  Pb  Pb29  1  0.946195  0.132683  0.750131  1
  Pb  Pb30  1  0.551511  0.636872  0.252301  1
  Pb  Pb31  1  0.058050  0.866747  0.253614  1
  Pb  Pb32  1  0.666629  0.849834  0.748307  1
  Pb  Pb33  1  0.166709  0.649719  0.750722  1
  Pb  Pb34  1  0.333706  0.145968  0.250136  1
  Pb  Pb35  1  0.832606  0.350107  0.251914  1
