# generated using pymatgen
data_Rb8TiAs4
_symmetry_space_group_name_H-M   'P 1'
_cell_length_a   11.42809784
_cell_length_b   11.42809731
_cell_length_c   11.42809800
_cell_angle_alpha   59.99999800
_cell_angle_beta   59.99999954
_cell_angle_gamma   59.99999648
_symmetry_Int_Tables_number   1
_chemical_formula_structural   Rb8TiAs4
_chemical_formula_sum   'Rb16 Ti2 As8'
_cell_volume   1055.37503822
_cell_formula_units_Z   2
loop_
 _symmetry_equiv_pos_site_id
 _symmetry_equiv_pos_as_xyz
  1  'x, y, z'
loop_
 _atom_site_type_symbol
 _atom_site_label
 _atom_site_symmetry_multiplicity
 _atom_site_fract_x
 _atom_site_fract_y
 _atom_site_fract_z
 _atom_site_occupancy
  Rb  Rb0  1  0.625000  0.125000  0.625000  1
  Rb  Rb1  1  0.625000  0.625000  0.125000  1
  Rb  Rb2  1  0.125000  0.625000  0.625000  1
  Rb  Rb3  1  0.625000  0.625000  0.625000  1
  Rb  Rb4  1  0.025894  0.025894  0.474106  1
  Rb  Rb5  1  0.775894  0.224106  0.224106  1
  Rb  Rb6  1  0.224106  0.775894  0.775894  1
  Rb  Rb7  1  0.775894  0.775894  0.224106  1
  Rb  Rb8  1  0.775894  0.224106  0.775894  1
  Rb  Rb9  1  0.224106  0.775894  0.224106  1
  Rb  Rb10  1  0.474106  0.025894  0.474106  1
  Rb  Rb11  1  0.474106  0.025894  0.025894  1
  Rb  Rb12  1  0.025894  0.474106  0.474106  1
  Rb  Rb13  1  0.025894  0.474106  0.025894  1
  Rb  Rb14  1  0.224106  0.224106  0.775894  1
  Rb  Rb15  1  0.474106  0.474106  0.025894  1
  Ti  Ti16  1  0.750000  0.750000  0.750000  1
  Ti  Ti17  1  0.500000  0.500000  0.500000  1
  As  As18  1  0.407129  0.778614  0.407129  1
  As  As19  1  0.842871  0.842871  0.471386  1
  As  As20  1  0.471386  0.842871  0.842871  1
  As  As21  1  0.842871  0.842871  0.842871  1
  As  As22  1  0.778614  0.407129  0.407129  1
  As  As23  1  0.407129  0.407129  0.407129  1
  As  As24  1  0.407129  0.407129  0.778614  1
  As  As25  1  0.842871  0.471386  0.842871  1
