# generated using pymatgen
data_K6AlFeSe6
_symmetry_space_group_name_H-M   'P 1'
_cell_length_a   13.32609700
_cell_length_b   8.20101740
_cell_length_c   10.55374300
_cell_angle_alpha   52.32635655
_cell_angle_beta   90.00000000
_cell_angle_gamma   90.00000000
_symmetry_Int_Tables_number   1
_chemical_formula_structural   K6AlFeSe6
_chemical_formula_sum   'K12 Al2 Fe2 Se12'
_cell_volume   912.91584995
_cell_formula_units_Z   2
loop_
 _symmetry_equiv_pos_site_id
 _symmetry_equiv_pos_as_xyz
  1  'x, y, z'
loop_
 _atom_site_type_symbol
 _atom_site_label
 _atom_site_symmetry_multiplicity
 _atom_site_fract_x
 _atom_site_fract_y
 _atom_site_fract_z
 _atom_site_occupancy
  K  K0  1  0.311232  0.151060  0.074961  1
  K  K1  1  0.688434  0.848446  0.925553  1
  K  K2  1  0.811232  0.848940  0.425039  1
  K  K3  1  0.897925  0.322492  0.398586  1
  K  K4  1  0.618975  0.376015  0.470282  1
  K  K5  1  0.118975  0.623985  0.029718  1
  K  K6  1  0.381195  0.623257  0.529242  1
  K  K7  1  0.881195  0.376743  0.970758  1
  K  K8  1  0.602191  0.321439  0.899328  1
  K  K9  1  0.102191  0.678561  0.600672  1
  K  K10  1  0.397925  0.677508  0.101414  1
  K  K11  1  0.188434  0.151554  0.574447  1
  Al  Al12  1  0.438005  0.943127  0.656970  1
  Al  Al13  1  0.938005  0.056873  0.843030  1
  Fe  Fe14  1  0.062217  0.942978  0.157445  1
  Fe  Fe15  1  0.562217  0.057022  0.342555  1
  Se  Se16  1  0.397688  0.172111  0.368770  1
  Se  Se17  1  0.897688  0.827889  0.131230  1
  Se  Se18  1  0.601331  0.826590  0.632944  1
  Se  Se19  1  0.101331  0.173410  0.867056  1
  Se  Se20  1  0.686019  0.323817  0.198763  1
  Se  Se21  1  0.186019  0.676183  0.301237  1
  Se  Se22  1  0.314249  0.675361  0.800638  1
  Se  Se23  1  0.814249  0.324639  0.699362  1
  Se  Se24  1  0.546920  0.870756  0.237932  1
  Se  Se25  1  0.046920  0.129244  0.262068  1
  Se  Se26  1  0.453618  0.129391  0.762202  1
  Se  Se27  1  0.953618  0.870609  0.737798  1
