# generated using pymatgen
data_TbYb4Dy(Si3Ru)8
_symmetry_space_group_name_H-M   'P 1'
_cell_length_a   10.15799058
_cell_length_b   10.15799043
_cell_length_c   8.12916186
_cell_angle_alpha   90.01172628
_cell_angle_beta   89.98827390
_cell_angle_gamma   132.79174752
_symmetry_Int_Tables_number   1
_chemical_formula_structural   TbYb4Dy(Si3Ru)8
_chemical_formula_sum   'Tb1 Yb4 Dy1 Si24 Ru8'
_cell_volume   615.53886163
_cell_formula_units_Z   1
loop_
 _symmetry_equiv_pos_site_id
 _symmetry_equiv_pos_as_xyz
  1  'x, y, z'
loop_
 _atom_site_type_symbol
 _atom_site_label
 _atom_site_symmetry_multiplicity
 _atom_site_fract_x
 _atom_site_fract_y
 _atom_site_fract_z
 _atom_site_occupancy
  Tb  Tb0  1  0.499460  0.999460  0.250000  1
  Yb  Yb1  1  0.500050  0.499926  0.500046  1
  Yb  Yb2  1  0.999926  0.000050  0.999954  1
  Yb  Yb3  1  0.500653  0.000653  0.750000  1
  Yb  Yb4  1  0.999243  0.499243  0.250000  1
  Dy  Dy5  1  0.000451  0.500451  0.750000  1
  Si  Si6  1  0.795720  0.204789  0.500207  1
  Si  Si7  1  0.294730  0.704639  0.999684  1
  Si  Si8  1  0.204639  0.794730  0.500316  1
  Si  Si9  1  0.704789  0.295720  0.999793  1
  Si  Si10  1  0.332213  0.335479  0.832136  1
  Si  Si11  1  0.664356  0.668097  0.167952  1
  Si  Si12  1  0.168097  0.164356  0.332048  1
  Si  Si13  1  0.835479  0.832213  0.667864  1
  Si  Si14  1  0.123245  0.890688  0.730281  1
  Si  Si15  1  0.109328  0.876678  0.269629  1
  Si  Si16  1  0.608363  0.375634  0.230307  1
  Si  Si17  1  0.624318  0.391726  0.769814  1
  Si  Si18  1  0.875634  0.108363  0.269693  1
  Si  Si19  1  0.891726  0.124318  0.730186  1
  Si  Si20  1  0.390688  0.623245  0.769719  1
  Si  Si21  1  0.376678  0.609328  0.230371  1
  Si  Si22  1  0.346908  0.113369  0.506301  1
  Si  Si23  1  0.886551  0.653192  0.493781  1
  Si  Si24  1  0.386275  0.153138  0.008445  1
  Si  Si25  1  0.846811  0.613739  0.991417  1
  Si  Si26  1  0.653138  0.886275  0.491555  1
  Si  Si27  1  0.113739  0.346811  0.508583  1
  Si  Si28  1  0.613369  0.846908  0.993699  1
  Si  Si29  1  0.153192  0.386551  0.006219  1
  Ru  Ru30  1  0.671237  0.329061  0.500230  1
  Ru  Ru31  1  0.170246  0.829430  0.999774  1
  Ru  Ru32  1  0.329430  0.670246  0.500226  1
  Ru  Ru33  1  0.829061  0.171237  0.999770  1
  Ru  Ru34  1  0.127002  0.127187  0.624812  1
  Ru  Ru35  1  0.872858  0.873211  0.375086  1
  Ru  Ru36  1  0.373211  0.372858  0.124914  1
  Ru  Ru37  1  0.627187  0.627002  0.875188  1
