# generated using pymatgen
data_Lu3Ga4Se
_symmetry_space_group_name_H-M   'P 1'
_cell_length_a   7.69723415
_cell_length_b   7.69723385
_cell_length_c   7.69723438
_cell_angle_alpha   119.12806521
_cell_angle_beta   119.12806795
_cell_angle_gamma   91.51698617
_symmetry_Int_Tables_number   1
_chemical_formula_structural   Lu3Ga4Se
_chemical_formula_sum   'Lu6 Ga8 Se2'
_cell_volume   326.59586832
_cell_formula_units_Z   2
loop_
 _symmetry_equiv_pos_site_id
 _symmetry_equiv_pos_as_xyz
  1  'x, y, z'
loop_
 _atom_site_type_symbol
 _atom_site_label
 _atom_site_symmetry_multiplicity
 _atom_site_fract_x
 _atom_site_fract_y
 _atom_site_fract_z
 _atom_site_occupancy
  Lu  Lu0  1  0.838122  0.661878  0.500000  1
  Lu  Lu1  1  0.661878  0.161878  0.823755  1
  Lu  Lu2  1  0.338122  0.838122  0.176245  1
  Lu  Lu3  1  0.161878  0.338122  0.500000  1
  Lu  Lu4  1  0.250000  0.250000  0.000000  1
  Lu  Lu5  1  0.750000  0.750000  0.000000  1
  Ga  Ga6  1  0.162484  0.951336  0.500000  1
  Ga  Ga7  1  0.451336  0.662484  0.500000  1
  Ga  Ga8  1  0.548664  0.337516  0.500000  1
  Ga  Ga9  1  0.662484  0.162484  0.211148  1
  Ga  Ga10  1  0.837516  0.048664  0.500000  1
  Ga  Ga11  1  0.048664  0.548664  0.211148  1
  Ga  Ga12  1  0.337516  0.837516  0.788852  1
  Ga  Ga13  1  0.951336  0.451336  0.788852  1
  Se  Se14  1  0.000000  0.000000  0.000000  1
  Se  Se15  1  0.500000  0.500000  0.000000  1
