# generated using pymatgen
data_Er5Be3P9IrRh18
_symmetry_space_group_name_H-M   'P 1'
_cell_length_a   12.58806000
_cell_length_b   12.58805936
_cell_length_c   3.90972400
_cell_angle_alpha   90.00000000
_cell_angle_beta   90.00000000
_cell_angle_gamma   120.00000169
_symmetry_Int_Tables_number   1
_chemical_formula_structural   Er5Be3P9IrRh18
_chemical_formula_sum   'Er5 Be3 P9 Ir1 Rh18'
_cell_volume   536.53037103
_cell_formula_units_Z   1
loop_
 _symmetry_equiv_pos_site_id
 _symmetry_equiv_pos_as_xyz
  1  'x, y, z'
loop_
 _atom_site_type_symbol
 _atom_site_label
 _atom_site_symmetry_multiplicity
 _atom_site_fract_x
 _atom_site_fract_y
 _atom_site_fract_z
 _atom_site_occupancy
  Er  Er0  1  0.666667  0.333333  0.000000  1
  Er  Er1  1  0.333333  0.666667  0.000000  1
  Er  Er2  1  0.814112  0.807499  0.500000  1
  Er  Er3  1  0.192501  0.006614  0.500000  1
  Er  Er4  1  0.993386  0.185888  0.500000  1
  Be  Be5  1  0.682794  0.157896  0.500000  1
  Be  Be6  1  0.842104  0.524898  0.500000  1
  Be  Be7  1  0.475102  0.317206  0.500000  1
  P  P8  1  0.173632  0.692440  0.500000  1
  P  P9  1  0.518808  0.826368  0.500000  1
  P  P10  1  0.307560  0.481192  0.500000  1
  P  P11  1  0.635013  0.623663  0.000000  1
  P  P12  1  0.376337  0.011349  0.000000  1
  P  P13  1  0.988651  0.364987  0.000000  1
  P  P14  1  0.180402  0.183394  0.000000  1
  P  P15  1  0.816606  0.997009  0.000000  1
  P  P16  1  0.002991  0.819598  0.000000  1
  Ir  Ir17  1  0.000000  0.000000  0.000000  1
  Rh  Rh18  1  0.803290  0.176500  0.000000  1
  Rh  Rh19  1  0.823500  0.626791  0.000000  1
  Rh  Rh20  1  0.373209  0.196710  0.000000  1
  Rh  Rh21  1  0.188683  0.811831  0.000000  1
  Rh  Rh22  1  0.623148  0.811317  0.000000  1
  Rh  Rh23  1  0.188169  0.376852  0.000000  1
  Rh  Rh24  1  0.451678  0.445375  0.000000  1
  Rh  Rh25  1  0.554625  0.006303  0.000000  1
  Rh  Rh26  1  0.993697  0.548322  0.000000  1
  Rh  Rh27  1  0.276987  0.283999  0.500000  1
  Rh  Rh28  1  0.716001  0.992989  0.500000  1
  Rh  Rh29  1  0.007011  0.723013  0.500000  1
  Rh  Rh30  1  0.868803  0.354606  0.500000  1
  Rh  Rh31  1  0.645394  0.514198  0.500000  1
  Rh  Rh32  1  0.485802  0.131197  0.500000  1
  Rh  Rh33  1  0.365999  0.872455  0.500000  1
  Rh  Rh34  1  0.506458  0.634001  0.500000  1
  Rh  Rh35  1  0.127545  0.493542  0.500000  1
