# generated using pymatgen
data_TbHo2Mn5(Co2P3)2
_symmetry_space_group_name_H-M   'P 1'
_cell_length_a   3.65650000
_cell_length_b   10.80452600
_cell_length_c   12.36746800
_cell_angle_alpha   90.00000000
_cell_angle_beta   90.00000000
_cell_angle_gamma   90.00000000
_symmetry_Int_Tables_number   1
_chemical_formula_structural   TbHo2Mn5(Co2P3)2
_chemical_formula_sum   'Tb2 Ho4 Mn10 Co8 P12'
_cell_volume   488.59845799
_cell_formula_units_Z   2
loop_
 _symmetry_equiv_pos_site_id
 _symmetry_equiv_pos_as_xyz
  1  'x, y, z'
loop_
 _atom_site_type_symbol
 _atom_site_label
 _atom_site_symmetry_multiplicity
 _atom_site_fract_x
 _atom_site_fract_y
 _atom_site_fract_z
 _atom_site_occupancy
  Tb  Tb0  1  0.000000  0.500000  0.532049  1
  Tb  Tb1  1  0.500000  0.000000  0.467951  1
  Ho  Ho2  1  0.500000  0.822277  0.200615  1
  Ho  Ho3  1  0.500000  0.177723  0.200615  1
  Ho  Ho4  1  0.000000  0.677723  0.799385  1
  Ho  Ho5  1  0.000000  0.322277  0.799385  1
  Mn  Mn6  1  0.500000  0.297687  0.430747  1
  Mn  Mn7  1  0.500000  0.702313  0.430747  1
  Mn  Mn8  1  0.000000  0.202313  0.569253  1
  Mn  Mn9  1  0.000000  0.797687  0.569253  1
  Mn  Mn10  1  0.500000  0.882313  0.707509  1
  Mn  Mn11  1  0.500000  0.117687  0.707509  1
  Mn  Mn12  1  0.000000  0.617687  0.292491  1
  Mn  Mn13  1  0.000000  0.382313  0.292491  1
  Mn  Mn14  1  0.500000  0.500000  0.159391  1
  Mn  Mn15  1  0.000000  0.000000  0.840609  1
  Co  Co16  1  0.000000  0.500000  0.990042  1
  Co  Co17  1  0.500000  0.000000  0.009958  1
  Co  Co18  1  0.500000  0.333351  0.995881  1
  Co  Co19  1  0.500000  0.666649  0.995881  1
  Co  Co20  1  0.000000  0.166649  0.004119  1
  Co  Co21  1  0.000000  0.833351  0.004119  1
  Co  Co22  1  0.500000  0.500000  0.710975  1
  Co  Co23  1  0.000000  0.000000  0.289025  1
  P  P24  1  0.500000  0.316741  0.621517  1
  P  P25  1  0.500000  0.683259  0.621517  1
  P  P26  1  0.000000  0.183259  0.378483  1
  P  P27  1  0.000000  0.816741  0.378483  1
  P  P28  1  0.500000  0.500000  0.887781  1
  P  P29  1  0.000000  0.000000  0.112219  1
  P  P30  1  0.500000  0.844735  0.893152  1
  P  P31  1  0.500000  0.155265  0.893152  1
  P  P32  1  0.000000  0.655265  0.106848  1
  P  P33  1  0.000000  0.344735  0.106848  1
  P  P34  1  0.500000  0.500000  0.355557  1
  P  P35  1  0.000000  0.000000  0.644443  1
