# generated using pymatgen
data_LaEu9(Bi3Br)2
_symmetry_space_group_name_H-M   'P 1'
_cell_length_a   9.83704604
_cell_length_b   9.83246919
_cell_length_c   7.28674800
_cell_angle_alpha   90.00000000
_cell_angle_beta   90.00000000
_cell_angle_gamma   119.98461033
_symmetry_Int_Tables_number   1
_chemical_formula_structural   LaEu9(Bi3Br)2
_chemical_formula_sum   'La1 Eu9 Bi6 Br2'
_cell_volume   610.46252465
_cell_formula_units_Z   1
loop_
 _symmetry_equiv_pos_site_id
 _symmetry_equiv_pos_as_xyz
  1  'x, y, z'
loop_
 _atom_site_type_symbol
 _atom_site_label
 _atom_site_symmetry_multiplicity
 _atom_site_fract_x
 _atom_site_fract_y
 _atom_site_fract_z
 _atom_site_occupancy
  La  La0  1  0.000000  0.736465  0.750000  1
  Eu  Eu1  1  0.736034  0.000770  0.750000  1
  Eu  Eu2  1  0.000000  0.264918  0.250000  1
  Eu  Eu3  1  0.735414  0.735906  0.250000  1
  Eu  Eu4  1  0.335310  0.666980  0.499467  1
  Eu  Eu5  1  0.335310  0.666980  0.000533  1
  Eu  Eu6  1  0.664690  0.331670  0.499467  1
  Eu  Eu7  1  0.664690  0.331670  0.000533  1
  Eu  Eu8  1  0.264586  0.000492  0.250000  1
  Eu  Eu9  1  0.263966  0.264736  0.750000  1
  Bi  Bi10  1  0.384853  0.996259  0.750000  1
  Bi  Bi11  1  0.611026  0.999660  0.250000  1
  Bi  Bi12  1  0.000000  0.612533  0.250000  1
  Bi  Bi13  1  0.615147  0.611406  0.750000  1
  Bi  Bi14  1  0.000000  0.391429  0.750000  1
  Bi  Bi15  1  0.388974  0.388634  0.250000  1
  Br  Br16  1  0.000000  0.999744  0.500584  1
  Br  Br17  1  0.000000  0.999744  0.999416  1
