# generated using pymatgen
data_Nd3In3HgPt2
_symmetry_space_group_name_H-M   'P 1'
_cell_length_a   7.86376200
_cell_length_b   7.86376179
_cell_length_c   4.11672700
_cell_angle_alpha   90.00000000
_cell_angle_beta   90.00000000
_cell_angle_gamma   119.99999246
_symmetry_Int_Tables_number   1
_chemical_formula_structural   Nd3In3HgPt2
_chemical_formula_sum   'Nd3 In3 Hg1 Pt2'
_cell_volume   220.46692408
_cell_formula_units_Z   1
loop_
 _symmetry_equiv_pos_site_id
 _symmetry_equiv_pos_as_xyz
  1  'x, y, z'
loop_
 _atom_site_type_symbol
 _atom_site_label
 _atom_site_symmetry_multiplicity
 _atom_site_fract_x
 _atom_site_fract_y
 _atom_site_fract_z
 _atom_site_occupancy
  Nd  Nd0  1  0.017973  0.603005  0.500000  1
  Nd  Nd1  1  0.585032  0.982027  0.500000  1
  Nd  Nd2  1  0.396995  0.414968  0.500000  1
  In  In3  1  0.005360  0.250178  0.000000  1
  In  In4  1  0.244817  0.994640  0.000000  1
  In  In5  1  0.749822  0.755183  0.000000  1
  Hg  Hg6  1  0.666667  0.333333  0.000000  1
  Pt  Pt7  1  0.000000  0.000000  0.500000  1
  Pt  Pt8  1  0.333333  0.666667  0.000000  1
