# generated using pymatgen
data_Tm5Co2Os
_symmetry_space_group_name_H-M   'P 1'
_cell_length_a   8.53400426
_cell_length_b   8.53400443
_cell_length_c   8.53400306
_cell_angle_alpha   131.48837020
_cell_angle_beta   131.48837372
_cell_angle_gamma   71.03829812
_symmetry_Int_Tables_number   1
_chemical_formula_structural   Tm5Co2Os
_chemical_formula_sum   'Tm10 Co4 Os2'
_cell_volume   341.49620371
_cell_formula_units_Z   2
loop_
 _symmetry_equiv_pos_site_id
 _symmetry_equiv_pos_as_xyz
  1  'x, y, z'
loop_
 _atom_site_type_symbol
 _atom_site_label
 _atom_site_symmetry_multiplicity
 _atom_site_fract_x
 _atom_site_fract_y
 _atom_site_fract_z
 _atom_site_occupancy
  Tm  Tm0  1  0.678699  0.535765  0.500000  1
  Tm  Tm1  1  0.464235  0.964235  0.142934  1
  Tm  Tm2  1  0.821301  0.321301  0.857066  1
  Tm  Tm3  1  0.535765  0.035765  0.857066  1
  Tm  Tm4  1  0.000000  0.000000  0.000000  1
  Tm  Tm5  1  0.035765  0.178699  0.500000  1
  Tm  Tm6  1  0.321301  0.464235  0.500000  1
  Tm  Tm7  1  0.178699  0.678699  0.142934  1
  Tm  Tm8  1  0.964235  0.821301  0.500000  1
  Tm  Tm9  1  0.500000  0.500000  0.000000  1
  Co  Co10  1  0.112809  0.612809  0.725617  1
  Co  Co11  1  0.887191  0.387191  0.274383  1
  Co  Co12  1  0.612809  0.887191  0.500000  1
  Co  Co13  1  0.387191  0.112809  0.500000  1
  Os  Os14  1  0.250000  0.250000  0.000000  1
  Os  Os15  1  0.750000  0.750000  0.000000  1
