# generated using pymatgen
data_K2Cu(GePt2)3
_symmetry_space_group_name_H-M   'P 1'
_cell_length_a   6.94801205
_cell_length_b   6.94801129
_cell_length_c   5.96430268
_cell_angle_alpha   114.62617367
_cell_angle_beta   114.62616348
_cell_angle_gamma   64.63964709
_symmetry_Int_Tables_number   1
_chemical_formula_structural   K2Cu(GePt2)3
_chemical_formula_sum   'K2 Cu1 Ge3 Pt6'
_cell_volume   226.35063199
_cell_formula_units_Z   1
loop_
 _symmetry_equiv_pos_site_id
 _symmetry_equiv_pos_as_xyz
  1  'x, y, z'
loop_
 _atom_site_type_symbol
 _atom_site_label
 _atom_site_symmetry_multiplicity
 _atom_site_fract_x
 _atom_site_fract_y
 _atom_site_fract_z
 _atom_site_occupancy
  K  K0  1  0.504354  0.504354  0.015232  1
  K  K1  1  0.997302  0.997302  0.976268  1
  Cu  Cu2  1  0.839557  0.839557  0.286659  1
  Ge  Ge3  1  0.320548  0.320548  0.363074  1
  Ge  Ge4  1  0.142688  0.142688  0.609017  1
  Ge  Ge5  1  0.690890  0.690890  0.750685  1
  Pt  Pt6  1  0.456285  0.041722  0.992601  1
  Pt  Pt7  1  0.041722  0.456285  0.992601  1
  Pt  Pt8  1  0.724107  0.281662  0.501082  1
  Pt  Pt9  1  0.281662  0.724107  0.501082  1
  Pt  Pt10  1  0.973451  0.527020  0.498027  1
  Pt  Pt11  1  0.527020  0.973451  0.498027  1
