# generated using pymatgen
data_Mg2Ni20B6W
_symmetry_space_group_name_H-M   'P 1'
_cell_length_a   7.46834632
_cell_length_b   7.46864965
_cell_length_c   7.46980705
_cell_angle_alpha   59.98784163
_cell_angle_beta   59.97991804
_cell_angle_gamma   60.00460078
_symmetry_Int_Tables_number   1
_chemical_formula_structural   Mg2Ni20B6W
_chemical_formula_sum   'Mg2 Ni20 B6 W1'
_cell_volume   294.55754269
_cell_formula_units_Z   1
loop_
 _symmetry_equiv_pos_site_id
 _symmetry_equiv_pos_as_xyz
  1  'x, y, z'
loop_
 _atom_site_type_symbol
 _atom_site_label
 _atom_site_symmetry_multiplicity
 _atom_site_fract_x
 _atom_site_fract_y
 _atom_site_fract_z
 _atom_site_occupancy
  Mg  Mg0  1  0.749925  0.750024  0.750017  1
  Mg  Mg1  1  0.250075  0.249976  0.249983  1
  Ni  Ni2  1  0.384958  0.384935  0.845121  1
  Ni  Ni3  1  0.615060  0.615129  0.615020  1
  Ni  Ni4  1  0.000016  0.339055  0.999987  1
  Ni  Ni5  1  0.339097  0.000000  0.999944  1
  Ni  Ni6  1  0.000049  0.339039  0.660924  1
  Ni  Ni7  1  0.845010  0.384989  0.385004  1
  Ni  Ni8  1  0.339133  0.000000  0.660898  1
  Ni  Ni9  1  0.999969  0.999996  0.339024  1
  Ni  Ni10  1  0.660947  0.338990  0.000049  1
  Ni  Ni11  1  0.999951  0.660961  0.339076  1
  Ni  Ni12  1  0.000031  0.000004  0.660976  1
  Ni  Ni13  1  0.339053  0.661010  0.999951  1
  Ni  Ni14  1  0.660903  0.000000  0.000056  1
  Ni  Ni15  1  0.999984  0.660945  0.000013  1
  Ni  Ni16  1  0.384996  0.845072  0.384997  1
  Ni  Ni17  1  0.615042  0.615065  0.154879  1
  Ni  Ni18  1  0.615004  0.154928  0.615003  1
  Ni  Ni19  1  0.154990  0.615011  0.614996  1
  Ni  Ni20  1  0.384940  0.384871  0.384980  1
  Ni  Ni21  1  0.660867  0.000000  0.339102  1
  B  B22  1  0.727100  0.272888  0.727149  1
  B  B23  1  0.272900  0.727112  0.272851  1
  B  B24  1  0.272911  0.727116  0.727130  1
  B  B25  1  0.272889  0.272855  0.727125  1
  B  B26  1  0.727111  0.727145  0.272875  1
  B  B27  1  0.727089  0.272884  0.272870  1
  W  W28  1  0.000000  0.000000  0.000000  1
