# generated using pymatgen
data_Zr6SnGeSb
_symmetry_space_group_name_H-M   'P 1'
_cell_length_a   7.67393300
_cell_length_b   7.67393332
_cell_length_c   3.92391100
_cell_angle_alpha   90.00000000
_cell_angle_beta   90.00000000
_cell_angle_gamma   120.00000295
_symmetry_Int_Tables_number   1
_chemical_formula_structural   Zr6SnGeSb
_chemical_formula_sum   'Zr6 Sn1 Ge1 Sb1'
_cell_volume   200.11783291
_cell_formula_units_Z   1
loop_
 _symmetry_equiv_pos_site_id
 _symmetry_equiv_pos_as_xyz
  1  'x, y, z'
loop_
 _atom_site_type_symbol
 _atom_site_label
 _atom_site_symmetry_multiplicity
 _atom_site_fract_x
 _atom_site_fract_y
 _atom_site_fract_z
 _atom_site_occupancy
  Zr  Zr0  1  0.602182  0.998024  0.000000  1
  Zr  Zr1  1  0.395840  0.397817  0.000000  1
  Zr  Zr2  1  0.001976  0.604159  0.000000  1
  Zr  Zr3  1  0.247976  0.001657  0.499999  1
  Zr  Zr4  1  0.998343  0.246319  0.499999  1
  Zr  Zr5  1  0.753681  0.752024  0.499999  1
  Sn  Sn6  1  0.666667  0.333334  0.499999  1
  Ge  Ge7  1  0.000000  0.000000  0.000000  1
  Sb  Sb8  1  0.333334  0.666667  0.499999  1
