# generated using pymatgen
data_NdY2Ga7CuAg3
_symmetry_space_group_name_H-M   'P 1'
_cell_length_a   4.30413561
_cell_length_b   8.37964949
_cell_length_c   8.37382247
_cell_angle_alpha   70.32685022
_cell_angle_beta   75.10790078
_cell_angle_gamma   75.11849960
_symmetry_Int_Tables_number   1
_chemical_formula_structural   NdY2Ga7CuAg3
_chemical_formula_sum   'Nd1 Y2 Ga7 Cu1 Ag3'
_cell_volume   269.98257950
_cell_formula_units_Z   1
loop_
 _symmetry_equiv_pos_site_id
 _symmetry_equiv_pos_as_xyz
  1  'x, y, z'
loop_
 _atom_site_type_symbol
 _atom_site_label
 _atom_site_symmetry_multiplicity
 _atom_site_fract_x
 _atom_site_fract_y
 _atom_site_fract_z
 _atom_site_occupancy
  Nd  Nd0  1  0.998595  0.002867  0.999943  1
  Y  Y1  1  0.301326  0.691119  0.706228  1
  Y  Y2  1  0.700772  0.301333  0.297123  1
  Ga  Ga3  1  0.659835  0.707970  0.972359  1
  Ga  Ga4  1  0.341649  0.040295  0.276408  1
  Ga  Ga5  1  0.661517  0.970250  0.706716  1
  Ga  Ga6  1  0.148037  0.570027  0.133900  1
  Ga  Ga7  1  0.855941  0.411383  0.876734  1
  Ga  Ga8  1  0.146275  0.134984  0.572467  1
  Ga  Ga9  1  0.855396  0.865527  0.423680  1
  Cu  Cu10  1  0.334746  0.301843  0.028665  1
  Ag  Ag11  1  0.499441  0.301739  0.699379  1
  Ag  Ag12  1  0.497604  0.699999  0.304794  1
  Ag  Ag13  1  0.998865  0.500665  0.501604  1
