# generated using pymatgen
data_VZnCoRh3O8
_symmetry_space_group_name_H-M   'P 1'
_cell_length_a   6.00414411
_cell_length_b   6.16565897
_cell_length_c   6.16503802
_cell_angle_alpha   120.10920336
_cell_angle_beta   120.45514581
_cell_angle_gamma   90.37062232
_symmetry_Int_Tables_number   1
_chemical_formula_structural   VZnCoRh3O8
_chemical_formula_sum   'V1 Zn1 Co1 Rh3 O8'
_cell_volume   159.44951454
_cell_formula_units_Z   1
loop_
 _symmetry_equiv_pos_site_id
 _symmetry_equiv_pos_as_xyz
  1  'x, y, z'
loop_
 _atom_site_type_symbol
 _atom_site_label
 _atom_site_symmetry_multiplicity
 _atom_site_fract_x
 _atom_site_fract_y
 _atom_site_fract_z
 _atom_site_occupancy
  V  V0  1  0.000509  0.500268  0.500271  1
  Zn  Zn1  1  0.864066  0.121556  0.742602  1
  Co  Co2  1  0.133521  0.877539  0.255836  1
  Rh  Rh3  1  0.499888  0.999786  0.999852  1
  Rh  Rh4  1  0.499889  0.500038  0.500118  1
  Rh  Rh5  1  0.499966  0.500108  0.999843  1
  O  O6  1  0.743504  0.262812  0.021363  1
  O  O7  1  0.744837  0.262180  0.483799  1
  O  O8  1  0.283043  0.260119  0.022276  1
  O  O9  1  0.743333  0.722485  0.481321  1
  O  O10  1  0.256884  0.276858  0.518474  1
  O  O11  1  0.718229  0.740359  0.978553  1
  O  O12  1  0.255579  0.738282  0.516184  1
  O  O13  1  0.256751  0.737611  0.979509  1
