# generated using pymatgen
data_Ta4Ti8B12Os11Ru
_symmetry_space_group_name_H-M   'P 1'
_cell_length_a   3.08560000
_cell_length_b   8.97558386
_cell_length_c   15.48785988
_cell_angle_alpha   89.96612101
_cell_angle_beta   90.00000000
_cell_angle_gamma   90.00000000
_symmetry_Int_Tables_number   1
_chemical_formula_structural   Ta4Ti8B12Os11Ru
_chemical_formula_sum   'Ta4 Ti8 B12 Os11 Ru1'
_cell_volume   428.93715777
_cell_formula_units_Z   1
loop_
 _symmetry_equiv_pos_site_id
 _symmetry_equiv_pos_as_xyz
  1  'x, y, z'
loop_
 _atom_site_type_symbol
 _atom_site_label
 _atom_site_symmetry_multiplicity
 _atom_site_fract_x
 _atom_site_fract_y
 _atom_site_fract_z
 _atom_site_occupancy
  Ta  Ta0  1  0.000000  0.686021  0.204784  1
  Ta  Ta1  1  0.000000  0.314603  0.795487  1
  Ta  Ta2  1  0.000000  0.185450  0.295421  1
  Ta  Ta3  1  0.000000  0.814785  0.704473  1
  Ti  Ti4  1  0.000000  0.800667  0.494645  1
  Ti  Ti5  1  0.000000  0.199621  0.504992  1
  Ti  Ti6  1  0.000000  0.300256  0.005404  1
  Ti  Ti7  1  0.000000  0.699166  0.994656  1
  Ti  Ti8  1  0.000000  0.514937  0.593739  1
  Ti  Ti9  1  0.000000  0.485525  0.405950  1
  Ti  Ti10  1  0.000000  0.014507  0.906445  1
  Ti  Ti11  1  0.000000  0.984788  0.094782  1
  B  B12  1  0.500000  0.603653  0.495047  1
  B  B13  1  0.500000  0.396828  0.504574  1
  B  B14  1  0.500000  0.102799  0.005267  1
  B  B15  1  0.500000  0.896357  0.995776  1
  B  B16  1  0.000000  0.609701  0.834195  1
  B  B17  1  0.000000  0.390205  0.165751  1
  B  B18  1  0.000000  0.109896  0.665809  1
  B  B19  1  0.000000  0.890217  0.334112  1
  B  B20  1  0.500000  0.712624  0.598131  1
  B  B21  1  0.500000  0.287873  0.401519  1
  B  B22  1  0.500000  0.212165  0.901939  1
  B  B23  1  0.500000  0.786447  0.098028  1
  Os  Os24  1  0.500000  0.717851  0.358846  1
  Os  Os25  1  0.500000  0.282972  0.640621  1
  Os  Os26  1  0.500000  0.216811  0.141020  1
  Os  Os27  1  0.500000  0.782888  0.859252  1
  Os  Os28  1  0.500000  0.520336  0.093351  1
  Os  Os29  1  0.500000  0.479567  0.906702  1
  Os  Os30  1  0.500000  0.020224  0.406034  1
  Os  Os31  1  0.500000  0.980030  0.593182  1
  Os  Os32  1  0.500000  0.564996  0.731169  1
  Os  Os33  1  0.500000  0.435329  0.268724  1
  Os  Os34  1  0.500000  0.065050  0.768861  1
  Ru  Ru35  1  0.500000  0.934851  0.231312  1
