# generated using pymatgen
data_TbCe3Pd2(PtPb)2
_symmetry_space_group_name_H-M   'P 1'
_cell_length_a   7.99370957
_cell_length_b   7.99691169
_cell_length_c   3.69902700
_cell_angle_alpha   90.00000000
_cell_angle_beta   90.00000000
_cell_angle_gamma   89.68802033
_symmetry_Int_Tables_number   1
_chemical_formula_structural   TbCe3Pd2(PtPb)2
_chemical_formula_sum   'Tb1 Ce3 Pd2 Pt2 Pb2'
_cell_volume   236.45675687
_cell_formula_units_Z   1
loop_
 _symmetry_equiv_pos_site_id
 _symmetry_equiv_pos_as_xyz
  1  'x, y, z'
loop_
 _atom_site_type_symbol
 _atom_site_label
 _atom_site_symmetry_multiplicity
 _atom_site_fract_x
 _atom_site_fract_y
 _atom_site_fract_z
 _atom_site_occupancy
  Tb  Tb0  1  0.664851  0.173282  0.500000  1
  Ce  Ce1  1  0.179475  0.327183  0.500000  1
  Ce  Ce2  1  0.833703  0.673685  0.500000  1
  Ce  Ce3  1  0.322652  0.829981  0.500000  1
  Pd  Pd4  1  0.628630  0.868331  0.000000  1
  Pd  Pd5  1  0.874213  0.372404  0.000000  1
  Pt  Pt6  1  0.372504  0.120546  0.000000  1
  Pt  Pt7  1  0.126229  0.623765  0.000000  1
  Pb  Pb8  1  0.989113  0.008527  0.000000  1
  Pb  Pb9  1  0.508632  0.502296  0.000000  1
