# generated using pymatgen
data_Y5Tm3(As3Rh4)4
_symmetry_space_group_name_H-M   'P 1'
_cell_length_a   13.44106300
_cell_length_b   13.44106324
_cell_length_c   4.04959300
_cell_angle_alpha   90.00000000
_cell_angle_beta   90.00000000
_cell_angle_gamma   120.00000187
_symmetry_Int_Tables_number   1
_chemical_formula_structural   Y5Tm3(As3Rh4)4
_chemical_formula_sum   'Y5 Tm3 As12 Rh16'
_cell_volume   633.59135329
_cell_formula_units_Z   1
loop_
 _symmetry_equiv_pos_site_id
 _symmetry_equiv_pos_as_xyz
  1  'x, y, z'
loop_
 _atom_site_type_symbol
 _atom_site_label
 _atom_site_symmetry_multiplicity
 _atom_site_fract_x
 _atom_site_fract_y
 _atom_site_fract_z
 _atom_site_occupancy
  Y  Y0  1  0.188710  0.188710  0.500000  1
  Y  Y1  1  0.811290  0.000000  0.500000  1
  Y  Y2  1  0.000000  0.811290  0.500000  1
  Y  Y3  1  0.333333  0.666667  0.000000  1
  Y  Y4  1  0.666667  0.333333  0.000000  1
  Tm  Tm5  1  0.558864  0.558864  0.000000  1
  Tm  Tm6  1  0.441136  0.000000  0.000000  1
  Tm  Tm7  1  0.000000  0.441136  0.000000  1
  As  As8  1  0.824176  0.824176  0.000000  1
  As  As9  1  0.175824  0.000000  0.000000  1
  As  As10  1  0.000000  0.175824  0.000000  1
  As  As11  1  0.173966  0.486883  0.500000  1
  As  As12  1  0.513117  0.687083  0.500000  1
  As  As13  1  0.312917  0.826034  0.500000  1
  As  As14  1  0.687083  0.513117  0.500000  1
  As  As15  1  0.826034  0.312917  0.500000  1
  As  As16  1  0.486883  0.173966  0.500000  1
  As  As17  1  0.351017  0.351017  0.000000  1
  As  As18  1  0.648983  0.000000  0.000000  1
  As  As19  1  0.000000  0.648983  0.000000  1
  Rh  Rh20  1  0.721755  0.721755  0.500000  1
  Rh  Rh21  1  0.278245  0.000000  0.500000  1
  Rh  Rh22  1  0.000000  0.278245  0.500000  1
  Rh  Rh23  1  0.176881  0.374455  0.000000  1
  Rh  Rh24  1  0.625545  0.802426  0.000000  1
  Rh  Rh25  1  0.197574  0.823119  0.000000  1
  Rh  Rh26  1  0.802426  0.625545  0.000000  1
  Rh  Rh27  1  0.823119  0.197574  0.000000  1
  Rh  Rh28  1  0.374455  0.176881  0.000000  1
  Rh  Rh29  1  0.354223  0.480626  0.500000  1
  Rh  Rh30  1  0.519374  0.873597  0.500000  1
  Rh  Rh31  1  0.126403  0.645777  0.500000  1
  Rh  Rh32  1  0.873597  0.519374  0.500000  1
  Rh  Rh33  1  0.645777  0.126403  0.500000  1
  Rh  Rh34  1  0.480626  0.354223  0.500000  1
  Rh  Rh35  1  0.000000  0.000000  0.000000  1
