# generated using pymatgen
data_Tb6MgCo15(P6Rh)2
_symmetry_space_group_name_H-M   'P 1'
_cell_length_a   3.73770800
_cell_length_b   10.67030500
_cell_length_c   12.37293100
_cell_angle_alpha   90.00000000
_cell_angle_beta   90.00000000
_cell_angle_gamma   90.00000000
_symmetry_Int_Tables_number   1
_chemical_formula_structural   Tb6MgCo15(P6Rh)2
_chemical_formula_sum   'Tb6 Mg1 Co15 P12 Rh2'
_cell_volume   493.46322711
_cell_formula_units_Z   1
loop_
 _symmetry_equiv_pos_site_id
 _symmetry_equiv_pos_as_xyz
  1  'x, y, z'
loop_
 _atom_site_type_symbol
 _atom_site_label
 _atom_site_symmetry_multiplicity
 _atom_site_fract_x
 _atom_site_fract_y
 _atom_site_fract_z
 _atom_site_occupancy
  Tb  Tb0  1  0.000000  0.500000  0.521291  1
  Tb  Tb1  1  0.500000  0.000000  0.475363  1
  Tb  Tb2  1  0.500000  0.821092  0.206996  1
  Tb  Tb3  1  0.500000  0.178908  0.206996  1
  Tb  Tb4  1  0.000000  0.685961  0.795725  1
  Tb  Tb5  1  0.000000  0.314039  0.795725  1
  Mg  Mg6  1  0.500000  0.500000  0.154100  1
  Co  Co7  1  0.000000  0.000000  0.295351  1
  Co  Co8  1  0.000000  0.500000  0.988682  1
  Co  Co9  1  0.500000  0.000000  0.013939  1
  Co  Co10  1  0.500000  0.329530  0.995879  1
  Co  Co11  1  0.500000  0.670470  0.995879  1
  Co  Co12  1  0.000000  0.164419  0.006188  1
  Co  Co13  1  0.000000  0.835581  0.006188  1
  Co  Co14  1  0.500000  0.294397  0.430661  1
  Co  Co15  1  0.500000  0.705603  0.430661  1
  Co  Co16  1  0.000000  0.199179  0.567836  1
  Co  Co17  1  0.000000  0.800821  0.567836  1
  Co  Co18  1  0.500000  0.881076  0.707669  1
  Co  Co19  1  0.500000  0.118924  0.707669  1
  Co  Co20  1  0.000000  0.622548  0.293446  1
  Co  Co21  1  0.000000  0.377452  0.293446  1
  P  P22  1  0.500000  0.500000  0.890841  1
  P  P23  1  0.000000  0.000000  0.116683  1
  P  P24  1  0.500000  0.500000  0.352351  1
  P  P25  1  0.000000  0.000000  0.648905  1
  P  P26  1  0.500000  0.300598  0.613134  1
  P  P27  1  0.500000  0.699402  0.613134  1
  P  P28  1  0.000000  0.189368  0.384183  1
  P  P29  1  0.000000  0.810632  0.384183  1
  P  P30  1  0.500000  0.846741  0.894465  1
  P  P31  1  0.500000  0.153259  0.894465  1
  P  P32  1  0.000000  0.661556  0.104673  1
  P  P33  1  0.000000  0.338444  0.104673  1
  Rh  Rh34  1  0.000000  0.000000  0.838486  1
  Rh  Rh35  1  0.500000  0.500000  0.702302  1
