# generated using pymatgen
data_MgPaPd6
_symmetry_space_group_name_H-M   'P 1'
_cell_length_a   5.74208657
_cell_length_b   5.74208650
_cell_length_c   5.74208600
_cell_angle_alpha   60.00000286
_cell_angle_beta   60.00000326
_cell_angle_gamma   59.99999845
_symmetry_Int_Tables_number   1
_chemical_formula_structural   MgPaPd6
_chemical_formula_sum   'Mg1 Pa1 Pd6'
_cell_volume   133.87336371
_cell_formula_units_Z   1
loop_
 _symmetry_equiv_pos_site_id
 _symmetry_equiv_pos_as_xyz
  1  'x, y, z'
loop_
 _atom_site_type_symbol
 _atom_site_label
 _atom_site_symmetry_multiplicity
 _atom_site_fract_x
 _atom_site_fract_y
 _atom_site_fract_z
 _atom_site_occupancy
  Mg  Mg0  1  0.000000  0.000000  0.000000  1
  Pa  Pa1  1  0.500001  0.500001  0.500001  1
  Pd  Pd2  1  0.499999  0.000000  0.000000  1
  Pd  Pd3  1  0.000000  0.499999  0.000000  1
  Pd  Pd4  1  0.500001  0.500001  0.000000  1
  Pd  Pd5  1  0.000000  0.000000  0.499999  1
  Pd  Pd6  1  0.500001  0.000000  0.500001  1
  Pd  Pd7  1  0.000000  0.500001  0.500001  1
