# generated using pymatgen
data_TbDy5OsRu
_symmetry_space_group_name_H-M   'P 1'
_cell_length_a   6.32906700
_cell_length_b   7.33774900
_cell_length_c   9.14581000
_cell_angle_alpha   90.00000000
_cell_angle_beta   90.00000000
_cell_angle_gamma   90.00000000
_symmetry_Int_Tables_number   1
_chemical_formula_structural   TbDy5OsRu
_chemical_formula_sum   'Tb2 Dy10 Os2 Ru2'
_cell_volume   424.74152298
_cell_formula_units_Z   2
loop_
 _symmetry_equiv_pos_site_id
 _symmetry_equiv_pos_as_xyz
  1  'x, y, z'
loop_
 _atom_site_type_symbol
 _atom_site_label
 _atom_site_symmetry_multiplicity
 _atom_site_fract_x
 _atom_site_fract_y
 _atom_site_fract_z
 _atom_site_occupancy
  Tb  Tb0  1  0.867331  0.540200  0.250000  1
  Tb  Tb1  1  0.632669  0.040200  0.250000  1
  Dy  Dy2  1  0.331695  0.675523  0.063033  1
  Dy  Dy3  1  0.168305  0.175523  0.436967  1
  Dy  Dy4  1  0.671246  0.323632  0.564901  1
  Dy  Dy5  1  0.828754  0.823632  0.935099  1
  Dy  Dy6  1  0.671246  0.323632  0.935099  1
  Dy  Dy7  1  0.828754  0.823632  0.564901  1
  Dy  Dy8  1  0.331695  0.675523  0.436967  1
  Dy  Dy9  1  0.168305  0.175523  0.063033  1
  Dy  Dy10  1  0.132173  0.461715  0.750000  1
  Dy  Dy11  1  0.367827  0.961715  0.750000  1
  Os  Os12  1  0.959981  0.115506  0.750000  1
  Os  Os13  1  0.540019  0.615506  0.750000  1
  Ru  Ru14  1  0.038732  0.884269  0.250000  1
  Ru  Ru15  1  0.461268  0.384269  0.250000  1
