# generated using pymatgen
data_Tb4CdCu2Ni2Hg
_symmetry_space_group_name_H-M   'P 1'
_cell_length_a   7.49153519
_cell_length_b   7.49971185
_cell_length_c   3.67474400
_cell_angle_alpha   90.00000000
_cell_angle_beta   90.00000000
_cell_angle_gamma   89.29791184
_symmetry_Int_Tables_number   1
_chemical_formula_structural   Tb4CdCu2Ni2Hg
_chemical_formula_sum   'Tb4 Cd1 Cu2 Ni2 Hg1'
_cell_volume   206.44762171
_cell_formula_units_Z   1
loop_
 _symmetry_equiv_pos_site_id
 _symmetry_equiv_pos_as_xyz
  1  'x, y, z'
loop_
 _atom_site_type_symbol
 _atom_site_label
 _atom_site_symmetry_multiplicity
 _atom_site_fract_x
 _atom_site_fract_y
 _atom_site_fract_z
 _atom_site_occupancy
  Tb  Tb0  1  0.669290  0.166664  0.500000  1
  Tb  Tb1  1  0.330710  0.833336  0.500000  1
  Tb  Tb2  1  0.183620  0.314054  0.500000  1
  Tb  Tb3  1  0.816380  0.685946  0.500000  1
  Cd  Cd4  1  0.500000  0.500000  0.000000  1
  Cu  Cu5  1  0.118766  0.616983  0.000000  1
  Cu  Cu6  1  0.881234  0.383017  0.000000  1
  Ni  Ni7  1  0.617272  0.881105  0.000000  1
  Ni  Ni8  1  0.382728  0.118895  0.000000  1
  Hg  Hg9  1  0.000000  0.000000  0.000000  1
