# generated using pymatgen
data_Er4Lu2ZrCo17P12
_symmetry_space_group_name_H-M   'P 1'
_cell_length_a   3.68866600
_cell_length_b   10.55364100
_cell_length_c   12.24411900
_cell_angle_alpha   90.00000000
_cell_angle_beta   90.00000000
_cell_angle_gamma   90.00000000
_symmetry_Int_Tables_number   1
_chemical_formula_structural   Er4Lu2ZrCo17P12
_chemical_formula_sum   'Er4 Lu2 Zr1 Co17 P12'
_cell_volume   476.64955437
_cell_formula_units_Z   1
loop_
 _symmetry_equiv_pos_site_id
 _symmetry_equiv_pos_as_xyz
  1  'x, y, z'
loop_
 _atom_site_type_symbol
 _atom_site_label
 _atom_site_symmetry_multiplicity
 _atom_site_fract_x
 _atom_site_fract_y
 _atom_site_fract_z
 _atom_site_occupancy
  Er  Er0  1  0.000000  0.500000  0.530330  1
  Er  Er1  1  0.500000  0.000000  0.476772  1
  Er  Er2  1  0.500000  0.822094  0.207508  1
  Er  Er3  1  0.500000  0.177906  0.207508  1
  Lu  Lu4  1  0.000000  0.682340  0.796046  1
  Lu  Lu5  1  0.000000  0.317660  0.796046  1
  Zr  Zr6  1  0.500000  0.500000  0.154856  1
  Co  Co7  1  0.000000  0.000000  0.835735  1
  Co  Co8  1  0.500000  0.500000  0.703598  1
  Co  Co9  1  0.000000  0.000000  0.296272  1
  Co  Co10  1  0.000000  0.500000  0.982553  1
  Co  Co11  1  0.500000  0.000000  0.012677  1
  Co  Co12  1  0.500000  0.327147  0.986886  1
  Co  Co13  1  0.500000  0.672853  0.986886  1
  Co  Co14  1  0.000000  0.161927  0.000637  1
  Co  Co15  1  0.000000  0.838073  0.000637  1
  Co  Co16  1  0.500000  0.294157  0.435333  1
  Co  Co17  1  0.500000  0.705843  0.435333  1
  Co  Co18  1  0.000000  0.202060  0.571110  1
  Co  Co19  1  0.000000  0.797940  0.571110  1
  Co  Co20  1  0.500000  0.879274  0.707676  1
  Co  Co21  1  0.500000  0.120726  0.707676  1
  Co  Co22  1  0.000000  0.623154  0.298127  1
  Co  Co23  1  0.000000  0.376846  0.298127  1
  P  P24  1  0.500000  0.500000  0.880468  1
  P  P25  1  0.000000  0.000000  0.116192  1
  P  P26  1  0.500000  0.500000  0.363242  1
  P  P27  1  0.000000  0.000000  0.653691  1
  P  P28  1  0.500000  0.309939  0.619395  1
  P  P29  1  0.500000  0.690061  0.619395  1
  P  P30  1  0.000000  0.187732  0.386600  1
  P  P31  1  0.000000  0.812268  0.386600  1
  P  P32  1  0.500000  0.851327  0.887332  1
  P  P33  1  0.500000  0.148673  0.887332  1
  P  P34  1  0.000000  0.665610  0.100157  1
  P  P35  1  0.000000  0.334390  0.100157  1
