# generated using pymatgen
data_UVMoO6
_symmetry_space_group_name_H-M   'P 1'
_cell_length_a   4.85444700
_cell_length_b   4.85444700
_cell_length_c   9.74697200
_cell_angle_alpha   90.00000000
_cell_angle_beta   90.00000000
_cell_angle_gamma   90.00000000
_symmetry_Int_Tables_number   1
_chemical_formula_structural   UVMoO6
_chemical_formula_sum   'U2 V2 Mo2 O12'
_cell_volume   229.69378603
_cell_formula_units_Z   2
loop_
 _symmetry_equiv_pos_site_id
 _symmetry_equiv_pos_as_xyz
  1  'x, y, z'
loop_
 _atom_site_type_symbol
 _atom_site_label
 _atom_site_symmetry_multiplicity
 _atom_site_fract_x
 _atom_site_fract_y
 _atom_site_fract_z
 _atom_site_occupancy
  U  U0  1  0.000000  0.000000  0.999609  1
  U  U1  1  0.500000  0.500000  0.499609  1
  V  V2  1  0.000000  0.000000  0.332178  1
  V  V3  1  0.500000  0.500000  0.832178  1
  Mo  Mo4  1  0.000000  0.000000  0.667069  1
  Mo  Mo5  1  0.500000  0.500000  0.167069  1
  O  O6  1  0.690025  0.690025  0.669321  1
  O  O7  1  0.309975  0.309975  0.669321  1
  O  O8  1  0.700223  0.700223  0.335717  1
  O  O9  1  0.190025  0.809975  0.169321  1
  O  O10  1  0.809975  0.190025  0.169321  1
  O  O11  1  0.799777  0.200223  0.835717  1
  O  O12  1  0.308290  0.308290  0.995534  1
  O  O13  1  0.191710  0.808290  0.495534  1
  O  O14  1  0.808290  0.191710  0.495534  1
  O  O15  1  0.691710  0.691710  0.995534  1
  O  O16  1  0.299777  0.299777  0.335717  1
  O  O17  1  0.200223  0.799777  0.835717  1
