# generated using pymatgen
data_Rb2Ba2GaSi7Pt8
_symmetry_space_group_name_H-M   'P 1'
_cell_length_a   6.93674737
_cell_length_b   7.89564945
_cell_length_c   8.20243489
_cell_angle_alpha   94.46542820
_cell_angle_beta   89.42995177
_cell_angle_gamma   89.78280785
_symmetry_Int_Tables_number   1
_chemical_formula_structural   Rb2Ba2GaSi7Pt8
_chemical_formula_sum   'Rb2 Ba2 Ga1 Si7 Pt8'
_cell_volume   447.85782929
_cell_formula_units_Z   1
loop_
 _symmetry_equiv_pos_site_id
 _symmetry_equiv_pos_as_xyz
  1  'x, y, z'
loop_
 _atom_site_type_symbol
 _atom_site_label
 _atom_site_symmetry_multiplicity
 _atom_site_fract_x
 _atom_site_fract_y
 _atom_site_fract_z
 _atom_site_occupancy
  Rb  Rb0  1  0.878743  0.500874  0.750509  1
  Rb  Rb1  1  0.374434  0.002919  0.246408  1
  Ba  Ba2  1  0.625264  0.997430  0.747840  1
  Ba  Ba3  1  0.130198  0.502351  0.252402  1
  Ga  Ga4  1  0.409540  0.364472  0.921957  1
  Si  Si5  1  0.902740  0.860513  0.429592  1
  Si  Si6  1  0.089558  0.866149  0.928225  1
  Si  Si7  1  0.598926  0.363105  0.430367  1
  Si  Si8  1  0.089299  0.128678  0.568634  1
  Si  Si9  1  0.597593  0.638353  0.073599  1
  Si  Si10  1  0.902221  0.137414  0.070669  1
  Si  Si11  1  0.407415  0.629742  0.581562  1
  Pt  Pt12  1  0.850227  0.155506  0.369324  1
  Pt  Pt13  1  0.145222  0.834660  0.628821  1
  Pt  Pt14  1  0.137567  0.155222  0.862400  1
  Pt  Pt15  1  0.344302  0.329707  0.615932  1
  Pt  Pt16  1  0.359078  0.681859  0.876277  1
  Pt  Pt17  1  0.848844  0.842982  0.133400  1
  Pt  Pt18  1  0.660541  0.348818  0.138033  1
  Pt  Pt19  1  0.648283  0.659247  0.374048  1
