# generated using pymatgen
data_Er6Ti4Al12Ir7
_symmetry_space_group_name_H-M   'P 1'
_cell_length_a   8.95805371
_cell_length_b   8.95805431
_cell_length_c   8.95805500
_cell_angle_alpha   60.00000115
_cell_angle_beta   59.99999894
_cell_angle_gamma   60.00000363
_symmetry_Int_Tables_number   1
_chemical_formula_structural   Er6Ti4Al12Ir7
_chemical_formula_sum   'Er6 Ti4 Al12 Ir7'
_cell_volume   508.30700198
_cell_formula_units_Z   1
loop_
 _symmetry_equiv_pos_site_id
 _symmetry_equiv_pos_as_xyz
  1  'x, y, z'
loop_
 _atom_site_type_symbol
 _atom_site_label
 _atom_site_symmetry_multiplicity
 _atom_site_fract_x
 _atom_site_fract_y
 _atom_site_fract_z
 _atom_site_occupancy
  Er  Er0  1  0.703876  0.703876  0.296124  1
  Er  Er1  1  0.296124  0.703876  0.296124  1
  Er  Er2  1  0.703876  0.296124  0.296124  1
  Er  Er3  1  0.296124  0.296124  0.703876  1
  Er  Er4  1  0.703876  0.296124  0.703876  1
  Er  Er5  1  0.296124  0.703876  0.703876  1
  Ti  Ti6  1  0.880273  0.880273  0.359182  1
  Ti  Ti7  1  0.880273  0.359182  0.880273  1
  Ti  Ti8  1  0.359182  0.880273  0.880273  1
  Ti  Ti9  1  0.880273  0.880273  0.880273  1
  Al  Al10  1  0.119415  0.119415  0.641755  1
  Al  Al11  1  0.119415  0.641755  0.119415  1
  Al  Al12  1  0.641755  0.119415  0.119415  1
  Al  Al13  1  0.119415  0.119415  0.119415  1
  Al  Al14  1  0.668613  0.668613  0.994161  1
  Al  Al15  1  0.668613  0.994161  0.668613  1
  Al  Al16  1  0.994161  0.668613  0.668613  1
  Al  Al17  1  0.668613  0.668613  0.668613  1
  Al  Al18  1  0.329633  0.329633  0.011102  1
  Al  Al19  1  0.329633  0.011102  0.329633  1
  Al  Al20  1  0.011102  0.329633  0.329633  1
  Al  Al21  1  0.329633  0.329633  0.329633  1
  Ir  Ir22  1  0.000000  0.000000  0.000000  1
  Ir  Ir23  1  0.998736  0.998736  0.501264  1
  Ir  Ir24  1  0.501264  0.998736  0.501264  1
  Ir  Ir25  1  0.998736  0.501264  0.501264  1
  Ir  Ir26  1  0.501264  0.501264  0.998736  1
  Ir  Ir27  1  0.998736  0.501264  0.998736  1
  Ir  Ir28  1  0.501264  0.998736  0.998736  1
