# generated using pymatgen
data_Er4Si4TcIrRh2
_symmetry_space_group_name_H-M   'P 1'
_cell_length_a   4.26868500
_cell_length_b   6.89186402
_cell_length_c   7.29954648
_cell_angle_alpha   90.07820851
_cell_angle_beta   90.00000000
_cell_angle_gamma   90.00000000
_symmetry_Int_Tables_number   1
_chemical_formula_structural   Er4Si4TcIrRh2
_chemical_formula_sum   'Er4 Si4 Tc1 Ir1 Rh2'
_cell_volume   214.74659252
_cell_formula_units_Z   1
loop_
 _symmetry_equiv_pos_site_id
 _symmetry_equiv_pos_as_xyz
  1  'x, y, z'
loop_
 _atom_site_type_symbol
 _atom_site_label
 _atom_site_symmetry_multiplicity
 _atom_site_fract_x
 _atom_site_fract_y
 _atom_site_fract_z
 _atom_site_occupancy
  Er  Er0  1  0.750000  0.494966  0.809386  1
  Er  Er1  1  0.250000  0.001475  0.314373  1
  Er  Er2  1  0.750000  0.999961  0.686237  1
  Er  Er3  1  0.250000  0.507662  0.189122  1
  Si  Si4  1  0.250000  0.702442  0.614708  1
  Si  Si5  1  0.250000  0.201447  0.896329  1
  Si  Si6  1  0.750000  0.297370  0.387055  1
  Si  Si7  1  0.750000  0.797964  0.101595  1
  Tc  Tc8  1  0.250000  0.844131  0.933338  1
  Ir  Ir9  1  0.750000  0.158372  0.068283  1
  Rh  Rh10  1  0.250000  0.341749  0.564572  1
  Rh  Rh11  1  0.750000  0.652462  0.435001  1
