# generated using pymatgen
data_V3Ni2AgO10
_symmetry_space_group_name_H-M   'P 1'
_cell_length_a   6.77114492
_cell_length_b   6.82994986
_cell_length_c   9.73095026
_cell_angle_alpha   105.57069663
_cell_angle_beta   98.88389159
_cell_angle_gamma   101.85703199
_symmetry_Int_Tables_number   1
_chemical_formula_structural   V3Ni2AgO10
_chemical_formula_sum   'V6 Ni4 Ag2 O20'
_cell_volume   413.64064617
_cell_formula_units_Z   2
loop_
 _symmetry_equiv_pos_site_id
 _symmetry_equiv_pos_as_xyz
  1  'x, y, z'
loop_
 _atom_site_type_symbol
 _atom_site_label
 _atom_site_symmetry_multiplicity
 _atom_site_fract_x
 _atom_site_fract_y
 _atom_site_fract_z
 _atom_site_occupancy
  V  V0  1  0.106930  0.046310  0.302262  1
  V  V1  1  0.893070  0.953690  0.697738  1
  V  V2  1  0.231624  0.430792  0.612219  1
  V  V3  1  0.768376  0.569208  0.387781  1
  V  V4  1  0.765174  0.336421  0.045774  1
  V  V5  1  0.234826  0.663579  0.954226  1
  Ni  Ni6  1  0.758734  0.433534  0.708324  1
  Ni  Ni7  1  0.241266  0.566466  0.291676  1
  Ni  Ni8  1  0.204249  0.184183  0.018434  1
  Ni  Ni9  1  0.795751  0.815817  0.981566  1
  Ag  Ag10  1  0.619484  0.023608  0.351563  1
  Ag  Ag11  1  0.380516  0.976392  0.648437  1
  O  O12  1  0.073092  0.195049  0.479510  1
  O  O13  1  0.735226  0.116050  0.667279  1
  O  O14  1  0.516832  0.237420  0.044147  1
  O  O15  1  0.222789  0.248184  0.240490  1
  O  O16  1  0.858379  0.913118  0.207159  1
  O  O17  1  0.871924  0.127471  0.983564  1
  O  O18  1  0.097088  0.518389  0.758397  1
  O  O19  1  0.902912  0.481611  0.241603  1
  O  O20  1  0.723660  0.389716  0.479743  1
  O  O21  1  0.276340  0.610284  0.520257  1
  O  O22  1  0.141621  0.086882  0.792841  1
  O  O23  1  0.784535  0.497514  0.933967  1
  O  O24  1  0.483168  0.762580  0.955853  1
  O  O25  1  0.926908  0.804951  0.520490  1
  O  O26  1  0.777211  0.751816  0.759510  1
  O  O27  1  0.264774  0.883950  0.332721  1
  O  O28  1  0.551050  0.630985  0.324195  1
  O  O29  1  0.128076  0.872529  0.016436  1
  O  O30  1  0.448950  0.369015  0.675805  1
  O  O31  1  0.215465  0.502486  0.066033  1
