# generated using pymatgen
data_Er7Tm9Cd3AgIr4
_symmetry_space_group_name_H-M   'P 1'
_cell_length_a   9.54137076
_cell_length_b   9.54137044
_cell_length_c   9.54128110
_cell_angle_alpha   59.66078489
_cell_angle_beta   59.66077920
_cell_angle_gamma   59.67885556
_symmetry_Int_Tables_number   1
_chemical_formula_structural   Er7Tm9Cd3AgIr4
_chemical_formula_sum   'Er7 Tm9 Cd3 Ag1 Ir4'
_cell_volume   609.55525169
_cell_formula_units_Z   1
loop_
 _symmetry_equiv_pos_site_id
 _symmetry_equiv_pos_as_xyz
  1  'x, y, z'
loop_
 _atom_site_type_symbol
 _atom_site_label
 _atom_site_symmetry_multiplicity
 _atom_site_fract_x
 _atom_site_fract_y
 _atom_site_fract_z
 _atom_site_occupancy
  Er  Er0  1  0.060040  0.060040  0.437318  1
  Er  Er1  1  0.186312  0.811134  0.811403  1
  Er  Er2  1  0.811347  0.186544  0.186387  1
  Er  Er3  1  0.811134  0.186312  0.811403  1
  Er  Er4  1  0.186544  0.811347  0.186387  1
  Er  Er5  1  0.811263  0.811263  0.186256  1
  Er  Er6  1  0.186445  0.186445  0.811461  1
  Tm  Tm7  1  0.600051  0.600051  0.600051  1
  Tm  Tm8  1  0.599846  0.599846  0.202708  1
  Tm  Tm9  1  0.599566  0.202894  0.599902  1
  Tm  Tm10  1  0.202894  0.599566  0.599902  1
  Tm  Tm11  1  0.060741  0.439154  0.438990  1
  Tm  Tm12  1  0.437402  0.060116  0.059930  1
  Tm  Tm13  1  0.439154  0.060741  0.438990  1
  Tm  Tm14  1  0.060116  0.437402  0.059930  1
  Tm  Tm15  1  0.438955  0.438955  0.060766  1
  Cd  Cd16  1  0.831107  0.831107  0.508802  1
  Cd  Cd17  1  0.831141  0.508790  0.831152  1
  Cd  Cd18  1  0.508790  0.831141  0.831152  1
  Ag  Ag19  1  0.833337  0.833337  0.833424  1
  Ir  Ir20  1  0.392185  0.392185  0.392224  1
  Ir  Ir21  1  0.393198  0.393198  0.825137  1
  Ir  Ir22  1  0.393648  0.824782  0.393162  1
  Ir  Ir23  1  0.824782  0.393648  0.393162  1
