# generated using pymatgen
data_Ta6Be12Co6Si3Ni2
_symmetry_space_group_name_H-M   'P 1'
_cell_length_a   7.65064054
_cell_length_b   7.64864124
_cell_length_c   7.64103435
_cell_angle_alpha   59.77587374
_cell_angle_beta   59.74826162
_cell_angle_gamma   59.90706149
_symmetry_Int_Tables_number   1
_chemical_formula_structural   Ta6Be12Co6Si3Ni2
_chemical_formula_sum   'Ta6 Be12 Co6 Si3 Ni2'
_cell_volume   314.80684159
_cell_formula_units_Z   1
loop_
 _symmetry_equiv_pos_site_id
 _symmetry_equiv_pos_as_xyz
  1  'x, y, z'
loop_
 _atom_site_type_symbol
 _atom_site_label
 _atom_site_symmetry_multiplicity
 _atom_site_fract_x
 _atom_site_fract_y
 _atom_site_fract_z
 _atom_site_occupancy
  Ta  Ta0  1  0.710990  0.295735  0.292451  1
  Ta  Ta1  1  0.289010  0.704265  0.707549  1
  Ta  Ta2  1  0.291989  0.707294  0.297230  1
  Ta  Ta3  1  0.708011  0.292706  0.702770  1
  Ta  Ta4  1  0.292801  0.300626  0.706770  1
  Ta  Ta5  1  0.707199  0.699374  0.293230  1
  Be  Be6  1  0.331373  0.332938  0.315969  1
  Be  Be7  1  0.668627  0.667062  0.684031  1
  Be  Be8  1  0.325758  0.328011  0.017275  1
  Be  Be9  1  0.320911  0.018779  0.322519  1
  Be  Be10  1  0.674242  0.671989  0.982725  1
  Be  Be11  1  0.679089  0.981221  0.677481  1
  Be  Be12  1  0.019400  0.322054  0.321445  1
  Be  Be13  1  0.980600  0.677946  0.678555  1
  Be  Be14  1  0.500000  0.000000  0.000000  1
  Be  Be15  1  0.000000  0.500000  0.000000  1
  Be  Be16  1  0.000000  0.000000  0.500000  1
  Be  Be17  1  0.500000  0.500000  0.000000  1
  Co  Co18  1  0.125115  0.122541  0.121350  1
  Co  Co19  1  0.874885  0.877460  0.878650  1
  Co  Co20  1  0.124501  0.122477  0.628122  1
  Co  Co21  1  0.125495  0.629577  0.120513  1
  Co  Co22  1  0.875499  0.877524  0.371878  1
  Co  Co23  1  0.874505  0.370423  0.879486  1
  Si  Si24  1  0.000000  0.500000  0.500000  1
  Si  Si25  1  0.500000  0.000000  0.500000  1
  Si  Si26  1  0.000000  0.000000  0.000000  1
  Ni  Ni27  1  0.627477  0.125114  0.121134  1
  Ni  Ni28  1  0.372523  0.874886  0.878866  1
