# generated using pymatgen
data_Ac3Pr(HgIr)2
_symmetry_space_group_name_H-M   'P 1'
_cell_length_a   4.31122900
_cell_length_b   4.31122853
_cell_length_c   16.41233800
_cell_angle_alpha   90.00000000
_cell_angle_beta   90.00000000
_cell_angle_gamma   120.00001131
_symmetry_Int_Tables_number   1
_chemical_formula_structural   Ac3Pr(HgIr)2
_chemical_formula_sum   'Ac3 Pr1 Hg2 Ir2'
_cell_volume   264.18196778
_cell_formula_units_Z   1
loop_
 _symmetry_equiv_pos_site_id
 _symmetry_equiv_pos_as_xyz
  1  'x, y, z'
loop_
 _atom_site_type_symbol
 _atom_site_label
 _atom_site_symmetry_multiplicity
 _atom_site_fract_x
 _atom_site_fract_y
 _atom_site_fract_z
 _atom_site_occupancy
  Ac  Ac0  1  0.333333  0.666667  0.103064  1
  Ac  Ac1  1  0.666667  0.333333  0.594459  1
  Ac  Ac2  1  0.666667  0.333333  0.900772  1
  Pr  Pr3  1  0.333333  0.666667  0.400547  1
  Hg  Hg4  1  0.666667  0.333333  0.257407  1
  Hg  Hg5  1  0.333333  0.666667  0.748411  1
  Ir  Ir6  1  0.000000  0.000000  0.001512  1
  Ir  Ir7  1  0.000000  0.000000  0.493830  1
