# generated using pymatgen
data_Er2Ti3Co9As7
_symmetry_space_group_name_H-M   'P 1'
_cell_length_a   3.75769700
_cell_length_b   9.51693434
_cell_length_c   9.51693500
_cell_angle_alpha   119.99999883
_cell_angle_beta   90.00000000
_cell_angle_gamma   90.00000000
_symmetry_Int_Tables_number   1
_chemical_formula_structural   Er2Ti3Co9As7
_chemical_formula_sum   'Er2 Ti3 Co9 As7'
_cell_volume   294.74508441
_cell_formula_units_Z   1
loop_
 _symmetry_equiv_pos_site_id
 _symmetry_equiv_pos_as_xyz
  1  'x, y, z'
loop_
 _atom_site_type_symbol
 _atom_site_label
 _atom_site_symmetry_multiplicity
 _atom_site_fract_x
 _atom_site_fract_y
 _atom_site_fract_z
 _atom_site_occupancy
  Er  Er0  1  0.000000  0.666667  0.333333  1
  Er  Er1  1  0.500000  0.333333  0.666667  1
  Ti  Ti2  1  0.500000  0.777181  0.891488  1
  Ti  Ti3  1  0.500000  0.114306  0.222819  1
  Ti  Ti4  1  0.500000  0.108512  0.885694  1
  Co  Co5  1  0.000000  0.572835  0.939165  1
  Co  Co6  1  0.000000  0.366330  0.427165  1
  Co  Co7  1  0.000000  0.060835  0.633670  1
  Co  Co8  1  0.000000  0.879860  0.160405  1
  Co  Co9  1  0.000000  0.280545  0.120140  1
  Co  Co10  1  0.000000  0.839595  0.719455  1
  Co  Co11  1  0.500000  0.949094  0.386060  1
  Co  Co12  1  0.500000  0.436966  0.050906  1
  Co  Co13  1  0.500000  0.613940  0.563034  1
  As  As14  1  0.000000  0.000000  0.000000  1
  As  As15  1  0.500000  0.709947  0.124104  1
  As  As16  1  0.500000  0.414156  0.290053  1
  As  As17  1  0.500000  0.875896  0.585844  1
  As  As18  1  0.000000  0.579885  0.693826  1
  As  As19  1  0.000000  0.113942  0.420115  1
  As  As20  1  0.000000  0.306174  0.886058  1
