# generated using pymatgen
data_Y3LuThPd15
_symmetry_space_group_name_H-M   'P 1'
_cell_length_a   4.15121100
_cell_length_b   4.15121100
_cell_length_c   20.70823500
_cell_angle_alpha   90.00000000
_cell_angle_beta   90.00000000
_cell_angle_gamma   90.00000000
_symmetry_Int_Tables_number   1
_chemical_formula_structural   Y3LuThPd15
_chemical_formula_sum   'Y3 Lu1 Th1 Pd15'
_cell_volume   356.85575234
_cell_formula_units_Z   1
loop_
 _symmetry_equiv_pos_site_id
 _symmetry_equiv_pos_as_xyz
  1  'x, y, z'
loop_
 _atom_site_type_symbol
 _atom_site_label
 _atom_site_symmetry_multiplicity
 _atom_site_fract_x
 _atom_site_fract_y
 _atom_site_fract_z
 _atom_site_occupancy
  Y  Y0  1  0.000000  0.000000  0.399429  1
  Y  Y1  1  0.000000  0.000000  0.599970  1
  Y  Y2  1  0.000000  0.000000  0.797793  1
  Lu  Lu3  1  0.000000  0.000000  0.202330  1
  Th  Th4  1  0.000000  0.000000  0.000733  1
  Pd  Pd5  1  0.500000  0.500000  0.000051  1
  Pd  Pd6  1  0.500000  0.500000  0.200718  1
  Pd  Pd7  1  0.500000  0.500000  0.400254  1
  Pd  Pd8  1  0.500000  0.500000  0.599425  1
  Pd  Pd9  1  0.500000  0.500000  0.799428  1
  Pd  Pd10  1  0.500000  0.000000  0.101778  1
  Pd  Pd11  1  0.500000  0.000000  0.299285  1
  Pd  Pd12  1  0.500000  0.000000  0.499950  1
  Pd  Pd13  1  0.500000  0.000000  0.699487  1
  Pd  Pd14  1  0.500000  0.000000  0.899435  1
  Pd  Pd15  1  0.000000  0.500000  0.101778  1
  Pd  Pd16  1  0.000000  0.500000  0.299285  1
  Pd  Pd17  1  0.000000  0.500000  0.499950  1
  Pd  Pd18  1  0.000000  0.500000  0.699487  1
  Pd  Pd19  1  0.000000  0.500000  0.899435  1
