# generated using pymatgen
data_Cs2TiH10Os
_symmetry_space_group_name_H-M   'P 1'
_cell_length_a   11.72251180
_cell_length_b   7.79576700
_cell_length_c   4.73062245
_cell_angle_alpha   90.00000000
_cell_angle_beta   90.77926444
_cell_angle_gamma   90.00000000
_symmetry_Int_Tables_number   1
_chemical_formula_structural   Cs2TiH10Os
_chemical_formula_sum   'Cs4 Ti2 H20 Os2'
_cell_volume   432.27254003
_cell_formula_units_Z   2
loop_
 _symmetry_equiv_pos_site_id
 _symmetry_equiv_pos_as_xyz
  1  'x, y, z'
loop_
 _atom_site_type_symbol
 _atom_site_label
 _atom_site_symmetry_multiplicity
 _atom_site_fract_x
 _atom_site_fract_y
 _atom_site_fract_z
 _atom_site_occupancy
  Cs  Cs0  1  0.681444  0.085358  0.344274  1
  Cs  Cs1  1  0.181444  0.414641  0.344274  1
  Cs  Cs2  1  0.832561  0.576208  0.829191  1
  Cs  Cs3  1  0.332561  0.923792  0.829191  1
  Ti  Ti4  1  0.967641  0.057114  0.839560  1
  Ti  Ti5  1  0.467641  0.442886  0.839560  1
  H  H6  1  0.353159  0.294616  0.831982  1
  H  H7  1  0.853159  0.205384  0.831982  1
  H  H8  1  0.042403  0.741649  0.465146  1
  H  H9  1  0.542403  0.758350  0.465146  1
  H  H10  1  0.609648  0.430484  0.111191  1
  H  H11  1  0.109647  0.069516  0.111191  1
  H  H12  1  0.329582  0.536123  0.843174  1
  H  H13  1  0.829582  0.963878  0.843174  1
  H  H14  1  0.951333  0.116643  0.300510  1
  H  H15  1  0.451333  0.383358  0.300510  1
  H  H16  1  0.163636  0.846448  0.297685  1
  H  H17  1  0.663636  0.653551  0.297685  1
  H  H18  1  0.519050  0.225281  0.837165  1
  H  H19  1  0.019050  0.274718  0.837165  1
  H  H20  1  0.919864  0.892178  0.525869  1
  H  H21  1  0.419864  0.607822  0.525869  1
  H  H22  1  0.108477  0.033260  0.618654  1
  H  H23  1  0.608477  0.466740  0.618654  1
  H  H24  1  0.483408  0.664469  0.049910  1
  H  H25  1  0.983408  0.835532  0.049910  1
  Os  Os26  1  0.537796  0.559913  0.339688  1
  Os  Os27  1  0.037796  0.940087  0.339688  1
