# generated using pymatgen
data_ZrSc17(Re4P)2
_symmetry_space_group_name_H-M   'P 1'
_cell_length_a   8.62950571
_cell_length_b   8.63774773
_cell_length_c   8.56805486
_cell_angle_alpha   90.00000131
_cell_angle_beta   89.95611092
_cell_angle_gamma   120.03160581
_symmetry_Int_Tables_number   1
_chemical_formula_structural   ZrSc17(Re4P)2
_chemical_formula_sum   'Zr1 Sc17 Re8 P2'
_cell_volume   552.91800745
_cell_formula_units_Z   1
loop_
 _symmetry_equiv_pos_site_id
 _symmetry_equiv_pos_as_xyz
  1  'x, y, z'
loop_
 _atom_site_type_symbol
 _atom_site_label
 _atom_site_symmetry_multiplicity
 _atom_site_fract_x
 _atom_site_fract_y
 _atom_site_fract_z
 _atom_site_occupancy
  Zr  Zr0  1  0.607662  0.803831  0.045855  1
  Sc  Sc1  1  0.197010  0.802320  0.450868  1
  Sc  Sc2  1  0.197010  0.394688  0.450868  1
  Sc  Sc3  1  0.605933  0.802967  0.449884  1
  Sc  Sc4  1  0.802597  0.197085  0.549751  1
  Sc  Sc5  1  0.802597  0.605514  0.549751  1
  Sc  Sc6  1  0.393015  0.196508  0.550238  1
  Sc  Sc7  1  0.804595  0.199002  0.950053  1
  Sc  Sc8  1  0.804595  0.605594  0.950053  1
  Sc  Sc9  1  0.392985  0.196492  0.950400  1
  Sc  Sc10  1  0.197361  0.801921  0.049437  1
  Sc  Sc11  1  0.197361  0.395439  0.049437  1
  Sc  Sc12  1  0.538184  0.462326  0.249851  1
  Sc  Sc13  1  0.538184  0.075858  0.249851  1
  Sc  Sc14  1  0.923278  0.461639  0.250707  1
  Sc  Sc15  1  0.461404  0.538830  0.751257  1
  Sc  Sc16  1  0.461404  0.922574  0.751257  1
  Sc  Sc17  1  0.077799  0.538899  0.750122  1
  Re  Re18  1  0.891660  0.107842  0.249747  1
  Re  Re19  1  0.891660  0.783817  0.249747  1
  Re  Re20  1  0.213159  0.106579  0.250386  1
  Re  Re21  1  0.106742  0.891950  0.749773  1
  Re  Re22  1  0.106742  0.214793  0.749773  1
  Re  Re23  1  0.783594  0.891797  0.750896  1
  Re  Re24  1  0.999294  0.999648  0.500459  1
  Re  Re25  1  0.003962  0.001981  0.999425  1
  P  P26  1  0.334406  0.667204  0.250130  1
  P  P27  1  0.665806  0.332903  0.750023  1
