# generated using pymatgen
data_Th3AlZnGaPt3
_symmetry_space_group_name_H-M   'P 1'
_cell_length_a   7.27967492
_cell_length_b   7.34324921
_cell_length_c   4.14736000
_cell_angle_alpha   90.00000000
_cell_angle_beta   90.00000000
_cell_angle_gamma   119.35159722
_symmetry_Int_Tables_number   1
_chemical_formula_structural   Th3AlZnGaPt3
_chemical_formula_sum   'Th3 Al1 Zn1 Ga1 Pt3'
_cell_volume   193.24277513
_cell_formula_units_Z   1
loop_
 _symmetry_equiv_pos_site_id
 _symmetry_equiv_pos_as_xyz
  1  'x, y, z'
loop_
 _atom_site_type_symbol
 _atom_site_label
 _atom_site_symmetry_multiplicity
 _atom_site_fract_x
 _atom_site_fract_y
 _atom_site_fract_z
 _atom_site_occupancy
  Th  Th0  1  0.417055  0.418622  0.500000  1
  Th  Th1  1  0.589630  0.998414  0.500000  1
  Th  Th2  1  0.997220  0.583550  0.500000  1
  Al  Al3  1  0.231836  0.999036  0.000000  1
  Zn  Zn4  1  0.759236  0.757593  0.000000  1
  Ga  Ga5  1  0.001016  0.240070  0.000000  1
  Pt  Pt6  1  0.659191  0.325615  0.000000  1
  Pt  Pt7  1  0.330525  0.673793  0.000000  1
  Pt  Pt8  1  0.014291  0.003309  0.500000  1
