# generated using pymatgen
data_LaYb10YRu4
_symmetry_space_group_name_H-M   'P 1'
_cell_length_a   6.24987634
_cell_length_b   7.62402270
_cell_length_c   9.30082990
_cell_angle_alpha   90.03355201
_cell_angle_beta   89.61582046
_cell_angle_gamma   88.78589405
_symmetry_Int_Tables_number   1
_chemical_formula_structural   LaYb10YRu4
_chemical_formula_sum   'La1 Yb10 Y1 Ru4'
_cell_volume   443.06752347
_cell_formula_units_Z   1
loop_
 _symmetry_equiv_pos_site_id
 _symmetry_equiv_pos_as_xyz
  1  'x, y, z'
loop_
 _atom_site_type_symbol
 _atom_site_label
 _atom_site_symmetry_multiplicity
 _atom_site_fract_x
 _atom_site_fract_y
 _atom_site_fract_z
 _atom_site_occupancy
  La  La0  1  0.356893  0.952066  0.751232  1
  Yb  Yb1  1  0.155768  0.168773  0.429731  1
  Yb  Yb2  1  0.654325  0.332843  0.564654  1
  Yb  Yb3  1  0.844985  0.832879  0.937228  1
  Yb  Yb4  1  0.656852  0.331350  0.936501  1
  Yb  Yb5  1  0.844614  0.834065  0.563743  1
  Yb  Yb6  1  0.342081  0.666180  0.431139  1
  Yb  Yb7  1  0.157789  0.168664  0.069440  1
  Yb  Yb8  1  0.869963  0.540197  0.249005  1
  Yb  Yb9  1  0.630655  0.035566  0.248698  1
  Yb  Yb10  1  0.129802  0.459491  0.751106  1
  Y  Y11  1  0.343260  0.664269  0.073340  1
  Ru  Ru12  1  0.053465  0.871352  0.245780  1
  Ru  Ru13  1  0.457688  0.380940  0.244559  1
  Ru  Ru14  1  0.984857  0.117840  0.746773  1
  Ru  Ru15  1  0.517003  0.643524  0.757073  1
