# generated using pymatgen
data_NdPRh2Au
_symmetry_space_group_name_H-M   'P 1'
_cell_length_a   4.03337100
_cell_length_b   4.03337100
_cell_length_c   11.10668600
_cell_angle_alpha   90.00000000
_cell_angle_beta   90.00000000
_cell_angle_gamma   90.00000000
_symmetry_Int_Tables_number   1
_chemical_formula_structural   NdPRh2Au
_chemical_formula_sum   'Nd2 P2 Rh4 Au2'
_cell_volume   180.68447442
_cell_formula_units_Z   2
loop_
 _symmetry_equiv_pos_site_id
 _symmetry_equiv_pos_as_xyz
  1  'x, y, z'
loop_
 _atom_site_type_symbol
 _atom_site_label
 _atom_site_symmetry_multiplicity
 _atom_site_fract_x
 _atom_site_fract_y
 _atom_site_fract_z
 _atom_site_occupancy
  Nd  Nd0  1  0.000000  0.500000  0.247052  1
  Nd  Nd1  1  0.500000  0.000000  0.752948  1
  P  P2  1  0.000000  0.500000  0.881779  1
  P  P3  1  0.500000  0.000000  0.118221  1
  Rh  Rh4  1  0.000000  0.000000  0.000000  1
  Rh  Rh5  1  0.500000  0.500000  0.000000  1
  Rh  Rh6  1  0.000000  0.500000  0.679411  1
  Rh  Rh7  1  0.500000  0.000000  0.320589  1
  Au  Au8  1  0.000000  0.000000  0.500000  1
  Au  Au9  1  0.500000  0.500000  0.500000  1
