# generated using pymatgen
data_TbY(MgSn)2
_symmetry_space_group_name_H-M   'P 1'
_cell_length_a   4.41392111
_cell_length_b   4.41392148
_cell_length_c   8.55506764
_cell_angle_alpha   104.94971526
_cell_angle_beta   104.94971382
_cell_angle_gamma   90.00000057
_symmetry_Int_Tables_number   1
_chemical_formula_structural   TbY(MgSn)2
_chemical_formula_sum   'Tb1 Y1 Mg2 Sn2'
_cell_volume   155.18779003
_cell_formula_units_Z   1
loop_
 _symmetry_equiv_pos_site_id
 _symmetry_equiv_pos_as_xyz
  1  'x, y, z'
loop_
 _atom_site_type_symbol
 _atom_site_label
 _atom_site_symmetry_multiplicity
 _atom_site_fract_x
 _atom_site_fract_y
 _atom_site_fract_z
 _atom_site_occupancy
  Tb  Tb0  1  0.333145  0.333145  0.666289  1
  Y  Y1  1  0.666804  0.666804  0.333610  1
  Mg  Mg2  1  0.500001  0.000002  0.000004  1
  Mg  Mg3  1  0.000002  0.500001  0.000004  1
  Sn  Sn4  1  0.135915  0.135915  0.271830  1
  Sn  Sn5  1  0.864129  0.864129  0.728262  1
