# generated using pymatgen
data_LaDy2Ho3Ta2O14
_symmetry_space_group_name_H-M   'P 1'
_cell_length_a   6.49836584
_cell_length_b   6.49964216
_cell_length_c   7.53654211
_cell_angle_alpha   89.87921595
_cell_angle_beta   90.13844259
_cell_angle_gamma   108.65652251
_symmetry_Int_Tables_number   1
_chemical_formula_structural   LaDy2Ho3Ta2O14
_chemical_formula_sum   'La1 Dy2 Ho3 Ta2 O14'
_cell_volume   301.59340823
_cell_formula_units_Z   1
loop_
 _symmetry_equiv_pos_site_id
 _symmetry_equiv_pos_as_xyz
  1  'x, y, z'
loop_
 _atom_site_type_symbol
 _atom_site_label
 _atom_site_symmetry_multiplicity
 _atom_site_fract_x
 _atom_site_fract_y
 _atom_site_fract_z
 _atom_site_occupancy
  La  La0  1  0.507325  0.508054  0.500085  1
  Dy  Dy1  1  0.460842  0.460756  0.999798  1
  Dy  Dy2  1  0.999518  0.534990  0.240779  1
  Ho  Ho3  1  0.998099  0.466184  0.747064  1
  Ho  Ho4  1  0.534746  0.999876  0.759356  1
  Ho  Ho5  1  0.466855  0.997951  0.252834  1
  Ta  Ta6  1  0.000790  0.000723  0.500141  1
  Ta  Ta7  1  0.996969  0.997011  0.999732  1
  O  O8  1  0.933069  0.067074  0.749647  1
  O  O9  1  0.067090  0.934150  0.250314  1
  O  O10  1  0.358559  0.642837  0.238478  1
  O  O11  1  0.642791  0.357031  0.761439  1
  O  O12  1  0.365817  0.633406  0.761240  1
  O  O13  1  0.631619  0.364943  0.239019  1
  O  O14  1  0.326693  0.079887  0.973583  1
  O  O15  1  0.677216  0.930028  0.471294  1
  O  O16  1  0.315469  0.061262  0.540750  1
  O  O17  1  0.692342  0.951846  0.041798  1
  O  O18  1  0.062701  0.315802  0.460454  1
  O  O19  1  0.950949  0.692231  0.957718  1
  O  O20  1  0.929525  0.677212  0.529064  1
  O  O21  1  0.081020  0.326746  0.025415  1
