# generated using pymatgen
data_La16Cd4Ir3Ru
_symmetry_space_group_name_H-M   'P 1'
_cell_length_a   10.12256408
_cell_length_b   10.12631952
_cell_length_c   10.12632000
_cell_angle_alpha   59.99999845
_cell_angle_beta   59.98772519
_cell_angle_gamma   59.98772506
_symmetry_Int_Tables_number   1
_chemical_formula_structural   La16Cd4Ir3Ru
_chemical_formula_sum   'La16 Cd4 Ir3 Ru1'
_cell_volume   733.83463319
_cell_formula_units_Z   1
loop_
 _symmetry_equiv_pos_site_id
 _symmetry_equiv_pos_as_xyz
  1  'x, y, z'
loop_
 _atom_site_type_symbol
 _atom_site_label
 _atom_site_symmetry_multiplicity
 _atom_site_fract_x
 _atom_site_fract_y
 _atom_site_fract_z
 _atom_site_occupancy
  La  La0  1  0.902333  0.904276  0.904276  1
  La  La1  1  0.442299  0.436254  0.060723  1
  La  La2  1  0.060596  0.059102  0.440151  1
  La  La3  1  0.442299  0.060723  0.060723  1
  La  La4  1  0.309923  0.689807  0.310463  1
  La  La5  1  0.688809  0.690570  0.310310  1
  La  La6  1  0.688809  0.310310  0.310310  1
  La  La7  1  0.290143  0.903286  0.903286  1
  La  La8  1  0.902333  0.289115  0.904276  1
  La  La9  1  0.309923  0.689807  0.689807  1
  La  La10  1  0.902333  0.904276  0.289115  1
  La  La11  1  0.060596  0.440151  0.059102  1
  La  La12  1  0.309923  0.310463  0.689807  1
  La  La13  1  0.060596  0.440151  0.440151  1
  La  La14  1  0.442299  0.060723  0.436254  1
  La  La15  1  0.688809  0.310310  0.690570  1
  Cd  Cd16  1  0.671057  0.670600  0.987743  1
  Cd  Cd17  1  0.987908  0.670697  0.670697  1
  Cd  Cd18  1  0.671057  0.987743  0.670600  1
  Cd  Cd19  1  0.671057  0.670600  0.670600  1
  Ir  Ir20  1  0.110573  0.109026  0.671374  1
  Ir  Ir21  1  0.110573  0.109026  0.109026  1
  Ir  Ir22  1  0.110573  0.671374  0.109026  1
  Ru  Ru23  1  0.665178  0.111607  0.111607  1
