# generated using pymatgen
data_Ba12Gd3Y(Ga4O15)2
_symmetry_space_group_name_H-M   'P 1'
_cell_length_a   6.06011365
_cell_length_b   8.09595416
_cell_length_c   18.72953734
_cell_angle_alpha   88.77875694
_cell_angle_beta   89.95176970
_cell_angle_gamma   89.97693647
_symmetry_Int_Tables_number   1
_chemical_formula_structural   Ba12Gd3Y(Ga4O15)2
_chemical_formula_sum   'Ba12 Gd3 Y1 Ga8 O30'
_cell_volume   918.70697142
_cell_formula_units_Z   1
loop_
 _symmetry_equiv_pos_site_id
 _symmetry_equiv_pos_as_xyz
  1  'x, y, z'
loop_
 _atom_site_type_symbol
 _atom_site_label
 _atom_site_symmetry_multiplicity
 _atom_site_fract_x
 _atom_site_fract_y
 _atom_site_fract_z
 _atom_site_occupancy
  Ba  Ba0  1  0.754733  0.499867  0.079648  1
  Ba  Ba1  1  0.245158  0.500332  0.920661  1
  Ba  Ba2  1  0.755244  0.500767  0.420644  1
  Ba  Ba3  1  0.245372  0.499655  0.578685  1
  Ba  Ba4  1  0.748397  0.971795  0.090839  1
  Ba  Ba5  1  0.251717  0.028092  0.909298  1
  Ba  Ba6  1  0.748485  0.027226  0.409645  1
  Ba  Ba7  1  0.252141  0.972008  0.589833  1
  Ba  Ba8  1  0.726254  0.999796  0.749616  1
  Ba  Ba9  1  0.273671  0.999806  0.250541  1
  Ba  Ba10  1  0.668371  0.500176  0.749792  1
  Ba  Ba11  1  0.331364  0.500584  0.250513  1
  Gd  Gd12  1  0.747467  0.753165  0.909816  1
  Gd  Gd13  1  0.252470  0.246874  0.090239  1
  Gd  Gd14  1  0.747666  0.246986  0.589817  1
  Y  Y15  1  0.252972  0.753109  0.410035  1
  Ga  Ga16  1  0.747880  0.754500  0.557637  1
  Ga  Ga17  1  0.253219  0.245585  0.440730  1
  Ga  Ga18  1  0.747614  0.245433  0.940809  1
  Ga  Ga19  1  0.252166  0.754647  0.059150  1
  Ga  Ga20  1  0.774468  0.771116  0.266718  1
  Ga  Ga21  1  0.224684  0.229233  0.734574  1
  Ga  Ga22  1  0.774998  0.229176  0.234860  1
  Ga  Ga23  1  0.224797  0.770854  0.765094  1
  O  O24  1  0.199069  0.000070  0.750029  1
  O  O25  1  0.800731  0.999887  0.250241  1
  O  O26  1  0.510736  0.766773  0.003210  1
  O  O27  1  0.489389  0.233185  0.996956  1
  O  O28  1  0.510737  0.233462  0.496985  1
  O  O29  1  0.489439  0.766387  0.501641  1
  O  O30  1  0.766659  0.950420  0.608756  1
  O  O31  1  0.235603  0.046800  0.391160  1
  O  O32  1  0.766579  0.049269  0.889828  1
  O  O33  1  0.233535  0.950542  0.110276  1
  O  O34  1  0.013678  0.767453  0.993415  1
  O  O35  1  0.986039  0.232629  0.006697  1
  O  O36  1  0.013670  0.233078  0.506243  1
  O  O37  1  0.986411  0.766935  0.491631  1
  O  O38  1  0.330329  0.690502  0.681436  1
  O  O39  1  0.668464  0.309688  0.318265  1
  O  O40  1  0.330104  0.309457  0.818221  1
  O  O41  1  0.672663  0.688735  0.182974  1
  O  O42  1  0.444407  0.750124  0.836539  1
  O  O43  1  0.555559  0.249782  0.163403  1
  O  O44  1  0.444772  0.249730  0.663278  1
  O  O45  1  0.550713  0.750943  0.336785  1
  O  O46  1  0.952502  0.723821  0.806130  1
  O  O47  1  0.047680  0.276169  0.194076  1
  O  O48  1  0.952390  0.276017  0.693625  1
  O  O49  1  0.044697  0.725693  0.309416  1
  O  O50  1  0.757883  0.534235  0.590715  1
  O  O51  1  0.243975  0.467238  0.408750  1
  O  O52  1  0.757571  0.465988  0.908134  1
  O  O53  1  0.242705  0.534202  0.091987  1
