# generated using pymatgen
data_Nd6Dy3Tm7(CdIr)4
_symmetry_space_group_name_H-M   'P 1'
_cell_length_a   9.68402731
_cell_length_b   9.68296644
_cell_length_c   9.68296600
_cell_angle_alpha   60.00000151
_cell_angle_beta   60.00362526
_cell_angle_gamma   60.00362241
_symmetry_Int_Tables_number   1
_chemical_formula_structural   Nd6Dy3Tm7(CdIr)4
_chemical_formula_sum   'Nd6 Dy3 Tm7 Cd4 Ir4'
_cell_volume   642.06889664
_cell_formula_units_Z   1
loop_
 _symmetry_equiv_pos_site_id
 _symmetry_equiv_pos_as_xyz
  1  'x, y, z'
loop_
 _atom_site_type_symbol
 _atom_site_label
 _atom_site_symmetry_multiplicity
 _atom_site_fract_x
 _atom_site_fract_y
 _atom_site_fract_z
 _atom_site_occupancy
  Nd  Nd0  1  0.940517  0.559358  0.559358  1
  Nd  Nd1  1  0.559768  0.940333  0.940333  1
  Nd  Nd2  1  0.559768  0.940333  0.559567  1
  Nd  Nd3  1  0.940517  0.559358  0.940767  1
  Nd  Nd4  1  0.559768  0.559567  0.940333  1
  Nd  Nd5  1  0.940517  0.940767  0.559358  1
  Dy  Dy6  1  0.347447  0.347716  0.347716  1
  Dy  Dy7  1  0.347447  0.347716  0.957123  1
  Dy  Dy8  1  0.347447  0.957123  0.347716  1
  Tm  Tm9  1  0.958830  0.347057  0.347057  1
  Tm  Tm10  1  0.814198  0.185972  0.185972  1
  Tm  Tm11  1  0.185801  0.814222  0.814222  1
  Tm  Tm12  1  0.185801  0.814222  0.185754  1
  Tm  Tm13  1  0.814198  0.185972  0.813859  1
  Tm  Tm14  1  0.185801  0.185754  0.814222  1
  Tm  Tm15  1  0.814198  0.813859  0.185972  1
  Cd  Cd16  1  0.579459  0.579048  0.579048  1
  Cd  Cd17  1  0.579459  0.579048  0.262442  1
  Cd  Cd18  1  0.579459  0.262442  0.579048  1
  Cd  Cd19  1  0.262253  0.579248  0.579248  1
  Ir  Ir20  1  0.139803  0.141520  0.141520  1
  Ir  Ir21  1  0.139803  0.141520  0.577156  1
  Ir  Ir22  1  0.139803  0.577156  0.141520  1
  Ir  Ir23  1  0.577935  0.140688  0.140688  1
