# generated using pymatgen
data_Pr2Si5PPd20Au
_symmetry_space_group_name_H-M   'P 1'
_cell_length_a   8.71930683
_cell_length_b   8.71930737
_cell_length_c   8.71818600
_cell_angle_alpha   60.00425420
_cell_angle_beta   60.00425218
_cell_angle_gamma   59.99149114
_symmetry_Int_Tables_number   1
_chemical_formula_structural   Pr2Si5PPd20Au
_chemical_formula_sum   'Pr2 Si5 P1 Pd20 Au1'
_cell_volume   468.67852907
_cell_formula_units_Z   1
loop_
 _symmetry_equiv_pos_site_id
 _symmetry_equiv_pos_as_xyz
  1  'x, y, z'
loop_
 _atom_site_type_symbol
 _atom_site_label
 _atom_site_symmetry_multiplicity
 _atom_site_fract_x
 _atom_site_fract_y
 _atom_site_fract_z
 _atom_site_occupancy
  Pr  Pr0  1  0.249655  0.249655  0.250345  1
  Pr  Pr1  1  0.749655  0.749655  0.750345  1
  Si  Si2  1  0.734268  0.264186  0.265732  1
  Si  Si3  1  0.264186  0.734268  0.735814  1
  Si  Si4  1  0.264186  0.734268  0.265732  1
  Si  Si5  1  0.734268  0.264186  0.735814  1
  Si  Si6  1  0.265510  0.265510  0.734490  1
  P  P7  1  0.733386  0.733386  0.266614  1
  Pd  Pd8  1  0.385560  0.385560  0.385195  1
  Pd  Pd9  1  0.614560  0.614560  0.613040  1
  Pd  Pd10  1  0.385560  0.385560  0.843687  1
  Pd  Pd11  1  0.386960  0.842162  0.385440  1
  Pd  Pd12  1  0.614560  0.614560  0.157838  1
  Pd  Pd13  1  0.614805  0.156313  0.614440  1
  Pd  Pd14  1  0.842162  0.386960  0.385440  1
  Pd  Pd15  1  0.156313  0.614805  0.614440  1
  Pd  Pd16  1  0.345060  0.999907  0.000093  1
  Pd  Pd17  1  0.656936  0.997576  0.002424  1
  Pd  Pd18  1  0.999907  0.345060  0.654940  1
  Pd  Pd19  1  0.997576  0.656936  0.343064  1
  Pd  Pd20  1  0.999907  0.345060  0.000093  1
  Pd  Pd21  1  0.656936  0.997576  0.343064  1
  Pd  Pd22  1  0.997576  0.656936  0.002424  1
  Pd  Pd23  1  0.345060  0.999907  0.654940  1
  Pd  Pd24  1  0.000688  0.000688  0.344171  1
  Pd  Pd25  1  0.000688  0.000688  0.654454  1
  Pd  Pd26  1  0.655829  0.345546  0.999312  1
  Pd  Pd27  1  0.345546  0.655829  0.999312  1
  Au  Au28  1  0.002691  0.002691  0.997309  1
