# generated using pymatgen
data_YbDyEr2(SiPt2)4
_symmetry_space_group_name_H-M   'P 1'
_cell_length_a   5.52005549
_cell_length_b   6.95893100
_cell_length_c   7.30320921
_cell_angle_alpha   90.00000000
_cell_angle_beta   89.96223747
_cell_angle_gamma   90.00000000
_symmetry_Int_Tables_number   1
_chemical_formula_structural   YbDyEr2(SiPt2)4
_chemical_formula_sum   'Yb1 Dy1 Er2 Si4 Pt8'
_cell_volume   280.54311896
_cell_formula_units_Z   1
loop_
 _symmetry_equiv_pos_site_id
 _symmetry_equiv_pos_as_xyz
  1  'x, y, z'
loop_
 _atom_site_type_symbol
 _atom_site_label
 _atom_site_symmetry_multiplicity
 _atom_site_fract_x
 _atom_site_fract_y
 _atom_site_fract_z
 _atom_site_occupancy
  Yb  Yb0  1  0.866365  0.250000  0.522885  1
  Dy  Dy1  1  0.133661  0.750000  0.475790  1
  Er  Er2  1  0.365549  0.750000  0.976325  1
  Er  Er3  1  0.635464  0.250000  0.024458  1
  Si  Si4  1  0.133540  0.250000  0.877649  1
  Si  Si5  1  0.367738  0.250000  0.380252  1
  Si  Si6  1  0.632760  0.750000  0.621313  1
  Si  Si7  1  0.866756  0.750000  0.121373  1
  Pt  Pt8  1  0.098795  0.051101  0.178903  1
  Pt  Pt9  1  0.098795  0.448899  0.178903  1
  Pt  Pt10  1  0.404554  0.050434  0.679936  1
  Pt  Pt11  1  0.404554  0.449566  0.679936  1
  Pt  Pt12  1  0.592562  0.550640  0.317842  1
  Pt  Pt13  1  0.592562  0.949360  0.317842  1
  Pt  Pt14  1  0.903174  0.551453  0.823297  1
  Pt  Pt15  1  0.903174  0.948547  0.823297  1
