# generated using pymatgen
data_Sr2AlGa3I16
_symmetry_space_group_name_H-M   'P 1'
_cell_length_a   8.35663069
_cell_length_b   8.59592639
_cell_length_c   15.77967700
_cell_angle_alpha   87.49407571
_cell_angle_beta   89.97672277
_cell_angle_gamma   89.98789094
_symmetry_Int_Tables_number   1
_chemical_formula_structural   Sr2AlGa3I16
_chemical_formula_sum   'Sr2 Al1 Ga3 I16'
_cell_volume   1132.41718364
_cell_formula_units_Z   1
loop_
 _symmetry_equiv_pos_site_id
 _symmetry_equiv_pos_as_xyz
  1  'x, y, z'
loop_
 _atom_site_type_symbol
 _atom_site_label
 _atom_site_symmetry_multiplicity
 _atom_site_fract_x
 _atom_site_fract_y
 _atom_site_fract_z
 _atom_site_occupancy
  Sr  Sr0  1  0.753994  0.078290  0.813926  1
  Sr  Sr1  1  0.245945  0.078599  0.313793  1
  Al  Al2  1  0.428890  0.642490  0.277651  1
  Ga  Ga3  1  0.933679  0.221862  0.579595  1
  Ga  Ga4  1  0.066312  0.221933  0.079448  1
  Ga  Ga5  1  0.571064  0.642011  0.777207  1
  I  I6  1  0.423236  0.615799  0.639453  1
  I  I7  1  0.575010  0.616033  0.140784  1
  I  I8  1  0.871076  0.724885  0.759835  1
  I  I9  1  0.131660  0.724048  0.259780  1
  I  I10  1  0.939694  0.477860  0.495506  1
  I  I11  1  0.060494  0.477906  0.995506  1
  I  I12  1  0.922562  0.995128  0.002914  1
  I  I13  1  0.077602  0.995122  0.502775  1
  I  I14  1  0.640628  0.128580  0.612789  1
  I  I15  1  0.359428  0.128499  0.112763  1
  I  I16  1  0.557606  0.388465  0.876442  1
  I  I17  1  0.441918  0.390546  0.375281  1
  I  I18  1  0.439543  0.859134  0.867335  1
  I  I19  1  0.559511  0.857115  0.366621  1
  I  I20  1  0.923593  0.235247  0.227554  1
  I  I21  1  0.076553  0.235246  0.727443  1
