# generated using pymatgen
data_Tm2TiSiIr2
_symmetry_space_group_name_H-M   'P 1'
_cell_length_a   4.32781500
_cell_length_b   6.82880958
_cell_length_c   7.61071388
_cell_angle_alpha   90.65661358
_cell_angle_beta   90.00000000
_cell_angle_gamma   90.00000000
_symmetry_Int_Tables_number   1
_chemical_formula_structural   Tm2TiSiIr2
_chemical_formula_sum   'Tm4 Ti2 Si2 Ir4'
_cell_volume   224.91093254
_cell_formula_units_Z   2
loop_
 _symmetry_equiv_pos_site_id
 _symmetry_equiv_pos_as_xyz
  1  'x, y, z'
loop_
 _atom_site_type_symbol
 _atom_site_label
 _atom_site_symmetry_multiplicity
 _atom_site_fract_x
 _atom_site_fract_y
 _atom_site_fract_z
 _atom_site_occupancy
  Tm  Tm0  1  0.250000  0.486354  0.201054  1
  Tm  Tm1  1  0.750000  0.513646  0.798946  1
  Tm  Tm2  1  0.750000  0.012442  0.673734  1
  Tm  Tm3  1  0.250000  0.987558  0.326266  1
  Ti  Ti4  1  0.250000  0.855476  0.917681  1
  Ti  Ti5  1  0.750000  0.144524  0.082319  1
  Si  Si6  1  0.750000  0.673411  0.419732  1
  Si  Si7  1  0.250000  0.326589  0.580268  1
  Ir  Ir8  1  0.250000  0.700787  0.599225  1
  Ir  Ir9  1  0.750000  0.299213  0.400775  1
  Ir  Ir10  1  0.750000  0.779904  0.102157  1
  Ir  Ir11  1  0.250000  0.220096  0.897843  1
