# generated using pymatgen
data_Ba3Cu17SiP6
_symmetry_space_group_name_H-M   'P 1'
_cell_length_a   9.08939563
_cell_length_b   9.08937095
_cell_length_c   10.51037840
_cell_angle_alpha   59.00489821
_cell_angle_beta   59.00518812
_cell_angle_gamma   37.06570444
_symmetry_Int_Tables_number   1
_chemical_formula_structural   Ba3Cu17SiP6
_chemical_formula_sum   'Ba3 Cu17 Si1 P6'
_cell_volume   439.44896100
_cell_formula_units_Z   1
loop_
 _symmetry_equiv_pos_site_id
 _symmetry_equiv_pos_as_xyz
  1  'x, y, z'
loop_
 _atom_site_type_symbol
 _atom_site_label
 _atom_site_symmetry_multiplicity
 _atom_site_fract_x
 _atom_site_fract_y
 _atom_site_fract_z
 _atom_site_occupancy
  Ba  Ba0  1  0.500000  0.500000  0.000000  1
  Ba  Ba1  1  0.832049  0.832053  0.002631  1
  Ba  Ba2  1  0.167951  0.167947  0.997369  1
  Cu  Cu3  1  0.441627  0.942285  0.673681  1
  Cu  Cu4  1  0.780296  0.264910  0.672588  1
  Cu  Cu5  1  0.103058  0.622234  0.673095  1
  Cu  Cu6  1  0.942270  0.441626  0.673705  1
  Cu  Cu7  1  0.264844  0.780308  0.672614  1
  Cu  Cu8  1  0.622325  0.103002  0.673107  1
  Cu  Cu9  1  0.558373  0.057715  0.326319  1
  Cu  Cu10  1  0.896942  0.377766  0.326905  1
  Cu  Cu11  1  0.219704  0.735090  0.327412  1
  Cu  Cu12  1  0.057730  0.558374  0.326295  1
  Cu  Cu13  1  0.377675  0.896998  0.326893  1
  Cu  Cu14  1  0.735156  0.219692  0.327386  1
  Cu  Cu15  1  0.167843  0.167848  0.499237  1
  Cu  Cu16  1  0.500000  0.500000  0.500000  1
  Cu  Cu17  1  0.832157  0.832152  0.500763  1
  Cu  Cu18  1  0.664569  0.664591  0.499620  1
  Cu  Cu19  1  0.335431  0.335409  0.500380  1
  Si  Si20  1  0.000000  0.000000  0.500000  1
  P  P21  1  0.069089  0.069081  0.794163  1
  P  P22  1  0.400009  0.399988  0.800586  1
  P  P23  1  0.734465  0.734468  0.794735  1
  P  P24  1  0.265535  0.265532  0.205265  1
  P  P25  1  0.599991  0.600012  0.199414  1
  P  P26  1  0.930911  0.930919  0.205837  1
