# generated using pymatgen
data_Pr6Al24IrOs5Rh2
_symmetry_space_group_name_H-M   'P 1'
_cell_length_a   8.89705901
_cell_length_b   8.87951402
_cell_length_c   9.71544408
_cell_angle_alpha   90.06845333
_cell_angle_beta   89.99606871
_cell_angle_gamma   119.41422255
_symmetry_Int_Tables_number   1
_chemical_formula_structural   Pr6Al24IrOs5Rh2
_chemical_formula_sum   'Pr6 Al24 Ir1 Os5 Rh2'
_cell_volume   668.59315622
_cell_formula_units_Z   1
loop_
 _symmetry_equiv_pos_site_id
 _symmetry_equiv_pos_as_xyz
  1  'x, y, z'
loop_
 _atom_site_type_symbol
 _atom_site_label
 _atom_site_symmetry_multiplicity
 _atom_site_fract_x
 _atom_site_fract_y
 _atom_site_fract_z
 _atom_site_occupancy
  Pr  Pr0  1  0.186358  0.382521  0.251084  1
  Pr  Pr1  1  0.813642  0.617479  0.748916  1
  Pr  Pr2  1  0.619537  0.812856  0.250313  1
  Pr  Pr3  1  0.380463  0.187144  0.749687  1
  Pr  Pr4  1  0.189676  0.806863  0.250078  1
  Pr  Pr5  1  0.810324  0.193137  0.749922  1
  Al  Al6  1  0.331829  0.665937  0.016721  1
  Al  Al7  1  0.668171  0.334063  0.983279  1
  Al  Al8  1  0.667219  0.332155  0.516771  1
  Al  Al9  1  0.332781  0.667845  0.483229  1
  Al  Al10  1  0.161900  0.326912  0.574799  1
  Al  Al11  1  0.838100  0.673088  0.425201  1
  Al  Al12  1  0.673499  0.839022  0.574735  1
  Al  Al13  1  0.837059  0.672764  0.073989  1
  Al  Al14  1  0.326501  0.160978  0.425265  1
  Al  Al15  1  0.162941  0.327236  0.926011  1
  Al  Al16  1  0.165133  0.836334  0.573589  1
  Al  Al17  1  0.326467  0.164625  0.075062  1
  Al  Al18  1  0.834867  0.163666  0.426411  1
  Al  Al19  1  0.673533  0.835375  0.924938  1
  Al  Al20  1  0.838362  0.166243  0.074992  1
  Al  Al21  1  0.161638  0.833757  0.925008  1
  Al  Al22  1  0.561565  0.125835  0.250339  1
  Al  Al23  1  0.438435  0.874165  0.749661  1
  Al  Al24  1  0.872656  0.437837  0.249677  1
  Al  Al25  1  0.127344  0.562163  0.750323  1
  Al  Al26  1  0.562047  0.437665  0.249965  1
  Al  Al27  1  0.437953  0.562335  0.750035  1
  Al  Al28  1  0.998590  0.000666  0.250041  1
  Al  Al29  1  0.001410  0.999334  0.749959  1
  Ir  Ir30  1  0.500000  0.500000  0.000000  1
  Os  Os31  1  0.000000  0.500000  0.000000  1
  Os  Os32  1  0.500000  0.000000  0.500000  1
  Os  Os33  1  0.000000  0.500000  0.500000  1
  Os  Os34  1  0.000000  0.000000  0.000000  1
  Os  Os35  1  0.000000  0.000000  0.500000  1
  Rh  Rh36  1  0.500000  0.000000  0.000000  1
  Rh  Rh37  1  0.500000  0.500000  0.500000  1
