# generated using pymatgen
data_Zr3NbCo2N
_symmetry_space_group_name_H-M   'P 1'
_cell_length_a   8.53482691
_cell_length_b   8.53646297
_cell_length_c   8.53564705
_cell_angle_alpha   60.01280811
_cell_angle_beta   60.00646540
_cell_angle_gamma   60.01028583
_symmetry_Int_Tables_number   1
_chemical_formula_structural   Zr3NbCo2N
_chemical_formula_sum   'Zr12 Nb4 Co8 N4'
_cell_volume   439.83636060
_cell_formula_units_Z   4
loop_
 _symmetry_equiv_pos_site_id
 _symmetry_equiv_pos_as_xyz
  1  'x, y, z'
loop_
 _atom_site_type_symbol
 _atom_site_label
 _atom_site_symmetry_multiplicity
 _atom_site_fract_x
 _atom_site_fract_y
 _atom_site_fract_z
 _atom_site_occupancy
  Zr  Zr0  1  0.811145  0.811153  0.188841  1
  Zr  Zr1  1  0.188866  0.189066  0.811036  1
  Zr  Zr2  1  0.811081  0.188988  0.811076  1
  Zr  Zr3  1  0.188870  0.811111  0.188926  1
  Zr  Zr4  1  0.188852  0.811121  0.811101  1
  Zr  Zr5  1  0.811071  0.189014  0.188852  1
  Zr  Zr6  1  0.438855  0.438847  0.061159  1
  Zr  Zr7  1  0.061134  0.060934  0.438964  1
  Zr  Zr8  1  0.438919  0.061012  0.438924  1
  Zr  Zr9  1  0.061130  0.438889  0.061074  1
  Zr  Zr10  1  0.061148  0.438879  0.438899  1
  Zr  Zr11  1  0.438929  0.060986  0.061148  1
  Nb  Nb12  1  0.125000  0.625000  0.625000  1
  Nb  Nb13  1  0.625000  0.125000  0.625000  1
  Nb  Nb14  1  0.625000  0.625000  0.125000  1
  Nb  Nb15  1  0.625000  0.625000  0.625000  1
  Co  Co16  1  0.739764  0.420111  0.420024  1
  Co  Co17  1  0.420061  0.739718  0.420069  1
  Co  Co18  1  0.420008  0.420122  0.739755  1
  Co  Co19  1  0.420030  0.420137  0.420042  1
  Co  Co20  1  0.510236  0.829889  0.829976  1
  Co  Co21  1  0.829939  0.510282  0.829931  1
  Co  Co22  1  0.829992  0.829878  0.510245  1
  Co  Co23  1  0.829970  0.829863  0.829958  1
  N  N24  1  0.625000  0.125000  0.125000  1
  N  N25  1  0.125000  0.625000  0.125000  1
  N  N26  1  0.125000  0.125000  0.625000  1
  N  N27  1  0.125000  0.125000  0.125000  1
