# generated using pymatgen
data_Tb2MgSi5PPd20
_symmetry_space_group_name_H-M   'P 1'
_cell_length_a   8.68323622
_cell_length_b   8.68323965
_cell_length_c   8.68350100
_cell_angle_alpha   59.99900818
_cell_angle_beta   59.99899510
_cell_angle_gamma   60.00052356
_symmetry_Int_Tables_number   1
_chemical_formula_structural   Tb2MgSi5PPd20
_chemical_formula_sum   'Tb2 Mg1 Si5 P1 Pd20'
_cell_volume   462.95462670
_cell_formula_units_Z   1
loop_
 _symmetry_equiv_pos_site_id
 _symmetry_equiv_pos_as_xyz
  1  'x, y, z'
loop_
 _atom_site_type_symbol
 _atom_site_label
 _atom_site_symmetry_multiplicity
 _atom_site_fract_x
 _atom_site_fract_y
 _atom_site_fract_z
 _atom_site_occupancy
  Tb  Tb0  1  0.249406  0.249408  0.250593  1
  Tb  Tb1  1  0.749402  0.749400  0.750599  1
  Mg  Mg2  1  0.001356  0.001356  0.998644  1
  Si  Si3  1  0.733963  0.264643  0.266033  1
  Si  Si4  1  0.264643  0.733963  0.735360  1
  Si  Si5  1  0.264643  0.733963  0.266033  1
  Si  Si6  1  0.733963  0.264643  0.735360  1
  Si  Si7  1  0.265880  0.265880  0.734120  1
  P  P8  1  0.734568  0.734568  0.265432  1
  Pd  Pd9  1  0.383799  0.383802  0.383330  1
  Pd  Pd10  1  0.616435  0.616432  0.614530  1
  Pd  Pd11  1  0.383799  0.383802  0.849068  1
  Pd  Pd12  1  0.385465  0.847402  0.383566  1
  Pd  Pd13  1  0.616435  0.616432  0.152603  1
  Pd  Pd14  1  0.616673  0.150927  0.616200  1
  Pd  Pd15  1  0.847402  0.385467  0.383566  1
  Pd  Pd16  1  0.150927  0.616671  0.616200  1
  Pd  Pd17  1  0.344126  0.999966  0.000029  1
  Pd  Pd18  1  0.656851  0.998175  0.001827  1
  Pd  Pd19  1  0.999965  0.344128  0.655878  1
  Pd  Pd20  1  0.998176  0.656849  0.343146  1
  Pd  Pd21  1  0.999965  0.344128  0.000028  1
  Pd  Pd22  1  0.656851  0.998175  0.343146  1
  Pd  Pd23  1  0.998176  0.656849  0.001828  1
  Pd  Pd24  1  0.344126  0.999966  0.655878  1
  Pd  Pd25  1  0.000751  0.000751  0.343429  1
  Pd  Pd26  1  0.000751  0.000751  0.655070  1
  Pd  Pd27  1  0.656577  0.344925  0.999250  1
  Pd  Pd28  1  0.344922  0.656574  0.999252  1
