# generated using pymatgen
data_Pr3In3SnIrPd
_symmetry_space_group_name_H-M   'P 1'
_cell_length_a   7.78780900
_cell_length_b   7.78780801
_cell_length_c   4.28964500
_cell_angle_alpha   90.00000000
_cell_angle_beta   90.00000000
_cell_angle_gamma   120.00000846
_symmetry_Int_Tables_number   1
_chemical_formula_structural   Pr3In3SnIrPd
_chemical_formula_sum   'Pr3 In3 Sn1 Ir1 Pd1'
_cell_volume   225.31104161
_cell_formula_units_Z   1
loop_
 _symmetry_equiv_pos_site_id
 _symmetry_equiv_pos_as_xyz
  1  'x, y, z'
loop_
 _atom_site_type_symbol
 _atom_site_label
 _atom_site_symmetry_multiplicity
 _atom_site_fract_x
 _atom_site_fract_y
 _atom_site_fract_z
 _atom_site_occupancy
  Pr  Pr0  1  0.423025  0.401165  0.500000  1
  Pr  Pr1  1  0.598835  0.021860  0.500000  1
  Pr  Pr2  1  0.978140  0.576975  0.500000  1
  In  In3  1  0.762561  0.746882  0.000000  1
  In  In4  1  0.253118  0.015679  0.000000  1
  In  In5  1  0.984321  0.237439  0.000000  1
  Sn  Sn6  1  0.333333  0.666667  0.000000  1
  Ir  Ir7  1  0.666667  0.333333  0.000000  1
  Pd  Pd8  1  0.000000  0.000000  0.500000  1
