# generated using pymatgen
data_Ho3LuS4
_symmetry_space_group_name_H-M   'P 1'
_cell_length_a   12.79298552
_cell_length_b   12.79298553
_cell_length_c   12.79298500
_cell_angle_alpha   17.47436647
_cell_angle_beta   17.47436644
_cell_angle_gamma   17.47436478
_symmetry_Int_Tables_number   1
_chemical_formula_structural   Ho3LuS4
_chemical_formula_sum   'Ho3 Lu1 S4'
_cell_volume   164.75906915
_cell_formula_units_Z   1
loop_
 _symmetry_equiv_pos_site_id
 _symmetry_equiv_pos_as_xyz
  1  'x, y, z'
loop_
 _atom_site_type_symbol
 _atom_site_label
 _atom_site_symmetry_multiplicity
 _atom_site_fract_x
 _atom_site_fract_y
 _atom_site_fract_z
 _atom_site_occupancy
  Ho  Ho0  1  0.249931  0.249931  0.249931  1
  Ho  Ho1  1  0.500000  0.500000  0.500000  1
  Ho  Ho2  1  0.750069  0.750069  0.750069  1
  Lu  Lu3  1  0.000000  0.000000  0.000000  1
  S  S4  1  0.373722  0.373722  0.373722  1
  S  S5  1  0.124895  0.124895  0.124895  1
  S  S6  1  0.626278  0.626278  0.626278  1
  S  S7  1  0.875105  0.875105  0.875105  1
