# generated using pymatgen
data_La2PrBe2As2(PPd10)2
_symmetry_space_group_name_H-M   'P 1'
_cell_length_a   8.87356229
_cell_length_b   8.66685838
_cell_length_c   8.79348891
_cell_angle_alpha   61.08455726
_cell_angle_beta   58.75351701
_cell_angle_gamma   60.16194678
_symmetry_Int_Tables_number   1
_chemical_formula_structural   La2PrBe2As2(PPd10)2
_chemical_formula_sum   'La2 Pr1 Be2 As2 P2 Pd20'
_cell_volume   477.79638921
_cell_formula_units_Z   1
loop_
 _symmetry_equiv_pos_site_id
 _symmetry_equiv_pos_as_xyz
  1  'x, y, z'
loop_
 _atom_site_type_symbol
 _atom_site_label
 _atom_site_symmetry_multiplicity
 _atom_site_fract_x
 _atom_site_fract_y
 _atom_site_fract_z
 _atom_site_occupancy
  La  La0  1  0.250000  0.250000  0.250000  1
  La  La1  1  0.750000  0.750000  0.750000  1
  Pr  Pr2  1  0.000000  0.000000  0.000000  1
  Be  Be3  1  0.730664  0.269336  0.269336  1
  Be  Be4  1  0.269336  0.730664  0.730664  1
  As  As5  1  0.264315  0.735685  0.264315  1
  As  As6  1  0.735685  0.264315  0.735685  1
  P  P7  1  0.267488  0.267488  0.732512  1
  P  P8  1  0.732512  0.732512  0.267488  1
  Pd  Pd9  1  0.392086  0.377331  0.387194  1
  Pd  Pd10  1  0.607914  0.622669  0.612806  1
  Pd  Pd11  1  0.377331  0.392086  0.843388  1
  Pd  Pd12  1  0.387194  0.843388  0.392086  1
  Pd  Pd13  1  0.622669  0.607914  0.156612  1
  Pd  Pd14  1  0.612806  0.156612  0.607914  1
  Pd  Pd15  1  0.843388  0.387194  0.377331  1
  Pd  Pd16  1  0.156612  0.612806  0.622669  1
  Pd  Pd17  1  0.347440  0.010840  0.989160  1
  Pd  Pd18  1  0.652560  0.989160  0.010840  1
  Pd  Pd19  1  0.010840  0.347440  0.652560  1
  Pd  Pd20  1  0.989160  0.652560  0.347440  1
  Pd  Pd21  1  0.997693  0.344385  0.002307  1
  Pd  Pd22  1  0.655615  0.002307  0.344385  1
  Pd  Pd23  1  0.002307  0.655615  0.997693  1
  Pd  Pd24  1  0.344385  0.997693  0.655615  1
  Pd  Pd25  1  0.984553  0.015447  0.346866  1
  Pd  Pd26  1  0.015447  0.984553  0.653134  1
  Pd  Pd27  1  0.653134  0.346866  0.015447  1
  Pd  Pd28  1  0.346866  0.653134  0.984553  1
