# generated using pymatgen
data_PrEr7(Si4W3)4
_symmetry_space_group_name_H-M   'P 1'
_cell_length_a   6.77331697
_cell_length_b   6.93752909
_cell_length_c   12.90408183
_cell_angle_alpha   89.90647627
_cell_angle_beta   90.02519022
_cell_angle_gamma   89.94091913
_symmetry_Int_Tables_number   1
_chemical_formula_structural   PrEr7(Si4W3)4
_chemical_formula_sum   'Pr1 Er7 Si16 W12'
_cell_volume   606.36269319
_cell_formula_units_Z   1
loop_
 _symmetry_equiv_pos_site_id
 _symmetry_equiv_pos_as_xyz
  1  'x, y, z'
loop_
 _atom_site_type_symbol
 _atom_site_label
 _atom_site_symmetry_multiplicity
 _atom_site_fract_x
 _atom_site_fract_y
 _atom_site_fract_z
 _atom_site_occupancy
  Pr  Pr0  1  0.997047  0.833949  0.591917  1
  Er  Er1  1  0.495391  0.667761  0.593437  1
  Er  Er2  1  0.995530  0.831920  0.906597  1
  Er  Er3  1  0.504776  0.331542  0.093387  1
  Er  Er4  1  0.005432  0.167699  0.405225  1
  Er  Er5  1  0.505323  0.332845  0.405492  1
  Er  Er6  1  0.004742  0.168138  0.093323  1
  Er  Er7  1  0.495160  0.668081  0.908143  1
  Si  Si8  1  0.659881  0.958750  0.451130  1
  Si  Si9  1  0.162286  0.541775  0.046991  1
  Si  Si10  1  0.337132  0.041567  0.954061  1
  Si  Si11  1  0.836244  0.453282  0.546173  1
  Si  Si12  1  0.343148  0.045247  0.545911  1
  Si  Si13  1  0.837754  0.458676  0.953585  1
  Si  Si14  1  0.662419  0.958437  0.046959  1
  Si  Si15  1  0.162918  0.539107  0.451165  1
  Si  Si16  1  0.464117  0.371778  0.750831  1
  Si  Si17  1  0.963217  0.132589  0.752032  1
  Si  Si18  1  0.535477  0.628686  0.249197  1
  Si  Si19  1  0.035597  0.870509  0.249822  1
  Si  Si20  1  0.693417  0.866398  0.752070  1
  Si  Si21  1  0.199725  0.631609  0.752127  1
  Si  Si22  1  0.303327  0.134033  0.249434  1
  Si  Si23  1  0.802763  0.365129  0.249175  1
  W  W24  1  0.666060  0.165139  0.626513  1
  W  W25  1  0.168916  0.336983  0.875932  1
  W  W26  1  0.331115  0.836404  0.125437  1
  W  W27  1  0.830130  0.661053  0.372893  1
  W  W28  1  0.332674  0.836161  0.373442  1
  W  W29  1  0.831686  0.662979  0.125256  1
  W  W30  1  0.667267  0.164117  0.875665  1
  W  W31  1  0.168835  0.336796  0.625846  1
  W  W32  1  0.833159  0.499583  0.751093  1
  W  W33  1  0.334606  0.001903  0.751534  1
  W  W34  1  0.166106  0.498955  0.249204  1
  W  W35  1  0.666625  0.000423  0.248998  1
