# generated using pymatgen
data_CaLuBO4
_symmetry_space_group_name_H-M   'P 1'
_cell_length_a   3.53113700
_cell_length_b   9.55990800
_cell_length_c   10.43971800
_cell_angle_alpha   90.00000000
_cell_angle_beta   90.00000000
_cell_angle_gamma   90.00000000
_symmetry_Int_Tables_number   1
_chemical_formula_structural   CaLuBO4
_chemical_formula_sum   'Ca4 Lu4 B4 O16'
_cell_volume   352.41716072
_cell_formula_units_Z   4
loop_
 _symmetry_equiv_pos_site_id
 _symmetry_equiv_pos_as_xyz
  1  'x, y, z'
loop_
 _atom_site_type_symbol
 _atom_site_label
 _atom_site_symmetry_multiplicity
 _atom_site_fract_x
 _atom_site_fract_y
 _atom_site_fract_z
 _atom_site_occupancy
  Ca  Ca0  1  0.250000  0.668841  0.084381  1
  Ca  Ca1  1  0.750000  0.331159  0.915619  1
  Ca  Ca2  1  0.750000  0.168841  0.415619  1
  Ca  Ca3  1  0.250000  0.831159  0.584381  1
  Lu  Lu4  1  0.250000  0.085694  0.110602  1
  Lu  Lu5  1  0.750000  0.914306  0.889398  1
  Lu  Lu6  1  0.750000  0.585694  0.389398  1
  Lu  Lu7  1  0.250000  0.414306  0.610602  1
  B  B8  1  0.250000  0.366930  0.200462  1
  B  B9  1  0.750000  0.633070  0.799538  1
  B  B10  1  0.750000  0.866930  0.299538  1
  B  B11  1  0.250000  0.133070  0.700462  1
  O  O12  1  0.250000  0.498786  0.255410  1
  O  O13  1  0.750000  0.501214  0.744590  1
  O  O14  1  0.750000  0.998786  0.244590  1
  O  O15  1  0.250000  0.001214  0.755410  1
  O  O16  1  0.250000  0.244858  0.273670  1
  O  O17  1  0.750000  0.755142  0.726330  1
  O  O18  1  0.750000  0.744858  0.226330  1
  O  O19  1  0.250000  0.255142  0.773670  1
  O  O20  1  0.250000  0.351971  0.067634  1
  O  O21  1  0.750000  0.648029  0.932366  1
  O  O22  1  0.750000  0.851971  0.432366  1
  O  O23  1  0.250000  0.148029  0.567634  1
  O  O24  1  0.250000  0.612413  0.505396  1
  O  O25  1  0.750000  0.387587  0.494604  1
  O  O26  1  0.750000  0.112413  0.994604  1
  O  O27  1  0.250000  0.887587  0.005396  1
