# generated using pymatgen
data_Lu5(CoTe)2
_symmetry_space_group_name_H-M   'P 1'
_cell_length_a   3.95454300
_cell_length_b   7.54936260
_cell_length_c   14.72830400
_cell_angle_alpha   90.00000000
_cell_angle_beta   90.00000000
_cell_angle_gamma   74.81643782
_symmetry_Int_Tables_number   1
_chemical_formula_structural   Lu5(CoTe)2
_chemical_formula_sum   'Lu10 Co4 Te4'
_cell_volume   424.35360572
_cell_formula_units_Z   2
loop_
 _symmetry_equiv_pos_site_id
 _symmetry_equiv_pos_as_xyz
  1  'x, y, z'
loop_
 _atom_site_type_symbol
 _atom_site_label
 _atom_site_symmetry_multiplicity
 _atom_site_fract_x
 _atom_site_fract_y
 _atom_site_fract_z
 _atom_site_occupancy
  Lu  Lu0  1  0.037880  0.924238  0.129201  1
  Lu  Lu1  1  0.742064  0.515872  0.133276  1
  Lu  Lu2  1  0.393239  0.213518  0.250000  1
  Lu  Lu3  1  0.742064  0.515872  0.366725  1
  Lu  Lu4  1  0.037880  0.924238  0.370799  1
  Lu  Lu5  1  0.962118  0.075763  0.629201  1
  Lu  Lu6  1  0.257935  0.484128  0.633275  1
  Lu  Lu7  1  0.606759  0.786483  0.750000  1
  Lu  Lu8  1  0.257935  0.484128  0.866724  1
  Lu  Lu9  1  0.962118  0.075763  0.870800  1
  Co  Co10  1  0.179512  0.640973  0.250000  1
  Co  Co11  1  0.588567  0.822865  0.250000  1
  Co  Co12  1  0.411432  0.177134  0.750000  1
  Co  Co13  1  0.820487  0.359026  0.750000  1
  Te  Te14  1  0.380848  0.238303  0.037777  1
  Te  Te15  1  0.380848  0.238303  0.462223  1
  Te  Te16  1  0.619152  0.761695  0.537777  1
  Te  Te17  1  0.619152  0.761695  0.962223  1
