# generated using pymatgen
data_La3NdCu8
_symmetry_space_group_name_H-M   'P 1'
_cell_length_a   4.03202900
_cell_length_b   4.03202900
_cell_length_c   15.58414500
_cell_angle_alpha   90.00000000
_cell_angle_beta   90.00000000
_cell_angle_gamma   90.00000000
_symmetry_Int_Tables_number   1
_chemical_formula_structural   La3NdCu8
_chemical_formula_sum   'La3 Nd1 Cu8'
_cell_volume   253.35546374
_cell_formula_units_Z   1
loop_
 _symmetry_equiv_pos_site_id
 _symmetry_equiv_pos_as_xyz
  1  'x, y, z'
loop_
 _atom_site_type_symbol
 _atom_site_label
 _atom_site_symmetry_multiplicity
 _atom_site_fract_x
 _atom_site_fract_y
 _atom_site_fract_z
 _atom_site_occupancy
  La  La0  1  0.000000  0.000000  0.500000  1
  La  La1  1  0.500000  0.000000  0.752632  1
  La  La2  1  0.000000  0.500000  0.247368  1
  Nd  Nd3  1  0.500000  0.500000  0.000000  1
  Cu  Cu4  1  0.000000  0.000000  0.921029  1
  Cu  Cu5  1  0.500000  0.500000  0.418549  1
  Cu  Cu6  1  0.000000  0.500000  0.833798  1
  Cu  Cu7  1  0.500000  0.000000  0.328415  1
  Cu  Cu8  1  0.000000  0.000000  0.078971  1
  Cu  Cu9  1  0.500000  0.500000  0.581451  1
  Cu  Cu10  1  0.500000  0.000000  0.166202  1
  Cu  Cu11  1  0.000000  0.500000  0.671585  1
