# generated using pymatgen
data_Tm12InCo4Rh
_symmetry_space_group_name_H-M   'P 1'
_cell_length_a   8.17043972
_cell_length_b   8.17041984
_cell_length_c   8.17044136
_cell_angle_alpha   110.97751399
_cell_angle_beta   110.94404987
_cell_angle_gamma   106.53158464
_symmetry_Int_Tables_number   1
_chemical_formula_structural   Tm12InCo4Rh
_chemical_formula_sum   'Tm12 In1 Co4 Rh1'
_cell_volume   419.04456931
_cell_formula_units_Z   1
loop_
 _symmetry_equiv_pos_site_id
 _symmetry_equiv_pos_as_xyz
  1  'x, y, z'
loop_
 _atom_site_type_symbol
 _atom_site_label
 _atom_site_symmetry_multiplicity
 _atom_site_fract_x
 _atom_site_fract_y
 _atom_site_fract_z
 _atom_site_occupancy
  Tm  Tm0  1  0.186492  0.289330  0.475821  1
  Tm  Tm1  1  0.813508  0.710670  0.524179  1
  Tm  Tm2  1  0.186491  0.710670  0.897162  1
  Tm  Tm3  1  0.813509  0.289330  0.102838  1
  Tm  Tm4  1  0.313955  0.618551  0.304596  1
  Tm  Tm5  1  0.686045  0.381449  0.695404  1
  Tm  Tm6  1  0.313948  0.009351  0.695403  1
  Tm  Tm7  1  0.686052  0.990649  0.304597  1
  Tm  Tm8  1  0.410597  0.215536  0.195054  1
  Tm  Tm9  1  0.589403  0.784464  0.804946  1
  Tm  Tm10  1  0.020482  0.215536  0.804940  1
  Tm  Tm11  1  0.979518  0.784464  0.195060  1
  In  In12  1  0.500000  0.500000  0.000000  1
  Co  Co13  1  0.112661  0.612659  0.499999  1
  Co  Co14  1  0.887339  0.387341  0.500001  1
  Co  Co15  1  0.377606  0.000000  0.377606  1
  Co  Co16  1  0.622394  0.000000  0.622394  1
  Rh  Rh17  1  0.000000  0.000000  0.000000  1
