# generated using pymatgen
data_Sr8Yb7Y5Pt16
_symmetry_space_group_name_H-M   'P 1'
_cell_length_a   7.69745776
_cell_length_b   7.83268505
_cell_length_c   14.92046191
_cell_angle_alpha   90.03553075
_cell_angle_beta   90.01858828
_cell_angle_gamma   90.04745612
_symmetry_Int_Tables_number   1
_chemical_formula_structural   Sr8Yb7Y5Pt16
_chemical_formula_sum   'Sr8 Yb7 Y5 Pt16'
_cell_volume   899.58041437
_cell_formula_units_Z   1
loop_
 _symmetry_equiv_pos_site_id
 _symmetry_equiv_pos_as_xyz
  1  'x, y, z'
loop_
 _atom_site_type_symbol
 _atom_site_label
 _atom_site_symmetry_multiplicity
 _atom_site_fract_x
 _atom_site_fract_y
 _atom_site_fract_z
 _atom_site_occupancy
  Sr  Sr0  1  0.499480  0.326557  0.902766  1
  Sr  Sr1  1  0.000104  0.174400  0.595593  1
  Sr  Sr2  1  0.499177  0.675038  0.405115  1
  Sr  Sr3  1  0.001613  0.823506  0.095689  1
  Sr  Sr4  1  0.501033  0.676086  0.096896  1
  Sr  Sr5  1  0.001515  0.822579  0.403818  1
  Sr  Sr6  1  0.498751  0.322941  0.597129  1
  Sr  Sr7  1  0.998741  0.177104  0.902155  1
  Yb  Yb8  1  0.161490  0.332933  0.377212  1
  Yb  Yb9  1  0.338997  0.832278  0.623069  1
  Yb  Yb10  1  0.839683  0.667792  0.876890  1
  Yb  Yb11  1  0.177515  0.495565  0.749297  1
  Yb  Yb12  1  0.678143  0.004890  0.749543  1
  Yb  Yb13  1  0.823555  0.507047  0.251106  1
  Yb  Yb14  1  0.320096  0.993708  0.251087  1
  Y  Y15  1  0.339380  0.834316  0.876197  1
  Y  Y16  1  0.838844  0.666556  0.623936  1
  Y  Y17  1  0.660305  0.166902  0.376005  1
  Y  Y18  1  0.160524  0.332895  0.123832  1
  Y  Y19  1  0.661386  0.167910  0.123646  1
  Pt  Pt20  1  0.333383  0.045106  0.043526  1
  Pt  Pt21  1  0.830585  0.456115  0.457654  1
  Pt  Pt22  1  0.668883  0.955970  0.542446  1
  Pt  Pt23  1  0.167139  0.544437  0.957943  1
  Pt  Pt24  1  0.660832  0.961915  0.957424  1
  Pt  Pt25  1  0.157491  0.539973  0.544234  1
  Pt  Pt26  1  0.342144  0.040118  0.455311  1
  Pt  Pt27  1  0.839396  0.454124  0.044274  1
  Pt  Pt28  1  0.545493  0.635142  0.752401  1
  Pt  Pt29  1  0.045613  0.866038  0.748457  1
  Pt  Pt30  1  0.457068  0.364776  0.248619  1
  Pt  Pt31  1  0.953342  0.134984  0.247780  1
  Pt  Pt32  1  0.301743  0.121219  0.752106  1
  Pt  Pt33  1  0.801876  0.379248  0.747504  1
  Pt  Pt34  1  0.695299  0.880083  0.250764  1
  Pt  Pt35  1  0.199379  0.619750  0.248575  1
