# generated using pymatgen
data_CaY(SiRh2)2
_symmetry_space_group_name_H-M   'P 1'
_cell_length_a   5.59995700
_cell_length_b   5.59995673
_cell_length_c   14.98749800
_cell_angle_alpha   90.00000000
_cell_angle_beta   90.00000000
_cell_angle_gamma   119.99999568
_symmetry_Int_Tables_number   1
_chemical_formula_structural   CaY(SiRh2)2
_chemical_formula_sum   'Ca3 Y3 Si6 Rh12'
_cell_volume   407.03256088
_cell_formula_units_Z   3
loop_
 _symmetry_equiv_pos_site_id
 _symmetry_equiv_pos_as_xyz
  1  'x, y, z'
loop_
 _atom_site_type_symbol
 _atom_site_label
 _atom_site_symmetry_multiplicity
 _atom_site_fract_x
 _atom_site_fract_y
 _atom_site_fract_z
 _atom_site_occupancy
  Ca  Ca0  1  0.666667  0.333333  0.958934  1
  Ca  Ca1  1  0.666667  0.333333  0.753353  1
  Ca  Ca2  1  0.333333  0.666667  0.249595  1
  Y  Y3  1  0.666667  0.333333  0.542118  1
  Y  Y4  1  0.333333  0.666667  0.038639  1
  Y  Y5  1  0.333333  0.666667  0.459550  1
  Si  Si6  1  0.666667  0.333333  0.250201  1
  Si  Si7  1  0.000000  0.000000  0.500019  1
  Si  Si8  1  0.000000  0.000000  0.250108  1
  Si  Si9  1  0.000000  0.000000  0.749039  1
  Si  Si10  1  0.333333  0.666667  0.749394  1
  Si  Si11  1  0.000000  0.000000  0.999733  1
  Rh  Rh12  1  0.166303  0.332605  0.868770  1
  Rh  Rh13  1  0.166709  0.333418  0.629830  1
  Rh  Rh14  1  0.667395  0.833697  0.868770  1
  Rh  Rh15  1  0.333442  0.166721  0.370197  1
  Rh  Rh16  1  0.833279  0.666558  0.370197  1
  Rh  Rh17  1  0.833279  0.166721  0.370197  1
  Rh  Rh18  1  0.833790  0.166210  0.130975  1
  Rh  Rh19  1  0.332421  0.166210  0.130975  1
  Rh  Rh20  1  0.666582  0.833291  0.629830  1
  Rh  Rh21  1  0.166709  0.833291  0.629830  1
  Rh  Rh22  1  0.833790  0.667579  0.130975  1
  Rh  Rh23  1  0.166303  0.833697  0.868770  1
