# generated using pymatgen
data_Nd5Sm3(Hf3Sn4)4
_symmetry_space_group_name_H-M   'P 1'
_cell_length_a   7.84772118
_cell_length_b   7.86260409
_cell_length_c   14.67800342
_cell_angle_alpha   90.01507780
_cell_angle_beta   89.97706015
_cell_angle_gamma   90.00805412
_symmetry_Int_Tables_number   1
_chemical_formula_structural   Nd5Sm3(Hf3Sn4)4
_chemical_formula_sum   'Nd5 Sm3 Hf12 Sn16'
_cell_volume   905.68443230
_cell_formula_units_Z   1
loop_
 _symmetry_equiv_pos_site_id
 _symmetry_equiv_pos_as_xyz
  1  'x, y, z'
loop_
 _atom_site_type_symbol
 _atom_site_label
 _atom_site_symmetry_multiplicity
 _atom_site_fract_x
 _atom_site_fract_y
 _atom_site_fract_z
 _atom_site_occupancy
  Nd  Nd0  1  0.511696  0.324515  0.908333  1
  Nd  Nd1  1  0.011732  0.175382  0.591578  1
  Nd  Nd2  1  0.488316  0.675359  0.408386  1
  Nd  Nd3  1  0.988239  0.824734  0.091585  1
  Nd  Nd4  1  0.488231  0.675425  0.091731  1
  Sm  Sm5  1  0.988144  0.824295  0.408099  1
  Sm  Sm6  1  0.511910  0.324239  0.591969  1
  Sm  Sm7  1  0.011844  0.175713  0.907963  1
  Hf  Hf8  1  0.346556  0.838856  0.868748  1
  Hf  Hf9  1  0.846723  0.661285  0.631096  1
  Hf  Hf10  1  0.653326  0.161304  0.368973  1
  Hf  Hf11  1  0.153125  0.338541  0.131127  1
  Hf  Hf12  1  0.653294  0.161298  0.131220  1
  Hf  Hf13  1  0.153148  0.338541  0.368865  1
  Hf  Hf14  1  0.346726  0.838616  0.631173  1
  Hf  Hf15  1  0.846721  0.661362  0.868789  1
  Hf  Hf16  1  0.167062  0.512796  0.750006  1
  Hf  Hf17  1  0.667075  0.987262  0.749957  1
  Hf  Hf18  1  0.833048  0.487193  0.250091  1
  Hf  Hf19  1  0.332872  0.012926  0.250050  1
  Sn  Sn20  1  0.315972  0.044333  0.043744  1
  Sn  Sn21  1  0.816275  0.456348  0.456200  1
  Sn  Sn22  1  0.683686  0.956367  0.543838  1
  Sn  Sn23  1  0.182949  0.543467  0.955904  1
  Sn  Sn24  1  0.684266  0.956446  0.955844  1
  Sn  Sn25  1  0.183962  0.544005  0.543954  1
  Sn  Sn26  1  0.316026  0.043960  0.456067  1
  Sn  Sn27  1  0.816951  0.455447  0.043824  1
  Sn  Sn28  1  0.540516  0.618007  0.749779  1
  Sn  Sn29  1  0.040522  0.882034  0.750196  1
  Sn  Sn30  1  0.459498  0.381444  0.250030  1
  Sn  Sn31  1  0.959470  0.118001  0.250224  1
  Sn  Sn32  1  0.315234  0.154699  0.749769  1
  Sn  Sn33  1  0.815276  0.345332  0.750232  1
  Sn  Sn34  1  0.685364  0.845840  0.250212  1
  Sn  Sn35  1  0.184244  0.654627  0.250442  1
