# generated using pymatgen
data_Y2TiSi3Ir4
_symmetry_space_group_name_H-M   'P 1'
_cell_length_a   4.07508000
_cell_length_b   4.07508000
_cell_length_c   10.44321800
_cell_angle_alpha   90.00000000
_cell_angle_beta   90.00000000
_cell_angle_gamma   90.00000000
_symmetry_Int_Tables_number   1
_chemical_formula_structural   Y2TiSi3Ir4
_chemical_formula_sum   'Y2 Ti1 Si3 Ir4'
_cell_volume   173.42297095
_cell_formula_units_Z   1
loop_
 _symmetry_equiv_pos_site_id
 _symmetry_equiv_pos_as_xyz
  1  'x, y, z'
loop_
 _atom_site_type_symbol
 _atom_site_label
 _atom_site_symmetry_multiplicity
 _atom_site_fract_x
 _atom_site_fract_y
 _atom_site_fract_z
 _atom_site_occupancy
  Y  Y0  1  0.500000  0.000000  0.240650  1
  Y  Y1  1  0.000000  0.500000  0.759350  1
  Ti  Ti2  1  0.500000  0.500000  0.500000  1
  Si  Si3  1  0.000000  0.000000  0.500000  1
  Si  Si4  1  0.000000  0.500000  0.126301  1
  Si  Si5  1  0.500000  0.000000  0.873699  1
  Ir  Ir6  1  0.000000  0.500000  0.356883  1
  Ir  Ir7  1  0.500000  0.000000  0.643117  1
  Ir  Ir8  1  0.500000  0.500000  0.000000  1
  Ir  Ir9  1  0.000000  0.000000  0.000000  1
