# generated using pymatgen
data_La6Y3Ho(Sn5Ir2)4
_symmetry_space_group_name_H-M   'P 1'
_cell_length_a   14.18855122
_cell_length_b   14.18855122
_cell_length_c   4.65688300
_cell_angle_alpha   90.00000000
_cell_angle_beta   90.00000000
_cell_angle_gamma   89.97998683
_symmetry_Int_Tables_number   1
_chemical_formula_structural   La6Y3Ho(Sn5Ir2)4
_chemical_formula_sum   'La6 Y3 Ho1 Sn20 Ir8'
_cell_volume   937.50027699
_cell_formula_units_Z   1
loop_
 _symmetry_equiv_pos_site_id
 _symmetry_equiv_pos_as_xyz
  1  'x, y, z'
loop_
 _atom_site_type_symbol
 _atom_site_label
 _atom_site_symmetry_multiplicity
 _atom_site_fract_x
 _atom_site_fract_y
 _atom_site_fract_z
 _atom_site_occupancy
  La  La0  1  0.500014  0.499984  0.000000  1
  La  La1  1  0.999984  0.000014  0.000000  1
  La  La2  1  0.886969  0.386969  0.500000  1
  La  La3  1  0.113006  0.613006  0.500000  1
  La  La4  1  0.387027  0.112995  0.500000  1
  La  La5  1  0.612995  0.887027  0.500000  1
  Y  Y6  1  0.324365  0.824365  0.500000  1
  Y  Y7  1  0.175642  0.324365  0.500000  1
  Y  Y8  1  0.824365  0.675642  0.500000  1
  Ho  Ho9  1  0.675531  0.175531  0.500000  1
  Sn  Sn10  1  0.570150  0.070150  0.000000  1
  Sn  Sn11  1  0.429991  0.929991  0.000000  1
  Sn  Sn12  1  0.070021  0.429974  0.000000  1
  Sn  Sn13  1  0.929974  0.570021  0.000000  1
  Sn  Sn14  1  0.655491  0.698251  0.000000  1
  Sn  Sn15  1  0.344537  0.301745  0.000000  1
  Sn  Sn16  1  0.155481  0.801750  0.000000  1
  Sn  Sn17  1  0.844411  0.198239  0.000000  1
  Sn  Sn18  1  0.301750  0.655481  0.000000  1
  Sn  Sn19  1  0.698239  0.344411  0.000000  1
  Sn  Sn20  1  0.198251  0.155491  0.000000  1
  Sn  Sn21  1  0.801745  0.844537  0.000000  1
  Sn  Sn22  1  0.663385  0.506138  0.500000  1
  Sn  Sn23  1  0.336611  0.493848  0.500000  1
  Sn  Sn24  1  0.163370  0.993858  0.500000  1
  Sn  Sn25  1  0.836574  0.006208  0.500000  1
  Sn  Sn26  1  0.493858  0.663370  0.500000  1
  Sn  Sn27  1  0.506208  0.336574  0.500000  1
  Sn  Sn28  1  0.006138  0.163385  0.500000  1
  Sn  Sn29  1  0.993848  0.836611  0.500000  1
  Ir  Ir30  1  0.747228  0.529329  0.000000  1
  Ir  Ir31  1  0.252761  0.470639  0.000000  1
  Ir  Ir32  1  0.247228  0.970636  0.000000  1
  Ir  Ir33  1  0.752644  0.029605  0.000000  1
  Ir  Ir34  1  0.470636  0.747228  0.000000  1
  Ir  Ir35  1  0.529605  0.252644  0.000000  1
  Ir  Ir36  1  0.029329  0.247228  0.000000  1
  Ir  Ir37  1  0.970639  0.752761  0.000000  1
