# generated using pymatgen
data_Dy17Y3Cd6TcRu
_symmetry_space_group_name_H-M   'P 1'
_cell_length_a   9.58220400
_cell_length_b   9.58220306
_cell_length_c   9.91705000
_cell_angle_alpha   90.00000000
_cell_angle_beta   90.00000000
_cell_angle_gamma   120.00000325
_symmetry_Int_Tables_number   1
_chemical_formula_structural   Dy17Y3Cd6TcRu
_chemical_formula_sum   'Dy17 Y3 Cd6 Tc1 Ru1'
_cell_volume   788.57663061
_cell_formula_units_Z   1
loop_
 _symmetry_equiv_pos_site_id
 _symmetry_equiv_pos_as_xyz
  1  'x, y, z'
loop_
 _atom_site_type_symbol
 _atom_site_label
 _atom_site_symmetry_multiplicity
 _atom_site_fract_x
 _atom_site_fract_y
 _atom_site_fract_z
 _atom_site_occupancy
  Dy  Dy0  1  0.000000  0.000000  0.500177  1
  Dy  Dy1  1  0.000000  0.000000  0.999823  1
  Dy  Dy2  1  0.209949  0.790051  0.441085  1
  Dy  Dy3  1  0.209949  0.419899  0.441085  1
  Dy  Dy4  1  0.580101  0.790051  0.441085  1
  Dy  Dy5  1  0.789857  0.210143  0.559392  1
  Dy  Dy6  1  0.789857  0.579713  0.559392  1
  Dy  Dy7  1  0.420287  0.210143  0.559392  1
  Dy  Dy8  1  0.789857  0.210143  0.940608  1
  Dy  Dy9  1  0.789857  0.579713  0.940608  1
  Dy  Dy10  1  0.420287  0.210143  0.940608  1
  Dy  Dy11  1  0.209949  0.790051  0.058915  1
  Dy  Dy12  1  0.209949  0.419899  0.058915  1
  Dy  Dy13  1  0.580101  0.790051  0.058915  1
  Dy  Dy14  1  0.458651  0.541349  0.750000  1
  Dy  Dy15  1  0.458651  0.917302  0.750000  1
  Dy  Dy16  1  0.082698  0.541349  0.750000  1
  Y  Y17  1  0.540205  0.459795  0.250000  1
  Y  Y18  1  0.540205  0.080409  0.250000  1
  Y  Y19  1  0.919591  0.459795  0.250000  1
  Cd  Cd20  1  0.885354  0.114646  0.250000  1
  Cd  Cd21  1  0.885354  0.770710  0.250000  1
  Cd  Cd22  1  0.229290  0.114646  0.250000  1
  Cd  Cd23  1  0.114484  0.885516  0.750000  1
  Cd  Cd24  1  0.114484  0.228967  0.750000  1
  Cd  Cd25  1  0.771033  0.885516  0.750000  1
  Tc  Tc26  1  0.333333  0.666667  0.250000  1
  Ru  Ru27  1  0.666667  0.333333  0.750000  1
