# generated using pymatgen
data_Tb2Dy2In(CoB3)2
_symmetry_space_group_name_H-M   'P 1'
_cell_length_a   5.35893312
_cell_length_b   5.35893276
_cell_length_c   8.18431975
_cell_angle_alpha   70.88954866
_cell_angle_beta   70.88955031
_cell_angle_gamma   60.00000321
_symmetry_Int_Tables_number   1
_chemical_formula_structural   Tb2Dy2In(CoB3)2
_chemical_formula_sum   'Tb2 Dy2 In1 Co2 B6'
_cell_volume   188.44406265
_cell_formula_units_Z   1
loop_
 _symmetry_equiv_pos_site_id
 _symmetry_equiv_pos_as_xyz
  1  'x, y, z'
loop_
 _atom_site_type_symbol
 _atom_site_label
 _atom_site_symmetry_multiplicity
 _atom_site_fract_x
 _atom_site_fract_y
 _atom_site_fract_z
 _atom_site_occupancy
  Tb  Tb0  1  0.252187  0.252187  0.243440  1
  Tb  Tb1  1  0.747813  0.747813  0.756560  1
  Dy  Dy2  1  0.414613  0.414613  0.756160  1
  Dy  Dy3  1  0.585387  0.585387  0.243840  1
  In  In4  1  0.000000  0.000000  0.000000  1
  Co  Co5  1  0.117356  0.117356  0.647933  1
  Co  Co6  1  0.882644  0.882644  0.352067  1
  B  B7  1  0.169201  0.830799  0.500000  1
  B  B8  1  0.830799  0.500000  0.500000  1
  B  B9  1  0.500000  0.169201  0.500000  1
  B  B10  1  0.169201  0.500000  0.500000  1
  B  B11  1  0.500000  0.830799  0.500000  1
  B  B12  1  0.830799  0.169201  0.500000  1
