# generated using pymatgen
data_TbNd4In3Br
_symmetry_space_group_name_H-M   'P 1'
_cell_length_a   9.52163100
_cell_length_b   9.52159270
_cell_length_c   6.80899700
_cell_angle_alpha   89.99991047
_cell_angle_beta   90.00003972
_cell_angle_gamma   119.99986955
_symmetry_Int_Tables_number   1
_chemical_formula_structural   TbNd4In3Br
_chemical_formula_sum   'Tb2 Nd8 In6 Br2'
_cell_volume   534.60780155
_cell_formula_units_Z   2
loop_
 _symmetry_equiv_pos_site_id
 _symmetry_equiv_pos_as_xyz
  1  'x, y, z'
loop_
 _atom_site_type_symbol
 _atom_site_label
 _atom_site_symmetry_multiplicity
 _atom_site_fract_x
 _atom_site_fract_y
 _atom_site_fract_z
 _atom_site_occupancy
  Tb  Tb0  1  0.333330  0.666666  0.500000  1
  Tb  Tb1  1  0.666670  0.333334  0.500000  1
  Nd  Nd2  1  0.733533  0.733534  0.252105  1
  Nd  Nd3  1  0.000000  0.733535  0.747898  1
  Nd  Nd4  1  0.733533  0.000000  0.747895  1
  Nd  Nd5  1  0.266467  0.266466  0.747895  1
  Nd  Nd6  1  0.000000  0.266465  0.252102  1
  Nd  Nd7  1  0.266467  0.000000  0.252105  1
  Nd  Nd8  1  0.333331  0.666666  0.000000  1
  Nd  Nd9  1  0.666669  0.333334  0.000000  1
  In  In10  1  0.393180  0.999999  0.744083  1
  In  In11  1  0.000000  0.606820  0.255916  1
  In  In12  1  0.606820  0.000001  0.255917  1
  In  In13  1  0.000000  0.393180  0.744084  1
  In  In14  1  0.393180  0.393182  0.255917  1
  In  In15  1  0.606820  0.606818  0.744083  1
  Br  Br16  1  0.000000  0.000000  0.500000  1
  Br  Br17  1  0.000000  0.000000  0.000000  1
