# generated using pymatgen
data_CeY3(SnPd)4
_symmetry_space_group_name_H-M   'P 1'
_cell_length_a   4.69058800
_cell_length_b   7.30931601
_cell_length_c   7.95478101
_cell_angle_alpha   90.00435354
_cell_angle_beta   90.00000000
_cell_angle_gamma   90.00000000
_symmetry_Int_Tables_number   1
_chemical_formula_structural   CeY3(SnPd)4
_chemical_formula_sum   'Ce1 Y3 Sn4 Pd4'
_cell_volume   272.72958599
_cell_formula_units_Z   1
loop_
 _symmetry_equiv_pos_site_id
 _symmetry_equiv_pos_as_xyz
  1  'x, y, z'
loop_
 _atom_site_type_symbol
 _atom_site_label
 _atom_site_symmetry_multiplicity
 _atom_site_fract_x
 _atom_site_fract_y
 _atom_site_fract_z
 _atom_site_occupancy
  Ce  Ce0  1  0.250000  0.990181  0.293551  1
  Y  Y1  1  0.250000  0.491454  0.202742  1
  Y  Y2  1  0.750000  0.009624  0.709267  1
  Y  Y3  1  0.750000  0.509172  0.795580  1
  Sn  Sn4  1  0.250000  0.307076  0.588215  1
  Sn  Sn5  1  0.250000  0.808471  0.909026  1
  Sn  Sn6  1  0.750000  0.693458  0.412831  1
  Sn  Sn7  1  0.750000  0.193651  0.087918  1
  Pd  Pd8  1  0.250000  0.210781  0.916996  1
  Pd  Pd9  1  0.250000  0.698893  0.583890  1
  Pd  Pd10  1  0.750000  0.786994  0.079496  1
  Pd  Pd11  1  0.750000  0.300245  0.420488  1
