# generated using pymatgen
data_Sm4AsBr6
_symmetry_space_group_name_H-M   'P 1'
_cell_length_a   4.13885600
_cell_length_b   13.52044400
_cell_length_c   14.28349700
_cell_angle_alpha   90.00000000
_cell_angle_beta   90.00000000
_cell_angle_gamma   90.00000000
_symmetry_Int_Tables_number   1
_chemical_formula_structural   Sm4AsBr6
_chemical_formula_sum   'Sm8 As2 Br12'
_cell_volume   799.29264785
_cell_formula_units_Z   2
loop_
 _symmetry_equiv_pos_site_id
 _symmetry_equiv_pos_as_xyz
  1  'x, y, z'
loop_
 _atom_site_type_symbol
 _atom_site_label
 _atom_site_symmetry_multiplicity
 _atom_site_fract_x
 _atom_site_fract_y
 _atom_site_fract_z
 _atom_site_occupancy
  Sm  Sm0  1  0.500000  0.119351  0.340019  1
  Sm  Sm1  1  0.500000  0.880649  0.659981  1
  Sm  Sm2  1  0.500000  0.619351  0.159981  1
  Sm  Sm3  1  0.500000  0.380649  0.840019  1
  Sm  Sm4  1  0.000000  0.118403  0.578600  1
  Sm  Sm5  1  0.000000  0.881597  0.421400  1
  Sm  Sm6  1  0.000000  0.618403  0.921400  1
  Sm  Sm7  1  0.000000  0.381597  0.078600  1
  As  As8  1  0.500000  0.000000  0.500000  1
  As  As9  1  0.500000  0.500000  0.000000  1
  Br  Br10  1  0.500000  0.243458  0.162714  1
  Br  Br11  1  0.500000  0.756542  0.837286  1
  Br  Br12  1  0.500000  0.743458  0.337286  1
  Br  Br13  1  0.500000  0.256542  0.662714  1
  Br  Br14  1  0.000000  0.255226  0.412243  1
  Br  Br15  1  0.000000  0.744774  0.587757  1
  Br  Br16  1  0.000000  0.755226  0.087757  1
  Br  Br17  1  0.000000  0.244774  0.912243  1
  Br  Br18  1  0.000000  0.000911  0.243582  1
  Br  Br19  1  0.000000  0.999089  0.756418  1
  Br  Br20  1  0.000000  0.500911  0.256418  1
  Br  Br21  1  0.000000  0.499089  0.743582  1
