# generated using pymatgen
data_TbTiMn3CoP3
_symmetry_space_group_name_H-M   'P 1'
_cell_length_a   3.62952600
_cell_length_b   10.75172600
_cell_length_c   12.37706000
_cell_angle_alpha   90.00000000
_cell_angle_beta   90.00000000
_cell_angle_gamma   90.00000000
_symmetry_Int_Tables_number   1
_chemical_formula_structural   TbTiMn3CoP3
_chemical_formula_sum   'Tb4 Ti4 Mn12 Co4 P12'
_cell_volume   482.99829340
_cell_formula_units_Z   4
loop_
 _symmetry_equiv_pos_site_id
 _symmetry_equiv_pos_as_xyz
  1  'x, y, z'
loop_
 _atom_site_type_symbol
 _atom_site_label
 _atom_site_symmetry_multiplicity
 _atom_site_fract_x
 _atom_site_fract_y
 _atom_site_fract_z
 _atom_site_occupancy
  Tb  Tb0  1  0.250000  0.584732  0.709384  1
  Tb  Tb1  1  0.250000  0.915268  0.209384  1
  Tb  Tb2  1  0.750000  0.415268  0.290616  1
  Tb  Tb3  1  0.750000  0.084732  0.790616  1
  Ti  Ti4  1  0.250000  0.703628  0.986117  1
  Ti  Ti5  1  0.250000  0.796372  0.486117  1
  Ti  Ti6  1  0.750000  0.296372  0.013883  1
  Ti  Ti7  1  0.750000  0.203628  0.513883  1
  Mn  Mn8  1  0.250000  0.408946  0.493283  1
  Mn  Mn9  1  0.250000  0.091054  0.993283  1
  Mn  Mn10  1  0.750000  0.591054  0.506717  1
  Mn  Mn11  1  0.750000  0.908946  0.006717  1
  Mn  Mn12  1  0.250000  0.215610  0.177051  1
  Mn  Mn13  1  0.250000  0.284390  0.677051  1
  Mn  Mn14  1  0.750000  0.784390  0.822949  1
  Mn  Mn15  1  0.750000  0.715610  0.322949  1
  Mn  Mn16  1  0.250000  0.879715  0.698117  1
  Mn  Mn17  1  0.250000  0.620285  0.198117  1
  Mn  Mn18  1  0.750000  0.120285  0.301883  1
  Mn  Mn19  1  0.750000  0.379715  0.801883  1
  Co  Co20  1  0.250000  0.463200  0.934818  1
  Co  Co21  1  0.250000  0.036800  0.434818  1
  Co  Co22  1  0.750000  0.536800  0.065182  1
  Co  Co23  1  0.750000  0.963200  0.565182  1
  P  P24  1  0.250000  0.423863  0.113511  1
  P  P25  1  0.250000  0.076137  0.613511  1
  P  P26  1  0.750000  0.576137  0.886489  1
  P  P27  1  0.750000  0.923863  0.386489  1
  P  P28  1  0.250000  0.266488  0.868633  1
  P  P29  1  0.250000  0.233512  0.368633  1
  P  P30  1  0.750000  0.733512  0.131367  1
  P  P31  1  0.750000  0.766488  0.631367  1
  P  P32  1  0.250000  0.589872  0.384821  1
  P  P33  1  0.250000  0.910128  0.884821  1
  P  P34  1  0.750000  0.410128  0.615179  1
  P  P35  1  0.750000  0.089872  0.115179  1
