# generated using pymatgen
data_Pr3CBrCl4
_symmetry_space_group_name_H-M   'P 1'
_cell_length_a   7.54167307
_cell_length_b   8.93420471
_cell_length_c   9.01467011
_cell_angle_alpha   108.14261794
_cell_angle_beta   97.33098821
_cell_angle_gamma   105.92080791
_symmetry_Int_Tables_number   1
_chemical_formula_structural   Pr3CBrCl4
_chemical_formula_sum   'Pr6 C2 Br2 Cl8'
_cell_volume   539.76990623
_cell_formula_units_Z   2
loop_
 _symmetry_equiv_pos_site_id
 _symmetry_equiv_pos_as_xyz
  1  'x, y, z'
loop_
 _atom_site_type_symbol
 _atom_site_label
 _atom_site_symmetry_multiplicity
 _atom_site_fract_x
 _atom_site_fract_y
 _atom_site_fract_z
 _atom_site_occupancy
  Pr  Pr0  1  0.879861  0.950016  0.234076  1
  Pr  Pr1  1  0.120139  0.049984  0.765924  1
  Pr  Pr2  1  0.032678  0.713396  0.914113  1
  Pr  Pr3  1  0.967322  0.286604  0.085887  1
  Pr  Pr4  1  0.603898  0.844275  0.788406  1
  Pr  Pr5  1  0.396102  0.155725  0.211594  1
  C  C6  1  0.907328  0.964793  0.951424  1
  C  C7  1  0.092672  0.035207  0.048576  1
  Br  Br8  1  0.643373  0.516313  0.713247  1
  Br  Br9  1  0.356627  0.483687  0.286753  1
  Cl  Cl10  1  0.759378  0.919900  0.539675  1
  Cl  Cl11  1  0.240622  0.080100  0.460325  1
  Cl  Cl12  1  0.459044  0.827407  0.078291  1
  Cl  Cl13  1  0.540956  0.172593  0.921709  1
  Cl  Cl14  1  0.816769  0.259255  0.351260  1
  Cl  Cl15  1  0.183231  0.740745  0.648740  1
  Cl  Cl16  1  0.911945  0.627878  0.169928  1
  Cl  Cl17  1  0.088055  0.372122  0.830072  1
