# generated using pymatgen
data_CeDy2Mg3Ir2Pt
_symmetry_space_group_name_H-M   'P 1'
_cell_length_a   7.31256185
_cell_length_b   7.54314731
_cell_length_c   4.01518700
_cell_angle_alpha   90.00000000
_cell_angle_beta   90.00000000
_cell_angle_gamma   121.04870062
_symmetry_Int_Tables_number   1
_chemical_formula_structural   CeDy2Mg3Ir2Pt
_chemical_formula_sum   'Ce1 Dy2 Mg3 Ir2 Pt1'
_cell_volume   189.74550463
_cell_formula_units_Z   1
loop_
 _symmetry_equiv_pos_site_id
 _symmetry_equiv_pos_as_xyz
  1  'x, y, z'
loop_
 _atom_site_type_symbol
 _atom_site_label
 _atom_site_symmetry_multiplicity
 _atom_site_fract_x
 _atom_site_fract_y
 _atom_site_fract_z
 _atom_site_occupancy
  Ce  Ce0  1  0.000000  0.426611  0.000000  1
  Dy  Dy1  1  0.587992  0.587406  0.000000  1
  Dy  Dy2  1  0.412008  0.999414  0.000000  1
  Mg  Mg3  1  0.000000  0.759999  0.500000  1
  Mg  Mg4  1  0.249475  0.247032  0.500000  1
  Mg  Mg5  1  0.750525  0.997557  0.500000  1
  Ir  Ir6  1  0.321282  0.653848  0.500000  1
  Ir  Ir7  1  0.678718  0.332564  0.500000  1
  Pt  Pt8  1  0.000000  0.995569  0.000000  1
