# generated using pymatgen
data_Th8Si12PdRh3
_symmetry_space_group_name_H-M   'P 1'
_cell_length_a   8.24574700
_cell_length_b   8.24574729
_cell_length_c   8.45692000
_cell_angle_alpha   90.00000000
_cell_angle_beta   90.00000000
_cell_angle_gamma   119.99999482
_symmetry_Int_Tables_number   1
_chemical_formula_structural   Th8Si12PdRh3
_chemical_formula_sum   'Th8 Si12 Pd1 Rh3'
_cell_volume   497.96968265
_cell_formula_units_Z   1
loop_
 _symmetry_equiv_pos_site_id
 _symmetry_equiv_pos_as_xyz
  1  'x, y, z'
loop_
 _atom_site_type_symbol
 _atom_site_label
 _atom_site_symmetry_multiplicity
 _atom_site_fract_x
 _atom_site_fract_y
 _atom_site_fract_z
 _atom_site_occupancy
  Th  Th0  1  0.497558  0.502442  0.752120  1
  Th  Th1  1  0.498187  0.501813  0.248004  1
  Th  Th2  1  0.004885  0.502442  0.752120  1
  Th  Th3  1  0.003626  0.501813  0.248004  1
  Th  Th4  1  0.497558  0.995115  0.752120  1
  Th  Th5  1  0.498187  0.996374  0.248004  1
  Th  Th6  1  0.000000  0.000000  0.750028  1
  Th  Th7  1  0.000000  0.000000  0.249938  1
  Si  Si8  1  0.832961  0.167039  0.999176  1
  Si  Si9  1  0.165784  0.834216  0.000718  1
  Si  Si10  1  0.334078  0.167039  0.999176  1
  Si  Si11  1  0.166892  0.833108  0.499417  1
  Si  Si12  1  0.668432  0.834216  0.000718  1
  Si  Si13  1  0.834768  0.165232  0.500555  1
  Si  Si14  1  0.832961  0.665922  0.999176  1
  Si  Si15  1  0.666217  0.833108  0.499417  1
  Si  Si16  1  0.165784  0.331568  0.000718  1
  Si  Si17  1  0.330464  0.165232  0.500555  1
  Si  Si18  1  0.166892  0.333783  0.499417  1
  Si  Si19  1  0.834768  0.669536  0.500555  1
  Pd  Pd20  1  0.666667  0.333333  0.501366  1
  Rh  Rh21  1  0.666667  0.333333  0.999002  1
  Rh  Rh22  1  0.333333  0.666667  0.000717  1
  Rh  Rh23  1  0.333333  0.666667  0.498977  1
