# generated using pymatgen
data_Rb2Ti(CuSe2)2
_symmetry_space_group_name_H-M   'P 1'
_cell_length_a   5.83875600
_cell_length_b   5.83875600
_cell_length_c   13.99310400
_cell_angle_alpha   90.00000000
_cell_angle_beta   90.00000000
_cell_angle_gamma   90.00000000
_symmetry_Int_Tables_number   1
_chemical_formula_structural   Rb2Ti(CuSe2)2
_chemical_formula_sum   'Rb4 Ti2 Cu4 Se8'
_cell_volume   477.03991076
_cell_formula_units_Z   2
loop_
 _symmetry_equiv_pos_site_id
 _symmetry_equiv_pos_as_xyz
  1  'x, y, z'
loop_
 _atom_site_type_symbol
 _atom_site_label
 _atom_site_symmetry_multiplicity
 _atom_site_fract_x
 _atom_site_fract_y
 _atom_site_fract_z
 _atom_site_occupancy
  Rb  Rb0  1  0.257642  0.257642  0.000000  1
  Rb  Rb1  1  0.742358  0.742358  0.000000  1
  Rb  Rb2  1  0.742358  0.257642  0.500000  1
  Rb  Rb3  1  0.257642  0.742358  0.500000  1
  Ti  Ti4  1  0.000000  0.000000  0.250000  1
  Ti  Ti5  1  0.000000  0.000000  0.750000  1
  Cu  Cu6  1  0.000000  0.500000  0.250000  1
  Cu  Cu7  1  0.000000  0.500000  0.750000  1
  Cu  Cu8  1  0.500000  0.000000  0.750000  1
  Cu  Cu9  1  0.500000  0.000000  0.250000  1
  Se  Se10  1  0.241616  0.241616  0.348322  1
  Se  Se11  1  0.758384  0.758384  0.651678  1
  Se  Se12  1  0.758384  0.758384  0.348322  1
  Se  Se13  1  0.758384  0.241616  0.848322  1
  Se  Se14  1  0.758384  0.241616  0.151678  1
  Se  Se15  1  0.241616  0.241616  0.651678  1
  Se  Se16  1  0.241616  0.758384  0.151678  1
  Se  Se17  1  0.241616  0.758384  0.848322  1
