# generated using pymatgen
data_LaY2AuO7
_symmetry_space_group_name_H-M   'P 1'
_cell_length_a   6.54959100
_cell_length_b   6.54959074
_cell_length_c   7.58766100
_cell_angle_alpha   90.00000000
_cell_angle_beta   90.00000000
_cell_angle_gamma   108.81817440
_symmetry_Int_Tables_number   1
_chemical_formula_structural   LaY2AuO7
_chemical_formula_sum   'La2 Y4 Au2 O14'
_cell_volume   308.09059556
_cell_formula_units_Z   2
loop_
 _symmetry_equiv_pos_site_id
 _symmetry_equiv_pos_as_xyz
  1  'x, y, z'
loop_
 _atom_site_type_symbol
 _atom_site_label
 _atom_site_symmetry_multiplicity
 _atom_site_fract_x
 _atom_site_fract_y
 _atom_site_fract_z
 _atom_site_occupancy
  La  La0  1  0.000000  0.000000  0.500000  1
  La  La1  1  0.000000  0.000000  0.000000  1
  Y  Y2  1  0.512588  0.055091  0.250000  1
  Y  Y3  1  0.944909  0.487412  0.750000  1
  Y  Y4  1  0.487412  0.944909  0.750000  1
  Y  Y5  1  0.055091  0.512588  0.250000  1
  Au  Au6  1  0.500000  0.500000  0.500000  1
  Au  Au7  1  0.500000  0.500000  0.000000  1
  O  O8  1  0.437850  0.174734  0.529270  1
  O  O9  1  0.825266  0.562150  0.470730  1
  O  O10  1  0.437850  0.174734  0.970730  1
  O  O11  1  0.825266  0.562150  0.029270  1
  O  O12  1  0.562150  0.825266  0.470730  1
  O  O13  1  0.174734  0.437850  0.529270  1
  O  O14  1  0.562150  0.825266  0.029270  1
  O  O15  1  0.174734  0.437850  0.970730  1
  O  O16  1  0.159045  0.874862  0.250000  1
  O  O17  1  0.125138  0.840955  0.750000  1
  O  O18  1  0.840955  0.125138  0.750000  1
  O  O19  1  0.874862  0.159045  0.250000  1
  O  O20  1  0.396859  0.396859  0.250000  1
  O  O21  1  0.603141  0.603141  0.750000  1
