# generated using pymatgen
data_Y7HoAl8
_symmetry_space_group_name_H-M   'P 1'
_cell_length_a   5.61267500
_cell_length_b   5.86505104
_cell_length_c   11.45644307
_cell_angle_alpha   90.01270113
_cell_angle_beta   90.00000000
_cell_angle_gamma   90.00000000
_symmetry_Int_Tables_number   1
_chemical_formula_structural   Y7HoAl8
_chemical_formula_sum   'Y7 Ho1 Al8'
_cell_volume   377.13034771
_cell_formula_units_Z   1
loop_
 _symmetry_equiv_pos_site_id
 _symmetry_equiv_pos_as_xyz
  1  'x, y, z'
loop_
 _atom_site_type_symbol
 _atom_site_label
 _atom_site_symmetry_multiplicity
 _atom_site_fract_x
 _atom_site_fract_y
 _atom_site_fract_z
 _atom_site_occupancy
  Y  Y0  1  0.750000  0.161488  0.484540  1
  Y  Y1  1  0.250000  0.838672  0.516370  1
  Y  Y2  1  0.250000  0.160923  0.015816  1
  Y  Y3  1  0.750000  0.839269  0.983751  1
  Y  Y4  1  0.750000  0.397628  0.167817  1
  Y  Y5  1  0.250000  0.602491  0.831650  1
  Y  Y6  1  0.250000  0.397651  0.332018  1
  Ho  Ho7  1  0.750000  0.602160  0.668132  1
  Al  Al8  1  0.500082  0.927924  0.249987  1
  Al  Al9  1  0.999739  0.071687  0.749851  1
  Al  Al10  1  0.500261  0.071687  0.749851  1
  Al  Al11  1  0.999918  0.927924  0.249987  1
  Al  Al12  1  0.750000  0.659593  0.402148  1
  Al  Al13  1  0.250000  0.340712  0.598409  1
  Al  Al14  1  0.250000  0.659580  0.098280  1
  Al  Al15  1  0.750000  0.340610  0.901392  1
