# generated using pymatgen
data_PrSmGe2(Ru2C)2
_symmetry_space_group_name_H-M   'P 1'
_cell_length_a   5.92463970
_cell_length_b   5.92463977
_cell_length_c   7.36396000
_cell_angle_alpha   90.00000000
_cell_angle_beta   90.00000000
_cell_angle_gamma   140.63132250
_symmetry_Int_Tables_number   1
_chemical_formula_structural   PrSmGe2(Ru2C)2
_chemical_formula_sum   'Pr1 Sm1 Ge2 Ru4 C2'
_cell_volume   163.95908626
_cell_formula_units_Z   1
loop_
 _symmetry_equiv_pos_site_id
 _symmetry_equiv_pos_as_xyz
  1  'x, y, z'
loop_
 _atom_site_type_symbol
 _atom_site_label
 _atom_site_symmetry_multiplicity
 _atom_site_fract_x
 _atom_site_fract_y
 _atom_site_fract_z
 _atom_site_occupancy
  Pr  Pr0  1  0.548783  0.451217  0.250000  1
  Sm  Sm1  1  0.451491  0.548509  0.750000  1
  Ge  Ge2  1  0.269952  0.730048  0.250000  1
  Ge  Ge3  1  0.730911  0.269089  0.750000  1
  Ru  Ru4  1  0.836930  0.163070  0.055779  1
  Ru  Ru5  1  0.162940  0.837060  0.940891  1
  Ru  Ru6  1  0.162940  0.837060  0.559109  1
  Ru  Ru7  1  0.836930  0.163070  0.444221  1
  C  C8  1  0.999562  0.000438  0.995880  1
  C  C9  1  0.999562  0.000438  0.504120  1
