# generated using pymatgen
data_Dy9ErIr5Au
_symmetry_space_group_name_H-M   'P 1'
_cell_length_a   11.01781909
_cell_length_b   10.97325300
_cell_length_c   6.32751128
_cell_angle_alpha   90.00000000
_cell_angle_beta   89.82001070
_cell_angle_gamma   90.00000000
_symmetry_Int_Tables_number   1
_chemical_formula_structural   Dy9ErIr5Au
_chemical_formula_sum   'Dy18 Er2 Ir10 Au2'
_cell_volume   765.00066785
_cell_formula_units_Z   2
loop_
 _symmetry_equiv_pos_site_id
 _symmetry_equiv_pos_as_xyz
  1  'x, y, z'
loop_
 _atom_site_type_symbol
 _atom_site_label
 _atom_site_symmetry_multiplicity
 _atom_site_fract_x
 _atom_site_fract_y
 _atom_site_fract_z
 _atom_site_occupancy
  Dy  Dy0  1  0.292163  0.088309  0.372913  1
  Dy  Dy1  1  0.292163  0.911691  0.872913  1
  Dy  Dy2  1  0.699347  0.091761  0.866627  1
  Dy  Dy3  1  0.699347  0.908239  0.366627  1
  Dy  Dy4  1  0.578900  0.789202  0.877558  1
  Dy  Dy5  1  0.578900  0.210798  0.377558  1
  Dy  Dy6  1  0.409371  0.790453  0.376972  1
  Dy  Dy7  1  0.409371  0.209547  0.876972  1
  Dy  Dy8  1  0.209622  0.411481  0.621709  1
  Dy  Dy9  1  0.209622  0.588519  0.121709  1
  Dy  Dy10  1  0.789298  0.419107  0.122594  1
  Dy  Dy11  1  0.789298  0.580893  0.622594  1
  Dy  Dy12  1  0.916437  0.705161  0.137136  1
  Dy  Dy13  1  0.916437  0.294839  0.637136  1
  Dy  Dy14  1  0.095453  0.703967  0.623646  1
  Dy  Dy15  1  0.095453  0.296033  0.123646  1
  Dy  Dy16  1  0.008660  0.998757  0.499995  1
  Dy  Dy17  1  0.008660  0.001243  0.999995  1
  Er  Er18  1  0.499590  0.499019  0.000508  1
  Er  Er19  1  0.499590  0.500981  0.500508  1
  Ir  Ir20  1  0.153654  0.153912  0.750304  1
  Ir  Ir21  1  0.153654  0.846088  0.250304  1
  Ir  Ir22  1  0.654954  0.346296  0.748808  1
  Ir  Ir23  1  0.654954  0.653704  0.248808  1
  Ir  Ir24  1  0.347496  0.346536  0.251314  1
  Ir  Ir25  1  0.347496  0.653464  0.751314  1
  Ir  Ir26  1  0.500375  0.999669  0.121956  1
  Ir  Ir27  1  0.500375  0.000331  0.621956  1
  Ir  Ir28  1  0.999613  0.500711  0.878032  1
  Ir  Ir29  1  0.999613  0.499289  0.378032  1
  Au  Au30  1  0.845068  0.154675  0.249931  1
  Au  Au31  1  0.845068  0.845325  0.749931  1
