# generated using pymatgen
data_Er20Ir8RuPt3
_symmetry_space_group_name_H-M   'P 1'
_cell_length_a   10.84748384
_cell_length_b   10.85365772
_cell_length_c   6.32683117
_cell_angle_alpha   89.98602123
_cell_angle_beta   89.97778440
_cell_angle_gamma   90.12679260
_symmetry_Int_Tables_number   1
_chemical_formula_structural   Er20Ir8RuPt3
_chemical_formula_sum   'Er20 Ir8 Ru1 Pt3'
_cell_volume   744.88678580
_cell_formula_units_Z   1
loop_
 _symmetry_equiv_pos_site_id
 _symmetry_equiv_pos_as_xyz
  1  'x, y, z'
loop_
 _atom_site_type_symbol
 _atom_site_label
 _atom_site_symmetry_multiplicity
 _atom_site_fract_x
 _atom_site_fract_y
 _atom_site_fract_z
 _atom_site_occupancy
  Er  Er0  1  0.294433  0.085870  0.371274  1
  Er  Er1  1  0.294235  0.910108  0.878587  1
  Er  Er2  1  0.704178  0.088626  0.876248  1
  Er  Er3  1  0.703919  0.911110  0.372328  1
  Er  Er4  1  0.584445  0.792543  0.879599  1
  Er  Er5  1  0.584432  0.207926  0.376617  1
  Er  Er6  1  0.412325  0.792263  0.376791  1
  Er  Er7  1  0.415149  0.207579  0.879236  1
  Er  Er8  1  0.209264  0.414634  0.621998  1
  Er  Er9  1  0.208985  0.588688  0.121858  1
  Er  Er10  1  0.790733  0.414729  0.121837  1
  Er  Er11  1  0.790562  0.585855  0.622425  1
  Er  Er12  1  0.913188  0.706823  0.127129  1
  Er  Er13  1  0.909906  0.293951  0.625700  1
  Er  Er14  1  0.091365  0.707674  0.623109  1
  Er  Er15  1  0.089900  0.294781  0.125930  1
  Er  Er16  1  0.001331  0.998276  0.498346  1
  Er  Er17  1  0.001711  0.998589  0.000016  1
  Er  Er18  1  0.499802  0.499931  0.999495  1
  Er  Er19  1  0.500078  0.500135  0.498217  1
  Ir  Ir20  1  0.152054  0.846935  0.249671  1
  Ir  Ir21  1  0.654414  0.345940  0.749635  1
  Ir  Ir22  1  0.655159  0.653915  0.249467  1
  Ir  Ir23  1  0.345056  0.345905  0.249977  1
  Ir  Ir24  1  0.346474  0.653240  0.749530  1
  Ir  Ir25  1  0.500443  0.000374  0.625274  1
  Ir  Ir26  1  0.999653  0.499528  0.876235  1
  Ir  Ir27  1  0.999889  0.499588  0.377412  1
  Ru  Ru28  1  0.500341  0.000037  0.126820  1
  Pt  Pt29  1  0.847256  0.153702  0.249775  1
  Pt  Pt30  1  0.845816  0.846594  0.749602  1
  Pt  Pt31  1  0.153502  0.154153  0.749859  1
