# generated using pymatgen
data_Dy5Y3Sc11Si16Ag
_symmetry_space_group_name_H-M   'P 1'
_cell_length_a   7.03728503
_cell_length_b   7.39661510
_cell_length_c   14.02220305
_cell_angle_alpha   89.99834707
_cell_angle_beta   89.99070932
_cell_angle_gamma   89.91814164
_symmetry_Int_Tables_number   1
_chemical_formula_structural   Dy5Y3Sc11Si16Ag
_chemical_formula_sum   'Dy5 Y3 Sc11 Si16 Ag1'
_cell_volume   729.88420277
_cell_formula_units_Z   1
loop_
 _symmetry_equiv_pos_site_id
 _symmetry_equiv_pos_as_xyz
  1  'x, y, z'
loop_
 _atom_site_type_symbol
 _atom_site_label
 _atom_site_symmetry_multiplicity
 _atom_site_fract_x
 _atom_site_fract_y
 _atom_site_fract_z
 _atom_site_occupancy
  Dy  Dy0  1  0.990415  0.815422  0.599228  1
  Dy  Dy1  1  0.510956  0.323608  0.096616  1
  Dy  Dy2  1  0.011299  0.175328  0.403411  1
  Dy  Dy3  1  0.510945  0.323657  0.403411  1
  Dy  Dy4  1  0.483689  0.673911  0.598804  1
  Y  Y5  1  0.011134  0.175241  0.096538  1
  Y  Y6  1  0.990506  0.815475  0.900805  1
  Y  Y7  1  0.483788  0.673710  0.901274  1
  Sc  Sc8  1  0.838435  0.497345  0.250015  1
  Sc  Sc9  1  0.339845  0.002695  0.250013  1
  Sc  Sc10  1  0.658138  0.998211  0.749925  1
  Sc  Sc11  1  0.326337  0.182815  0.626448  1
  Sc  Sc12  1  0.671079  0.823494  0.374906  1
  Sc  Sc13  1  0.170777  0.678254  0.374084  1
  Sc  Sc14  1  0.671067  0.823455  0.125158  1
  Sc  Sc15  1  0.835523  0.327127  0.626421  1
  Sc  Sc16  1  0.326402  0.182894  0.873530  1
  Sc  Sc17  1  0.835508  0.327103  0.873542  1
  Sc  Sc18  1  0.170721  0.678229  0.125992  1
  Si  Si19  1  0.028431  0.100738  0.749951  1
  Si  Si20  1  0.968802  0.886520  0.250042  1
  Si  Si21  1  0.467465  0.617000  0.249988  1
  Si  Si22  1  0.537404  0.384657  0.749959  1
  Si  Si23  1  0.288890  0.885203  0.749873  1
  Si  Si24  1  0.713479  0.127139  0.250022  1
  Si  Si25  1  0.212811  0.372714  0.250091  1
  Si  Si26  1  0.776373  0.628755  0.749864  1
  Si  Si27  1  0.160622  0.460105  0.531799  1
  Si  Si28  1  0.843155  0.535622  0.461986  1
  Si  Si29  1  0.344795  0.965332  0.462519  1
  Si  Si30  1  0.843151  0.535677  0.038081  1
  Si  Si31  1  0.657692  0.033783  0.540193  1
  Si  Si32  1  0.160546  0.459938  0.968197  1
  Si  Si33  1  0.657486  0.034040  0.959839  1
  Si  Si34  1  0.345002  0.965328  0.037533  1
  Ag  Ag35  1  0.157327  0.509473  0.749945  1
