# generated using pymatgen
data_PrRuI18
_symmetry_space_group_name_H-M   'P 1'
_cell_length_a   10.31389931
_cell_length_b   10.39088026
_cell_length_c   10.24617417
_cell_angle_alpha   93.37071307
_cell_angle_beta   93.21496590
_cell_angle_gamma   92.61171192
_symmetry_Int_Tables_number   1
_chemical_formula_structural   PrRuI18
_chemical_formula_sum   'Pr1 Ru1 I18'
_cell_volume   1093.14650898
_cell_formula_units_Z   1
loop_
 _symmetry_equiv_pos_site_id
 _symmetry_equiv_pos_as_xyz
  1  'x, y, z'
loop_
 _atom_site_type_symbol
 _atom_site_label
 _atom_site_symmetry_multiplicity
 _atom_site_fract_x
 _atom_site_fract_y
 _atom_site_fract_z
 _atom_site_occupancy
  Pr  Pr0  1  0.500000  0.500000  0.500000  1
  Ru  Ru1  1  0.000000  0.000000  0.000000  1
  I  I2  1  0.803469  0.477436  0.525669  1
  I  I3  1  0.525973  0.801327  0.476469  1
  I  I4  1  0.479769  0.526787  0.804991  1
  I  I5  1  0.196531  0.522564  0.474331  1
  I  I6  1  0.474027  0.198673  0.523531  1
  I  I7  1  0.520231  0.473213  0.195009  1
  I  I8  1  0.905117  0.360189  0.767994  1
  I  I9  1  0.767744  0.899521  0.361237  1
  I  I10  1  0.360583  0.766276  0.902808  1
  I  I11  1  0.094883  0.639811  0.232006  1
  I  I12  1  0.232256  0.100479  0.638763  1
  I  I13  1  0.639417  0.233724  0.097192  1
  I  I14  1  0.006315  0.967233  0.737504  1
  I  I15  1  0.740543  0.004001  0.972293  1
  I  I16  1  0.969812  0.738705  0.999244  1
  I  I17  1  0.993685  0.032767  0.262496  1
  I  I18  1  0.259457  0.995999  0.027707  1
  I  I19  1  0.030188  0.261295  0.000756  1
