# generated using pymatgen
data_Y12Er3Th(CdNi)4
_symmetry_space_group_name_H-M   'P 1'
_cell_length_a   9.58937252
_cell_length_b   9.58937279
_cell_length_c   9.58937244
_cell_angle_alpha   60.14861479
_cell_angle_beta   60.14861163
_cell_angle_gamma   60.14861970
_symmetry_Int_Tables_number   1
_chemical_formula_structural   Y12Er3Th(CdNi)4
_chemical_formula_sum   'Y12 Er3 Th1 Cd4 Ni4'
_cell_volume   625.62644220
_cell_formula_units_Z   1
loop_
 _symmetry_equiv_pos_site_id
 _symmetry_equiv_pos_as_xyz
  1  'x, y, z'
loop_
 _atom_site_type_symbol
 _atom_site_label
 _atom_site_symmetry_multiplicity
 _atom_site_fract_x
 _atom_site_fract_y
 _atom_site_fract_z
 _atom_site_occupancy
  Y  Y0  1  0.062232  0.439827  0.439827  1
  Y  Y1  1  0.440520  0.061862  0.061862  1
  Y  Y2  1  0.439827  0.062232  0.439827  1
  Y  Y3  1  0.061862  0.440520  0.061862  1
  Y  Y4  1  0.439827  0.439827  0.062232  1
  Y  Y5  1  0.061862  0.061862  0.440520  1
  Y  Y6  1  0.187703  0.814273  0.814273  1
  Y  Y7  1  0.812718  0.187305  0.187305  1
  Y  Y8  1  0.814273  0.187703  0.814273  1
  Y  Y9  1  0.187305  0.812718  0.187305  1
  Y  Y10  1  0.814273  0.814273  0.187703  1
  Y  Y11  1  0.187305  0.187305  0.812718  1
  Er  Er12  1  0.598244  0.598244  0.202068  1
  Er  Er13  1  0.598244  0.202068  0.598244  1
  Er  Er14  1  0.202068  0.598244  0.598244  1
  Th  Th15  1  0.593313  0.593313  0.593313  1
  Cd  Cd16  1  0.830527  0.830527  0.830527  1
  Cd  Cd17  1  0.831637  0.831637  0.506063  1
  Cd  Cd18  1  0.831637  0.506063  0.831637  1
  Cd  Cd19  1  0.506063  0.831637  0.831637  1
  Ni  Ni20  1  0.394039  0.394039  0.394039  1
  Ni  Ni21  1  0.393098  0.393098  0.818325  1
  Ni  Ni22  1  0.393098  0.818325  0.393098  1
  Ni  Ni23  1  0.818325  0.393098  0.393098  1
