# generated using pymatgen
data_Y3Tm7Si5Sn
_symmetry_space_group_name_H-M   'P 1'
_cell_length_a   8.45496381
_cell_length_b   8.46357216
_cell_length_c   6.31058200
_cell_angle_alpha   90.00000000
_cell_angle_beta   90.00000000
_cell_angle_gamma   120.30333160
_symmetry_Int_Tables_number   1
_chemical_formula_structural   Y3Tm7Si5Sn
_chemical_formula_sum   'Y3 Tm7 Si5 Sn1'
_cell_volume   389.87906624
_cell_formula_units_Z   1
loop_
 _symmetry_equiv_pos_site_id
 _symmetry_equiv_pos_as_xyz
  1  'x, y, z'
loop_
 _atom_site_type_symbol
 _atom_site_label
 _atom_site_symmetry_multiplicity
 _atom_site_fract_x
 _atom_site_fract_y
 _atom_site_fract_z
 _atom_site_occupancy
  Y  Y0  1  0.766261  0.765558  0.250000  1
  Y  Y1  1  0.240716  0.240325  0.750000  1
  Y  Y2  1  0.755569  0.998763  0.750000  1
  Tm  Tm3  1  0.674195  0.331480  0.502592  1
  Tm  Tm4  1  0.330471  0.673859  0.502536  1
  Tm  Tm5  1  0.330471  0.673859  0.997464  1
  Tm  Tm6  1  0.674195  0.331480  0.997408  1
  Tm  Tm7  1  0.240845  0.989197  0.250000  1
  Tm  Tm8  1  0.989748  0.242255  0.250000  1
  Tm  Tm9  1  0.999256  0.754786  0.750000  1
  Si  Si10  1  0.603552  0.999667  0.250000  1
  Si  Si11  1  0.999756  0.603388  0.250000  1
  Si  Si12  1  0.605962  0.604701  0.750000  1
  Si  Si13  1  0.393366  0.000236  0.750000  1
  Si  Si14  1  0.001503  0.396386  0.750000  1
  Sn  Sn15  1  0.394134  0.394062  0.250000  1
