# generated using pymatgen
data_SmTh2In3Pd2Pt
_symmetry_space_group_name_H-M   'P 1'
_cell_length_a   7.75109947
_cell_length_b   7.77309806
_cell_length_c   4.06168300
_cell_angle_alpha   90.00000000
_cell_angle_beta   90.00000000
_cell_angle_gamma   120.39088935
_symmetry_Int_Tables_number   1
_chemical_formula_structural   SmTh2In3Pd2Pt
_chemical_formula_sum   'Sm1 Th2 In3 Pd2 Pt1'
_cell_volume   211.09112632
_cell_formula_units_Z   1
loop_
 _symmetry_equiv_pos_site_id
 _symmetry_equiv_pos_as_xyz
  1  'x, y, z'
loop_
 _atom_site_type_symbol
 _atom_site_label
 _atom_site_symmetry_multiplicity
 _atom_site_fract_x
 _atom_site_fract_y
 _atom_site_fract_z
 _atom_site_occupancy
  Sm  Sm0  1  0.411031  0.413406  0.500000  1
  Th  Th1  1  0.584319  0.996126  0.500000  1
  Th  Th2  1  0.004338  0.587381  0.500000  1
  In  In3  1  0.251764  0.011539  0.000000  1
  In  In4  1  0.004634  0.248782  0.000000  1
  In  In5  1  0.744427  0.740552  0.000000  1
  Pd  Pd6  1  0.992117  0.991878  0.500000  1
  Pd  Pd7  1  0.675807  0.332601  0.000000  1
  Pt  Pt8  1  0.331563  0.677735  0.000000  1
