# generated using pymatgen
data_Sr4Ge5Rh9
_symmetry_space_group_name_H-M   'P 1'
_cell_length_a   12.07585813
_cell_length_b   12.07585813
_cell_length_c   12.07585877
_cell_angle_alpha   27.72714108
_cell_angle_beta   27.72714362
_cell_angle_gamma   27.72714137
_symmetry_Int_Tables_number   1
_chemical_formula_structural   Sr4Ge5Rh9
_chemical_formula_sum   'Sr4 Ge5 Rh9'
_cell_volume   336.56107425
_cell_formula_units_Z   1
loop_
 _symmetry_equiv_pos_site_id
 _symmetry_equiv_pos_as_xyz
  1  'x, y, z'
loop_
 _atom_site_type_symbol
 _atom_site_label
 _atom_site_symmetry_multiplicity
 _atom_site_fract_x
 _atom_site_fract_y
 _atom_site_fract_z
 _atom_site_occupancy
  Sr  Sr0  1  0.949501  0.949501  0.949501  1
  Sr  Sr1  1  0.852645  0.852645  0.852645  1
  Sr  Sr2  1  0.147355  0.147355  0.147355  1
  Sr  Sr3  1  0.050499  0.050499  0.050499  1
  Ge  Ge4  1  0.278044  0.278044  0.278044  1
  Ge  Ge5  1  0.500000  0.500000  0.500000  1
  Ge  Ge6  1  0.387323  0.387323  0.387323  1
  Ge  Ge7  1  0.721956  0.721956  0.721956  1
  Ge  Ge8  1  0.612677  0.612677  0.612677  1
  Rh  Rh9  1  0.604593  0.604593  0.112021  1
  Rh  Rh10  1  0.887979  0.395407  0.395407  1
  Rh  Rh11  1  0.500000  0.000000  0.500000  1
  Rh  Rh12  1  0.395407  0.887979  0.395407  1
  Rh  Rh13  1  0.500000  0.500000  0.000000  1
  Rh  Rh14  1  0.112021  0.604593  0.604593  1
  Rh  Rh15  1  0.000000  0.500000  0.500000  1
  Rh  Rh16  1  0.395407  0.395407  0.887979  1
  Rh  Rh17  1  0.604593  0.112021  0.604593  1
