# generated using pymatgen
data_NaMn(AgTe2)4
_symmetry_space_group_name_H-M   'P 1'
_cell_length_a   12.15276680
_cell_length_b   12.15276679
_cell_length_c   10.79257200
_cell_angle_alpha   90.43658353
_cell_angle_beta   90.43658353
_cell_angle_gamma   14.63823031
_symmetry_Int_Tables_number   1
_chemical_formula_structural   NaMn(AgTe2)4
_chemical_formula_sum   'Na1 Mn1 Ag4 Te8'
_cell_volume   402.80373505
_cell_formula_units_Z   1
loop_
 _symmetry_equiv_pos_site_id
 _symmetry_equiv_pos_as_xyz
  1  'x, y, z'
loop_
 _atom_site_type_symbol
 _atom_site_label
 _atom_site_symmetry_multiplicity
 _atom_site_fract_x
 _atom_site_fract_y
 _atom_site_fract_z
 _atom_site_occupancy
  Na  Na0  1  0.000000  0.000000  0.000000  1
  Mn  Mn1  1  0.500000  0.500000  0.500000  1
  Ag  Ag2  1  0.239761  0.239761  0.108928  1
  Ag  Ag3  1  0.837537  0.837537  0.453408  1
  Ag  Ag4  1  0.162463  0.162463  0.546592  1
  Ag  Ag5  1  0.760239  0.760239  0.891072  1
  Te  Te6  1  0.925995  0.925995  0.629508  1
  Te  Te7  1  0.074005  0.074005  0.370492  1
  Te  Te8  1  0.573372  0.573372  0.716365  1
  Te  Te9  1  0.426628  0.426628  0.283635  1
  Te  Te10  1  0.638457  0.638457  0.976087  1
  Te  Te11  1  0.361543  0.361543  0.023913  1
  Te  Te12  1  0.734722  0.734722  0.333853  1
  Te  Te13  1  0.265278  0.265278  0.666147  1
