# generated using pymatgen
data_Er3AlIn2GePd2
_symmetry_space_group_name_H-M   'P 1'
_cell_length_a   7.37903032
_cell_length_b   7.38041693
_cell_length_c   4.08792800
_cell_angle_alpha   90.00000000
_cell_angle_beta   90.00000000
_cell_angle_gamma   120.79481147
_symmetry_Int_Tables_number   1
_chemical_formula_structural   Er3AlIn2GePd2
_chemical_formula_sum   'Er3 Al1 In2 Ge1 Pd2'
_cell_volume   191.24045111
_cell_formula_units_Z   1
loop_
 _symmetry_equiv_pos_site_id
 _symmetry_equiv_pos_as_xyz
  1  'x, y, z'
loop_
 _atom_site_type_symbol
 _atom_site_label
 _atom_site_symmetry_multiplicity
 _atom_site_fract_x
 _atom_site_fract_y
 _atom_site_fract_z
 _atom_site_occupancy
  Er  Er0  1  0.410694  0.996696  0.500000  1
  Er  Er1  1  0.576423  0.582453  0.500000  1
  Er  Er2  1  0.006980  0.414133  0.500000  1
  Al  Al3  1  0.240606  0.253504  0.000000  1
  In  In4  1  0.745278  0.990487  0.000000  1
  In  In5  1  0.012386  0.755724  0.000000  1
  Ge  Ge6  1  0.652587  0.331066  0.000000  1
  Pd  Pd7  1  0.026235  0.026588  0.500000  1
  Pd  Pd8  1  0.328810  0.649350  0.000000  1
