# generated using pymatgen
data_Dy3Lu2Tc6P12Ir13
_symmetry_space_group_name_H-M   'P 1'
_cell_length_a   12.65954000
_cell_length_b   12.65953929
_cell_length_c   3.97899500
_cell_angle_alpha   90.00000000
_cell_angle_beta   90.00000000
_cell_angle_gamma   119.99999662
_symmetry_Int_Tables_number   1
_chemical_formula_structural   Dy3Lu2Tc6P12Ir13
_chemical_formula_sum   'Dy3 Lu2 Tc6 P12 Ir13'
_cell_volume   552.25526666
_cell_formula_units_Z   1
loop_
 _symmetry_equiv_pos_site_id
 _symmetry_equiv_pos_as_xyz
  1  'x, y, z'
loop_
 _atom_site_type_symbol
 _atom_site_label
 _atom_site_symmetry_multiplicity
 _atom_site_fract_x
 _atom_site_fract_y
 _atom_site_fract_z
 _atom_site_occupancy
  Dy  Dy0  1  0.000325  0.812257  0.000000  1
  Dy  Dy1  1  0.187743  0.188068  0.000000  1
  Dy  Dy2  1  0.811932  0.999675  0.000000  1
  Lu  Lu3  1  0.333333  0.666667  0.500000  1
  Lu  Lu4  1  0.666667  0.333333  0.500000  1
  Tc  Tc5  1  0.990156  0.446504  0.500000  1
  Tc  Tc6  1  0.553496  0.543652  0.500000  1
  Tc  Tc7  1  0.456348  0.009844  0.500000  1
  Tc  Tc8  1  0.619464  0.798741  0.500000  1
  Tc  Tc9  1  0.201259  0.820723  0.500000  1
  Tc  Tc10  1  0.179277  0.380536  0.500000  1
  P  P11  1  0.007053  0.638624  0.500000  1
  P  P12  1  0.361376  0.368430  0.500000  1
  P  P13  1  0.631570  0.992947  0.500000  1
  P  P14  1  0.520630  0.693862  0.000000  1
  P  P15  1  0.306138  0.826767  0.000000  1
  P  P16  1  0.173233  0.479370  0.000000  1
  P  P17  1  0.482752  0.168503  0.000000  1
  P  P18  1  0.685751  0.517248  0.000000  1
  P  P19  1  0.831497  0.314249  0.000000  1
  P  P20  1  0.003871  0.182665  0.500000  1
  P  P21  1  0.817335  0.821206  0.500000  1
  P  P22  1  0.178794  0.996129  0.500000  1
  Ir  Ir23  1  0.505797  0.873558  0.000000  1
  Ir  Ir24  1  0.126442  0.632240  0.000000  1
  Ir  Ir25  1  0.367760  0.494203  0.000000  1
  Ir  Ir26  1  0.494697  0.357736  0.000000  1
  Ir  Ir27  1  0.863041  0.505303  0.000000  1
  Ir  Ir28  1  0.642264  0.136959  0.000000  1
  Ir  Ir29  1  0.995038  0.281576  0.000000  1
  Ir  Ir30  1  0.718424  0.713463  0.000000  1
  Ir  Ir31  1  0.286537  0.004962  0.000000  1
  Ir  Ir32  1  0.374404  0.185299  0.500000  1
  Ir  Ir33  1  0.810895  0.625596  0.500000  1
  Ir  Ir34  1  0.814701  0.189105  0.500000  1
  Ir  Ir35  1  0.000000  0.000000  0.500000  1
