# generated using pymatgen
data_Ho4Ni2B16IrPt
_symmetry_space_group_name_H-M   'P 1'
_cell_length_a   6.91406875
_cell_length_b   6.91406872
_cell_length_c   6.91406825
_cell_angle_alpha   111.27638772
_cell_angle_beta   113.34637741
_cell_angle_gamma   103.93636315
_symmetry_Int_Tables_number   1
_chemical_formula_structural   Ho4Ni2B16IrPt
_chemical_formula_sum   'Ho4 Ni2 B16 Ir1 Pt1'
_cell_volume   252.58707641
_cell_formula_units_Z   1
loop_
 _symmetry_equiv_pos_site_id
 _symmetry_equiv_pos_as_xyz
  1  'x, y, z'
loop_
 _atom_site_type_symbol
 _atom_site_label
 _atom_site_symmetry_multiplicity
 _atom_site_fract_x
 _atom_site_fract_y
 _atom_site_fract_z
 _atom_site_occupancy
  Ho  Ho0  1  0.796040  0.792847  0.003193  1
  Ho  Ho1  1  0.210347  0.207153  0.003193  1
  Ho  Ho2  1  0.747654  0.250085  0.497569  1
  Ho  Ho3  1  0.247485  0.749915  0.497569  1
  Ni  Ni4  1  0.500097  0.744924  0.245021  1
  Ni  Ni5  1  0.500097  0.255076  0.755174  1
  B  B6  1  0.272446  0.107518  0.379964  1
  B  B7  1  0.727725  0.891868  0.619594  1
  B  B8  1  0.272446  0.892482  0.164929  1
  B  B9  1  0.727725  0.108132  0.835856  1
  B  B10  1  0.110098  0.733749  0.843847  1
  B  B11  1  0.889619  0.268995  0.158614  1
  B  B12  1  0.110098  0.266251  0.376350  1
  B  B13  1  0.889619  0.731005  0.620624  1
  B  B14  1  0.113901  0.106476  0.525724  1
  B  B15  1  0.580234  0.585725  0.471103  1
  B  B16  1  0.113901  0.588177  0.007426  1
  B  B17  1  0.580234  0.109132  0.994509  1
  B  B18  1  0.885379  0.890868  0.471103  1
  B  B19  1  0.419249  0.411823  0.525724  1
  B  B20  1  0.885379  0.414275  0.994509  1
  B  B21  1  0.419249  0.893524  0.007426  1
  Ir  Ir22  1  0.725374  0.500000  0.225374  1
  Pt  Pt23  1  0.275601  0.500000  0.775601  1
