# generated using pymatgen
data_ThNpF36
_symmetry_space_group_name_H-M   'P 1'
_cell_length_a   6.32078771
_cell_length_b   10.82622645
_cell_length_c   11.12818844
_cell_angle_alpha   94.00476874
_cell_angle_beta   101.58159219
_cell_angle_gamma   73.01344712
_symmetry_Int_Tables_number   1
_chemical_formula_structural   ThNpF36
_chemical_formula_sum   'Th1 Np1 F36'
_cell_volume   713.40427353
_cell_formula_units_Z   1
loop_
 _symmetry_equiv_pos_site_id
 _symmetry_equiv_pos_as_xyz
  1  'x, y, z'
loop_
 _atom_site_type_symbol
 _atom_site_label
 _atom_site_symmetry_multiplicity
 _atom_site_fract_x
 _atom_site_fract_y
 _atom_site_fract_z
 _atom_site_occupancy
  Th  Th0  1  0.754808  0.835967  0.874854  1
  Np  Np1  1  0.302918  0.186769  0.151863  1
  F  F2  1  0.307717  0.408873  0.849023  1
  F  F3  1  0.631790  0.631318  0.114577  1
  F  F4  1  0.318128  0.277042  0.589577  1
  F  F5  1  0.671410  0.732063  0.430047  1
  F  F6  1  0.872272  0.224583  0.811726  1
  F  F7  1  0.169160  0.763369  0.189559  1
  F  F8  1  0.678934  0.850421  0.052676  1
  F  F9  1  0.328964  0.130983  0.976831  1
  F  F10  1  0.793779  0.613049  0.863313  1
  F  F11  1  0.286199  0.362081  0.091211  1
  F  F12  1  0.461178  0.468773  0.816382  1
  F  F13  1  0.600380  0.511990  0.143334  1
  F  F14  1  0.734746  0.700381  0.702109  1
  F  F15  1  0.256269  0.292688  0.305824  1
  F  F16  1  0.740949  0.973780  0.551186  1
  F  F17  1  0.221173  0.998821  0.479453  1
  F  F18  1  0.288064  0.175478  0.653375  1
  F  F19  1  0.705010  0.796409  0.330953  1
  F  F20  1  0.800727  0.089326  0.590434  1
  F  F21  1  0.169307  0.914175  0.380688  1
  F  F22  1  0.799731  0.015592  0.845464  1
  F  F23  1  0.179564  0.029977  0.126942  1
  F  F24  1  0.921170  0.344241  0.801811  1
  F  F25  1  0.113839  0.647623  0.205008  1
  F  F26  1  0.152892  0.760651  0.912623  1
  F  F27  1  0.966262  0.263788  0.111068  1
  F  F28  1  0.383003  0.939963  0.758847  1
  F  F29  1  0.472684  0.063025  0.291780  1
  F  F30  1  0.108482  0.751397  0.578032  1
  F  F31  1  0.871395  0.238000  0.413021  1
  F  F32  1  0.208852  0.638643  0.651573  1
  F  F33  1  0.795825  0.357796  0.349681  1
  F  F34  1  0.274004  0.850830  0.834579  1
  F  F35  1  0.632592  0.166129  0.157208  1
  F  F36  1  0.542093  0.444089  0.547316  1
  F  F37  1  0.483734  0.549914  0.466055  1
