# generated using pymatgen
data_TbY5(Si3Ru2)2
_symmetry_space_group_name_H-M   'P 1'
_cell_length_a   5.77436155
_cell_length_b   5.77436033
_cell_length_c   13.80710726
_cell_angle_alpha   90.04553376
_cell_angle_beta   89.95446743
_cell_angle_gamma   137.51960830
_symmetry_Int_Tables_number   1
_chemical_formula_structural   TbY5(Si3Ru2)2
_chemical_formula_sum   'Tb1 Y5 Si6 Ru4'
_cell_volume   310.90770556
_cell_formula_units_Z   1
loop_
 _symmetry_equiv_pos_site_id
 _symmetry_equiv_pos_as_xyz
  1  'x, y, z'
loop_
 _atom_site_type_symbol
 _atom_site_label
 _atom_site_symmetry_multiplicity
 _atom_site_fract_x
 _atom_site_fract_y
 _atom_site_fract_z
 _atom_site_occupancy
  Tb  Tb0  1  0.924102  0.075898  0.385297  1
  Y  Y1  1  0.075960  0.924040  0.614803  1
  Y  Y2  1  0.923996  0.076004  0.114742  1
  Y  Y3  1  0.075903  0.924097  0.885255  1
  Y  Y4  1  0.642464  0.357536  0.249981  1
  Y  Y5  1  0.357694  0.642306  0.750042  1
  Si  Si6  1  0.618917  0.381083  0.461474  1
  Si  Si7  1  0.381112  0.618888  0.538531  1
  Si  Si8  1  0.618817  0.381183  0.038426  1
  Si  Si9  1  0.381191  0.618809  0.961565  1
  Si  Si10  1  0.328707  0.671293  0.249787  1
  Si  Si11  1  0.670976  0.329024  0.750010  1
  Ru  Ru12  1  0.786265  0.213735  0.919220  1
  Ru  Ru13  1  0.213557  0.786443  0.080681  1
  Ru  Ru14  1  0.786270  0.213730  0.580773  1
  Ru  Ru15  1  0.214067  0.785933  0.419412  1
