# generated using pymatgen
data_Pa(AlC)3
_symmetry_space_group_name_H-M   'P 1'
_cell_length_a   3.40775300
_cell_length_b   3.40773519
_cell_length_c   17.59959400
_cell_angle_alpha   89.99983264
_cell_angle_beta   90.00004232
_cell_angle_gamma   119.99970539
_symmetry_Int_Tables_number   1
_chemical_formula_structural   Pa(AlC)3
_chemical_formula_sum   'Pa2 Al6 C6'
_cell_volume   176.99806473
_cell_formula_units_Z   2
loop_
 _symmetry_equiv_pos_site_id
 _symmetry_equiv_pos_as_xyz
  1  'x, y, z'
loop_
 _atom_site_type_symbol
 _atom_site_label
 _atom_site_symmetry_multiplicity
 _atom_site_fract_x
 _atom_site_fract_y
 _atom_site_fract_z
 _atom_site_occupancy
  Pa  Pa0  1  0.000001  0.999997  0.003050  1
  Pa  Pa1  1  0.999995  0.000000  0.503044  1
  Al  Al2  1  0.333333  0.666668  0.368472  1
  Al  Al3  1  0.666669  0.333334  0.868455  1
  Al  Al4  1  0.333328  0.666671  0.755458  1
  Al  Al5  1  0.666672  0.333329  0.255451  1
  Al  Al6  1  0.333335  0.666666  0.138196  1
  Al  Al7  1  0.666666  0.333334  0.638172  1
  C  C8  1  0.333333  0.666671  0.905507  1
  C  C9  1  0.666666  0.333331  0.405492  1
  C  C10  1  0.333330  0.666671  0.598599  1
  C  C11  1  0.666671  0.333333  0.098581  1
  C  C12  1  0.333333  0.666670  0.253039  1
  C  C13  1  0.666671  0.333331  0.753082  1
