# generated using pymatgen
data_Ti3SiTc3Ge2
_symmetry_space_group_name_H-M   'P 1'
_cell_length_a   6.89029600
_cell_length_b   6.89029654
_cell_length_c   3.24777900
_cell_angle_alpha   90.00000000
_cell_angle_beta   90.00000000
_cell_angle_gamma   119.99999740
_symmetry_Int_Tables_number   1
_chemical_formula_structural   Ti3SiTc3Ge2
_chemical_formula_sum   'Ti3 Si1 Tc3 Ge2'
_cell_volume   133.53432172
_cell_formula_units_Z   1
loop_
 _symmetry_equiv_pos_site_id
 _symmetry_equiv_pos_as_xyz
  1  'x, y, z'
loop_
 _atom_site_type_symbol
 _atom_site_label
 _atom_site_symmetry_multiplicity
 _atom_site_fract_x
 _atom_site_fract_y
 _atom_site_fract_z
 _atom_site_occupancy
  Ti  Ti0  1  0.398210  0.398210  0.500000  1
  Ti  Ti1  1  0.601790  0.000000  0.500000  1
  Ti  Ti2  1  0.000000  0.601790  0.500000  1
  Si  Si3  1  0.000000  0.000000  0.500000  1
  Tc  Tc4  1  0.741943  0.741943  0.000000  1
  Tc  Tc5  1  0.258057  0.000000  0.000000  1
  Tc  Tc6  1  0.000000  0.258057  0.000000  1
  Ge  Ge7  1  0.666667  0.333333  0.000000  1
  Ge  Ge8  1  0.333333  0.666667  0.000000  1
