# generated using pymatgen
data_K4PrNpI10
_symmetry_space_group_name_H-M   'P 1'
_cell_length_a   9.26455800
_cell_length_b   9.88727700
_cell_length_c   14.60965200
_cell_angle_alpha   90.00000000
_cell_angle_beta   90.00000000
_cell_angle_gamma   90.00000000
_symmetry_Int_Tables_number   1
_chemical_formula_structural   K4PrNpI10
_chemical_formula_sum   'K8 Pr2 Np2 I20'
_cell_volume   1338.26240321
_cell_formula_units_Z   2
loop_
 _symmetry_equiv_pos_site_id
 _symmetry_equiv_pos_as_xyz
  1  'x, y, z'
loop_
 _atom_site_type_symbol
 _atom_site_label
 _atom_site_symmetry_multiplicity
 _atom_site_fract_x
 _atom_site_fract_y
 _atom_site_fract_z
 _atom_site_occupancy
  K  K0  1  0.435115  0.505520  0.672245  1
  K  K1  1  0.934689  0.494807  0.827801  1
  K  K2  1  0.565311  0.005193  0.327801  1
  K  K3  1  0.064885  0.994480  0.172245  1
  K  K4  1  0.565311  0.494807  0.327801  1
  K  K5  1  0.064885  0.505520  0.172245  1
  K  K6  1  0.435115  0.994480  0.672245  1
  K  K7  1  0.934689  0.005193  0.827801  1
  Pr  Pr8  1  0.080866  0.250000  0.493941  1
  Pr  Pr9  1  0.419134  0.250000  0.993941  1
  Np  Np10  1  0.921554  0.750000  0.506116  1
  Np  Np11  1  0.578446  0.750000  0.006116  1
  I  I12  1  0.571067  0.750000  0.506099  1
  I  I13  1  0.330790  0.952159  0.925485  1
  I  I14  1  0.829675  0.044905  0.574180  1
  I  I15  1  0.670325  0.455095  0.074180  1
  I  I16  1  0.069383  0.250000  0.993652  1
  I  I17  1  0.657186  0.750000  0.794049  1
  I  I18  1  0.928933  0.750000  0.006099  1
  I  I19  1  0.430617  0.250000  0.493652  1
  I  I20  1  0.119632  0.750000  0.683320  1
  I  I21  1  0.157353  0.250000  0.707722  1
  I  I22  1  0.342647  0.250000  0.207722  1
  I  I23  1  0.842814  0.750000  0.294049  1
  I  I24  1  0.670325  0.044905  0.074180  1
  I  I25  1  0.621859  0.250000  0.815677  1
  I  I26  1  0.878141  0.250000  0.315677  1
  I  I27  1  0.380368  0.750000  0.183320  1
  I  I28  1  0.829675  0.455095  0.574180  1
  I  I29  1  0.330790  0.547841  0.925485  1
  I  I30  1  0.169210  0.952159  0.425485  1
  I  I31  1  0.169210  0.547841  0.425485  1
