# generated using pymatgen
data_DyEr3Ge4F28
_symmetry_space_group_name_H-M   'P 1'
_cell_length_a   5.42179381
_cell_length_b   8.66868622
_cell_length_c   11.66647500
_cell_angle_alpha   62.51184598
_cell_angle_beta   89.96861399
_cell_angle_gamma   89.98592310
_symmetry_Int_Tables_number   1
_chemical_formula_structural   DyEr3Ge4F28
_chemical_formula_sum   'Dy1 Er3 Ge4 F28'
_cell_volume   486.42011369
_cell_formula_units_Z   1
loop_
 _symmetry_equiv_pos_site_id
 _symmetry_equiv_pos_as_xyz
  1  'x, y, z'
loop_
 _atom_site_type_symbol
 _atom_site_label
 _atom_site_symmetry_multiplicity
 _atom_site_fract_x
 _atom_site_fract_y
 _atom_site_fract_z
 _atom_site_occupancy
  Dy  Dy0  1  0.760946  0.810868  0.764473  1
  Er  Er1  1  0.261702  0.190245  0.735551  1
  Er  Er2  1  0.238602  0.189257  0.235704  1
  Er  Er3  1  0.738718  0.811090  0.264388  1
  Ge  Ge4  1  0.758672  0.272695  0.957353  1
  Ge  Ge5  1  0.257889  0.726038  0.541986  1
  Ge  Ge6  1  0.241588  0.726345  0.044042  1
  Ge  Ge7  1  0.740917  0.274471  0.456629  1
  F  F8  1  0.432987  0.705004  0.923534  1
  F  F9  1  0.933307  0.295439  0.576777  1
  F  F10  1  0.566388  0.294494  0.077381  1
  F  F11  1  0.066946  0.704609  0.421604  1
  F  F12  1  0.455777  0.280863  0.540682  1
  F  F13  1  0.956388  0.719282  0.960746  1
  F  F14  1  0.544118  0.719473  0.458669  1
  F  F15  1  0.044119  0.279303  0.041332  1
  F  F16  1  0.775588  0.508939  0.863106  1
  F  F17  1  0.274169  0.489326  0.636476  1
  F  F18  1  0.226120  0.489448  0.138019  1
  F  F19  1  0.725095  0.510969  0.362300  1
  F  F20  1  0.757818  0.036562  0.047314  1
  F  F21  1  0.257589  0.962421  0.452287  1
  F  F22  1  0.242235  0.962427  0.953608  1
  F  F23  1  0.741586  0.038241  0.546552  1
  F  F24  1  0.982622  0.726810  0.632809  1
  F  F25  1  0.484045  0.272662  0.865589  1
  F  F26  1  0.015092  0.272922  0.364870  1
  F  F27  1  0.516432  0.727309  0.135275  1
  F  F28  1  0.051855  0.742825  0.169605  1
  F  F29  1  0.550174  0.257480  0.331470  1
  F  F30  1  0.949046  0.256195  0.831867  1
  F  F31  1  0.446150  0.741940  0.667917  1
  F  F32  1  0.409955  0.970475  0.229163  1
  F  F33  1  0.909787  0.029758  0.271021  1
  F  F34  1  0.591267  0.032799  0.771317  1
  F  F35  1  0.094308  0.971016  0.728586  1
