# generated using pymatgen
data_Ho5Lu3ZnIn3
_symmetry_space_group_name_H-M   'P 1'
_cell_length_a   10.56606900
_cell_length_b   10.56606860
_cell_length_c   6.68461400
_cell_angle_alpha   90.00000000
_cell_angle_beta   90.00000000
_cell_angle_gamma   119.99999812
_symmetry_Int_Tables_number   1
_chemical_formula_structural   Ho5Lu3ZnIn3
_chemical_formula_sum   'Ho10 Lu6 Zn2 In6'
_cell_volume   646.29953374
_cell_formula_units_Z   2
loop_
 _symmetry_equiv_pos_site_id
 _symmetry_equiv_pos_as_xyz
  1  'x, y, z'
loop_
 _atom_site_type_symbol
 _atom_site_label
 _atom_site_symmetry_multiplicity
 _atom_site_fract_x
 _atom_site_fract_y
 _atom_site_fract_z
 _atom_site_occupancy
  Ho  Ho0  1  0.173615  0.347230  0.728142  1
  Ho  Ho1  1  0.652770  0.826385  0.728142  1
  Ho  Ho2  1  0.173615  0.826385  0.728142  1
  Ho  Ho3  1  0.826385  0.652770  0.228142  1
  Ho  Ho4  1  0.347230  0.173615  0.228142  1
  Ho  Ho5  1  0.826385  0.173615  0.228142  1
  Ho  Ho6  1  0.666667  0.333333  0.853350  1
  Ho  Ho7  1  0.333333  0.666667  0.353350  1
  Ho  Ho8  1  0.000000  0.000000  0.491226  1
  Ho  Ho9  1  0.000000  0.000000  0.991226  1
  Lu  Lu10  1  0.519159  0.038319  0.509495  1
  Lu  Lu11  1  0.961681  0.480841  0.509495  1
  Lu  Lu12  1  0.519159  0.480841  0.509495  1
  Lu  Lu13  1  0.480841  0.961681  0.009495  1
  Lu  Lu14  1  0.038319  0.519159  0.009495  1
  Lu  Lu15  1  0.480841  0.519159  0.009495  1
  Zn  Zn16  1  0.666667  0.333333  0.301082  1
  Zn  Zn17  1  0.333333  0.666667  0.801082  1
  In  In18  1  0.834795  0.669591  0.740152  1
  In  In19  1  0.330409  0.165205  0.740152  1
  In  In20  1  0.834795  0.165205  0.740152  1
  In  In21  1  0.165205  0.330409  0.240152  1
  In  In22  1  0.669591  0.834795  0.240152  1
  In  In23  1  0.165205  0.834795  0.240152  1
