# generated using pymatgen
data_Rb4Y4Bi7SbSe20
_symmetry_space_group_name_H-M   'P 1'
_cell_length_a   4.16449600
_cell_length_b   12.42914977
_cell_length_c   22.32311964
_cell_angle_alpha   89.80096943
_cell_angle_beta   90.00000000
_cell_angle_gamma   90.00000000
_symmetry_Int_Tables_number   1
_chemical_formula_structural   Rb4Y4Bi7SbSe20
_chemical_formula_sum   'Rb4 Y4 Bi7 Sb1 Se20'
_cell_volume   1155.46324948
_cell_formula_units_Z   1
loop_
 _symmetry_equiv_pos_site_id
 _symmetry_equiv_pos_as_xyz
  1  'x, y, z'
loop_
 _atom_site_type_symbol
 _atom_site_label
 _atom_site_symmetry_multiplicity
 _atom_site_fract_x
 _atom_site_fract_y
 _atom_site_fract_z
 _atom_site_occupancy
  Rb  Rb0  1  0.250000  0.488949  0.210077  1
  Rb  Rb1  1  0.750000  0.510873  0.789770  1
  Rb  Rb2  1  0.750000  0.989730  0.289411  1
  Rb  Rb3  1  0.250000  0.010650  0.711133  1
  Y  Y4  1  0.250000  0.365355  0.024307  1
  Y  Y5  1  0.750000  0.636238  0.976964  1
  Y  Y6  1  0.750000  0.863783  0.476037  1
  Y  Y7  1  0.250000  0.136343  0.523869  1
  Bi  Bi8  1  0.750000  0.197033  0.873946  1
  Bi  Bi9  1  0.750000  0.302259  0.374022  1
  Bi  Bi10  1  0.250000  0.697842  0.625883  1
  Bi  Bi11  1  0.250000  0.595947  0.423449  1
  Bi  Bi12  1  0.750000  0.404077  0.576455  1
  Bi  Bi13  1  0.750000  0.094831  0.075538  1
  Bi  Bi14  1  0.250000  0.902914  0.924522  1
  Sb  Sb15  1  0.250000  0.805232  0.125682  1
  Se  Se16  1  0.250000  0.812109  0.390068  1
  Se  Se17  1  0.750000  0.187981  0.609850  1
  Se  Se18  1  0.750000  0.310316  0.110010  1
  Se  Se19  1  0.250000  0.687949  0.890530  1
  Se  Se20  1  0.250000  0.247242  0.295436  1
  Se  Se21  1  0.750000  0.752564  0.704511  1
  Se  Se22  1  0.750000  0.752387  0.200700  1
  Se  Se23  1  0.250000  0.252936  0.795446  1
  Se  Se24  1  0.250000  0.355799  0.480858  1
  Se  Se25  1  0.750000  0.644206  0.518890  1
  Se  Se26  1  0.750000  0.855600  0.020068  1
  Se  Se27  1  0.250000  0.143938  0.981910  1
  Se  Se28  1  0.250000  0.019846  0.159016  1
  Se  Se29  1  0.750000  0.973863  0.841276  1
  Se  Se30  1  0.750000  0.526678  0.340584  1
  Se  Se31  1  0.250000  0.473451  0.659175  1
  Se  Se32  1  0.250000  0.583615  0.060783  1
  Se  Se33  1  0.750000  0.417308  0.939901  1
  Se  Se34  1  0.750000  0.083184  0.439632  1
  Se  Se35  1  0.250000  0.916969  0.560289  1
