# generated using pymatgen
data_DyYP7Ru12
_symmetry_space_group_name_H-M   'P 1'
_cell_length_a   9.41458500
_cell_length_b   9.41458494
_cell_length_c   3.96355300
_cell_angle_alpha   90.00000000
_cell_angle_beta   90.00000000
_cell_angle_gamma   119.99999668
_symmetry_Int_Tables_number   1
_chemical_formula_structural   DyYP7Ru12
_chemical_formula_sum   'Dy1 Y1 P7 Ru12'
_cell_volume   304.24095468
_cell_formula_units_Z   1
loop_
 _symmetry_equiv_pos_site_id
 _symmetry_equiv_pos_as_xyz
  1  'x, y, z'
loop_
 _atom_site_type_symbol
 _atom_site_label
 _atom_site_symmetry_multiplicity
 _atom_site_fract_x
 _atom_site_fract_y
 _atom_site_fract_z
 _atom_site_occupancy
  Dy  Dy0  1  0.666667  0.333333  0.500000  1
  Y  Y1  1  0.333333  0.666667  0.000000  1
  P  P2  1  0.601219  0.718551  0.500000  1
  P  P3  1  0.000000  0.000000  0.000000  1
  P  P4  1  0.281449  0.882669  0.500000  1
  P  P5  1  0.117331  0.398781  0.500000  1
  P  P6  1  0.885424  0.573619  0.000000  1
  P  P7  1  0.426381  0.311805  0.000000  1
  P  P8  1  0.688195  0.114576  0.000000  1
  Ru  Ru9  1  0.556655  0.950189  0.500000  1
  Ru  Ru10  1  0.393534  0.443345  0.500000  1
  Ru  Ru11  1  0.914885  0.121660  0.500000  1
  Ru  Ru12  1  0.206775  0.085115  0.500000  1
  Ru  Ru13  1  0.878340  0.793225  0.500000  1
  Ru  Ru14  1  0.728177  0.892580  0.000000  1
  Ru  Ru15  1  0.107420  0.835597  0.000000  1
  Ru  Ru16  1  0.164403  0.271823  0.000000  1
  Ru  Ru17  1  0.423296  0.066509  0.000000  1
  Ru  Ru18  1  0.933491  0.356789  0.000000  1
  Ru  Ru19  1  0.643211  0.576704  0.000000  1
  Ru  Ru20  1  0.049811  0.606466  0.500000  1
