# generated using pymatgen
data_HoNp3(NbN2)4
_symmetry_space_group_name_H-M   'P 1'
_cell_length_a   3.27002800
_cell_length_b   5.68092363
_cell_length_c   10.91522589
_cell_angle_alpha   89.98385729
_cell_angle_beta   90.00000000
_cell_angle_gamma   90.00000000
_symmetry_Int_Tables_number   1
_chemical_formula_structural   HoNp3(NbN2)4
_chemical_formula_sum   'Ho1 Np3 Nb4 N8'
_cell_volume   202.76973477
_cell_formula_units_Z   1
loop_
 _symmetry_equiv_pos_site_id
 _symmetry_equiv_pos_as_xyz
  1  'x, y, z'
loop_
 _atom_site_type_symbol
 _atom_site_label
 _atom_site_symmetry_multiplicity
 _atom_site_fract_x
 _atom_site_fract_y
 _atom_site_fract_z
 _atom_site_occupancy
  Ho  Ho0  1  0.250000  0.579454  0.856282  1
  Np  Np1  1  0.750000  0.424348  0.139359  1
  Np  Np2  1  0.750000  0.922357  0.358973  1
  Np  Np3  1  0.250000  0.078449  0.641934  1
  Nb  Nb4  1  0.250000  0.921577  0.100192  1
  Nb  Nb5  1  0.750000  0.077187  0.900964  1
  Nb  Nb6  1  0.750000  0.578585  0.602305  1
  Nb  Nb7  1  0.250000  0.421385  0.399413  1
  N  N8  1  0.250000  0.656164  0.244077  1
  N  N9  1  0.750000  0.338022  0.753574  1
  N  N10  1  0.750000  0.843859  0.744773  1
  N  N11  1  0.250000  0.157859  0.255763  1
  N  N12  1  0.250000  0.762327  0.505349  1
  N  N13  1  0.750000  0.236910  0.494840  1
  N  N14  1  0.750000  0.737844  0.005209  1
  N  N15  1  0.250000  0.263672  0.996994  1
