# generated using pymatgen
data_LaErRe4(SiC)2
_symmetry_space_group_name_H-M   'P 1'
_cell_length_a   5.83843489
_cell_length_b   5.83843350
_cell_length_c   7.35689600
_cell_angle_alpha   90.00000000
_cell_angle_beta   90.00000000
_cell_angle_gamma   140.08799070
_symmetry_Int_Tables_number   1
_chemical_formula_structural   LaErRe4(SiC)2
_chemical_formula_sum   'La1 Er1 Re4 Si2 C2'
_cell_volume   160.90102178
_cell_formula_units_Z   1
loop_
 _symmetry_equiv_pos_site_id
 _symmetry_equiv_pos_as_xyz
  1  'x, y, z'
loop_
 _atom_site_type_symbol
 _atom_site_label
 _atom_site_symmetry_multiplicity
 _atom_site_fract_x
 _atom_site_fract_y
 _atom_site_fract_z
 _atom_site_occupancy
  La  La0  1  0.457182  0.542818  0.750000  1
  Er  Er1  1  0.542554  0.457446  0.250000  1
  Re  Re2  1  0.825681  0.174319  0.064321  1
  Re  Re3  1  0.173266  0.826734  0.942539  1
  Re  Re4  1  0.173266  0.826734  0.557461  1
  Re  Re5  1  0.825681  0.174319  0.435679  1
  Si  Si6  1  0.265022  0.734978  0.250000  1
  Si  Si7  1  0.735409  0.264591  0.750000  1
  C  C8  1  0.000970  0.999030  0.010690  1
  C  C9  1  0.000970  0.999030  0.489310  1
