# generated using pymatgen
data_Sc2Be2GaIr2Rh3
_symmetry_space_group_name_H-M   'P 1'
_cell_length_a   9.48289410
_cell_length_b   9.50986807
_cell_length_c   3.10923500
_cell_angle_alpha   90.00000000
_cell_angle_beta   90.00000000
_cell_angle_gamma   89.87030495
_symmetry_Int_Tables_number   1
_chemical_formula_structural   Sc2Be2GaIr2Rh3
_chemical_formula_sum   'Sc4 Be4 Ga2 Ir4 Rh6'
_cell_volume   280.39342630
_cell_formula_units_Z   2
loop_
 _symmetry_equiv_pos_site_id
 _symmetry_equiv_pos_as_xyz
  1  'x, y, z'
loop_
 _atom_site_type_symbol
 _atom_site_label
 _atom_site_symmetry_multiplicity
 _atom_site_fract_x
 _atom_site_fract_y
 _atom_site_fract_z
 _atom_site_occupancy
  Sc  Sc0  1  0.673684  0.175298  0.000000  1
  Sc  Sc1  1  0.326316  0.824702  0.000000  1
  Sc  Sc2  1  0.175800  0.325234  0.000000  1
  Sc  Sc3  1  0.824200  0.674766  0.000000  1
  Be  Be4  1  0.123674  0.624203  0.000000  1
  Be  Be5  1  0.876326  0.375797  0.000000  1
  Be  Be6  1  0.624307  0.875900  0.000000  1
  Be  Be7  1  0.375693  0.124100  0.000000  1
  Ga  Ga8  1  0.000000  0.000000  0.000000  1
  Ga  Ga9  1  0.500000  0.500000  0.000000  1
  Ir  Ir10  1  0.568049  0.709524  0.500000  1
  Ir  Ir11  1  0.431951  0.290476  0.500000  1
  Ir  Ir12  1  0.500000  0.000000  0.500000  1
  Ir  Ir13  1  0.000000  0.500000  0.500000  1
  Rh  Rh14  1  0.208765  0.067806  0.500000  1
  Rh  Rh15  1  0.791235  0.932194  0.500000  1
  Rh  Rh16  1  0.068587  0.790890  0.500000  1
  Rh  Rh17  1  0.709457  0.431780  0.500000  1
  Rh  Rh18  1  0.931413  0.209110  0.500000  1
  Rh  Rh19  1  0.290543  0.568220  0.500000  1
