# generated using pymatgen
data_RbMn6(CoO8)2
_symmetry_space_group_name_H-M   'P 1'
_cell_length_a   5.79669132
_cell_length_b   7.10936809
_cell_length_c   7.16677963
_cell_angle_alpha   87.83395242
_cell_angle_beta   78.28717390
_cell_angle_gamma   78.22826559
_symmetry_Int_Tables_number   1
_chemical_formula_structural   RbMn6(CoO8)2
_chemical_formula_sum   'Rb1 Mn6 Co2 O16'
_cell_volume   283.11447153
_cell_formula_units_Z   1
loop_
 _symmetry_equiv_pos_site_id
 _symmetry_equiv_pos_as_xyz
  1  'x, y, z'
loop_
 _atom_site_type_symbol
 _atom_site_label
 _atom_site_symmetry_multiplicity
 _atom_site_fract_x
 _atom_site_fract_y
 _atom_site_fract_z
 _atom_site_occupancy
  Rb  Rb0  1  0.007608  0.993716  0.999191  1
  Mn  Mn1  1  0.171582  0.815984  0.510118  1
  Mn  Mn2  1  0.673150  0.815407  0.514127  1
  Mn  Mn3  1  0.338875  0.186213  0.479446  1
  Mn  Mn4  1  0.836107  0.187981  0.481863  1
  Mn  Mn5  1  0.425632  0.486192  0.824314  1
  Mn  Mn6  1  0.926757  0.488956  0.823624  1
  Co  Co7  1  0.579266  0.513174  0.184641  1
  Co  Co8  1  0.080917  0.511095  0.181386  1
  O  O9  1  0.830083  0.637952  0.054554  1
  O  O10  1  0.331554  0.637600  0.053949  1
  O  O11  1  0.983531  0.704664  0.376237  1
  O  O12  1  0.485872  0.702076  0.374800  1
  O  O13  1  0.857432  0.953006  0.638292  1
  O  O14  1  0.355739  0.952896  0.636364  1
  O  O15  1  0.340896  0.376750  0.288038  1
  O  O16  1  0.837151  0.373012  0.285951  1
  O  O17  1  0.167795  0.631820  0.716409  1
  O  O18  1  0.668620  0.626915  0.712772  1
  O  O19  1  0.152812  0.048758  0.355003  1
  O  O20  1  0.654359  0.047248  0.356535  1
  O  O21  1  0.025496  0.295335  0.622084  1
  O  O22  1  0.524417  0.295733  0.621185  1
  O  O23  1  0.175937  0.357216  0.952665  1
  O  O24  1  0.675512  0.360303  0.956452  1
