# generated using pymatgen
data_Nd2Er5Tm(Si3Rh)4
_symmetry_space_group_name_H-M   'P 1'
_cell_length_a   8.17908403
_cell_length_b   8.17908335
_cell_length_c   7.95980900
_cell_angle_alpha   90.00000000
_cell_angle_beta   90.00000000
_cell_angle_gamma   119.99033203
_symmetry_Int_Tables_number   1
_chemical_formula_structural   Nd2Er5Tm(Si3Rh)4
_chemical_formula_sum   'Nd2 Er5 Tm1 Si12 Rh4'
_cell_volume   461.19531160
_cell_formula_units_Z   1
loop_
 _symmetry_equiv_pos_site_id
 _symmetry_equiv_pos_as_xyz
  1  'x, y, z'
loop_
 _atom_site_type_symbol
 _atom_site_label
 _atom_site_symmetry_multiplicity
 _atom_site_fract_x
 _atom_site_fract_y
 _atom_site_fract_z
 _atom_site_occupancy
  Nd  Nd0  1  0.999985  0.000015  0.250000  1
  Nd  Nd1  1  0.000022  0.999978  0.750000  1
  Er  Er2  1  0.492063  0.984073  0.250000  1
  Er  Er3  1  0.015927  0.507937  0.250000  1
  Er  Er4  1  0.507960  0.492040  0.750000  1
  Er  Er5  1  0.984074  0.492047  0.750000  1
  Er  Er6  1  0.507953  0.015926  0.750000  1
  Tm  Tm7  1  0.492122  0.507878  0.250000  1
  Si  Si8  1  0.831474  0.168526  0.502606  1
  Si  Si9  1  0.831398  0.662911  0.502568  1
  Si  Si10  1  0.337089  0.168602  0.502568  1
  Si  Si11  1  0.831474  0.168526  0.997394  1
  Si  Si12  1  0.831398  0.662911  0.997432  1
  Si  Si13  1  0.337089  0.168602  0.997432  1
  Si  Si14  1  0.168524  0.831476  0.002630  1
  Si  Si15  1  0.662884  0.831357  0.002726  1
  Si  Si16  1  0.168643  0.337116  0.002726  1
  Si  Si17  1  0.168524  0.831476  0.497370  1
  Si  Si18  1  0.662884  0.831357  0.497274  1
  Si  Si19  1  0.168643  0.337116  0.497274  1
  Rh  Rh20  1  0.666537  0.333463  0.464696  1
  Rh  Rh21  1  0.666537  0.333463  0.035304  1
  Rh  Rh22  1  0.333397  0.666603  0.964998  1
  Rh  Rh23  1  0.333397  0.666603  0.535002  1
