# generated using pymatgen
data_Dy3ErAl24Pt6Rh2Au
_symmetry_space_group_name_H-M   'P 1'
_cell_length_a   7.51175747
_cell_length_b   7.50607524
_cell_length_c   13.17607500
_cell_angle_alpha   84.52718771
_cell_angle_beta   100.92001699
_cell_angle_gamma   119.78184682
_symmetry_Int_Tables_number   1
_chemical_formula_structural   Dy3ErAl24Pt6Rh2Au
_chemical_formula_sum   'Dy3 Er1 Al24 Pt6 Rh2 Au1'
_cell_volume   633.11871757
_cell_formula_units_Z   1
loop_
 _symmetry_equiv_pos_site_id
 _symmetry_equiv_pos_as_xyz
  1  'x, y, z'
loop_
 _atom_site_type_symbol
 _atom_site_label
 _atom_site_symmetry_multiplicity
 _atom_site_fract_x
 _atom_site_fract_y
 _atom_site_fract_z
 _atom_site_occupancy
  Dy  Dy0  1  0.732227  0.998965  0.190428  1
  Dy  Dy1  1  0.269864  0.003599  0.810213  1
  Dy  Dy2  1  0.060722  0.667448  0.190800  1
  Er  Er3  1  0.937652  0.331584  0.809988  1
  Al  Al4  1  0.812350  0.872380  0.818755  1
  Al  Al5  1  0.189324  0.128417  0.181380  1
  Al  Al6  1  0.987449  0.669748  0.946520  1
  Al  Al7  1  0.020480  0.334004  0.053356  1
  Al  Al8  1  0.394814  0.662543  0.819807  1
  Al  Al9  1  0.599677  0.335998  0.182740  1
  Al  Al10  1  0.888005  0.669409  0.675605  1
  Al  Al11  1  0.116293  0.334326  0.326558  1
  Al  Al12  1  0.604326  0.461838  0.820134  1
  Al  Al13  1  0.396599  0.544603  0.180394  1
  Al  Al14  1  0.228066  0.340431  0.673201  1
  Al  Al15  1  0.770189  0.660984  0.329391  1
  Al  Al16  1  0.860454  0.333690  0.558069  1
  Al  Al17  1  0.178180  0.991853  0.557978  1
  Al  Al18  1  0.813687  0.000443  0.439828  1
  Al  Al19  1  0.348061  0.994976  0.054027  1
  Al  Al20  1  0.648785  0.998183  0.946619  1
  Al  Al21  1  0.558287  0.987000  0.676032  1
  Al  Al22  1  0.442918  0.005353  0.327030  1
  Al  Al23  1  0.521206  0.674317  0.560233  1
  Al  Al24  1  0.476376  0.331497  0.432457  1
  Al  Al25  1  0.683070  0.672255  0.042909  1
  Al  Al26  1  0.313050  0.331014  0.957991  1
  Al  Al27  1  0.146774  0.666146  0.439884  1
  Pt  Pt28  1  0.454104  0.673824  0.362757  1
  Pt  Pt29  1  0.887424  0.007997  0.637983  1
  Pt  Pt30  1  0.113351  0.992312  0.361815  1
  Pt  Pt31  1  0.671727  0.328084  0.000436  1
  Pt  Pt32  1  0.204543  0.666715  0.638131  1
  Pt  Pt33  1  0.795234  0.332708  0.361769  1
  Rh  Rh34  1  0.328434  0.671158  0.999359  1
  Rh  Rh35  1  0.999870  0.000156  0.999498  1
  Au  Au36  1  0.546433  0.324038  0.635925  1
