# generated using pymatgen
data_Tb7Sn22HgRh6
_symmetry_space_group_name_H-M   'P 1'
_cell_length_a   9.85179100
_cell_length_b   9.85179064
_cell_length_c   10.16938800
_cell_angle_alpha   90.00000000
_cell_angle_beta   90.00000000
_cell_angle_gamma   120.00001127
_symmetry_Int_Tables_number   1
_chemical_formula_structural   Tb7Sn22HgRh6
_chemical_formula_sum   'Tb7 Sn22 Hg1 Rh6'
_cell_volume   854.78277924
_cell_formula_units_Z   1
loop_
 _symmetry_equiv_pos_site_id
 _symmetry_equiv_pos_as_xyz
  1  'x, y, z'
loop_
 _atom_site_type_symbol
 _atom_site_label
 _atom_site_symmetry_multiplicity
 _atom_site_fract_x
 _atom_site_fract_y
 _atom_site_fract_z
 _atom_site_occupancy
  Tb  Tb0  1  0.000000  0.000000  0.000000  1
  Tb  Tb1  1  0.478881  0.521119  0.307382  1
  Tb  Tb2  1  0.521119  0.478881  0.692618  1
  Tb  Tb3  1  0.478881  0.957763  0.307382  1
  Tb  Tb4  1  0.521119  0.042237  0.692618  1
  Tb  Tb5  1  0.042237  0.521119  0.307382  1
  Tb  Tb6  1  0.957763  0.478881  0.692618  1
  Sn  Sn7  1  0.350878  0.000000  0.000000  1
  Sn  Sn8  1  0.649122  0.000000  0.000000  1
  Sn  Sn9  1  0.000000  0.350878  0.000000  1
  Sn  Sn10  1  0.000000  0.649122  0.000000  1
  Sn  Sn11  1  0.649122  0.649122  0.000000  1
  Sn  Sn12  1  0.350878  0.350878  0.000000  1
  Sn  Sn13  1  0.333333  0.666667  0.819539  1
  Sn  Sn14  1  0.666667  0.333333  0.180461  1
  Sn  Sn15  1  0.779051  0.220949  0.456256  1
  Sn  Sn16  1  0.220949  0.779051  0.543744  1
  Sn  Sn17  1  0.779051  0.558102  0.456256  1
  Sn  Sn18  1  0.220949  0.441898  0.543744  1
  Sn  Sn19  1  0.441898  0.220949  0.456256  1
  Sn  Sn20  1  0.558102  0.779051  0.543744  1
  Sn  Sn21  1  0.333333  0.666667  0.118518  1
  Sn  Sn22  1  0.666667  0.333333  0.881482  1
  Sn  Sn23  1  0.118645  0.881355  0.278234  1
  Sn  Sn24  1  0.881355  0.118645  0.721766  1
  Sn  Sn25  1  0.118645  0.237290  0.278234  1
  Sn  Sn26  1  0.881355  0.762710  0.721766  1
  Sn  Sn27  1  0.762710  0.881355  0.278234  1
  Sn  Sn28  1  0.237290  0.118645  0.721766  1
  Hg  Hg29  1  0.000000  0.000000  0.500000  1
  Rh  Rh30  1  0.831396  0.168604  0.198341  1
  Rh  Rh31  1  0.168604  0.831396  0.801659  1
  Rh  Rh32  1  0.831396  0.662793  0.198341  1
  Rh  Rh33  1  0.168604  0.337207  0.801659  1
  Rh  Rh34  1  0.337207  0.168604  0.198341  1
  Rh  Rh35  1  0.662793  0.831396  0.801659  1
