# generated using pymatgen
data_SrYb(RuO4)6
_symmetry_space_group_name_H-M   'P 1'
_cell_length_a   10.44413400
_cell_length_b   10.44413355
_cell_length_c   6.38174300
_cell_angle_alpha   90.00000000
_cell_angle_beta   90.00000000
_cell_angle_gamma   119.99999424
_symmetry_Int_Tables_number   1
_chemical_formula_structural   SrYb(RuO4)6
_chemical_formula_sum   'Sr1 Yb1 Ru6 O24'
_cell_volume   602.85770984
_cell_formula_units_Z   1
loop_
 _symmetry_equiv_pos_site_id
 _symmetry_equiv_pos_as_xyz
  1  'x, y, z'
loop_
 _atom_site_type_symbol
 _atom_site_label
 _atom_site_symmetry_multiplicity
 _atom_site_fract_x
 _atom_site_fract_y
 _atom_site_fract_z
 _atom_site_occupancy
  Sr  Sr0  1  0.666667  0.333333  0.750000  1
  Yb  Yb1  1  0.333333  0.666667  0.250000  1
  Ru  Ru2  1  0.104237  0.399768  0.750000  1
  Ru  Ru3  1  0.383906  0.305133  0.250000  1
  Ru  Ru4  1  0.600232  0.704468  0.750000  1
  Ru  Ru5  1  0.921226  0.616094  0.250000  1
  Ru  Ru6  1  0.295532  0.895763  0.750000  1
  Ru  Ru7  1  0.694867  0.078774  0.250000  1
  O  O8  1  0.487878  0.657115  0.527851  1
  O  O9  1  0.342885  0.830765  0.527851  1
  O  O10  1  0.867070  0.746753  0.250000  1
  O  O11  1  0.108440  0.832531  0.750000  1
  O  O12  1  0.253247  0.120317  0.250000  1
  O  O13  1  0.167469  0.275909  0.750000  1
  O  O14  1  0.497010  0.348454  0.029767  1
  O  O15  1  0.879683  0.132930  0.250000  1
  O  O16  1  0.113298  0.698500  0.250000  1
  O  O17  1  0.169235  0.512122  0.972149  1
  O  O18  1  0.169235  0.512122  0.527851  1
  O  O19  1  0.912045  0.306323  0.750000  1
  O  O20  1  0.301500  0.414799  0.250000  1
  O  O21  1  0.693677  0.605721  0.750000  1
  O  O22  1  0.851445  0.502990  0.470233  1
  O  O23  1  0.394279  0.087955  0.750000  1
  O  O24  1  0.651546  0.148555  0.029767  1
  O  O25  1  0.487878  0.657115  0.972149  1
  O  O26  1  0.342885  0.830765  0.972149  1
  O  O27  1  0.651546  0.148555  0.470233  1
  O  O28  1  0.497010  0.348454  0.470233  1
  O  O29  1  0.851445  0.502990  0.029767  1
  O  O30  1  0.724091  0.891560  0.750000  1
  O  O31  1  0.585201  0.886702  0.250000  1
