# generated using pymatgen
data_LuU3O8
_symmetry_space_group_name_H-M   'P 1'
_cell_length_a   5.36618340
_cell_length_b   5.36618340
_cell_length_c   5.36618340
_cell_angle_alpha   89.96862611
_cell_angle_beta   89.96862611
_cell_angle_gamma   89.96862611
_symmetry_Int_Tables_number   1
_chemical_formula_structural   LuU3O8
_chemical_formula_sum   'Lu1 U3 O8'
_cell_volume   154.52414158
_cell_formula_units_Z   1
loop_
 _symmetry_equiv_pos_site_id
 _symmetry_equiv_pos_as_xyz
  1  'x, y, z'
loop_
 _atom_site_type_symbol
 _atom_site_label
 _atom_site_symmetry_multiplicity
 _atom_site_fract_x
 _atom_site_fract_y
 _atom_site_fract_z
 _atom_site_occupancy
  Lu  Lu0  1  0.000000  0.000000  0.000000  1
  U  U1  1  0.500001  0.500001  0.000000  1
  U  U2  1  0.500001  0.000000  0.500001  1
  U  U3  1  0.000000  0.500001  0.500001  1
  O  O4  1  0.249563  0.249563  0.249563  1
  O  O5  1  0.252304  0.748828  0.248387  1
  O  O6  1  0.748828  0.248387  0.252304  1
  O  O7  1  0.751614  0.747697  0.251173  1
  O  O8  1  0.248387  0.252304  0.748828  1
  O  O9  1  0.251173  0.751614  0.747697  1
  O  O10  1  0.747697  0.251173  0.751614  1
  O  O11  1  0.750438  0.750438  0.750438  1
