# generated using pymatgen
data_Y16In4OsRh3
_symmetry_space_group_name_H-M   'P 1'
_cell_length_a   9.71353816
_cell_length_b   9.71353800
_cell_length_c   9.71353748
_cell_angle_alpha   59.75325206
_cell_angle_beta   59.75325529
_cell_angle_gamma   59.75324781
_symmetry_Int_Tables_number   1
_chemical_formula_structural   Y16In4OsRh3
_chemical_formula_sum   'Y16 In4 Os1 Rh3'
_cell_volume   644.43202382
_cell_formula_units_Z   1
loop_
 _symmetry_equiv_pos_site_id
 _symmetry_equiv_pos_as_xyz
  1  'x, y, z'
loop_
 _atom_site_type_symbol
 _atom_site_label
 _atom_site_symmetry_multiplicity
 _atom_site_fract_x
 _atom_site_fract_y
 _atom_site_fract_z
 _atom_site_occupancy
  Y  Y0  1  0.688402  0.310565  0.310565  1
  Y  Y1  1  0.690612  0.690612  0.311898  1
  Y  Y2  1  0.310565  0.688402  0.310565  1
  Y  Y3  1  0.937242  0.937242  0.563148  1
  Y  Y4  1  0.149899  0.149899  0.548258  1
  Y  Y5  1  0.558982  0.944329  0.558982  1
  Y  Y6  1  0.150903  0.150903  0.150903  1
  Y  Y7  1  0.310565  0.310565  0.688402  1
  Y  Y8  1  0.944329  0.558982  0.558982  1
  Y  Y9  1  0.558982  0.558982  0.944329  1
  Y  Y10  1  0.563148  0.937242  0.937242  1
  Y  Y11  1  0.937242  0.563148  0.937242  1
  Y  Y12  1  0.149899  0.548258  0.149899  1
  Y  Y13  1  0.311898  0.690612  0.690612  1
  Y  Y14  1  0.690612  0.311898  0.690612  1
  Y  Y15  1  0.548258  0.149899  0.149899  1
  In  In16  1  0.917521  0.917521  0.248735  1
  In  In17  1  0.248735  0.917521  0.917521  1
  In  In18  1  0.917521  0.248735  0.917521  1
  In  In19  1  0.917171  0.917171  0.917171  1
  Os  Os20  1  0.357375  0.357375  0.357375  1
  Rh  Rh21  1  0.924261  0.357940  0.357940  1
  Rh  Rh22  1  0.357940  0.357940  0.924261  1
  Rh  Rh23  1  0.357940  0.924261  0.357940  1
