# generated using pymatgen
data_Gd2ErWO7
_symmetry_space_group_name_H-M   'P 1'
_cell_length_a   6.50597444
_cell_length_b   6.50597458
_cell_length_c   7.53668385
_cell_angle_alpha   89.99228219
_cell_angle_beta   89.99227988
_cell_angle_gamma   109.08649756
_symmetry_Int_Tables_number   1
_chemical_formula_structural   Gd2ErWO7
_chemical_formula_sum   'Gd4 Er2 W2 O14'
_cell_volume   301.47323221
_cell_formula_units_Z   2
loop_
 _symmetry_equiv_pos_site_id
 _symmetry_equiv_pos_as_xyz
  1  'x, y, z'
loop_
 _atom_site_type_symbol
 _atom_site_label
 _atom_site_symmetry_multiplicity
 _atom_site_fract_x
 _atom_site_fract_y
 _atom_site_fract_z
 _atom_site_occupancy
  Gd  Gd0  1  0.999285  0.467858  0.748469  1
  Gd  Gd1  1  0.532142  0.000715  0.751531  1
  Gd  Gd2  1  0.513809  0.512505  0.497385  1
  Gd  Gd3  1  0.487495  0.486191  0.002615  1
  Er  Er4  1  0.466939  0.998276  0.253890  1
  Er  Er5  1  0.001724  0.533061  0.246110  1
  W  W6  1  0.000365  0.000304  0.497293  1
  W  W7  1  0.999696  0.999635  0.002707  1
  O  O8  1  0.075605  0.924395  0.250000  1
  O  O9  1  0.063290  0.315218  0.461742  1
  O  O10  1  0.078104  0.324518  0.031926  1
  O  O11  1  0.359504  0.640496  0.250000  1
  O  O12  1  0.369194  0.630806  0.750000  1
  O  O13  1  0.323125  0.078123  0.976329  1
  O  O14  1  0.320687  0.071840  0.526786  1
  O  O15  1  0.684782  0.936710  0.038258  1
  O  O16  1  0.675482  0.921896  0.468074  1
  O  O17  1  0.634603  0.365397  0.250000  1
  O  O18  1  0.635077  0.364923  0.750000  1
  O  O19  1  0.921877  0.676875  0.523671  1
  O  O20  1  0.928160  0.679313  0.973214  1
  O  O21  1  0.929059  0.070941  0.750000  1
