# generated using pymatgen
data_Rb6DyYBi4
_symmetry_space_group_name_H-M   'P 1'
_cell_length_a   10.38795457
_cell_length_b   10.38795511
_cell_length_c   10.38795481
_cell_angle_alpha   128.12910317
_cell_angle_beta   70.58239476
_cell_angle_gamma   135.64447201
_symmetry_Int_Tables_number   1
_chemical_formula_structural   Rb6DyYBi4
_chemical_formula_sum   'Rb6 Dy1 Y1 Bi4'
_cell_volume   604.21804270
_cell_formula_units_Z   1
loop_
 _symmetry_equiv_pos_site_id
 _symmetry_equiv_pos_as_xyz
  1  'x, y, z'
loop_
 _atom_site_type_symbol
 _atom_site_label
 _atom_site_symmetry_multiplicity
 _atom_site_fract_x
 _atom_site_fract_y
 _atom_site_fract_z
 _atom_site_occupancy
  Rb  Rb0  1  0.250000  0.250000  0.000000  1
  Rb  Rb1  1  0.750000  0.750000  0.000000  1
  Rb  Rb2  1  0.313926  0.806342  0.120249  1
  Rb  Rb3  1  0.186074  0.306322  0.492415  1
  Rb  Rb4  1  0.813908  0.693659  0.507586  1
  Rb  Rb5  1  0.686092  0.193677  0.879750  1
  Dy  Dy6  1  0.750000  0.250000  0.500000  1
  Y  Y7  1  0.250000  0.749999  0.499999  1
  Bi  Bi8  1  0.901396  0.304301  0.205954  1
  Bi  Bi9  1  0.598604  0.804560  0.402906  1
  Bi  Bi10  1  0.401654  0.195699  0.597094  1
  Bi  Bi11  1  0.098346  0.695440  0.794045  1
