# generated using pymatgen
data_La7Tm3Zn2(Si2O)3
_symmetry_space_group_name_H-M   'P 1'
_cell_length_a   10.88491996
_cell_length_b   10.85814936
_cell_length_c   4.48191200
_cell_angle_alpha   90.00000000
_cell_angle_beta   90.00000000
_cell_angle_gamma   119.91867658
_symmetry_Int_Tables_number   1
_chemical_formula_structural   La7Tm3Zn2(Si2O)3
_chemical_formula_sum   'La7 Tm3 Zn2 Si6 O3'
_cell_volume   459.12433894
_cell_formula_units_Z   1
loop_
 _symmetry_equiv_pos_site_id
 _symmetry_equiv_pos_as_xyz
  1  'x, y, z'
loop_
 _atom_site_type_symbol
 _atom_site_label
 _atom_site_symmetry_multiplicity
 _atom_site_fract_x
 _atom_site_fract_y
 _atom_site_fract_z
 _atom_site_occupancy
  La  La0  1  0.214060  0.787749  0.000000  1
  La  La1  1  0.574992  0.787496  0.000000  1
  La  La2  1  0.785940  0.573690  0.000000  1
  La  La3  1  0.000000  0.000000  0.000000  1
  La  La4  1  0.214060  0.426310  0.000000  1
  La  La5  1  0.425008  0.212504  0.000000  1
  La  La6  1  0.785940  0.212251  0.000000  1
  Tm  Tm7  1  0.000000  0.500000  0.500000  1
  Tm  Tm8  1  0.500000  0.500000  0.500000  1
  Tm  Tm9  1  0.500000  0.000000  0.500000  1
  Zn  Zn10  1  0.000000  0.777512  0.500000  1
  Zn  Zn11  1  0.000000  0.222488  0.500000  1
  Si  Si12  1  0.225128  0.222252  0.500000  1
  Si  Si13  1  0.774872  0.997124  0.500000  1
  Si  Si14  1  0.332308  0.666155  0.500000  1
  Si  Si15  1  0.225128  0.002876  0.500000  1
  Si  Si16  1  0.667692  0.333845  0.500000  1
  Si  Si17  1  0.774872  0.777748  0.500000  1
  O  O18  1  0.000000  0.500000  0.000000  1
  O  O19  1  0.500000  0.500000  0.000000  1
  O  O20  1  0.500000  0.000000  0.000000  1
