# generated using pymatgen
data_Er16Sc4AgRh11
_symmetry_space_group_name_H-M   'P 1'
_cell_length_a   10.69584362
_cell_length_b   10.69584370
_cell_length_c   6.23650800
_cell_angle_alpha   90.01958456
_cell_angle_beta   90.01958456
_cell_angle_gamma   89.92534591
_symmetry_Int_Tables_number   1
_chemical_formula_structural   Er16Sc4AgRh11
_chemical_formula_sum   'Er16 Sc4 Ag1 Rh11'
_cell_volume   713.46250984
_cell_formula_units_Z   1
loop_
 _symmetry_equiv_pos_site_id
 _symmetry_equiv_pos_as_xyz
  1  'x, y, z'
loop_
 _atom_site_type_symbol
 _atom_site_label
 _atom_site_symmetry_multiplicity
 _atom_site_fract_x
 _atom_site_fract_y
 _atom_site_fract_z
 _atom_site_occupancy
  Er  Er0  1  0.287467  0.087233  0.378002  1
  Er  Er1  1  0.286374  0.920423  0.879626  1
  Er  Er2  1  0.712482  0.086661  0.877117  1
  Er  Er3  1  0.712584  0.913330  0.378275  1
  Er  Er4  1  0.592936  0.790489  0.880359  1
  Er  Er5  1  0.587171  0.211910  0.376741  1
  Er  Er6  1  0.416535  0.792949  0.364507  1
  Er  Er7  1  0.412789  0.213457  0.876629  1
  Er  Er8  1  0.209511  0.407064  0.619641  1
  Er  Er9  1  0.207051  0.583465  0.135493  1
  Er  Er10  1  0.788090  0.412829  0.123259  1
  Er  Er11  1  0.786543  0.587211  0.623371  1
  Er  Er12  1  0.912767  0.712533  0.121998  1
  Er  Er13  1  0.913339  0.287518  0.622883  1
  Er  Er14  1  0.079577  0.713626  0.620374  1
  Er  Er15  1  0.086670  0.287416  0.121725  1
  Sc  Sc16  1  0.999925  0.000328  0.499319  1
  Sc  Sc17  1  0.999672  0.000075  0.000681  1
  Sc  Sc18  1  0.505444  0.494719  0.005387  1
  Sc  Sc19  1  0.505281  0.494556  0.494613  1
  Ag  Ag20  1  0.348935  0.651065  0.750000  1
  Rh  Rh21  1  0.850554  0.149446  0.250000  1
  Rh  Rh22  1  0.850969  0.850866  0.749652  1
  Rh  Rh23  1  0.149134  0.149031  0.750348  1
  Rh  Rh24  1  0.150243  0.849757  0.250000  1
  Rh  Rh25  1  0.649411  0.350589  0.750000  1
  Rh  Rh26  1  0.647770  0.649746  0.249756  1
  Rh  Rh27  1  0.350254  0.352230  0.250244  1
  Rh  Rh28  1  0.499421  0.999852  0.122697  1
  Rh  Rh29  1  0.499896  0.998942  0.624561  1
  Rh  Rh30  1  0.001058  0.500104  0.875439  1
  Rh  Rh31  1  0.000148  0.500579  0.377303  1
