# generated using pymatgen
data_Er3In3PtRhPb
_symmetry_space_group_name_H-M   'P 1'
_cell_length_a   7.87778600
_cell_length_b   7.87778740
_cell_length_c   3.86355100
_cell_angle_alpha   90.00000000
_cell_angle_beta   90.00000000
_cell_angle_gamma   119.99998571
_symmetry_Int_Tables_number   1
_chemical_formula_structural   Er3In3PtRhPb
_chemical_formula_sum   'Er3 In3 Pt1 Rh1 Pb1'
_cell_volume   207.64705649
_cell_formula_units_Z   1
loop_
 _symmetry_equiv_pos_site_id
 _symmetry_equiv_pos_as_xyz
  1  'x, y, z'
loop_
 _atom_site_type_symbol
 _atom_site_label
 _atom_site_symmetry_multiplicity
 _atom_site_fract_x
 _atom_site_fract_y
 _atom_site_fract_z
 _atom_site_occupancy
  Er  Er0  1  0.031071  0.615529  0.500000  1
  Er  Er1  1  0.384471  0.415542  0.500000  1
  Er  Er2  1  0.584458  0.968929  0.500000  1
  In  In3  1  0.244936  0.991429  0.000000  1
  In  In4  1  0.746493  0.755064  0.000000  1
  In  In5  1  0.008571  0.253507  0.000000  1
  Pt  Pt6  1  0.333333  0.666667  0.000000  1
  Rh  Rh7  1  0.000000  0.000000  0.500000  1
  Pb  Pb8  1  0.666667  0.333333  0.000000  1
