# generated using pymatgen
data_Y2P4Ir5Ru
_symmetry_space_group_name_H-M   'P 1'
_cell_length_a   3.97926200
_cell_length_b   11.23026039
_cell_length_c   12.70954122
_cell_angle_alpha   89.62008711
_cell_angle_beta   90.00000000
_cell_angle_gamma   90.00000000
_symmetry_Int_Tables_number   1
_chemical_formula_structural   Y2P4Ir5Ru
_chemical_formula_sum   'Y6 P12 Ir15 Ru3'
_cell_volume   567.95337882
_cell_formula_units_Z   3
loop_
 _symmetry_equiv_pos_site_id
 _symmetry_equiv_pos_as_xyz
  1  'x, y, z'
loop_
 _atom_site_type_symbol
 _atom_site_label
 _atom_site_symmetry_multiplicity
 _atom_site_fract_x
 _atom_site_fract_y
 _atom_site_fract_z
 _atom_site_occupancy
  Y  Y0  1  0.000000  0.498107  0.521403  1
  Y  Y1  1  0.500000  0.001852  0.478355  1
  Y  Y2  1  0.500000  0.819006  0.206258  1
  Y  Y3  1  0.500000  0.180239  0.205032  1
  Y  Y4  1  0.000000  0.679805  0.794027  1
  Y  Y5  1  0.000000  0.320376  0.795575  1
  P  P6  1  0.500000  0.497674  0.881651  1
  P  P7  1  0.000000  0.999490  0.120986  1
  P  P8  1  0.500000  0.499762  0.351075  1
  P  P9  1  0.000000  0.000427  0.648209  1
  P  P10  1  0.500000  0.315385  0.619289  1
  P  P11  1  0.500000  0.683343  0.618625  1
  P  P12  1  0.000000  0.184852  0.380846  1
  P  P13  1  0.000000  0.815942  0.381754  1
  P  P14  1  0.500000  0.843868  0.885884  1
  P  P15  1  0.500000  0.163036  0.892146  1
  P  P16  1  0.000000  0.656418  0.113345  1
  P  P17  1  0.000000  0.339779  0.106078  1
  Ir  Ir18  1  0.500000  0.499453  0.701955  1
  Ir  Ir19  1  0.000000  0.000200  0.299099  1
  Ir  Ir20  1  0.000000  0.502958  0.995698  1
  Ir  Ir21  1  0.500000  0.998136  0.002231  1
  Ir  Ir22  1  0.500000  0.669994  0.982392  1
  Ir  Ir23  1  0.000000  0.164411  0.010409  1
  Ir  Ir24  1  0.000000  0.831543  0.017691  1
  Ir  Ir25  1  0.500000  0.298042  0.430196  1
  Ir  Ir26  1  0.500000  0.702447  0.431627  1
  Ir  Ir27  1  0.000000  0.203158  0.569446  1
  Ir  Ir28  1  0.000000  0.796837  0.568601  1
  Ir  Ir29  1  0.500000  0.871977  0.708919  1
  Ir  Ir30  1  0.500000  0.128141  0.714194  1
  Ir  Ir31  1  0.000000  0.627547  0.290712  1
  Ir  Ir32  1  0.000000  0.371479  0.284757  1
  Ru  Ru33  1  0.500000  0.506195  0.166935  1
  Ru  Ru34  1  0.000000  0.993837  0.832059  1
  Ru  Ru35  1  0.500000  0.334284  0.992541  1
