# generated using pymatgen
data_Ba2GaSnI
_symmetry_space_group_name_H-M   'P 1'
_cell_length_a   4.74556200
_cell_length_b   4.74556129
_cell_length_c   19.63014600
_cell_angle_alpha   90.00000000
_cell_angle_beta   90.00000000
_cell_angle_gamma   119.99999104
_symmetry_Int_Tables_number   1
_chemical_formula_structural   Ba2GaSnI
_chemical_formula_sum   'Ba4 Ga2 Sn2 I2'
_cell_volume   382.85069408
_cell_formula_units_Z   2
loop_
 _symmetry_equiv_pos_site_id
 _symmetry_equiv_pos_as_xyz
  1  'x, y, z'
loop_
 _atom_site_type_symbol
 _atom_site_label
 _atom_site_symmetry_multiplicity
 _atom_site_fract_x
 _atom_site_fract_y
 _atom_site_fract_z
 _atom_site_occupancy
  Ba  Ba0  1  0.000000  0.000000  0.124033  1
  Ba  Ba1  1  0.000000  0.000000  0.375967  1
  Ba  Ba2  1  0.000000  0.000000  0.620846  1
  Ba  Ba3  1  0.000000  0.000000  0.879154  1
  Ga  Ga4  1  0.666668  0.333335  0.527670  1
  Ga  Ga5  1  0.666668  0.333335  0.972330  1
  Sn  Sn6  1  0.333333  0.666667  0.019083  1
  Sn  Sn7  1  0.333333  0.666667  0.480917  1
  I  I8  1  0.666668  0.333335  0.250000  1
  I  I9  1  0.333333  0.666667  0.750000  1
