# generated using pymatgen
data_Y4Ga4Ir2PdPt
_symmetry_space_group_name_H-M   'P 1'
_cell_length_a   4.43738000
_cell_length_b   6.88448781
_cell_length_c   7.69174649
_cell_angle_alpha   89.76249939
_cell_angle_beta   90.00000000
_cell_angle_gamma   90.00000000
_symmetry_Int_Tables_number   1
_chemical_formula_structural   Y4Ga4Ir2PdPt
_chemical_formula_sum   'Y4 Ga4 Ir2 Pd1 Pt1'
_cell_volume   234.97382579
_cell_formula_units_Z   1
loop_
 _symmetry_equiv_pos_site_id
 _symmetry_equiv_pos_as_xyz
  1  'x, y, z'
loop_
 _atom_site_type_symbol
 _atom_site_label
 _atom_site_symmetry_multiplicity
 _atom_site_fract_x
 _atom_site_fract_y
 _atom_site_fract_z
 _atom_site_occupancy
  Y  Y0  1  0.250000  0.986890  0.303266  1
  Y  Y1  1  0.250000  0.485698  0.195434  1
  Y  Y2  1  0.750000  0.023983  0.690167  1
  Y  Y3  1  0.750000  0.520438  0.811036  1
  Ga  Ga4  1  0.250000  0.331053  0.570555  1
  Ga  Ga5  1  0.250000  0.832980  0.929187  1
  Ga  Ga6  1  0.750000  0.663262  0.425173  1
  Ga  Ga7  1  0.750000  0.162383  0.075926  1
  Ir  Ir8  1  0.750000  0.774554  0.102692  1
  Ir  Ir9  1  0.750000  0.275662  0.397140  1
  Pd  Pd10  1  0.250000  0.720395  0.602345  1
  Pt  Pt11  1  0.250000  0.222703  0.897079  1
