# generated using pymatgen
data_LiCa(Pr4Si3)2
_symmetry_space_group_name_H-M   'P 1'
_cell_length_a   7.71234171
_cell_length_b   7.71234011
_cell_length_c   8.99198817
_cell_angle_alpha   115.39429927
_cell_angle_beta   115.39429037
_cell_angle_gamma   90.00000031
_symmetry_Int_Tables_number   1
_chemical_formula_structural   LiCa(Pr4Si3)2
_chemical_formula_sum   'Li1 Ca1 Pr8 Si6'
_cell_volume   425.25534620
_cell_formula_units_Z   1
loop_
 _symmetry_equiv_pos_site_id
 _symmetry_equiv_pos_as_xyz
  1  'x, y, z'
loop_
 _atom_site_type_symbol
 _atom_site_label
 _atom_site_symmetry_multiplicity
 _atom_site_fract_x
 _atom_site_fract_y
 _atom_site_fract_z
 _atom_site_occupancy
  Li  Li0  1  0.500000  0.500000  0.000000  1
  Ca  Ca1  1  0.000000  0.000000  0.000000  1
  Pr  Pr2  1  0.957776  0.816726  0.286649  1
  Pr  Pr3  1  0.328872  0.469923  0.286649  1
  Pr  Pr4  1  0.816726  0.328872  0.286649  1
  Pr  Pr5  1  0.469923  0.957776  0.286649  1
  Pr  Pr6  1  0.042224  0.183274  0.713351  1
  Pr  Pr7  1  0.671128  0.530077  0.713351  1
  Pr  Pr8  1  0.183274  0.671128  0.713351  1
  Pr  Pr9  1  0.530077  0.042224  0.713351  1
  Si  Si10  1  0.761961  0.761961  0.523923  1
  Si  Si11  1  0.238039  0.238039  0.476077  1
  Si  Si12  1  0.612854  0.888716  0.000000  1
  Si  Si13  1  0.387146  0.111284  0.000000  1
  Si  Si14  1  0.888716  0.387146  0.000000  1
  Si  Si15  1  0.111284  0.612854  0.000000  1
