# generated using pymatgen
data_K3YbRhO6
_symmetry_space_group_name_H-M   'P 1'
_cell_length_a   7.14866062
_cell_length_b   7.14847585
_cell_length_c   7.14880758
_cell_angle_alpha   93.73348808
_cell_angle_beta   93.73505504
_cell_angle_gamma   93.73119790
_symmetry_Int_Tables_number   1
_chemical_formula_structural   K3YbRhO6
_chemical_formula_sum   'K6 Yb2 Rh2 O12'
_cell_volume   362.88647926
_cell_formula_units_Z   2
loop_
 _symmetry_equiv_pos_site_id
 _symmetry_equiv_pos_as_xyz
  1  'x, y, z'
loop_
 _atom_site_type_symbol
 _atom_site_label
 _atom_site_symmetry_multiplicity
 _atom_site_fract_x
 _atom_site_fract_y
 _atom_site_fract_z
 _atom_site_occupancy
  K  K0  1  0.750082  0.386941  0.112991  1
  K  K1  1  0.613058  0.887017  0.249926  1
  K  K2  1  0.112985  0.750089  0.386941  1
  K  K3  1  0.887015  0.249912  0.613059  1
  K  K4  1  0.386942  0.112983  0.750074  1
  K  K5  1  0.249918  0.613060  0.887009  1
  Yb  Yb6  1  0.249945  0.249946  0.249941  1
  Yb  Yb7  1  0.750055  0.750054  0.750059  1
  Rh  Rh8  1  0.000000  0.000000  0.000000  1
  Rh  Rh9  1  0.500000  0.500000  0.500000  1
  O  O10  1  0.915017  0.739090  0.035092  1
  O  O11  1  0.260911  0.964897  0.084980  1
  O  O12  1  0.415022  0.535094  0.239120  1
  O  O13  1  0.964907  0.084984  0.260905  1
  O  O14  1  0.535093  0.239104  0.415018  1
  O  O15  1  0.760883  0.584971  0.464911  1
  O  O16  1  0.239117  0.415028  0.535089  1
  O  O17  1  0.464906  0.760895  0.584982  1
  O  O18  1  0.035092  0.915015  0.739094  1
  O  O19  1  0.584978  0.464906  0.760880  1
  O  O20  1  0.739089  0.035103  0.915020  1
  O  O21  1  0.084983  0.260909  0.964907  1
