# generated using pymatgen
data_TbDy3(Zn5Ge)2
_symmetry_space_group_name_H-M   'P 1'
_cell_length_a   8.25321307
_cell_length_b   8.25321345
_cell_length_c   8.83276600
_cell_angle_alpha   90.32290607
_cell_angle_beta   89.67709392
_cell_angle_gamma   149.53714033
_symmetry_Int_Tables_number   1
_chemical_formula_structural   TbDy3(Zn5Ge)2
_chemical_formula_sum   'Tb1 Dy3 Zn10 Ge2'
_cell_volume   305.01840587
_cell_formula_units_Z   1
loop_
 _symmetry_equiv_pos_site_id
 _symmetry_equiv_pos_as_xyz
  1  'x, y, z'
loop_
 _atom_site_type_symbol
 _atom_site_label
 _atom_site_symmetry_multiplicity
 _atom_site_fract_x
 _atom_site_fract_y
 _atom_site_fract_z
 _atom_site_occupancy
  Tb  Tb0  1  0.000000  0.000000  0.000000  1
  Dy  Dy1  1  0.199711  0.800289  0.251564  1
  Dy  Dy2  1  0.800289  0.199711  0.748436  1
  Dy  Dy3  1  0.000000  0.000000  0.500000  1
  Zn  Zn4  1  0.813547  0.186453  0.391421  1
  Zn  Zn5  1  0.186453  0.813547  0.608579  1
  Zn  Zn6  1  0.811944  0.188056  0.105775  1
  Zn  Zn7  1  0.188056  0.811944  0.894225  1
  Zn  Zn8  1  0.651398  0.348602  0.477968  1
  Zn  Zn9  1  0.348602  0.651398  0.522032  1
  Zn  Zn10  1  0.651117  0.348883  0.024430  1
  Zn  Zn11  1  0.348883  0.651117  0.975570  1
  Zn  Zn12  1  0.399675  0.600325  0.248680  1
  Zn  Zn13  1  0.600325  0.399675  0.751320  1
  Ge  Ge14  1  0.554860  0.445140  0.252017  1
  Ge  Ge15  1  0.445140  0.554860  0.747983  1
