# generated using pymatgen
data_Hf9AlCuRe3
_symmetry_space_group_name_H-M   'P 1'
_cell_length_a   8.67834300
_cell_length_b   8.67839650
_cell_length_c   8.37636900
_cell_angle_alpha   90.00000000
_cell_angle_beta   90.00000000
_cell_angle_gamma   120.00196519
_symmetry_Int_Tables_number   1
_chemical_formula_structural   Hf9AlCuRe3
_chemical_formula_sum   'Hf18 Al2 Cu2 Re6'
_cell_volume   546.32884559
_cell_formula_units_Z   2
loop_
 _symmetry_equiv_pos_site_id
 _symmetry_equiv_pos_as_xyz
  1  'x, y, z'
loop_
 _atom_site_type_symbol
 _atom_site_label
 _atom_site_symmetry_multiplicity
 _atom_site_fract_x
 _atom_site_fract_y
 _atom_site_fract_z
 _atom_site_occupancy
  Hf  Hf0  1  0.194302  0.805698  0.442150  1
  Hf  Hf1  1  0.194301  0.388610  0.442147  1
  Hf  Hf2  1  0.611390  0.805699  0.442144  1
  Hf  Hf3  1  0.805698  0.194302  0.557850  1
  Hf  Hf4  1  0.805699  0.611390  0.557853  1
  Hf  Hf5  1  0.388610  0.194301  0.557856  1
  Hf  Hf6  1  0.805698  0.194302  0.942150  1
  Hf  Hf7  1  0.805699  0.611390  0.942147  1
  Hf  Hf8  1  0.388610  0.194301  0.942144  1
  Hf  Hf9  1  0.194302  0.805698  0.057850  1
  Hf  Hf10  1  0.194301  0.388610  0.057853  1
  Hf  Hf11  1  0.611390  0.805699  0.057856  1
  Hf  Hf12  1  0.543481  0.456523  0.250000  1
  Hf  Hf13  1  0.543484  0.086958  0.250000  1
  Hf  Hf14  1  0.913046  0.456521  0.250000  1
  Hf  Hf15  1  0.456519  0.543477  0.750000  1
  Hf  Hf16  1  0.456516  0.913042  0.750000  1
  Hf  Hf17  1  0.086954  0.543479  0.750000  1
  Al  Al18  1  0.000000  0.000000  0.500000  1
  Al  Al19  1  0.000000  0.000000  0.000000  1
  Cu  Cu20  1  0.333336  0.666661  0.250000  1
  Cu  Cu21  1  0.666664  0.333339  0.750000  1
  Re  Re22  1  0.885851  0.114148  0.250000  1
  Re  Re23  1  0.885857  0.771712  0.250000  1
  Re  Re24  1  0.228297  0.114147  0.250000  1
  Re  Re25  1  0.114149  0.885852  0.750000  1
  Re  Re26  1  0.114143  0.228288  0.750000  1
  Re  Re27  1  0.771703  0.885853  0.750000  1
