# generated using pymatgen
data_V3Cr2
_symmetry_space_group_name_H-M   'P 1'
_cell_length_a   4.09759916
_cell_length_b   4.08808748
_cell_length_c   4.93157059
_cell_angle_alpha   65.50017044
_cell_angle_beta   90.27185009
_cell_angle_gamma   60.29731663
_symmetry_Int_Tables_number   1
_chemical_formula_structural   V3Cr2
_chemical_formula_sum   'V3 Cr2'
_cell_volume   62.94350189
_cell_formula_units_Z   1
loop_
 _symmetry_equiv_pos_site_id
 _symmetry_equiv_pos_as_xyz
  1  'x, y, z'
loop_
 _atom_site_type_symbol
 _atom_site_label
 _atom_site_symmetry_multiplicity
 _atom_site_fract_x
 _atom_site_fract_y
 _atom_site_fract_z
 _atom_site_occupancy
  V  V0  1  0.990700  0.262509  0.928873  1
  V  V1  1  0.579359  0.083708  0.696479  1
  V  V2  1  0.785342  0.672917  0.312807  1
  Cr  Cr3  1  0.187949  0.867598  0.520252  1
  Cr  Cr4  1  0.382638  0.478173  0.105429  1
