# generated using pymatgen
data_Ho5FeSb2
_symmetry_space_group_name_H-M   'P 1'
_cell_length_a   7.83182600
_cell_length_b   8.77420100
_cell_length_c   12.16493200
_cell_angle_alpha   90.00000000
_cell_angle_beta   90.00000000
_cell_angle_gamma   90.00000000
_symmetry_Int_Tables_number   1
_chemical_formula_structural   Ho5FeSb2
_chemical_formula_sum   'Ho20 Fe4 Sb8'
_cell_volume   835.94998599
_cell_formula_units_Z   4
loop_
 _symmetry_equiv_pos_site_id
 _symmetry_equiv_pos_as_xyz
  1  'x, y, z'
loop_
 _atom_site_type_symbol
 _atom_site_label
 _atom_site_symmetry_multiplicity
 _atom_site_fract_x
 _atom_site_fract_y
 _atom_site_fract_z
 _atom_site_occupancy
  Ho  Ho0  1  0.156979  0.750000  0.204622  1
  Ho  Ho1  1  0.656979  0.250000  0.295378  1
  Ho  Ho2  1  0.843021  0.250000  0.795378  1
  Ho  Ho3  1  0.343021  0.750000  0.704622  1
  Ho  Ho4  1  0.449803  0.750000  0.996649  1
  Ho  Ho5  1  0.949803  0.250000  0.503351  1
  Ho  Ho6  1  0.550197  0.250000  0.003351  1
  Ho  Ho7  1  0.050197  0.750000  0.496649  1
  Ho  Ho8  1  0.623186  0.750000  0.307809  1
  Ho  Ho9  1  0.123186  0.250000  0.192191  1
  Ho  Ho10  1  0.376814  0.250000  0.692191  1
  Ho  Ho11  1  0.876814  0.750000  0.807809  1
  Ho  Ho12  1  0.824267  0.964217  0.064411  1
  Ho  Ho13  1  0.324267  0.035783  0.435589  1
  Ho  Ho14  1  0.175733  0.464217  0.935589  1
  Ho  Ho15  1  0.675733  0.535783  0.564411  1
  Ho  Ho16  1  0.175733  0.035783  0.935589  1
  Ho  Ho17  1  0.675733  0.964217  0.564411  1
  Ho  Ho18  1  0.824267  0.535783  0.064411  1
  Ho  Ho19  1  0.324267  0.464217  0.435589  1
  Fe  Fe20  1  0.428322  0.750000  0.489315  1
  Fe  Fe21  1  0.928322  0.250000  0.010685  1
  Fe  Fe22  1  0.571678  0.250000  0.510685  1
  Fe  Fe23  1  0.071678  0.750000  0.989315  1
  Sb  Sb24  1  0.930504  0.992658  0.327703  1
  Sb  Sb25  1  0.430504  0.007342  0.172297  1
  Sb  Sb26  1  0.069496  0.492658  0.672297  1
  Sb  Sb27  1  0.569496  0.507342  0.827703  1
  Sb  Sb28  1  0.069496  0.007342  0.672297  1
  Sb  Sb29  1  0.569496  0.992658  0.827703  1
  Sb  Sb30  1  0.930504  0.507342  0.327703  1
  Sb  Sb31  1  0.430504  0.492658  0.172297  1
