# generated using pymatgen
data_Dy3Al3GaGeRh
_symmetry_space_group_name_H-M   'P 1'
_cell_length_a   7.00375600
_cell_length_b   7.00375546
_cell_length_c   4.22628300
_cell_angle_alpha   90.00000000
_cell_angle_beta   90.00000000
_cell_angle_gamma   120.00000253
_symmetry_Int_Tables_number   1
_chemical_formula_structural   Dy3Al3GaGeRh
_chemical_formula_sum   'Dy3 Al3 Ga1 Ge1 Rh1'
_cell_volume   179.53584802
_cell_formula_units_Z   1
loop_
 _symmetry_equiv_pos_site_id
 _symmetry_equiv_pos_as_xyz
  1  'x, y, z'
loop_
 _atom_site_type_symbol
 _atom_site_label
 _atom_site_symmetry_multiplicity
 _atom_site_fract_x
 _atom_site_fract_y
 _atom_site_fract_z
 _atom_site_occupancy
  Dy  Dy0  1  0.414434  0.999957  0.000000  1
  Dy  Dy1  1  0.000043  0.414477  0.000000  1
  Dy  Dy2  1  0.585524  0.585567  0.000000  1
  Al  Al3  1  0.772331  0.005971  0.499999  1
  Al  Al4  1  0.233641  0.227670  0.499999  1
  Al  Al5  1  0.994029  0.766360  0.499999  1
  Ga  Ga6  1  0.666666  0.333333  0.499999  1
  Ge  Ge7  1  0.333333  0.666666  0.499999  1
  Rh  Rh8  1  0.000000  0.000000  0.000000  1
