# generated using pymatgen
data_NdY2Ga9Pd2
_symmetry_space_group_name_H-M   'P 1'
_cell_length_a   8.22566657
_cell_length_b   8.22566652
_cell_length_c   8.22566675
_cell_angle_alpha   149.50629890
_cell_angle_beta   109.21378739
_cell_angle_gamma   79.00176123
_symmetry_Int_Tables_number   1
_chemical_formula_structural   NdY2Ga9Pd2
_chemical_formula_sum   'Nd1 Y2 Ga9 Pd2'
_cell_volume   261.64319839
_cell_formula_units_Z   1
loop_
 _symmetry_equiv_pos_site_id
 _symmetry_equiv_pos_as_xyz
  1  'x, y, z'
loop_
 _atom_site_type_symbol
 _atom_site_label
 _atom_site_symmetry_multiplicity
 _atom_site_fract_x
 _atom_site_fract_y
 _atom_site_fract_z
 _atom_site_occupancy
  Nd  Nd0  1  0.500000  0.500000  0.000000  1
  Y  Y1  1  0.198775  0.198775  0.000000  1
  Y  Y2  1  0.801225  0.801225  0.000000  1
  Ga  Ga3  1  0.644285  0.360741  0.283543  1
  Ga  Ga4  1  0.355715  0.639259  0.716457  1
  Ga  Ga5  1  0.077197  0.360741  0.716457  1
  Ga  Ga6  1  0.922803  0.639259  0.283543  1
  Ga  Ga7  1  0.522786  0.157403  0.365383  1
  Ga  Ga8  1  0.477214  0.842597  0.634617  1
  Ga  Ga9  1  0.792021  0.157403  0.634617  1
  Ga  Ga10  1  0.207979  0.842597  0.365383  1
  Ga  Ga11  1  0.000000  0.500000  0.500000  1
  Pd  Pd12  1  0.185134  0.000000  0.185134  1
  Pd  Pd13  1  0.814866  0.000000  0.814866  1
