# generated using pymatgen
data_Tb2Ga8Ni9
_symmetry_space_group_name_H-M   'P 1'
_cell_length_a   6.47896141
_cell_length_b   6.47896159
_cell_length_c   6.47896093
_cell_angle_alpha   85.21395855
_cell_angle_beta   94.78604244
_cell_angle_gamma   94.78604402
_symmetry_Int_Tables_number   1
_chemical_formula_structural   Tb2Ga8Ni9
_chemical_formula_sum   'Tb2 Ga8 Ni9'
_cell_volume   269.27166532
_cell_formula_units_Z   1
loop_
 _symmetry_equiv_pos_site_id
 _symmetry_equiv_pos_as_xyz
  1  'x, y, z'
loop_
 _atom_site_type_symbol
 _atom_site_label
 _atom_site_symmetry_multiplicity
 _atom_site_fract_x
 _atom_site_fract_y
 _atom_site_fract_z
 _atom_site_occupancy
  Tb  Tb0  1  0.638695  0.361306  0.361306  1
  Tb  Tb1  1  0.361306  0.638696  0.638695  1
  Ga  Ga2  1  0.315474  0.315474  0.000000  1
  Ga  Ga3  1  0.684526  0.684526  0.000000  1
  Ga  Ga4  1  0.884065  0.115936  0.115936  1
  Ga  Ga5  1  0.000000  0.684527  0.315473  1
  Ga  Ga6  1  0.315474  0.000000  0.315474  1
  Ga  Ga7  1  0.684526  0.000000  0.684526  1
  Ga  Ga8  1  0.000000  0.315473  0.684526  1
  Ga  Ga9  1  0.115936  0.884066  0.884065  1
  Ni  Ni10  1  0.500000  0.000000  0.000000  1
  Ni  Ni11  1  0.000000  0.500000  0.000000  1
  Ni  Ni12  1  0.342189  0.657812  0.160769  1
  Ni  Ni13  1  0.160769  0.342188  0.342188  1
  Ni  Ni14  1  0.657812  0.839230  0.342189  1
  Ni  Ni15  1  0.000000  0.000000  0.500000  1
  Ni  Ni16  1  0.839230  0.657812  0.657811  1
  Ni  Ni17  1  0.342189  0.160769  0.657812  1
  Ni  Ni18  1  0.657811  0.342188  0.839230  1
