# generated using pymatgen
data_Np(BiO3)2
_symmetry_space_group_name_H-M   'P 1'
_cell_length_a   5.60251800
_cell_length_b   5.65454400
_cell_length_c   17.11194600
_cell_angle_alpha   90.00000000
_cell_angle_beta   90.00000000
_cell_angle_gamma   90.00000000
_symmetry_Int_Tables_number   1
_chemical_formula_structural   Np(BiO3)2
_chemical_formula_sum   'Np4 Bi8 O24'
_cell_volume   542.10105118
_cell_formula_units_Z   4
loop_
 _symmetry_equiv_pos_site_id
 _symmetry_equiv_pos_as_xyz
  1  'x, y, z'
loop_
 _atom_site_type_symbol
 _atom_site_label
 _atom_site_symmetry_multiplicity
 _atom_site_fract_x
 _atom_site_fract_y
 _atom_site_fract_z
 _atom_site_occupancy
  Np  Np0  1  0.250039  0.249801  0.750024  1
  Np  Np1  1  0.749961  0.749801  0.749976  1
  Np  Np2  1  0.750039  0.250199  0.249976  1
  Np  Np3  1  0.249961  0.750199  0.250024  1
  Bi  Bi4  1  0.773263  0.275705  0.573088  1
  Bi  Bi5  1  0.226737  0.775705  0.926912  1
  Bi  Bi6  1  0.273263  0.224295  0.426912  1
  Bi  Bi7  1  0.726737  0.724295  0.073088  1
  Bi  Bi8  1  0.726668  0.224228  0.926920  1
  Bi  Bi9  1  0.273332  0.724228  0.573080  1
  Bi  Bi10  1  0.226668  0.275772  0.073080  1
  Bi  Bi11  1  0.773332  0.775772  0.426920  1
  O  O12  1  0.012062  0.506602  0.497925  1
  O  O13  1  0.987938  0.006602  0.002075  1
  O  O14  1  0.512062  0.993398  0.502075  1
  O  O15  1  0.487938  0.493398  0.997925  1
  O  O16  1  0.487934  0.993328  0.002093  1
  O  O17  1  0.512066  0.493328  0.497907  1
  O  O18  1  0.987934  0.506672  0.997907  1
  O  O19  1  0.012066  0.006672  0.502093  1
  O  O20  1  0.052631  0.424213  0.283838  1
  O  O21  1  0.947369  0.924213  0.216162  1
  O  O22  1  0.552631  0.075787  0.716162  1
  O  O23  1  0.447369  0.575787  0.783838  1
  O  O24  1  0.447438  0.076234  0.216212  1
  O  O25  1  0.552562  0.576234  0.283788  1
  O  O26  1  0.947438  0.423766  0.783788  1
  O  O27  1  0.052562  0.923766  0.716212  1
  O  O28  1  0.200801  0.354659  0.640669  1
  O  O29  1  0.799199  0.854659  0.859331  1
  O  O30  1  0.700801  0.145341  0.359331  1
  O  O31  1  0.299199  0.645341  0.140669  1
  O  O32  1  0.299306  0.145357  0.859389  1
  O  O33  1  0.700694  0.645357  0.640611  1
  O  O34  1  0.799306  0.354643  0.140611  1
  O  O35  1  0.200694  0.854643  0.359389  1
