# generated using pymatgen
data_Li12LaGd11(WO6)8
_symmetry_space_group_name_H-M   'P 1'
_cell_length_a   10.80227591
_cell_length_b   10.82054227
_cell_length_c   10.80227517
_cell_angle_alpha   109.42699779
_cell_angle_beta   109.49131089
_cell_angle_gamma   109.42699903
_symmetry_Int_Tables_number   1
_chemical_formula_structural   Li12LaGd11(WO6)8
_chemical_formula_sum   'Li12 La1 Gd11 W8 O48'
_cell_volume   972.79946511
_cell_formula_units_Z   1
loop_
 _symmetry_equiv_pos_site_id
 _symmetry_equiv_pos_as_xyz
  1  'x, y, z'
loop_
 _atom_site_type_symbol
 _atom_site_label
 _atom_site_symmetry_multiplicity
 _atom_site_fract_x
 _atom_site_fract_y
 _atom_site_fract_z
 _atom_site_occupancy
  Li  Li0  1  0.750968  0.375116  0.125130  1
  Li  Li1  1  0.874857  0.750000  0.124857  1
  Li  Li2  1  0.124148  0.375116  0.249986  1
  Li  Li3  1  0.625183  0.875230  0.250101  1
  Li  Li4  1  0.250014  0.124884  0.375852  1
  Li  Li5  1  0.626369  0.250000  0.376368  1
  Li  Li6  1  0.375143  0.750000  0.625143  1
  Li  Li7  1  0.750047  0.875230  0.625129  1
  Li  Li8  1  0.374870  0.124884  0.749032  1
  Li  Li9  1  0.874872  0.624771  0.749953  1
  Li  Li10  1  0.123632  0.249999  0.873632  1
  Li  Li11  1  0.249899  0.624770  0.874817  1
  La  La12  1  0.375000  0.250000  0.125000  1
  Gd  Gd13  1  0.249054  0.873315  0.124551  1
  Gd  Gd14  1  0.874905  0.124688  0.249630  1
  Gd  Gd15  1  0.375449  0.626686  0.250945  1
  Gd  Gd16  1  0.125000  0.750000  0.375000  1
  Gd  Gd17  1  0.751237  0.626685  0.375740  1
  Gd  Gd18  1  0.875000  0.250000  0.625000  1
  Gd  Gd19  1  0.250369  0.375312  0.625096  1
  Gd  Gd20  1  0.624943  0.375312  0.750217  1
  Gd  Gd21  1  0.124260  0.873315  0.748763  1
  Gd  Gd22  1  0.749783  0.124688  0.875057  1
  Gd  Gd23  1  0.625001  0.750000  0.875000  1
  W  W24  1  0.997225  0.997294  0.998172  1
  W  W25  1  0.500068  0.997294  0.999121  1
  W  W26  1  0.999724  0.499865  0.999872  1
  W  W27  1  0.500879  0.502706  0.999932  1
  W  W28  1  0.500128  0.000135  0.500276  1
  W  W29  1  0.000141  0.499865  0.499993  1
  W  W30  1  0.000007  0.000135  0.499859  1
  W  W31  1  0.501828  0.502706  0.502775  1
  O  O32  1  0.198257  0.617952  0.025740  1
  O  O33  1  0.326099  0.412365  0.023147  1
  O  O34  1  0.697878  0.172086  0.080633  1
  O  O35  1  0.880632  0.907254  0.080436  1
  O  O36  1  0.974209  0.172086  0.091453  1
  O  O37  1  0.618783  0.917527  0.091223  1
  O  O38  1  0.025429  0.698132  0.117585  1
  O  O39  1  0.595215  0.423357  0.117382  1
  O  O40  1  0.194024  0.076643  0.171856  1
  O  O41  1  0.476853  0.087636  0.173901  1
  O  O42  1  0.117555  0.525827  0.198499  1
  O  O43  1  0.581250  0.673797  0.199100  1
  O  O44  1  0.328142  0.423356  0.305976  1
  O  O45  1  0.474260  0.882048  0.301743  1
  O  O46  1  0.919453  0.801868  0.327296  1
  O  O47  1  0.908273  0.525828  0.327329  1
  O  O48  1  0.586265  0.412364  0.389217  1
  O  O49  1  0.301502  0.974173  0.382446  1
  O  O50  1  0.827070  0.025786  0.408049  1
  O  O51  1  0.080846  0.382354  0.408208  1
  O  O52  1  0.827602  0.301890  0.419444  1
  O  O53  1  0.091793  0.117646  0.419153  1
  O  O54  1  0.382415  0.801868  0.474571  1
  O  O55  1  0.592547  0.673797  0.474697  1
  O  O56  1  0.408547  0.327913  0.525791  1
  O  O57  1  0.617554  0.198110  0.525712  1
  O  O58  1  0.172702  0.698132  0.580547  1
  O  O59  1  0.907787  0.882048  0.580303  1
  O  O60  1  0.919697  0.617952  0.592213  1
  O  O61  1  0.172671  0.974173  0.591727  1
  O  O62  1  0.419563  0.592746  0.619367  1
  O  O63  1  0.698716  0.025786  0.617737  1
  O  O64  1  0.080555  0.198110  0.672398  1
  O  O65  1  0.091951  0.474214  0.672930  1
  O  O66  1  0.673696  0.582473  0.701256  1
  O  O67  1  0.525853  0.117646  0.698492  1
  O  O68  1  0.419367  0.327914  0.802122  1
  O  O69  1  0.882264  0.474214  0.801284  1
  O  O70  1  0.526621  0.907254  0.826818  1
  O  O71  1  0.798744  0.917527  0.826304  1
  O  O72  1  0.974288  0.301890  0.882445  1
  O  O73  1  0.408778  0.582474  0.881218  1
  O  O74  1  0.025303  0.826203  0.907453  1
  O  O75  1  0.382619  0.076643  0.904785  1
  O  O76  1  0.110783  0.087636  0.913735  1
  O  O77  1  0.300900  0.826203  0.918751  1
  O  O78  1  0.801508  0.382354  0.974148  1
  O  O79  1  0.673182  0.592746  0.973379  1
