# generated using pymatgen
data_Sc6Bi2W
_symmetry_space_group_name_H-M   'P 1'
_cell_length_a   7.77569100
_cell_length_b   7.77569094
_cell_length_c   4.16143700
_cell_angle_alpha   90.00000000
_cell_angle_beta   90.00000000
_cell_angle_gamma   120.00001303
_symmetry_Int_Tables_number   1
_chemical_formula_structural   Sc6Bi2W
_chemical_formula_sum   'Sc6 Bi2 W1'
_cell_volume   217.89731707
_cell_formula_units_Z   1
loop_
 _symmetry_equiv_pos_site_id
 _symmetry_equiv_pos_as_xyz
  1  'x, y, z'
loop_
 _atom_site_type_symbol
 _atom_site_label
 _atom_site_symmetry_multiplicity
 _atom_site_fract_x
 _atom_site_fract_y
 _atom_site_fract_z
 _atom_site_occupancy
  Sc  Sc0  1  0.234679  0.000000  0.500000  1
  Sc  Sc1  1  0.000000  0.234679  0.500000  1
  Sc  Sc2  1  0.765321  0.765321  0.500000  1
  Sc  Sc3  1  0.615367  0.000000  0.000000  1
  Sc  Sc4  1  0.000000  0.615367  0.000000  1
  Sc  Sc5  1  0.384633  0.384633  0.000000  1
  Bi  Bi6  1  0.333333  0.666667  0.500000  1
  Bi  Bi7  1  0.666667  0.333333  0.500000  1
  W  W8  1  0.000000  0.000000  0.000000  1
