# generated using pymatgen
data_Pr16Cd4CoPt3
_symmetry_space_group_name_H-M   'P 1'
_cell_length_a   10.03719012
_cell_length_b   10.03718993
_cell_length_c   10.03718942
_cell_angle_alpha   60.15854563
_cell_angle_beta   60.15854468
_cell_angle_gamma   60.15854615
_symmetry_Int_Tables_number   1
_chemical_formula_structural   Pr16Cd4CoPt3
_chemical_formula_sum   'Pr16 Cd4 Co1 Pt3'
_cell_volume   717.59297503
_cell_formula_units_Z   1
loop_
 _symmetry_equiv_pos_site_id
 _symmetry_equiv_pos_as_xyz
  1  'x, y, z'
loop_
 _atom_site_type_symbol
 _atom_site_label
 _atom_site_symmetry_multiplicity
 _atom_site_fract_x
 _atom_site_fract_y
 _atom_site_fract_z
 _atom_site_occupancy
  Pr  Pr0  1  0.350389  0.350389  0.350389  1
  Pr  Pr1  1  0.345880  0.345880  0.952162  1
  Pr  Pr2  1  0.345880  0.952162  0.345880  1
  Pr  Pr3  1  0.952162  0.345880  0.345880  1
  Pr  Pr4  1  0.818915  0.189709  0.189709  1
  Pr  Pr5  1  0.191103  0.808217  0.808217  1
  Pr  Pr6  1  0.189709  0.818915  0.189709  1
  Pr  Pr7  1  0.808217  0.191103  0.808217  1
  Pr  Pr8  1  0.189709  0.189709  0.818915  1
  Pr  Pr9  1  0.808217  0.808217  0.191103  1
  Pr  Pr10  1  0.939375  0.562053  0.562053  1
  Pr  Pr11  1  0.562554  0.935815  0.935815  1
  Pr  Pr12  1  0.562053  0.939375  0.562053  1
  Pr  Pr13  1  0.935815  0.562554  0.935815  1
  Pr  Pr14  1  0.562053  0.562053  0.939375  1
  Pr  Pr15  1  0.935815  0.935815  0.562554  1
  Cd  Cd16  1  0.579777  0.579777  0.579777  1
  Cd  Cd17  1  0.580794  0.580794  0.258900  1
  Cd  Cd18  1  0.580794  0.258900  0.580794  1
  Cd  Cd19  1  0.258900  0.580794  0.580794  1
  Co  Co20  1  0.142730  0.142730  0.142730  1
  Pt  Pt21  1  0.143756  0.143756  0.571645  1
  Pt  Pt22  1  0.143756  0.571645  0.143756  1
  Pt  Pt23  1  0.571645  0.143756  0.143756  1
