# generated using pymatgen
data_Ho5Co2
_symmetry_space_group_name_H-M   'P 1'
_cell_length_a   8.55964847
_cell_length_b   8.55973172
_cell_length_c   6.92178704
_cell_angle_alpha   83.75905357
_cell_angle_beta   83.75812987
_cell_angle_gamma   42.94336886
_symmetry_Int_Tables_number   1
_chemical_formula_structural   Ho5Co2
_chemical_formula_sum   'Ho10 Co4'
_cell_volume   343.14113246
_cell_formula_units_Z   2
loop_
 _symmetry_equiv_pos_site_id
 _symmetry_equiv_pos_as_xyz
  1  'x, y, z'
loop_
 _atom_site_type_symbol
 _atom_site_label
 _atom_site_symmetry_multiplicity
 _atom_site_fract_x
 _atom_site_fract_y
 _atom_site_fract_z
 _atom_site_occupancy
  Ho  Ho0  1  0.012947  0.797980  0.912081  1
  Ho  Ho1  1  0.202038  0.987032  0.587896  1
  Ho  Ho2  1  0.987053  0.202020  0.087919  1
  Ho  Ho3  1  0.797962  0.012968  0.412104  1
  Ho  Ho4  1  0.352674  0.216140  0.815811  1
  Ho  Ho5  1  0.783922  0.647299  0.684142  1
  Ho  Ho6  1  0.647326  0.783860  0.184189  1
  Ho  Ho7  1  0.216078  0.352701  0.315858  1
  Ho  Ho8  1  0.570090  0.429913  0.749970  1
  Ho  Ho9  1  0.429910  0.570087  0.250030  1
  Co  Co10  1  0.175430  0.600712  0.572599  1
  Co  Co11  1  0.399329  0.824539  0.927390  1
  Co  Co12  1  0.824570  0.399288  0.427401  1
  Co  Co13  1  0.600671  0.175461  0.072610  1
