# generated using pymatgen
data_Ti8Al14GaFe7
_symmetry_space_group_name_H-M   'P 1'
_cell_length_a   8.43252051
_cell_length_b   8.43252072
_cell_length_c   8.43252100
_cell_angle_alpha   120.10601858
_cell_angle_beta   120.01271679
_cell_angle_gamma   89.89722341
_symmetry_Int_Tables_number   1
_chemical_formula_structural   Ti8Al14GaFe7
_chemical_formula_sum   'Ti8 Al14 Ga1 Fe7'
_cell_volume   423.61004283
_cell_formula_units_Z   1
loop_
 _symmetry_equiv_pos_site_id
 _symmetry_equiv_pos_as_xyz
  1  'x, y, z'
loop_
 _atom_site_type_symbol
 _atom_site_label
 _atom_site_symmetry_multiplicity
 _atom_site_fract_x
 _atom_site_fract_y
 _atom_site_fract_z
 _atom_site_occupancy
  Ti  Ti0  1  0.789952  0.280885  0.064291  1
  Ti  Ti1  1  0.216594  0.280885  0.490933  1
  Ti  Ti2  1  0.214484  0.714484  0.500000  1
  Ti  Ti3  1  0.216594  0.725662  0.935709  1
  Ti  Ti4  1  0.789952  0.725662  0.509067  1
  Ti  Ti5  1  0.778499  0.278499  0.500000  1
  Ti  Ti6  1  0.380161  0.120541  0.740380  1
  Ti  Ti7  1  0.380161  0.639782  0.259620  1
  Al  Al8  1  0.160473  0.341224  0.180750  1
  Al  Al9  1  0.160473  0.979723  0.819250  1
  Al  Al10  1  0.157062  0.343790  0.813271  1
  Al  Al11  1  0.530519  0.343790  0.186729  1
  Al  Al12  1  0.841548  0.656596  0.815049  1
  Al  Al13  1  0.841548  0.026499  0.184951  1
  Al  Al14  1  0.840379  0.657423  0.182955  1
  Al  Al15  1  0.474470  0.657423  0.817045  1
  Al  Al16  1  0.381370  0.120994  0.260375  1
  Al  Al17  1  0.860620  0.120994  0.739625  1
  Al  Al18  1  0.618794  0.877009  0.258215  1
  Al  Al19  1  0.618794  0.360579  0.741785  1
  Al  Al20  1  0.618236  0.878379  0.739858  1
  Al  Al21  1  0.138520  0.878379  0.260142  1
  Ga  Ga22  1  0.995401  0.495401  0.500000  1
  Fe  Fe23  1  0.001193  0.999315  0.501643  1
  Fe  Fe24  1  0.497671  0.999315  0.998122  1
  Fe  Fe25  1  0.498452  0.498452  0.000000  1
  Fe  Fe26  1  0.497671  0.499549  0.498357  1
  Fe  Fe27  1  0.001193  0.499549  0.001878  1
  Fe  Fe28  1  0.000755  0.000755  0.000000  1
  Fe  Fe29  1  0.498463  0.998463  0.500000  1
