# generated using pymatgen
data_Mn5NiP3
_symmetry_space_group_name_H-M   'P 1'
_cell_length_a   6.06672007
_cell_length_b   6.06671855
_cell_length_c   3.33590200
_cell_angle_alpha   90.00000000
_cell_angle_beta   90.00000000
_cell_angle_gamma   120.30200265
_symmetry_Int_Tables_number   1
_chemical_formula_structural   Mn5NiP3
_chemical_formula_sum   'Mn5 Ni1 P3'
_cell_volume   106.00394380
_cell_formula_units_Z   1
loop_
 _symmetry_equiv_pos_site_id
 _symmetry_equiv_pos_as_xyz
  1  'x, y, z'
loop_
 _atom_site_type_symbol
 _atom_site_label
 _atom_site_symmetry_multiplicity
 _atom_site_fract_x
 _atom_site_fract_y
 _atom_site_fract_z
 _atom_site_occupancy
  Mn  Mn0  1  0.744296  0.001396  0.000000  1
  Mn  Mn1  1  0.597307  0.597307  0.500000  1
  Mn  Mn2  1  0.001396  0.744296  0.000000  1
  Mn  Mn3  1  0.401664  0.996855  0.500000  1
  Mn  Mn4  1  0.996855  0.401664  0.500000  1
  Ni  Ni5  1  0.257588  0.257588  0.000000  1
  P  P6  1  0.333701  0.666190  0.000000  1
  P  P7  1  0.001003  0.001003  0.500000  1
  P  P8  1  0.666190  0.333701  0.000000  1
