# generated using pymatgen
data_Y3In2PdPt2Pb
_symmetry_space_group_name_H-M   'P 1'
_cell_length_a   7.70702214
_cell_length_b   7.70702225
_cell_length_c   3.91658600
_cell_angle_alpha   90.00000000
_cell_angle_beta   90.00000000
_cell_angle_gamma   119.61679230
_symmetry_Int_Tables_number   1
_chemical_formula_structural   Y3In2PdPt2Pb
_chemical_formula_sum   'Y3 In2 Pd1 Pt2 Pb1'
_cell_volume   202.24398241
_cell_formula_units_Z   1
loop_
 _symmetry_equiv_pos_site_id
 _symmetry_equiv_pos_as_xyz
  1  'x, y, z'
loop_
 _atom_site_type_symbol
 _atom_site_label
 _atom_site_symmetry_multiplicity
 _atom_site_fract_x
 _atom_site_fract_y
 _atom_site_fract_z
 _atom_site_occupancy
  Y  Y0  1  0.406049  0.406049  0.500000  1
  Y  Y1  1  0.592143  0.003335  0.500000  1
  Y  Y2  1  0.003335  0.592143  0.500000  1
  In  In3  1  0.260683  0.000918  0.000000  1
  In  In4  1  0.000918  0.260683  0.000000  1
  Pd  Pd5  1  0.007855  0.007855  0.500000  1
  Pt  Pt6  1  0.664193  0.324387  0.000000  1
  Pt  Pt7  1  0.324387  0.664193  0.000000  1
  Pb  Pb8  1  0.740438  0.740438  0.000000  1
