# generated using pymatgen
data_YbCo2Si3
_symmetry_space_group_name_H-M   'P 1'
_cell_length_a   5.96452638
_cell_length_b   5.96452534
_cell_length_c   5.02319600
_cell_angle_alpha   90.00000000
_cell_angle_beta   90.00000000
_cell_angle_gamma   75.47172205
_symmetry_Int_Tables_number   1
_chemical_formula_structural   YbCo2Si3
_chemical_formula_sum   'Yb2 Co4 Si6'
_cell_volume   172.98883643
_cell_formula_units_Z   2
loop_
 _symmetry_equiv_pos_site_id
 _symmetry_equiv_pos_as_xyz
  1  'x, y, z'
loop_
 _atom_site_type_symbol
 _atom_site_label
 _atom_site_symmetry_multiplicity
 _atom_site_fract_x
 _atom_site_fract_y
 _atom_site_fract_z
 _atom_site_occupancy
  Yb  Yb0  1  0.655967  0.344034  0.249999  1
  Yb  Yb1  1  0.344034  0.655967  0.750000  1
  Co  Co2  1  0.199315  0.199315  0.000000  1
  Co  Co3  1  0.800685  0.800685  0.000000  1
  Co  Co4  1  0.199315  0.199315  0.500000  1
  Co  Co5  1  0.800685  0.800685  0.500000  1
  Si  Si6  1  0.089549  0.526625  0.249999  1
  Si  Si7  1  0.473376  0.910452  0.249999  1
  Si  Si8  1  0.065630  0.934370  0.249999  1
  Si  Si9  1  0.934370  0.065630  0.750000  1
  Si  Si10  1  0.526625  0.089549  0.750000  1
  Si  Si11  1  0.910452  0.473376  0.750000  1
