# generated using pymatgen
data_Dy8Tl3Co
_symmetry_space_group_name_H-M   'P 1'
_cell_length_a   10.38034300
_cell_length_b   10.38034348
_cell_length_c   6.98802000
_cell_angle_alpha   90.00000000
_cell_angle_beta   90.00000000
_cell_angle_gamma   120.00000167
_symmetry_Int_Tables_number   1
_chemical_formula_structural   Dy8Tl3Co
_chemical_formula_sum   'Dy16 Tl6 Co2'
_cell_volume   652.09097881
_cell_formula_units_Z   2
loop_
 _symmetry_equiv_pos_site_id
 _symmetry_equiv_pos_as_xyz
  1  'x, y, z'
loop_
 _atom_site_type_symbol
 _atom_site_label
 _atom_site_symmetry_multiplicity
 _atom_site_fract_x
 _atom_site_fract_y
 _atom_site_fract_z
 _atom_site_occupancy
  Dy  Dy0  1  0.536259  0.072518  0.512871  1
  Dy  Dy1  1  0.927482  0.463741  0.512871  1
  Dy  Dy2  1  0.536259  0.463741  0.512871  1
  Dy  Dy3  1  0.463741  0.927482  0.012871  1
  Dy  Dy4  1  0.072518  0.536259  0.012871  1
  Dy  Dy5  1  0.463741  0.536259  0.012871  1
  Dy  Dy6  1  0.177598  0.355196  0.719056  1
  Dy  Dy7  1  0.644804  0.822402  0.719056  1
  Dy  Dy8  1  0.177598  0.822402  0.719056  1
  Dy  Dy9  1  0.822402  0.644804  0.219056  1
  Dy  Dy10  1  0.355196  0.177598  0.219056  1
  Dy  Dy11  1  0.822402  0.177598  0.219056  1
  Dy  Dy12  1  0.666667  0.333333  0.903957  1
  Dy  Dy13  1  0.333333  0.666667  0.403957  1
  Dy  Dy14  1  0.000000  0.000000  0.500981  1
  Dy  Dy15  1  0.000000  0.000000  0.000981  1
  Tl  Tl16  1  0.836727  0.673456  0.761198  1
  Tl  Tl17  1  0.326544  0.163272  0.761198  1
  Tl  Tl18  1  0.836727  0.163272  0.761198  1
  Tl  Tl19  1  0.163273  0.326544  0.261198  1
  Tl  Tl20  1  0.673456  0.836728  0.261198  1
  Tl  Tl21  1  0.163273  0.836728  0.261198  1
  Co  Co22  1  0.666667  0.333333  0.287789  1
  Co  Co23  1  0.333333  0.666667  0.787789  1
