# generated using pymatgen
data_Yb8AlVN8
_symmetry_space_group_name_H-M   'P 1'
_cell_length_a   5.84385345
_cell_length_b   6.02035517
_cell_length_c   8.53454921
_cell_angle_alpha   72.72729860
_cell_angle_beta   80.77834580
_cell_angle_gamma   68.23909976
_symmetry_Int_Tables_number   1
_chemical_formula_structural   Yb8AlVN8
_chemical_formula_sum   'Yb8 Al1 V1 N8'
_cell_volume   265.86336036
_cell_formula_units_Z   1
loop_
 _symmetry_equiv_pos_site_id
 _symmetry_equiv_pos_as_xyz
  1  'x, y, z'
loop_
 _atom_site_type_symbol
 _atom_site_label
 _atom_site_symmetry_multiplicity
 _atom_site_fract_x
 _atom_site_fract_y
 _atom_site_fract_z
 _atom_site_occupancy
  Yb  Yb0  1  0.785071  0.562525  0.156994  1
  Yb  Yb1  1  0.219683  0.444591  0.829491  1
  Yb  Yb2  1  0.730448  0.216537  0.967604  1
  Yb  Yb3  1  0.271781  0.772303  0.034115  1
  Yb  Yb4  1  0.715118  0.508311  0.566554  1
  Yb  Yb5  1  0.277611  0.504888  0.435744  1
  Yb  Yb6  1  0.208395  0.965474  0.637621  1
  Yb  Yb7  1  0.767154  0.045098  0.398673  1
  Al  Al8  1  0.721255  0.846705  0.757063  1
  V  V9  1  0.277077  0.150142  0.244171  1
  N  N10  1  0.977615  0.702766  0.601855  1
  N  N11  1  0.036471  0.284374  0.390044  1
  N  N12  1  0.921038  0.820001  0.923706  1
  N  N13  1  0.097662  0.182992  0.075595  1
  N  N14  1  0.520470  0.640136  0.810703  1
  N  N15  1  0.470093  0.346838  0.191922  1
  N  N16  1  0.478379  0.828419  0.338039  1
  N  N17  1  0.524678  0.177901  0.640107  1
