# generated using pymatgen
data_Ho3ErB16OsRu3
_symmetry_space_group_name_H-M   'P 1'
_cell_length_a   3.55436500
_cell_length_b   5.94986019
_cell_length_c   11.51229602
_cell_angle_alpha   89.98224319
_cell_angle_beta   90.00000000
_cell_angle_gamma   90.00000000
_symmetry_Int_Tables_number   1
_chemical_formula_structural   Ho3ErB16OsRu3
_chemical_formula_sum   'Ho3 Er1 B16 Os1 Ru3'
_cell_volume   243.46173473
_cell_formula_units_Z   1
loop_
 _symmetry_equiv_pos_site_id
 _symmetry_equiv_pos_as_xyz
  1  'x, y, z'
loop_
 _atom_site_type_symbol
 _atom_site_label
 _atom_site_symmetry_multiplicity
 _atom_site_fract_x
 _atom_site_fract_y
 _atom_site_fract_z
 _atom_site_occupancy
  Ho  Ho0  1  0.000000  0.629017  0.350423  1
  Ho  Ho1  1  0.000000  0.370989  0.649610  1
  Ho  Ho2  1  0.000000  0.129265  0.150313  1
  Er  Er3  1  0.000000  0.870561  0.849818  1
  B  B4  1  0.500000  0.789936  0.185965  1
  B  B5  1  0.500000  0.209891  0.814072  1
  B  B6  1  0.500000  0.289810  0.314403  1
  B  B7  1  0.500000  0.710127  0.685602  1
  B  B8  1  0.500000  0.864042  0.029555  1
  B  B9  1  0.500000  0.135752  0.969920  1
  B  B10  1  0.500000  0.364156  0.469974  1
  B  B11  1  0.500000  0.635823  0.530206  1
  B  B12  1  0.500000  0.887986  0.453288  1
  B  B13  1  0.500000  0.112079  0.546915  1
  B  B14  1  0.500000  0.387831  0.046915  1
  B  B15  1  0.500000  0.612398  0.952867  1
  B  B16  1  0.500000  0.977299  0.308071  1
  B  B17  1  0.500000  0.023049  0.692178  1
  B  B18  1  0.500000  0.476312  0.191997  1
  B  B19  1  0.500000  0.523464  0.807870  1
  Os  Os20  1  0.000000  0.641678  0.092849  1
  Ru  Ru21  1  0.000000  0.358381  0.907031  1
  Ru  Ru22  1  0.000000  0.140680  0.407197  1
  Ru  Ru23  1  0.000000  0.859474  0.592961  1
