# generated using pymatgen
data_Dy5ErAl23SiOs8
_symmetry_space_group_name_H-M   'P 1'
_cell_length_a   8.77053004
_cell_length_b   8.77052995
_cell_length_c   9.64153101
_cell_angle_alpha   89.99655413
_cell_angle_beta   90.00344809
_cell_angle_gamma   120.01046822
_symmetry_Int_Tables_number   1
_chemical_formula_structural   Dy5ErAl23SiOs8
_chemical_formula_sum   'Dy5 Er1 Al23 Si1 Os8'
_cell_volume   642.21802136
_cell_formula_units_Z   1
loop_
 _symmetry_equiv_pos_site_id
 _symmetry_equiv_pos_as_xyz
  1  'x, y, z'
loop_
 _atom_site_type_symbol
 _atom_site_label
 _atom_site_symmetry_multiplicity
 _atom_site_fract_x
 _atom_site_fract_y
 _atom_site_fract_z
 _atom_site_occupancy
  Dy  Dy0  1  0.194856  0.389724  0.249704  1
  Dy  Dy1  1  0.806072  0.612010  0.751192  1
  Dy  Dy2  1  0.610276  0.805144  0.249704  1
  Dy  Dy3  1  0.387990  0.193928  0.751192  1
  Dy  Dy4  1  0.194860  0.805140  0.249692  1
  Er  Er5  1  0.805660  0.194340  0.751247  1
  Al  Al6  1  0.666792  0.333208  0.979578  1
  Al  Al7  1  0.666784  0.333216  0.523278  1
  Al  Al8  1  0.333328  0.666672  0.477963  1
  Al  Al9  1  0.163470  0.327217  0.575050  1
  Al  Al10  1  0.836016  0.672014  0.424349  1
  Al  Al11  1  0.672783  0.836530  0.575050  1
  Al  Al12  1  0.836102  0.672202  0.074987  1
  Al  Al13  1  0.327986  0.163984  0.424349  1
  Al  Al14  1  0.164805  0.329875  0.922756  1
  Al  Al15  1  0.163652  0.836348  0.574995  1
  Al  Al16  1  0.327798  0.163898  0.074987  1
  Al  Al17  1  0.836013  0.163987  0.424499  1
  Al  Al18  1  0.670125  0.835195  0.922756  1
  Al  Al19  1  0.836098  0.163902  0.074837  1
  Al  Al20  1  0.164979  0.835021  0.922810  1
  Al  Al21  1  0.562412  0.124794  0.248604  1
  Al  Al22  1  0.437587  0.874772  0.748186  1
  Al  Al23  1  0.875206  0.437588  0.248604  1
  Al  Al24  1  0.125228  0.562413  0.748186  1
  Al  Al25  1  0.562398  0.437602  0.248603  1
  Al  Al26  1  0.437222  0.562778  0.748175  1
  Al  Al27  1  0.000008  0.999992  0.249136  1
  Al  Al28  1  0.999819  0.000181  0.748967  1
  Si  Si29  1  0.333340  0.666660  0.040464  1
  Os  Os30  1  0.496084  0.991791  0.000518  1
  Os  Os31  1  0.008209  0.503916  0.000518  1
  Os  Os32  1  0.500563  0.000723  0.498891  1
  Os  Os33  1  0.495883  0.504117  0.000640  1
  Os  Os34  1  0.999277  0.499437  0.498891  1
  Os  Os35  1  0.500350  0.499650  0.498745  1
  Os  Os36  1  0.999977  0.000023  0.999057  1
  Os  Os37  1  0.999994  0.000006  0.498841  1
