# generated using pymatgen
data_Tm4CrMoRu6
_symmetry_space_group_name_H-M   'P 1'
_cell_length_a   5.49540599
_cell_length_b   5.11733952
_cell_length_c   8.94781000
_cell_angle_alpha   90.00000000
_cell_angle_beta   90.00000000
_cell_angle_gamma   122.71908133
_symmetry_Int_Tables_number   1
_chemical_formula_structural   Tm4CrMoRu6
_chemical_formula_sum   'Tm4 Cr1 Mo1 Ru6'
_cell_volume   211.70326982
_cell_formula_units_Z   1
loop_
 _symmetry_equiv_pos_site_id
 _symmetry_equiv_pos_as_xyz
  1  'x, y, z'
loop_
 _atom_site_type_symbol
 _atom_site_label
 _atom_site_symmetry_multiplicity
 _atom_site_fract_x
 _atom_site_fract_y
 _atom_site_fract_z
 _atom_site_occupancy
  Tm  Tm0  1  0.672271  0.345098  0.564370  1
  Tm  Tm1  1  0.332436  0.664881  0.432135  1
  Tm  Tm2  1  0.332436  0.664881  0.067865  1
  Tm  Tm3  1  0.672271  0.345098  0.935630  1
  Cr  Cr4  1  0.826017  0.653690  0.250000  1
  Mo  Mo5  1  0.160260  0.320402  0.750000  1
  Ru  Ru6  1  0.001331  0.002275  0.494883  1
  Ru  Ru7  1  0.001331  0.002275  0.005117  1
  Ru  Ru8  1  0.170959  0.819887  0.750000  1
  Ru  Ru9  1  0.650543  0.820177  0.750000  1
  Ru  Ru10  1  0.832147  0.180613  0.250000  1
  Ru  Ru11  1  0.348000  0.180722  0.250000  1
