# generated using pymatgen
data_Pr2Fe5(PIr)7
_symmetry_space_group_name_H-M   'P 1'
_cell_length_a   9.44002033
_cell_length_b   9.43996516
_cell_length_c   3.90155300
_cell_angle_alpha   90.00000000
_cell_angle_beta   90.00000000
_cell_angle_gamma   120.23226420
_symmetry_Int_Tables_number   1
_chemical_formula_structural   Pr2Fe5(PIr)7
_chemical_formula_sum   'Pr2 Fe5 P7 Ir7'
_cell_volume   300.39330869
_cell_formula_units_Z   1
loop_
 _symmetry_equiv_pos_site_id
 _symmetry_equiv_pos_as_xyz
  1  'x, y, z'
loop_
 _atom_site_type_symbol
 _atom_site_label
 _atom_site_symmetry_multiplicity
 _atom_site_fract_x
 _atom_site_fract_y
 _atom_site_fract_z
 _atom_site_occupancy
  Pr  Pr0  1  0.334195  0.669999  0.000000  1
  Pr  Pr1  1  0.667022  0.333832  0.500000  1
  Fe  Fe2  1  0.158176  0.897048  0.000000  1
  Fe  Fe3  1  0.107242  0.263024  0.000000  1
  Fe  Fe4  1  0.733894  0.840802  0.000000  1
  Fe  Fe5  1  0.879106  0.087597  0.500000  1
  Fe  Fe6  1  0.910818  0.788172  0.500000  1
  P  P7  1  0.406518  0.106471  0.000000  1
  P  P8  1  0.892551  0.294088  0.000000  1
  P  P9  1  0.707599  0.598633  0.000000  1
  P  P10  1  0.107154  0.720859  0.500000  1
  P  P11  1  0.278954  0.396996  0.500000  1
  P  P12  1  0.614351  0.889310  0.500000  1
  P  P13  1  0.995090  0.997113  0.000000  1
  Ir  Ir14  1  0.425074  0.363487  0.000000  1
  Ir  Ir15  1  0.634531  0.060376  0.000000  1
  Ir  Ir16  1  0.940633  0.573590  0.000000  1
  Ir  Ir17  1  0.381085  0.945651  0.500000  1
  Ir  Ir18  1  0.051600  0.433624  0.500000  1
  Ir  Ir19  1  0.563682  0.614730  0.500000  1
  Ir  Ir20  1  0.210725  0.124598  0.500000  1
