# generated using pymatgen
data_Lu2Cu2Te
_symmetry_space_group_name_H-M   'P 1'
_cell_length_a   4.09345800
_cell_length_b   4.09345783
_cell_length_c   15.19192900
_cell_angle_alpha   90.00000000
_cell_angle_beta   90.00000000
_cell_angle_gamma   119.99998520
_symmetry_Int_Tables_number   1
_chemical_formula_structural   Lu2Cu2Te
_chemical_formula_sum   'Lu4 Cu4 Te2'
_cell_volume   220.45719541
_cell_formula_units_Z   2
loop_
 _symmetry_equiv_pos_site_id
 _symmetry_equiv_pos_as_xyz
  1  'x, y, z'
loop_
 _atom_site_type_symbol
 _atom_site_label
 _atom_site_symmetry_multiplicity
 _atom_site_fract_x
 _atom_site_fract_y
 _atom_site_fract_z
 _atom_site_occupancy
  Lu  Lu0  1  0.000000  0.000000  0.115328  1
  Lu  Lu1  1  0.000000  0.000000  0.615328  1
  Lu  Lu2  1  0.000000  0.000000  0.384672  1
  Lu  Lu3  1  0.000000  0.000000  0.884672  1
  Cu  Cu4  1  0.666667  0.333333  0.997358  1
  Cu  Cu5  1  0.333333  0.666667  0.002642  1
  Cu  Cu6  1  0.666667  0.333333  0.502642  1
  Cu  Cu7  1  0.333333  0.666667  0.497358  1
  Te  Te8  1  0.666667  0.333333  0.250000  1
  Te  Te9  1  0.333333  0.666667  0.750000  1
