# generated using pymatgen
data_La11In9Cu3Rh
_symmetry_space_group_name_H-M   'P 1'
_cell_length_a   13.64098028
_cell_length_b   13.60442467
_cell_length_c   3.86896700
_cell_angle_alpha   90.00000000
_cell_angle_beta   90.00000000
_cell_angle_gamma   111.75311857
_symmetry_Int_Tables_number   1
_chemical_formula_structural   La11In9Cu3Rh
_chemical_formula_sum   'La11 In9 Cu3 Rh1'
_cell_volume   666.86516022
_cell_formula_units_Z   1
loop_
 _symmetry_equiv_pos_site_id
 _symmetry_equiv_pos_as_xyz
  1  'x, y, z'
loop_
 _atom_site_type_symbol
 _atom_site_label
 _atom_site_symmetry_multiplicity
 _atom_site_fract_x
 _atom_site_fract_y
 _atom_site_fract_z
 _atom_site_occupancy
  La  La0  1  0.309753  0.309680  0.000000  1
  La  La1  1  0.684791  0.692773  0.000000  1
  La  La2  1  0.001747  0.000844  0.000000  1
  La  La3  1  0.067597  0.417917  0.000000  1
  La  La4  1  0.930672  0.580386  0.000000  1
  La  La5  1  0.417317  0.067130  0.000000  1
  La  La6  1  0.579088  0.925579  0.000000  1
  La  La7  1  0.839322  0.162129  0.000000  1
  La  La8  1  0.160323  0.838001  0.000000  1
  La  La9  1  0.628412  0.372273  0.000000  1
  La  La10  1  0.380215  0.632498  0.000000  1
  In  In11  1  0.837422  0.366550  0.500000  1
  In  In12  1  0.163121  0.632071  0.500000  1
  In  In13  1  0.365262  0.835930  0.500000  1
  In  In14  1  0.632001  0.161770  0.500000  1
  In  In15  1  0.079791  0.221808  0.500000  1
  In  In16  1  0.920022  0.778497  0.500000  1
  In  In17  1  0.221151  0.078706  0.500000  1
  In  In18  1  0.780014  0.921092  0.500000  1
  In  In19  1  0.499858  0.499186  0.500000  1
  Cu  Cu20  1  0.246639  0.449198  0.500000  1
  Cu  Cu21  1  0.752443  0.551103  0.500000  1
  Cu  Cu22  1  0.449855  0.248719  0.500000  1
  Rh  Rh23  1  0.553183  0.756161  0.500000  1
