# generated using pymatgen
data_CaP2PbO8
_symmetry_space_group_name_H-M   'P 1'
_cell_length_a   4.94315932
_cell_length_b   4.94316008
_cell_length_c   7.40105256
_cell_angle_alpha   90.94645424
_cell_angle_beta   90.94645630
_cell_angle_gamma   66.69546711
_symmetry_Int_Tables_number   1
_chemical_formula_structural   CaP2PbO8
_chemical_formula_sum   'Ca1 P2 Pb1 O8'
_cell_volume   166.05687447
_cell_formula_units_Z   1
loop_
 _symmetry_equiv_pos_site_id
 _symmetry_equiv_pos_as_xyz
  1  'x, y, z'
loop_
 _atom_site_type_symbol
 _atom_site_label
 _atom_site_symmetry_multiplicity
 _atom_site_fract_x
 _atom_site_fract_y
 _atom_site_fract_z
 _atom_site_occupancy
  Ca  Ca0  1  0.000000  0.000000  0.000000  1
  P  P1  1  0.642150  0.642150  0.267752  1
  P  P2  1  0.357850  0.357850  0.732249  1
  Pb  Pb3  1  0.000000  0.000000  0.499999  1
  O  O4  1  0.734328  0.734328  0.093978  1
  O  O5  1  0.767108  0.293607  0.271031  1
  O  O6  1  0.293607  0.767108  0.271031  1
  O  O7  1  0.741661  0.741661  0.448355  1
  O  O8  1  0.258340  0.258340  0.551645  1
  O  O9  1  0.706393  0.232892  0.728969  1
  O  O10  1  0.232892  0.706393  0.728969  1
  O  O11  1  0.265672  0.265672  0.906020  1
