# generated using pymatgen
data_Ca12Mn3ZnFe8(SbO6)8
_symmetry_space_group_name_H-M   'P 1'
_cell_length_a   11.06794552
_cell_length_b   11.06824810
_cell_length_c   11.06583900
_cell_angle_alpha   109.26201482
_cell_angle_beta   109.50895654
_cell_angle_gamma   109.63869196
_symmetry_Int_Tables_number   1
_chemical_formula_structural   Ca12Mn3ZnFe8(SbO6)8
_chemical_formula_sum   'Ca12 Mn3 Zn1 Fe8 Sb8 O48'
_cell_volume   1043.58097447
_cell_formula_units_Z   1
loop_
 _symmetry_equiv_pos_site_id
 _symmetry_equiv_pos_as_xyz
  1  'x, y, z'
loop_
 _atom_site_type_symbol
 _atom_site_label
 _atom_site_symmetry_multiplicity
 _atom_site_fract_x
 _atom_site_fract_y
 _atom_site_fract_z
 _atom_site_occupancy
  Ca  Ca0  1  0.251691  0.377337  0.126992  1
  Ca  Ca1  1  0.744624  0.620612  0.873628  1
  Ca  Ca2  1  0.749636  0.123775  0.375510  1
  Ca  Ca3  1  0.129992  0.251503  0.379258  1
  Ca  Ca4  1  0.374098  0.749370  0.125457  1
  Ca  Ca5  1  0.253314  0.878172  0.622844  1
  Ca  Ca6  1  0.869822  0.745125  0.623630  1
  Ca  Ca7  1  0.626106  0.253521  0.871210  1
  Ca  Ca8  1  0.379822  0.128488  0.260049  1
  Ca  Ca9  1  0.623500  0.873429  0.746682  1
  Ca  Ca10  1  0.122671  0.372844  0.743750  1
  Ca  Ca11  1  0.875384  0.625834  0.251364  1
  Mn  Mn12  1  0.248781  0.624405  0.374121  1
  Mn  Mn13  1  0.749064  0.374795  0.623897  1
  Mn  Mn14  1  0.749500  0.875432  0.124251  1
  Zn  Zn15  1  0.375187  0.248985  0.624916  1
  Fe  Fe16  1  0.625661  0.749169  0.373673  1
  Fe  Fe17  1  0.249532  0.125327  0.874508  1
  Fe  Fe18  1  0.124417  0.749665  0.873935  1
  Fe  Fe19  1  0.874413  0.248189  0.123519  1
  Fe  Fe20  1  0.624957  0.374697  0.250558  1
  Fe  Fe21  1  0.376002  0.626578  0.752401  1
  Fe  Fe22  1  0.876165  0.126068  0.751376  1
  Fe  Fe23  1  0.124789  0.876237  0.251154  1
  Sb  Sb24  1  0.997245  0.997183  0.996440  1
  Sb  Sb25  1  0.499353  0.999694  0.502583  1
  Sb  Sb26  1  0.000275  0.501249  0.499524  1
  Sb  Sb27  1  0.498517  0.000124  0.002490  1
  Sb  Sb28  1  0.503748  0.498909  0.999132  1
  Sb  Sb29  1  0.496885  0.496485  0.498274  1
  Sb  Sb30  1  0.002513  0.006034  0.501780  1
  Sb  Sb31  1  0.001531  0.500457  0.999994  1
  O  O32  1  0.480366  0.381125  0.301051  1
  O  O33  1  0.515918  0.619250  0.694282  1
  O  O34  1  0.576071  0.177059  0.196996  1
  O  O35  1  0.919209  0.117737  0.599306  1
  O  O36  1  0.300472  0.465644  0.374051  1
  O  O37  1  0.319902  0.915866  0.302351  1
  O  O38  1  0.422251  0.825232  0.806309  1
  O  O39  1  0.077498  0.884081  0.402465  1
  O  O40  1  0.696902  0.534361  0.623395  1
  O  O41  1  0.681124  0.083338  0.700711  1
  O  O42  1  0.021264  0.323580  0.899346  1
  O  O43  1  0.199378  0.574699  0.163124  1
  O  O44  1  0.118065  0.019507  0.193953  1
  O  O45  1  0.983888  0.678082  0.102923  1
  O  O46  1  0.804401  0.426561  0.836431  1
  O  O47  1  0.882892  0.977801  0.798517  1
  O  O48  1  0.587891  0.924477  0.123492  1
  O  O49  1  0.180448  0.484100  0.596673  1
  O  O50  1  0.399298  0.075628  0.881656  1
  O  O51  1  0.820553  0.520529  0.405125  1
  O  O52  1  0.908800  0.033695  0.334356  1
  O  O53  1  0.381177  0.576789  0.902417  1
  O  O54  1  0.099904  0.980802  0.675951  1
  O  O55  1  0.618679  0.416834  0.097760  1
  O  O56  1  0.382242  0.297784  0.471711  1
  O  O57  1  0.574649  0.896564  0.380981  1
  O  O58  1  0.614258  0.695999  0.516915  1
  O  O59  1  0.424047  0.094243  0.622832  1
  O  O60  1  0.116207  0.596151  0.915919  1
  O  O61  1  0.018084  0.193210  0.115495  1
  O  O62  1  0.886153  0.403212  0.082725  1
  O  O63  1  0.981422  0.803868  0.879883  1
  O  O64  1  0.319826  0.903895  0.021304  1
  O  O65  1  0.925000  0.306217  0.321634  1
  O  O66  1  0.673716  0.098749  0.979595  1
  O  O67  1  0.075600  0.696632  0.676854  1
  O  O68  1  0.173811  0.203897  0.584809  1
  O  O69  1  0.481590  0.597469  0.174689  1
  O  O70  1  0.826940  0.806438  0.425872  1
  O  O71  1  0.526671  0.405182  0.828580  1
  O  O72  1  0.305885  0.324846  0.925862  1
  O  O73  1  0.701677  0.667521  0.080852  1
  O  O74  1  0.194131  0.119605  0.018793  1
  O  O75  1  0.800002  0.874962  0.963590  1
  O  O76  1  0.910588  0.376328  0.572794  1
  O  O77  1  0.089012  0.626122  0.425788  1
  O  O78  1  0.590193  0.161928  0.466239  1
  O  O79  1  0.412749  0.832701  0.534740  1
