# generated using pymatgen
data_Pr10GaSi4Os
_symmetry_space_group_name_H-M   'P 1'
_cell_length_a   7.73326983
_cell_length_b   7.73327031
_cell_length_c   9.31433900
_cell_angle_alpha   114.52732021
_cell_angle_beta   114.52732181
_cell_angle_gamma   90.00000254
_symmetry_Int_Tables_number   1
_chemical_formula_structural   Pr10GaSi4Os
_chemical_formula_sum   'Pr10 Ga1 Si4 Os1'
_cell_volume   450.93234628
_cell_formula_units_Z   1
loop_
 _symmetry_equiv_pos_site_id
 _symmetry_equiv_pos_as_xyz
  1  'x, y, z'
loop_
 _atom_site_type_symbol
 _atom_site_label
 _atom_site_symmetry_multiplicity
 _atom_site_fract_x
 _atom_site_fract_y
 _atom_site_fract_z
 _atom_site_occupancy
  Pr  Pr0  1  0.466426  0.466426  0.932853  1
  Pr  Pr1  1  0.033574  0.033574  0.067147  1
  Pr  Pr2  1  0.945024  0.799097  0.284231  1
  Pr  Pr3  1  0.339207  0.485134  0.284231  1
  Pr  Pr4  1  0.799097  0.339207  0.284231  1
  Pr  Pr5  1  0.485134  0.945024  0.284231  1
  Pr  Pr6  1  0.014866  0.160793  0.715769  1
  Pr  Pr7  1  0.700903  0.554976  0.715769  1
  Pr  Pr8  1  0.160793  0.700903  0.715769  1
  Pr  Pr9  1  0.554976  0.014866  0.715769  1
  Ga  Ga10  1  0.250000  0.250000  0.500000  1
  Si  Si11  1  0.615185  0.884815  0.000000  1
  Si  Si12  1  0.384815  0.115185  0.000000  1
  Si  Si13  1  0.884815  0.384815  0.000000  1
  Si  Si14  1  0.115185  0.615185  0.000000  1
  Os  Os15  1  0.750000  0.750000  0.500000  1
