# generated using pymatgen
data_ZrSc5Ta3TiGa12Ir7
_symmetry_space_group_name_H-M   'P 1'
_cell_length_a   8.84274767
_cell_length_b   8.84274772
_cell_length_c   8.84524700
_cell_angle_alpha   60.00934326
_cell_angle_beta   60.00934306
_cell_angle_gamma   59.99999886
_symmetry_Int_Tables_number   1
_chemical_formula_structural   ZrSc5Ta3TiGa12Ir7
_chemical_formula_sum   'Zr1 Sc5 Ta3 Ti1 Ga12 Ir7'
_cell_volume   489.13726211
_cell_formula_units_Z   1
loop_
 _symmetry_equiv_pos_site_id
 _symmetry_equiv_pos_as_xyz
  1  'x, y, z'
loop_
 _atom_site_type_symbol
 _atom_site_label
 _atom_site_symmetry_multiplicity
 _atom_site_fract_x
 _atom_site_fract_y
 _atom_site_fract_z
 _atom_site_occupancy
  Zr  Zr0  1  0.700133  0.700133  0.300882  1
  Sc  Sc1  1  0.298599  0.702578  0.301569  1
  Sc  Sc2  1  0.702578  0.298599  0.301569  1
  Sc  Sc3  1  0.299765  0.299765  0.700567  1
  Sc  Sc4  1  0.700475  0.301788  0.696064  1
  Sc  Sc5  1  0.301788  0.700475  0.696064  1
  Ta  Ta6  1  0.877237  0.367821  0.877613  1
  Ta  Ta7  1  0.367821  0.877237  0.877613  1
  Ta  Ta8  1  0.876559  0.876559  0.877822  1
  Ti  Ti9  1  0.876808  0.876808  0.368843  1
  Ga  Ga10  1  0.119744  0.119744  0.638930  1
  Ga  Ga11  1  0.117567  0.640464  0.123363  1
  Ga  Ga12  1  0.640464  0.117567  0.123363  1
  Ga  Ga13  1  0.117683  0.117683  0.124308  1
  Ga  Ga14  1  0.650692  0.650692  0.046947  1
  Ga  Ga15  1  0.654364  0.042448  0.649488  1
  Ga  Ga16  1  0.042448  0.654364  0.649488  1
  Ga  Ga17  1  0.654990  0.654990  0.650968  1
  Ga  Ga18  1  0.337683  0.337683  0.987012  1
  Ga  Ga19  1  0.340957  0.978897  0.339368  1
  Ga  Ga20  1  0.978897  0.340957  0.339368  1
  Ga  Ga21  1  0.338408  0.338408  0.336785  1
  Ir  Ir22  1  0.000133  0.000133  0.998755  1
  Ir  Ir23  1  0.997332  0.997332  0.504144  1
  Ir  Ir24  1  0.500959  0.999414  0.504712  1
  Ir  Ir25  1  0.999414  0.500959  0.504712  1
  Ir  Ir26  1  0.504280  0.504280  0.994634  1
  Ir  Ir27  1  0.998864  0.503361  0.992524  1
  Ir  Ir28  1  0.503361  0.998864  0.992524  1
