# generated using pymatgen
data_Nd8TcOsBr8
_symmetry_space_group_name_H-M   'P 1'
_cell_length_a   9.37995450
_cell_length_b   9.37995579
_cell_length_c   6.71723350
_cell_angle_alpha   89.76904847
_cell_angle_beta   89.76903843
_cell_angle_gamma   89.55559577
_symmetry_Int_Tables_number   1
_chemical_formula_structural   Nd8TcOsBr8
_chemical_formula_sum   'Nd8 Tc1 Os1 Br8'
_cell_volume   590.97879987
_cell_formula_units_Z   1
loop_
 _symmetry_equiv_pos_site_id
 _symmetry_equiv_pos_as_xyz
  1  'x, y, z'
loop_
 _atom_site_type_symbol
 _atom_site_label
 _atom_site_symmetry_multiplicity
 _atom_site_fract_x
 _atom_site_fract_y
 _atom_site_fract_z
 _atom_site_occupancy
  Nd  Nd0  1  0.249305  0.901045  0.010201  1
  Nd  Nd1  1  0.750351  0.099165  0.989593  1
  Nd  Nd2  1  0.098955  0.750695  0.489799  1
  Nd  Nd3  1  0.900835  0.249649  0.510407  1
  Nd  Nd4  1  0.752268  0.902673  0.501788  1
  Nd  Nd5  1  0.248039  0.097628  0.498173  1
  Nd  Nd6  1  0.097327  0.247732  0.998212  1
  Nd  Nd7  1  0.902372  0.751961  0.001827  1
  Tc  Tc8  1  0.997189  0.002811  0.250000  1
  Os  Os9  1  0.002573  0.997427  0.750000  1
  Br  Br10  1  0.411863  0.819341  0.429053  1
  Br  Br11  1  0.587963  0.180227  0.572279  1
  Br  Br12  1  0.180659  0.588137  0.070947  1
  Br  Br13  1  0.819773  0.412037  0.927721  1
  Br  Br14  1  0.409353  0.182799  0.076153  1
  Br  Br15  1  0.590801  0.816829  0.924593  1
  Br  Br16  1  0.817201  0.590647  0.423847  1
  Br  Br17  1  0.183171  0.409199  0.575407  1
