# generated using pymatgen
data_Tb10In8RhAu3
_symmetry_space_group_name_H-M   'P 1'
_cell_length_a   3.68487700
_cell_length_b   8.23282658
_cell_length_c   18.46848720
_cell_angle_alpha   89.95782454
_cell_angle_beta   90.00000000
_cell_angle_gamma   90.00000000
_symmetry_Int_Tables_number   1
_chemical_formula_structural   Tb10In8RhAu3
_chemical_formula_sum   'Tb10 In8 Rh1 Au3'
_cell_volume   560.27748215
_cell_formula_units_Z   1
loop_
 _symmetry_equiv_pos_site_id
 _symmetry_equiv_pos_as_xyz
  1  'x, y, z'
loop_
 _atom_site_type_symbol
 _atom_site_label
 _atom_site_symmetry_multiplicity
 _atom_site_fract_x
 _atom_site_fract_y
 _atom_site_fract_z
 _atom_site_occupancy
  Tb  Tb0  1  0.000000  0.501234  0.499263  1
  Tb  Tb1  1  0.000000  0.001394  0.001016  1
  Tb  Tb2  1  0.000000  0.762199  0.281894  1
  Tb  Tb3  1  0.000000  0.259319  0.718722  1
  Tb  Tb4  1  0.000000  0.758525  0.780818  1
  Tb  Tb5  1  0.000000  0.228337  0.223214  1
  Tb  Tb6  1  0.000000  0.621971  0.081022  1
  Tb  Tb7  1  0.000000  0.378052  0.919873  1
  Tb  Tb8  1  0.000000  0.877822  0.579741  1
  Tb  Tb9  1  0.000000  0.115528  0.413252  1
  In  In10  1  0.500000  0.709478  0.933140  1
  In  In11  1  0.500000  0.291127  0.067998  1
  In  In12  1  0.500000  0.793291  0.430999  1
  In  In13  1  0.500000  0.208760  0.566011  1
  In  In14  1  0.500000  0.573602  0.646184  1
  In  In15  1  0.500000  0.424199  0.352194  1
  In  In16  1  0.500000  0.929608  0.149136  1
  In  In17  1  0.500000  0.073215  0.853633  1
  Rh  Rh18  1  0.500000  0.024117  0.304355  1
  Au  Au19  1  0.500000  0.526113  0.197810  1
  Au  Au20  1  0.500000  0.470892  0.803245  1
  Au  Au21  1  0.500000  0.971214  0.696479  1
