# generated using pymatgen
data_CePr(GaIr)2
_symmetry_space_group_name_H-M   'P 1'
_cell_length_a   4.39337900
_cell_length_b   7.00002801
_cell_length_c   7.93928704
_cell_angle_alpha   90.00795503
_cell_angle_beta   90.00000000
_cell_angle_gamma   90.00000000
_symmetry_Int_Tables_number   1
_chemical_formula_structural   CePr(GaIr)2
_chemical_formula_sum   'Ce2 Pr2 Ga4 Ir4'
_cell_volume   244.16305315
_cell_formula_units_Z   2
loop_
 _symmetry_equiv_pos_site_id
 _symmetry_equiv_pos_as_xyz
  1  'x, y, z'
loop_
 _atom_site_type_symbol
 _atom_site_label
 _atom_site_symmetry_multiplicity
 _atom_site_fract_x
 _atom_site_fract_y
 _atom_site_fract_z
 _atom_site_occupancy
  Ce  Ce0  1  0.750000  0.968510  0.687916  1
  Ce  Ce1  1  0.250000  0.031490  0.312084  1
  Pr  Pr2  1  0.250000  0.531320  0.189549  1
  Pr  Pr3  1  0.750000  0.468680  0.810451  1
  Ga  Ga4  1  0.250000  0.650656  0.567650  1
  Ga  Ga5  1  0.750000  0.349344  0.432350  1
  Ga  Ga6  1  0.750000  0.850332  0.068217  1
  Ga  Ga7  1  0.250000  0.149668  0.931783  1
  Ir  Ir8  1  0.250000  0.776461  0.881604  1
  Ir  Ir9  1  0.750000  0.223539  0.118396  1
  Ir  Ir10  1  0.750000  0.743602  0.396099  1
  Ir  Ir11  1  0.250000  0.256398  0.603901  1
