# generated using pymatgen
data_La5Er5(Sn5Rh2)4
_symmetry_space_group_name_H-M   'P 1'
_cell_length_a   14.22832500
_cell_length_b   14.22832500
_cell_length_c   4.58725600
_cell_angle_alpha   90.00000000
_cell_angle_beta   90.00000000
_cell_angle_gamma   90.00000000
_symmetry_Int_Tables_number   1
_chemical_formula_structural   La5Er5(Sn5Rh2)4
_chemical_formula_sum   'La5 Er5 Sn20 Rh8'
_cell_volume   928.66810657
_cell_formula_units_Z   1
loop_
 _symmetry_equiv_pos_site_id
 _symmetry_equiv_pos_as_xyz
  1  'x, y, z'
loop_
 _atom_site_type_symbol
 _atom_site_label
 _atom_site_symmetry_multiplicity
 _atom_site_fract_x
 _atom_site_fract_y
 _atom_site_fract_z
 _atom_site_occupancy
  La  La0  1  0.000000  0.000000  0.000000  1
  La  La1  1  0.888309  0.388581  0.500000  1
  La  La2  1  0.111691  0.611419  0.500000  1
  La  La3  1  0.388581  0.111691  0.500000  1
  La  La4  1  0.611419  0.888309  0.500000  1
  Er  Er5  1  0.500000  0.500000  0.000000  1
  Er  Er6  1  0.676596  0.177087  0.500000  1
  Er  Er7  1  0.323404  0.822913  0.500000  1
  Er  Er8  1  0.177087  0.323404  0.500000  1
  Er  Er9  1  0.822913  0.676596  0.500000  1
  Sn  Sn10  1  0.570483  0.071287  0.000000  1
  Sn  Sn11  1  0.429517  0.928713  0.000000  1
  Sn  Sn12  1  0.071287  0.429517  0.000000  1
  Sn  Sn13  1  0.928713  0.570483  0.000000  1
  Sn  Sn14  1  0.654714  0.697624  0.000000  1
  Sn  Sn15  1  0.345286  0.302376  0.000000  1
  Sn  Sn16  1  0.154661  0.802328  0.000000  1
  Sn  Sn17  1  0.845339  0.197672  0.000000  1
  Sn  Sn18  1  0.302376  0.654714  0.000000  1
  Sn  Sn19  1  0.697624  0.345286  0.000000  1
  Sn  Sn20  1  0.197672  0.154661  0.000000  1
  Sn  Sn21  1  0.802328  0.845339  0.000000  1
  Sn  Sn22  1  0.660979  0.506430  0.500000  1
  Sn  Sn23  1  0.339021  0.493570  0.500000  1
  Sn  Sn24  1  0.164173  0.993208  0.500000  1
  Sn  Sn25  1  0.835827  0.006792  0.500000  1
  Sn  Sn26  1  0.493570  0.660979  0.500000  1
  Sn  Sn27  1  0.506430  0.339021  0.500000  1
  Sn  Sn28  1  0.006792  0.164173  0.500000  1
  Sn  Sn29  1  0.993208  0.835827  0.500000  1
  Rh  Rh30  1  0.745140  0.529146  0.000000  1
  Rh  Rh31  1  0.254860  0.470854  0.000000  1
  Rh  Rh32  1  0.247754  0.970494  0.000000  1
  Rh  Rh33  1  0.752246  0.029506  0.000000  1
  Rh  Rh34  1  0.470854  0.745140  0.000000  1
  Rh  Rh35  1  0.529146  0.254860  0.000000  1
  Rh  Rh36  1  0.029506  0.247754  0.000000  1
  Rh  Rh37  1  0.970494  0.752246  0.000000  1
