# generated using pymatgen
data_La3In2HgPt3
_symmetry_space_group_name_H-M   'P 1'
_cell_length_a   7.88038359
_cell_length_b   7.88038418
_cell_length_c   4.05391700
_cell_angle_alpha   90.00000000
_cell_angle_beta   90.00000000
_cell_angle_gamma   119.26388303
_symmetry_Int_Tables_number   1
_chemical_formula_structural   La3In2HgPt3
_chemical_formula_sum   'La3 In2 Hg1 Pt3'
_cell_volume   219.62111917
_cell_formula_units_Z   1
loop_
 _symmetry_equiv_pos_site_id
 _symmetry_equiv_pos_as_xyz
  1  'x, y, z'
loop_
 _atom_site_type_symbol
 _atom_site_label
 _atom_site_symmetry_multiplicity
 _atom_site_fract_x
 _atom_site_fract_y
 _atom_site_fract_z
 _atom_site_occupancy
  La  La0  1  0.414875  0.414875  0.500000  1
  La  La1  1  0.997045  0.591645  0.500000  1
  La  La2  1  0.591645  0.997045  0.500000  1
  In  In3  1  0.252183  0.000656  0.000000  1
  In  In4  1  0.000656  0.252183  0.000000  1
  Hg  Hg5  1  0.744311  0.744311  0.000000  1
  Pt  Pt6  1  0.662702  0.317977  0.000000  1
  Pt  Pt7  1  0.317977  0.662702  0.000000  1
  Pt  Pt8  1  0.018607  0.018607  0.500000  1
