# generated using pymatgen
data_NpCl3O
_symmetry_space_group_name_H-M   'P 1'
_cell_length_a   12.29766300
_cell_length_b   12.29766300
_cell_length_c   4.09651600
_cell_angle_alpha   90.00000000
_cell_angle_beta   90.00000000
_cell_angle_gamma   90.00000000
_symmetry_Int_Tables_number   1
_chemical_formula_structural   NpCl3O
_chemical_formula_sum   'Np4 Cl12 O4'
_cell_volume   619.52641849
_cell_formula_units_Z   4
loop_
 _symmetry_equiv_pos_site_id
 _symmetry_equiv_pos_as_xyz
  1  'x, y, z'
loop_
 _atom_site_type_symbol
 _atom_site_label
 _atom_site_symmetry_multiplicity
 _atom_site_fract_x
 _atom_site_fract_y
 _atom_site_fract_z
 _atom_site_occupancy
  Np  Np0  1  0.619370  0.880630  0.742705  1
  Np  Np1  1  0.119370  0.619370  0.257295  1
  Np  Np2  1  0.380630  0.119370  0.742705  1
  Np  Np3  1  0.880630  0.380630  0.257295  1
  Cl  Cl4  1  0.099798  0.400202  0.257203  1
  Cl  Cl5  1  0.820586  0.893721  0.744096  1
  Cl  Cl6  1  0.179414  0.106279  0.744096  1
  Cl  Cl7  1  0.400202  0.900202  0.742797  1
  Cl  Cl8  1  0.900202  0.599798  0.257203  1
  Cl  Cl9  1  0.606279  0.679414  0.744096  1
  Cl  Cl10  1  0.393721  0.320586  0.744096  1
  Cl  Cl11  1  0.893721  0.179414  0.255904  1
  Cl  Cl12  1  0.599798  0.099798  0.742797  1
  Cl  Cl13  1  0.679414  0.393721  0.255904  1
  Cl  Cl14  1  0.320586  0.606279  0.255904  1
  Cl  Cl15  1  0.106279  0.820586  0.255904  1
  O  O16  1  0.115433  0.615433  0.757465  1
  O  O17  1  0.615433  0.884567  0.242535  1
  O  O18  1  0.384567  0.115433  0.242535  1
  O  O19  1  0.884567  0.384567  0.757465  1
