# generated using pymatgen
data_Tb4Al12Ga6Ir5Pt
_symmetry_space_group_name_H-M   'P 1'
_cell_length_a   7.55777452
_cell_length_b   7.55777459
_cell_length_c   9.57228018
_cell_angle_alpha   90.09163946
_cell_angle_beta   90.09164010
_cell_angle_gamma   119.86829976
_symmetry_Int_Tables_number   1
_chemical_formula_structural   Tb4Al12Ga6Ir5Pt
_chemical_formula_sum   'Tb4 Al12 Ga6 Ir5 Pt1'
_cell_volume   474.13990684
_cell_formula_units_Z   1
loop_
 _symmetry_equiv_pos_site_id
 _symmetry_equiv_pos_as_xyz
  1  'x, y, z'
loop_
 _atom_site_type_symbol
 _atom_site_label
 _atom_site_symmetry_multiplicity
 _atom_site_fract_x
 _atom_site_fract_y
 _atom_site_fract_z
 _atom_site_occupancy
  Tb  Tb0  1  0.997298  0.669903  0.250801  1
  Tb  Tb1  1  0.002702  0.330097  0.749199  1
  Tb  Tb2  1  0.669903  0.997298  0.250801  1
  Tb  Tb3  1  0.330097  0.002702  0.749199  1
  Al  Al4  1  0.001728  0.337588  0.075145  1
  Al  Al5  1  0.998272  0.662412  0.924855  1
  Al  Al6  1  0.999054  0.665801  0.572561  1
  Al  Al7  1  0.334199  0.000946  0.427439  1
  Al  Al8  1  0.000946  0.334199  0.427439  1
  Al  Al9  1  0.665801  0.999054  0.572561  1
  Al  Al10  1  0.662412  0.998272  0.924855  1
  Al  Al11  1  0.337588  0.001728  0.075145  1
  Al  Al12  1  0.334063  0.334063  0.556229  1
  Al  Al13  1  0.665937  0.665937  0.443771  1
  Al  Al14  1  0.662810  0.662810  0.058724  1
  Al  Al15  1  0.337190  0.337190  0.941276  1
  Ga  Ga16  1  0.130678  0.130678  0.252405  1
  Ga  Ga17  1  0.869322  0.869322  0.747595  1
  Ga  Ga18  1  0.339358  0.548488  0.250583  1
  Ga  Ga19  1  0.660642  0.451512  0.749417  1
  Ga  Ga20  1  0.548488  0.339358  0.250583  1
  Ga  Ga21  1  0.451512  0.660642  0.749417  1
  Ir  Ir22  1  0.671406  0.328594  0.000000  1
  Ir  Ir23  1  0.328594  0.671406  0.000000  1
  Ir  Ir24  1  0.328434  0.671566  0.500000  1
  Ir  Ir25  1  0.671566  0.328434  0.500000  1
  Ir  Ir26  1  0.000000  0.000000  0.500000  1
  Pt  Pt27  1  0.000000  0.000000  0.000000  1
