# generated using pymatgen
data_SmGd5WO12
_symmetry_space_group_name_H-M   'P 1'
_cell_length_a   6.60357149
_cell_length_b   6.58589552
_cell_length_c   6.59363726
_cell_angle_alpha   98.61837322
_cell_angle_beta   98.69965434
_cell_angle_gamma   98.48636918
_symmetry_Int_Tables_number   1
_chemical_formula_structural   SmGd5WO12
_chemical_formula_sum   'Sm1 Gd5 W1 O12'
_cell_volume   275.97564885
_cell_formula_units_Z   1
loop_
 _symmetry_equiv_pos_site_id
 _symmetry_equiv_pos_as_xyz
  1  'x, y, z'
loop_
 _atom_site_type_symbol
 _atom_site_label
 _atom_site_symmetry_multiplicity
 _atom_site_fract_x
 _atom_site_fract_y
 _atom_site_fract_z
 _atom_site_occupancy
  Sm  Sm0  1  0.857296  0.388162  0.689040  1
  Gd  Gd1  1  0.609717  0.313030  0.143923  1
  Gd  Gd2  1  0.313067  0.143624  0.610231  1
  Gd  Gd3  1  0.686527  0.855874  0.389204  1
  Gd  Gd4  1  0.389866  0.687488  0.856385  1
  Gd  Gd5  1  0.143920  0.610564  0.312794  1
  W  W6  1  0.000339  0.000043  0.000746  1
  O  O7  1  0.925898  0.032221  0.706228  1
  O  O8  1  0.966723  0.293663  0.073113  1
  O  O9  1  0.590167  0.176323  0.433278  1
  O  O10  1  0.823120  0.566043  0.406426  1
  O  O11  1  0.292690  0.074049  0.967336  1
  O  O12  1  0.563143  0.408003  0.824152  1
  O  O13  1  0.433908  0.592068  0.177584  1
  O  O14  1  0.707113  0.926005  0.032551  1
  O  O15  1  0.179932  0.434989  0.590470  1
  O  O16  1  0.408720  0.823144  0.565932  1
  O  O17  1  0.033782  0.707036  0.926889  1
  O  O18  1  0.074070  0.967668  0.293719  1
