# generated using pymatgen
data_PrCdHg2(Ir2O7)2
_symmetry_space_group_name_H-M   'P 1'
_cell_length_a   7.35375165
_cell_length_b   7.30103281
_cell_length_c   7.25345500
_cell_angle_alpha   60.21533835
_cell_angle_beta   60.45015740
_cell_angle_gamma   60.87844271
_symmetry_Int_Tables_number   1
_chemical_formula_structural   PrCdHg2(Ir2O7)2
_chemical_formula_sum   'Pr1 Cd1 Hg2 Ir4 O14'
_cell_volume   278.55778697
_cell_formula_units_Z   1
loop_
 _symmetry_equiv_pos_site_id
 _symmetry_equiv_pos_as_xyz
  1  'x, y, z'
loop_
 _atom_site_type_symbol
 _atom_site_label
 _atom_site_symmetry_multiplicity
 _atom_site_fract_x
 _atom_site_fract_y
 _atom_site_fract_z
 _atom_site_occupancy
  Pr  Pr0  1  0.625000  0.125000  0.125000  1
  Cd  Cd1  1  0.125000  0.625000  0.125000  1
  Hg  Hg2  1  0.125000  0.125000  0.625000  1
  Hg  Hg3  1  0.125000  0.125000  0.125000  1
  Ir  Ir4  1  0.625000  0.625000  0.625000  1
  Ir  Ir5  1  0.125000  0.625000  0.625000  1
  Ir  Ir6  1  0.625000  0.125000  0.625000  1
  Ir  Ir7  1  0.625000  0.625000  0.125000  1
  O  O8  1  0.944543  0.559134  0.549488  1
  O  O9  1  0.306872  0.306527  0.693300  1
  O  O10  1  0.944543  0.559134  0.946836  1
  O  O11  1  0.695121  0.301050  0.299023  1
  O  O12  1  0.546212  0.545343  0.954222  1
  O  O13  1  0.554879  0.948950  0.545193  1
  O  O14  1  0.554879  0.948950  0.950977  1
  O  O15  1  0.229785  0.253802  0.258207  1
  O  O16  1  0.305457  0.690866  0.700512  1
  O  O17  1  0.695121  0.301050  0.704807  1
  O  O18  1  0.020215  0.996198  0.991793  1
  O  O19  1  0.943128  0.943473  0.556700  1
  O  O20  1  0.305457  0.690866  0.303164  1
  O  O21  1  0.703788  0.704657  0.295778  1
