# generated using pymatgen
data_Nb6CrInSe12
_symmetry_space_group_name_H-M   'P 1'
_cell_length_a   6.06468200
_cell_length_b   6.06468141
_cell_length_c   14.11194600
_cell_angle_alpha   90.00000000
_cell_angle_beta   90.00000000
_cell_angle_gamma   120.00000320
_symmetry_Int_Tables_number   1
_chemical_formula_structural   Nb6CrInSe12
_chemical_formula_sum   'Nb6 Cr1 In1 Se12'
_cell_volume   449.50398780
_cell_formula_units_Z   1
loop_
 _symmetry_equiv_pos_site_id
 _symmetry_equiv_pos_as_xyz
  1  'x, y, z'
loop_
 _atom_site_type_symbol
 _atom_site_label
 _atom_site_symmetry_multiplicity
 _atom_site_fract_x
 _atom_site_fract_y
 _atom_site_fract_z
 _atom_site_occupancy
  Nb  Nb0  1  0.333333  0.666667  0.972118  1
  Nb  Nb1  1  0.000000  0.000000  0.972394  1
  Nb  Nb2  1  0.000000  0.000000  0.527606  1
  Nb  Nb3  1  0.333333  0.666667  0.527882  1
  Nb  Nb4  1  0.666667  0.333333  0.971896  1
  Nb  Nb5  1  0.666667  0.333333  0.528104  1
  Cr  Cr6  1  0.666667  0.333333  0.750000  1
  In  In7  1  0.333333  0.666667  0.250000  1
  Se  Se8  1  0.333074  0.000817  0.091072  1
  Se  Se9  1  0.666590  0.995991  0.645849  1
  Se  Se10  1  0.999183  0.332256  0.091072  1
  Se  Se11  1  0.667744  0.000817  0.408928  1
  Se  Se12  1  0.333074  0.332256  0.408928  1
  Se  Se13  1  0.999183  0.666926  0.408928  1
  Se  Se14  1  0.667744  0.666926  0.091072  1
  Se  Se15  1  0.329401  0.333410  0.645849  1
  Se  Se16  1  0.004009  0.670599  0.645849  1
  Se  Se17  1  0.329401  0.995991  0.854151  1
  Se  Se18  1  0.666590  0.670599  0.854151  1
  Se  Se19  1  0.004009  0.333410  0.854151  1
