# generated using pymatgen
data_LaDyGaNi7B2
_symmetry_space_group_name_H-M   'P 1'
_cell_length_a   5.15532500
_cell_length_b   5.15761376
_cell_length_c   6.86080700
_cell_angle_alpha   90.00000000
_cell_angle_beta   90.00000000
_cell_angle_gamma   119.98488930
_symmetry_Int_Tables_number   1
_chemical_formula_structural   LaDyGaNi7B2
_chemical_formula_sum   'La1 Dy1 Ga1 Ni7 B2'
_cell_volume   158.00717462
_cell_formula_units_Z   1
loop_
 _symmetry_equiv_pos_site_id
 _symmetry_equiv_pos_as_xyz
  1  'x, y, z'
loop_
 _atom_site_type_symbol
 _atom_site_label
 _atom_site_symmetry_multiplicity
 _atom_site_fract_x
 _atom_site_fract_y
 _atom_site_fract_z
 _atom_site_occupancy
  La  La0  1  0.500080  0.000287  0.000000  1
  Dy  Dy1  1  0.500017  0.000059  0.500000  1
  Ga  Ga2  1  0.833601  0.667103  0.000000  1
  Ni  Ni3  1  0.166577  0.333111  0.000000  1
  Ni  Ni4  1  0.000645  0.001301  0.700180  1
  Ni  Ni5  1  0.498579  0.499239  0.700438  1
  Ni  Ni6  1  0.000654  0.499239  0.700440  1
  Ni  Ni7  1  0.000645  0.001301  0.299820  1
  Ni  Ni8  1  0.498579  0.499239  0.299562  1
  Ni  Ni9  1  0.000654  0.499239  0.299560  1
  B  B10  1  0.833251  0.666472  0.500000  1
  B  B11  1  0.166718  0.333413  0.500000  1
