# generated using pymatgen
data_Tb3Er9InCo4Os
_symmetry_space_group_name_H-M   'P 1'
_cell_length_a   8.23872444
_cell_length_b   8.23872364
_cell_length_c   8.23925298
_cell_angle_alpha   111.34393090
_cell_angle_beta   110.66654637
_cell_angle_gamma   106.44291732
_symmetry_Int_Tables_number   1
_chemical_formula_structural   Tb3Er9InCo4Os
_chemical_formula_sum   'Tb3 Er9 In1 Co4 Os1'
_cell_volume   429.61616227
_cell_formula_units_Z   1
loop_
 _symmetry_equiv_pos_site_id
 _symmetry_equiv_pos_as_xyz
  1  'x, y, z'
loop_
 _atom_site_type_symbol
 _atom_site_label
 _atom_site_symmetry_multiplicity
 _atom_site_fract_x
 _atom_site_fract_y
 _atom_site_fract_z
 _atom_site_occupancy
  Tb  Tb0  1  0.182417  0.279780  0.462198  1
  Tb  Tb1  1  0.816793  0.719948  0.536741  1
  Tb  Tb2  1  0.183310  0.720189  0.903499  1
  Er  Er3  1  0.817654  0.278847  0.096502  1
  Er  Er4  1  0.314072  0.620131  0.305484  1
  Er  Er5  1  0.685319  0.379408  0.694881  1
  Er  Er6  1  0.315474  0.009564  0.694881  1
  Er  Er7  1  0.685353  0.991412  0.305484  1
  Er  Er8  1  0.416111  0.220908  0.194442  1
  Er  Er9  1  0.584815  0.780059  0.805942  1
  Er  Er10  1  0.025883  0.221128  0.805942  1
  Er  Er11  1  0.973534  0.778331  0.194442  1
  In  In12  1  0.500324  0.499767  0.000092  1
  Co  Co13  1  0.111291  0.611276  0.498866  1
  Co  Co14  1  0.887590  0.387576  0.498866  1
  Co  Co15  1  0.377298  0.999841  0.377138  1
  Co  Co16  1  0.623106  0.000666  0.623772  1
  Os  Os17  1  0.999655  0.001170  0.000825  1
