# generated using pymatgen
data_Nd2H3Pd17
_symmetry_space_group_name_H-M   'P 1'
_cell_length_a   7.01976138
_cell_length_b   7.01976044
_cell_length_c   7.01975991
_cell_angle_alpha   82.72141285
_cell_angle_beta   97.27858992
_cell_angle_gamma   97.27858233
_symmetry_Int_Tables_number   1
_chemical_formula_structural   Nd2H3Pd17
_chemical_formula_sum   'Nd2 H3 Pd17'
_cell_volume   338.20196444
_cell_formula_units_Z   1
loop_
 _symmetry_equiv_pos_site_id
 _symmetry_equiv_pos_as_xyz
  1  'x, y, z'
loop_
 _atom_site_type_symbol
 _atom_site_label
 _atom_site_symmetry_multiplicity
 _atom_site_fract_x
 _atom_site_fract_y
 _atom_site_fract_z
 _atom_site_occupancy
  Nd  Nd0  1  0.669150  0.330850  0.330850  1
  Nd  Nd1  1  0.330850  0.669150  0.669149  1
  H  H2  1  0.500000  0.000000  0.500000  1
  H  H3  1  0.000001  0.500000  0.500000  1
  H  H4  1  0.500001  0.500000  0.999999  1
  Pd  Pd5  1  0.298043  0.298043  0.999999  1
  Pd  Pd6  1  0.999999  0.500000  0.999999  1
  Pd  Pd7  1  0.701957  0.701956  0.000000  1
  Pd  Pd8  1  0.900002  0.099998  0.099997  1
  Pd  Pd9  1  0.350392  0.649607  0.155396  1
  Pd  Pd10  1  0.298042  0.000000  0.298042  1
  Pd  Pd11  1  0.000001  0.701956  0.298044  1
  Pd  Pd12  1  0.155395  0.350394  0.350392  1
  Pd  Pd13  1  0.649607  0.844605  0.350393  1
  Pd  Pd14  1  0.000000  0.999999  0.500000  1
  Pd  Pd15  1  0.350392  0.155395  0.649607  1
  Pd  Pd16  1  0.844605  0.649607  0.649609  1
  Pd  Pd17  1  0.701957  0.000000  0.701957  1
  Pd  Pd18  1  0.999999  0.298042  0.701957  1
  Pd  Pd19  1  0.649608  0.350394  0.844605  1
  Pd  Pd20  1  0.099998  0.900002  0.900002  1
  Pd  Pd21  1  0.500001  0.000001  0.000000  1
