# generated using pymatgen
data_NaTbYbI6
_symmetry_space_group_name_H-M   'P 1'
_cell_length_a   8.63805046
_cell_length_b   8.63809311
_cell_length_c   8.63801400
_cell_angle_alpha   53.44682322
_cell_angle_beta   53.44691899
_cell_angle_gamma   53.44687942
_symmetry_Int_Tables_number   1
_chemical_formula_structural   NaTbYbI6
_chemical_formula_sum   'Na1 Tb1 Yb1 I6'
_cell_volume   385.85825632
_cell_formula_units_Z   1
loop_
 _symmetry_equiv_pos_site_id
 _symmetry_equiv_pos_as_xyz
  1  'x, y, z'
loop_
 _atom_site_type_symbol
 _atom_site_label
 _atom_site_symmetry_multiplicity
 _atom_site_fract_x
 _atom_site_fract_y
 _atom_site_fract_z
 _atom_site_occupancy
  Na  Na0  1  0.669778  0.669776  0.669782  1
  Tb  Tb1  1  0.999890  0.999901  0.999900  1
  Yb  Yb2  1  0.331019  0.331018  0.331014  1
  I  I3  1  0.237616  0.596812  0.924837  1
  I  I4  1  0.596815  0.924846  0.237613  1
  I  I5  1  0.924842  0.237618  0.596811  1
  I  I6  1  0.751850  0.391815  0.096370  1
  I  I7  1  0.391823  0.096367  0.751850  1
  I  I8  1  0.096369  0.751847  0.391825  1
