# generated using pymatgen
data_La5Ag2Os
_symmetry_space_group_name_H-M   'P 1'
_cell_length_a   8.87849600
_cell_length_b   8.85379700
_cell_length_c   12.39072500
_cell_angle_alpha   90.00000000
_cell_angle_beta   90.00000000
_cell_angle_gamma   90.00000000
_symmetry_Int_Tables_number   1
_chemical_formula_structural   La5Ag2Os
_chemical_formula_sum   'La20 Ag8 Os4'
_cell_volume   974.01508257
_cell_formula_units_Z   4
loop_
 _symmetry_equiv_pos_site_id
 _symmetry_equiv_pos_as_xyz
  1  'x, y, z'
loop_
 _atom_site_type_symbol
 _atom_site_label
 _atom_site_symmetry_multiplicity
 _atom_site_fract_x
 _atom_site_fract_y
 _atom_site_fract_z
 _atom_site_occupancy
  La  La0  1  0.155108  0.750000  0.203722  1
  La  La1  1  0.655108  0.250000  0.296278  1
  La  La2  1  0.844892  0.250000  0.796278  1
  La  La3  1  0.344892  0.750000  0.703722  1
  La  La4  1  0.442325  0.750000  0.996939  1
  La  La5  1  0.942325  0.250000  0.503061  1
  La  La6  1  0.557675  0.250000  0.003061  1
  La  La7  1  0.057675  0.750000  0.496939  1
  La  La8  1  0.607857  0.750000  0.299237  1
  La  La9  1  0.107857  0.250000  0.200763  1
  La  La10  1  0.392143  0.250000  0.700763  1
  La  La11  1  0.892143  0.750000  0.799237  1
  La  La12  1  0.821501  0.959446  0.072551  1
  La  La13  1  0.321501  0.040554  0.427449  1
  La  La14  1  0.178499  0.459446  0.927449  1
  La  La15  1  0.678499  0.540554  0.572551  1
  La  La16  1  0.178499  0.040554  0.927449  1
  La  La17  1  0.678499  0.959446  0.572551  1
  La  La18  1  0.821501  0.540554  0.072551  1
  La  La19  1  0.321501  0.459446  0.427449  1
  Ag  Ag20  1  0.919987  0.978613  0.331011  1
  Ag  Ag21  1  0.419987  0.021387  0.168989  1
  Ag  Ag22  1  0.080013  0.478613  0.668989  1
  Ag  Ag23  1  0.580013  0.521387  0.831011  1
  Ag  Ag24  1  0.080013  0.021387  0.668989  1
  Ag  Ag25  1  0.580013  0.978613  0.831011  1
  Ag  Ag26  1  0.919987  0.521387  0.331011  1
  Ag  Ag27  1  0.419987  0.478613  0.168989  1
  Os  Os28  1  0.433624  0.750000  0.486777  1
  Os  Os29  1  0.933624  0.250000  0.013223  1
  Os  Os30  1  0.566376  0.250000  0.513223  1
  Os  Os31  1  0.066376  0.750000  0.986777  1
