# generated using pymatgen
data_Li3Th4Si6Ag
_symmetry_space_group_name_H-M   'P 1'
_cell_length_a   9.47592534
_cell_length_b   9.47592567
_cell_length_c   6.81743734
_cell_angle_alpha   89.29873974
_cell_angle_beta   90.70126179
_cell_angle_gamma   152.98362343
_symmetry_Int_Tables_number   1
_chemical_formula_structural   Li3Th4Si6Ag
_chemical_formula_sum   'Li3 Th4 Si6 Ag1'
_cell_volume   278.04835197
_cell_formula_units_Z   1
loop_
 _symmetry_equiv_pos_site_id
 _symmetry_equiv_pos_as_xyz
  1  'x, y, z'
loop_
 _atom_site_type_symbol
 _atom_site_label
 _atom_site_symmetry_multiplicity
 _atom_site_fract_x
 _atom_site_fract_y
 _atom_site_fract_z
 _atom_site_occupancy
  Li  Li0  1  0.187991  0.812009  0.434598  1
  Li  Li1  1  0.186637  0.813363  0.067944  1
  Li  Li2  1  0.813237  0.186763  0.936556  1
  Th  Th3  1  0.549568  0.450432  0.251226  1
  Th  Th4  1  0.449146  0.550854  0.747781  1
  Th  Th5  1  0.343686  0.656314  0.238321  1
  Th  Th6  1  0.655362  0.344638  0.755990  1
  Si  Si7  1  0.940434  0.059566  0.068223  1
  Si  Si8  1  0.059979  0.940021  0.929496  1
  Si  Si9  1  0.060960  0.939040  0.572662  1
  Si  Si10  1  0.941660  0.058340  0.422972  1
  Si  Si11  1  0.720261  0.279739  0.243504  1
  Si  Si12  1  0.278850  0.721150  0.765015  1
  Ag  Ag13  1  0.812228  0.187772  0.565711  1
