# generated using pymatgen
data_PuTh3(Al3Ir)6
_symmetry_space_group_name_H-M   'P 1'
_cell_length_a   7.62790301
_cell_length_b   7.64570131
_cell_length_c   9.48344300
_cell_angle_alpha   90.00000000
_cell_angle_beta   90.00000000
_cell_angle_gamma   119.45077611
_symmetry_Int_Tables_number   1
_chemical_formula_structural   PuTh3(Al3Ir)6
_chemical_formula_sum   'Pu1 Th3 Al18 Ir6'
_cell_volume   481.61076771
_cell_formula_units_Z   1
loop_
 _symmetry_equiv_pos_site_id
 _symmetry_equiv_pos_as_xyz
  1  'x, y, z'
loop_
 _atom_site_type_symbol
 _atom_site_label
 _atom_site_symmetry_multiplicity
 _atom_site_fract_x
 _atom_site_fract_y
 _atom_site_fract_z
 _atom_site_occupancy
  Pu  Pu0  1  0.326627  0.005353  0.750000  1
  Th  Th1  1  0.995990  0.672127  0.250000  1
  Th  Th2  1  0.003178  0.328252  0.750000  1
  Th  Th3  1  0.671021  0.994013  0.250000  1
  Al  Al4  1  0.135235  0.132989  0.250000  1
  Al  Al5  1  0.869322  0.867813  0.750000  1
  Al  Al6  1  0.005845  0.335850  0.075478  1
  Al  Al7  1  0.000061  0.668743  0.922384  1
  Al  Al8  1  0.000061  0.668743  0.577616  1
  Al  Al9  1  0.336170  0.005048  0.430843  1
  Al  Al10  1  0.005845  0.335850  0.424522  1
  Al  Al11  1  0.658240  0.995432  0.577516  1
  Al  Al12  1  0.658240  0.995432  0.922484  1
  Al  Al13  1  0.336170  0.005048  0.069157  1
  Al  Al14  1  0.336016  0.333124  0.551717  1
  Al  Al15  1  0.663815  0.663478  0.454644  1
  Al  Al16  1  0.663815  0.663478  0.045356  1
  Al  Al17  1  0.336016  0.333124  0.948283  1
  Al  Al18  1  0.342882  0.544340  0.250000  1
  Al  Al19  1  0.654584  0.448320  0.750000  1
  Al  Al20  1  0.546504  0.340202  0.250000  1
  Al  Al21  1  0.453034  0.661688  0.750000  1
  Ir  Ir22  1  0.675507  0.329703  0.001126  1
  Ir  Ir23  1  0.327383  0.670982  0.001321  1
  Ir  Ir24  1  0.327383  0.670982  0.498679  1
  Ir  Ir25  1  0.675507  0.329703  0.498874  1
  Ir  Ir26  1  0.997778  0.000092  0.001109  1
  Ir  Ir27  1  0.997778  0.000092  0.498891  1
