# generated using pymatgen
data_La2Pr3Y3(CdPt)2
_symmetry_space_group_name_H-M   'P 1'
_cell_length_a   10.00119580
_cell_length_b   10.00119687
_cell_length_c   10.00119700
_cell_angle_alpha   59.99999625
_cell_angle_beta   59.99999273
_cell_angle_gamma   60.00000058
_symmetry_Int_Tables_number   1
_chemical_formula_structural   La2Pr3Y3(CdPt)2
_chemical_formula_sum   'La4 Pr6 Y6 Cd4 Pt4'
_cell_volume   707.36058373
_cell_formula_units_Z   2
loop_
 _symmetry_equiv_pos_site_id
 _symmetry_equiv_pos_as_xyz
  1  'x, y, z'
loop_
 _atom_site_type_symbol
 _atom_site_label
 _atom_site_symmetry_multiplicity
 _atom_site_fract_x
 _atom_site_fract_y
 _atom_site_fract_z
 _atom_site_occupancy
  La  La0  1  0.351908  0.351908  0.351908  1
  La  La1  1  0.351908  0.351908  0.944276  1
  La  La2  1  0.351908  0.944276  0.351908  1
  La  La3  1  0.944276  0.351908  0.351908  1
  Pr  Pr4  1  0.935886  0.564114  0.564114  1
  Pr  Pr5  1  0.564114  0.935886  0.935886  1
  Pr  Pr6  1  0.564114  0.935886  0.564114  1
  Pr  Pr7  1  0.935886  0.564114  0.935886  1
  Pr  Pr8  1  0.564114  0.564114  0.935886  1
  Pr  Pr9  1  0.935886  0.935886  0.564114  1
  Y  Y10  1  0.814049  0.185951  0.185951  1
  Y  Y11  1  0.185951  0.814049  0.814049  1
  Y  Y12  1  0.185951  0.814049  0.185951  1
  Y  Y13  1  0.814049  0.185951  0.814049  1
  Y  Y14  1  0.185951  0.185951  0.814049  1
  Y  Y15  1  0.814049  0.814049  0.185951  1
  Cd  Cd16  1  0.580756  0.580756  0.580756  1
  Cd  Cd17  1  0.580756  0.580756  0.257731  1
  Cd  Cd18  1  0.580756  0.257731  0.580756  1
  Cd  Cd19  1  0.257731  0.580756  0.580756  1
  Pt  Pt20  1  0.140669  0.140669  0.140669  1
  Pt  Pt21  1  0.140669  0.140669  0.577993  1
  Pt  Pt22  1  0.140669  0.577993  0.140669  1
  Pt  Pt23  1  0.577993  0.140669  0.140669  1
