# generated using pymatgen
data_Li4Pr3(SnPb)2
_symmetry_space_group_name_H-M   'P 1'
_cell_length_a   8.98121465
_cell_length_b   8.98121460
_cell_length_c   8.98121445
_cell_angle_alpha   149.12794771
_cell_angle_beta   132.14233000
_cell_angle_gamma   58.04250783
_symmetry_Int_Tables_number   1
_chemical_formula_structural   Li4Pr3(SnPb)2
_chemical_formula_sum   'Li4 Pr3 Sn2 Pb2'
_cell_volume   273.55289794
_cell_formula_units_Z   1
loop_
 _symmetry_equiv_pos_site_id
 _symmetry_equiv_pos_as_xyz
  1  'x, y, z'
loop_
 _atom_site_type_symbol
 _atom_site_label
 _atom_site_symmetry_multiplicity
 _atom_site_fract_x
 _atom_site_fract_y
 _atom_site_fract_z
 _atom_site_occupancy
  Li  Li0  1  0.639109  0.329332  0.309776  1
  Li  Li1  1  0.360891  0.670668  0.690224  1
  Li  Li2  1  0.019555  0.329332  0.690224  1
  Li  Li3  1  0.980445  0.670668  0.309776  1
  Pr  Pr4  1  0.371179  0.871179  0.500000  1
  Pr  Pr5  1  0.628821  0.128821  0.500000  1
  Pr  Pr6  1  0.000000  0.000000  0.000000  1
  Sn  Sn7  1  0.697511  0.500000  0.197511  1
  Sn  Sn8  1  0.302489  0.500000  0.802489  1
  Pb  Pb9  1  0.213252  0.213252  0.000000  1
  Pb  Pb10  1  0.786748  0.786748  0.000000  1
