# generated using pymatgen
data_Nd10Y6MgNi4Ag3
_symmetry_space_group_name_H-M   'P 1'
_cell_length_a   9.70265373
_cell_length_b   9.76205319
_cell_length_c   9.76205300
_cell_angle_alpha   59.99999726
_cell_angle_beta   59.79727626
_cell_angle_gamma   59.79728102
_symmetry_Int_Tables_number   1
_chemical_formula_structural   Nd10Y6MgNi4Ag3
_chemical_formula_sum   'Nd10 Y6 Mg1 Ni4 Ag3'
_cell_volume   651.80892466
_cell_formula_units_Z   1
loop_
 _symmetry_equiv_pos_site_id
 _symmetry_equiv_pos_as_xyz
  1  'x, y, z'
loop_
 _atom_site_type_symbol
 _atom_site_label
 _atom_site_symmetry_multiplicity
 _atom_site_fract_x
 _atom_site_fract_y
 _atom_site_fract_z
 _atom_site_occupancy
  Nd  Nd0  1  0.936369  0.563023  0.563023  1
  Nd  Nd1  1  0.562495  0.937573  0.937573  1
  Nd  Nd2  1  0.562495  0.937573  0.562360  1
  Nd  Nd3  1  0.936369  0.563023  0.937584  1
  Nd  Nd4  1  0.562495  0.562360  0.937573  1
  Nd  Nd5  1  0.936369  0.937584  0.563023  1
  Nd  Nd6  1  0.351025  0.349731  0.349731  1
  Nd  Nd7  1  0.351025  0.349731  0.949514  1
  Nd  Nd8  1  0.351025  0.949514  0.349731  1
  Nd  Nd9  1  0.936887  0.354371  0.354371  1
  Y  Y10  1  0.812687  0.186672  0.186672  1
  Y  Y11  1  0.183511  0.815745  0.815745  1
  Y  Y12  1  0.183511  0.815745  0.185000  1
  Y  Y13  1  0.812687  0.186672  0.813969  1
  Y  Y14  1  0.183511  0.185000  0.815745  1
  Y  Y15  1  0.812687  0.813969  0.186672  1
  Mg  Mg16  1  0.291773  0.569409  0.569409  1
  Ni  Ni17  1  0.139240  0.142662  0.142662  1
  Ni  Ni18  1  0.139240  0.142662  0.575438  1
  Ni  Ni19  1  0.139240  0.575438  0.142662  1
  Ni  Ni20  1  0.574882  0.141706  0.141706  1
  Ag  Ag21  1  0.580160  0.583259  0.583259  1
  Ag  Ag22  1  0.580160  0.583259  0.253323  1
  Ag  Ag23  1  0.580160  0.253323  0.583259  1
