# generated using pymatgen
data_Dy3Lu2ScCoTe2
_symmetry_space_group_name_H-M   'P 1'
_cell_length_a   8.14203302
_cell_length_b   8.23194769
_cell_length_c   3.93011000
_cell_angle_alpha   90.00000000
_cell_angle_beta   90.00000000
_cell_angle_gamma   120.36598947
_symmetry_Int_Tables_number   1
_chemical_formula_structural   Dy3Lu2ScCoTe2
_chemical_formula_sum   'Dy3 Lu2 Sc1 Co1 Te2'
_cell_volume   227.27794751
_cell_formula_units_Z   1
loop_
 _symmetry_equiv_pos_site_id
 _symmetry_equiv_pos_as_xyz
  1  'x, y, z'
loop_
 _atom_site_type_symbol
 _atom_site_label
 _atom_site_symmetry_multiplicity
 _atom_site_fract_x
 _atom_site_fract_y
 _atom_site_fract_z
 _atom_site_occupancy
  Dy  Dy0  1  0.000000  0.407436  0.500000  1
  Dy  Dy1  1  0.613858  0.612611  0.500000  1
  Dy  Dy2  1  0.386142  0.998753  0.500000  1
  Lu  Lu3  1  0.225770  0.232075  0.000000  1
  Lu  Lu4  1  0.774230  0.006305  0.000000  1
  Sc  Sc5  1  0.000000  0.767358  0.000000  1
  Co  Co6  1  0.000000  0.969291  0.500000  1
  Te  Te7  1  0.333279  0.669725  0.000000  1
  Te  Te8  1  0.666721  0.336445  0.000000  1
