# generated using pymatgen
data_YbEr15(LuIr3)4
_symmetry_space_group_name_H-M   'P 1'
_cell_length_a   10.75650532
_cell_length_b   10.78330234
_cell_length_c   6.32044180
_cell_angle_alpha   89.98098646
_cell_angle_beta   90.14018627
_cell_angle_gamma   89.84222047
_symmetry_Int_Tables_number   1
_chemical_formula_structural   YbEr15(LuIr3)4
_chemical_formula_sum   'Yb1 Er15 Lu4 Ir12'
_cell_volume   733.10712972
_cell_formula_units_Z   1
loop_
 _symmetry_equiv_pos_site_id
 _symmetry_equiv_pos_as_xyz
  1  'x, y, z'
loop_
 _atom_site_type_symbol
 _atom_site_label
 _atom_site_symmetry_multiplicity
 _atom_site_fract_x
 _atom_site_fract_y
 _atom_site_fract_z
 _atom_site_occupancy
  Yb  Yb0  1  0.288323  0.089150  0.374837  1
  Er  Er1  1  0.291250  0.912569  0.879246  1
  Er  Er2  1  0.709044  0.086112  0.878752  1
  Er  Er3  1  0.709882  0.913197  0.379294  1
  Er  Er4  1  0.588427  0.791950  0.877517  1
  Er  Er5  1  0.585559  0.209237  0.379198  1
  Er  Er6  1  0.411589  0.792977  0.377568  1
  Er  Er7  1  0.413666  0.209048  0.880371  1
  Er  Er8  1  0.209807  0.412609  0.623579  1
  Er  Er9  1  0.209967  0.586637  0.121300  1
  Er  Er10  1  0.790249  0.411813  0.121684  1
  Er  Er11  1  0.790878  0.586634  0.620694  1
  Er  Er12  1  0.912650  0.708644  0.121323  1
  Er  Er13  1  0.912327  0.289845  0.622869  1
  Er  Er14  1  0.087167  0.708511  0.621487  1
  Er  Er15  1  0.087428  0.290733  0.121793  1
  Lu  Lu16  1  0.002261  0.999404  0.500688  1
  Lu  Lu17  1  0.999017  0.999742  0.000552  1
  Lu  Lu18  1  0.500573  0.501568  0.998104  1
  Lu  Lu19  1  0.499754  0.501553  0.498167  1
  Ir  Ir20  1  0.848436  0.151832  0.251773  1
  Ir  Ir21  1  0.849481  0.847628  0.748302  1
  Ir  Ir22  1  0.150474  0.152408  0.758551  1
  Ir  Ir23  1  0.148352  0.842090  0.244567  1
  Ir  Ir24  1  0.651211  0.347622  0.749705  1
  Ir  Ir25  1  0.651506  0.652851  0.250534  1
  Ir  Ir26  1  0.348828  0.353832  0.246337  1
  Ir  Ir27  1  0.347632  0.653478  0.748429  1
  Ir  Ir28  1  0.502183  0.999418  0.123767  1
  Ir  Ir29  1  0.502498  0.998971  0.624970  1
  Ir  Ir30  1  0.999725  0.499316  0.877045  1
  Ir  Ir31  1  0.999858  0.498623  0.376994  1
