# generated using pymatgen
data_Er2LuSc3CoBi2
_symmetry_space_group_name_H-M   'P 1'
_cell_length_a   7.94214400
_cell_length_b   7.98308524
_cell_length_c   4.08084700
_cell_angle_alpha   90.00000000
_cell_angle_beta   90.00000000
_cell_angle_gamma   119.83049514
_symmetry_Int_Tables_number   1
_chemical_formula_structural   Er2LuSc3CoBi2
_chemical_formula_sum   'Er2 Lu1 Sc3 Co1 Bi2'
_cell_volume   224.45471378
_cell_formula_units_Z   1
loop_
 _symmetry_equiv_pos_site_id
 _symmetry_equiv_pos_as_xyz
  1  'x, y, z'
loop_
 _atom_site_type_symbol
 _atom_site_label
 _atom_site_symmetry_multiplicity
 _atom_site_fract_x
 _atom_site_fract_y
 _atom_site_fract_z
 _atom_site_occupancy
  Er  Er0  1  0.999655  0.616706  0.000000  1
  Er  Er1  1  0.382949  0.383294  0.000000  1
  Lu  Lu2  1  0.622074  0.000000  0.000000  1
  Sc  Sc3  1  0.224108  0.000000  0.500000  1
  Sc  Sc4  1  0.001593  0.225126  0.500000  1
  Sc  Sc5  1  0.776468  0.774874  0.500000  1
  Co  Co6  1  0.991463  0.000000  0.000000  1
  Bi  Bi7  1  0.334865  0.668042  0.500000  1
  Bi  Bi8  1  0.666824  0.331958  0.500000  1
