# generated using pymatgen
data_CaTb3(SiPd2)4
_symmetry_space_group_name_H-M   'P 1'
_cell_length_a   5.57774726
_cell_length_b   6.99174900
_cell_length_c   7.37060835
_cell_angle_alpha   90.00000000
_cell_angle_beta   89.96495626
_cell_angle_gamma   90.00000000
_symmetry_Int_Tables_number   1
_chemical_formula_structural   CaTb3(SiPd2)4
_chemical_formula_sum   'Ca1 Tb3 Si4 Pd8'
_cell_volume   287.44046969
_cell_formula_units_Z   1
loop_
 _symmetry_equiv_pos_site_id
 _symmetry_equiv_pos_as_xyz
  1  'x, y, z'
loop_
 _atom_site_type_symbol
 _atom_site_label
 _atom_site_symmetry_multiplicity
 _atom_site_fract_x
 _atom_site_fract_y
 _atom_site_fract_z
 _atom_site_occupancy
  Ca  Ca0  1  0.138568  0.750000  0.527411  1
  Tb  Tb1  1  0.859609  0.250000  0.471572  1
  Tb  Tb2  1  0.641762  0.250000  0.972897  1
  Tb  Tb3  1  0.357355  0.750000  0.028444  1
  Si  Si4  1  0.856253  0.750000  0.877338  1
  Si  Si5  1  0.142255  0.250000  0.123173  1
  Si  Si6  1  0.359155  0.250000  0.622604  1
  Si  Si7  1  0.640241  0.750000  0.377497  1
  Pd  Pd8  1  0.596075  0.550834  0.675887  1
  Pd  Pd9  1  0.409949  0.447311  0.321308  1
  Pd  Pd10  1  0.094978  0.446598  0.826173  1
  Pd  Pd11  1  0.409949  0.052689  0.321308  1
  Pd  Pd12  1  0.901399  0.551574  0.176164  1
  Pd  Pd13  1  0.596075  0.949166  0.675887  1
  Pd  Pd14  1  0.901399  0.948426  0.176164  1
  Pd  Pd15  1  0.094978  0.053402  0.826173  1
