# generated using pymatgen
data_Lu20Si12Se
_symmetry_space_group_name_H-M   'P 1'
_cell_length_a   14.42894700
_cell_length_b   6.19732901
_cell_length_c   8.29172992
_cell_angle_alpha   89.96177927
_cell_angle_beta   90.00000000
_cell_angle_gamma   90.00000000
_symmetry_Int_Tables_number   1
_chemical_formula_structural   Lu20Si12Se
_chemical_formula_sum   'Lu20 Si12 Se1'
_cell_volume   741.45405054
_cell_formula_units_Z   1
loop_
 _symmetry_equiv_pos_site_id
 _symmetry_equiv_pos_as_xyz
  1  'x, y, z'
loop_
 _atom_site_type_symbol
 _atom_site_label
 _atom_site_symmetry_multiplicity
 _atom_site_fract_x
 _atom_site_fract_y
 _atom_site_fract_z
 _atom_site_occupancy
  Lu  Lu0  1  0.666756  0.500000  0.500000  1
  Lu  Lu1  1  0.168315  0.500000  0.000000  1
  Lu  Lu2  1  0.831685  0.500000  0.000000  1
  Lu  Lu3  1  0.333244  0.500000  0.500000  1
  Lu  Lu4  1  0.831653  0.000000  0.000000  1
  Lu  Lu5  1  0.336386  0.000000  0.500000  1
  Lu  Lu6  1  0.663614  0.000000  0.500000  1
  Lu  Lu7  1  0.168347  0.000000  0.000000  1
  Lu  Lu8  1  0.500000  0.252545  0.757320  1
  Lu  Lu9  1  0.000000  0.236416  0.242770  1
  Lu  Lu10  1  0.619712  0.249207  0.121166  1
  Lu  Lu11  1  0.128714  0.235221  0.628830  1
  Lu  Lu12  1  0.871286  0.235221  0.628830  1
  Lu  Lu13  1  0.380288  0.249207  0.121166  1
  Lu  Lu14  1  0.000000  0.763584  0.757230  1
  Lu  Lu15  1  0.500000  0.747455  0.242680  1
  Lu  Lu16  1  0.871286  0.764779  0.371170  1
  Lu  Lu17  1  0.380288  0.750793  0.878834  1
  Lu  Lu18  1  0.619712  0.750793  0.878834  1
  Lu  Lu19  1  0.128714  0.764779  0.371170  1
  Si  Si20  1  0.000000  0.247257  0.893216  1
  Si  Si21  1  0.500000  0.254048  0.394458  1
  Si  Si22  1  0.801044  0.245662  0.302631  1
  Si  Si23  1  0.305026  0.248172  0.805119  1
  Si  Si24  1  0.694974  0.248172  0.805119  1
  Si  Si25  1  0.198956  0.245662  0.302631  1
  Si  Si26  1  0.500000  0.745952  0.605542  1
  Si  Si27  1  0.000000  0.752743  0.106784  1
  Si  Si28  1  0.694974  0.751828  0.194881  1
  Si  Si29  1  0.198956  0.754338  0.697369  1
  Si  Si30  1  0.801044  0.754338  0.697369  1
  Si  Si31  1  0.305026  0.751828  0.194881  1
  Se  Se32  1  0.000000  0.500000  0.500000  1
