# generated using pymatgen
data_Tb3CeTa2(B2Ru5)2
_symmetry_space_group_name_H-M   'P 1'
_cell_length_a   9.67328200
_cell_length_b   9.67328200
_cell_length_c   3.15446000
_cell_angle_alpha   90.00000000
_cell_angle_beta   90.00000000
_cell_angle_gamma   89.99989338
_symmetry_Int_Tables_number   1
_chemical_formula_structural   Tb3CeTa2(B2Ru5)2
_chemical_formula_sum   'Tb3 Ce1 Ta2 B4 Ru10'
_cell_volume   295.17034449
_cell_formula_units_Z   1
loop_
 _symmetry_equiv_pos_site_id
 _symmetry_equiv_pos_as_xyz
  1  'x, y, z'
loop_
 _atom_site_type_symbol
 _atom_site_label
 _atom_site_symmetry_multiplicity
 _atom_site_fract_x
 _atom_site_fract_y
 _atom_site_fract_z
 _atom_site_occupancy
  Tb  Tb0  1  0.825090  0.674673  0.000000  1
  Tb  Tb1  1  0.174673  0.325090  0.000000  1
  Tb  Tb2  1  0.324717  0.824717  0.000000  1
  Ce  Ce3  1  0.674785  0.174785  0.000000  1
  Ta  Ta4  1  0.497953  0.502912  0.000000  1
  Ta  Ta5  1  0.002912  0.997953  0.000000  1
  B  B6  1  0.621433  0.876645  0.000000  1
  B  B7  1  0.376645  0.121433  0.000000  1
  B  B8  1  0.121271  0.621271  0.000000  1
  B  B9  1  0.880766  0.380766  0.000000  1
  Ru  Ru10  1  0.570896  0.719308  0.500000  1
  Ru  Ru11  1  0.430510  0.282179  0.500000  1
  Ru  Ru12  1  0.070872  0.781123  0.500000  1
  Ru  Ru13  1  0.926467  0.217465  0.500000  1
  Ru  Ru14  1  0.281123  0.570872  0.500000  1
  Ru  Ru15  1  0.717465  0.426467  0.500000  1
  Ru  Ru16  1  0.219308  0.070896  0.500000  1
  Ru  Ru17  1  0.782179  0.930510  0.500000  1
  Ru  Ru18  1  0.501686  0.001686  0.500000  1
  Ru  Ru19  1  0.999249  0.499249  0.500000  1
