# generated using pymatgen
data_Tb3YFe4(P3Ir4)4
_symmetry_space_group_name_H-M   'P 1'
_cell_length_a   3.92110200
_cell_length_b   10.74073764
_cell_length_c   12.38236827
_cell_angle_alpha   89.90523533
_cell_angle_beta   90.00000000
_cell_angle_gamma   90.00000000
_symmetry_Int_Tables_number   1
_chemical_formula_structural   Tb3YFe4(P3Ir4)4
_chemical_formula_sum   'Tb3 Y1 Fe4 P12 Ir16'
_cell_volume   521.48926242
_cell_formula_units_Z   1
loop_
 _symmetry_equiv_pos_site_id
 _symmetry_equiv_pos_as_xyz
  1  'x, y, z'
loop_
 _atom_site_type_symbol
 _atom_site_label
 _atom_site_symmetry_multiplicity
 _atom_site_fract_x
 _atom_site_fract_y
 _atom_site_fract_z
 _atom_site_occupancy
  Tb  Tb0  1  0.250000  0.917966  0.210654  1
  Tb  Tb1  1  0.750000  0.417927  0.289408  1
  Tb  Tb2  1  0.750000  0.082074  0.789501  1
  Y  Y3  1  0.250000  0.581982  0.710580  1
  Fe  Fe4  1  0.250000  0.458954  0.932074  1
  Fe  Fe5  1  0.250000  0.041283  0.432286  1
  Fe  Fe6  1  0.750000  0.541845  0.067423  1
  Fe  Fe7  1  0.750000  0.958577  0.567500  1
  P  P8  1  0.250000  0.433008  0.104936  1
  P  P9  1  0.250000  0.067154  0.605013  1
  P  P10  1  0.750000  0.567093  0.894582  1
  P  P11  1  0.750000  0.932828  0.394748  1
  P  P12  1  0.250000  0.269505  0.869681  1
  P  P13  1  0.250000  0.230446  0.369395  1
  P  P14  1  0.750000  0.730882  0.130724  1
  P  P15  1  0.750000  0.769108  0.630769  1
  P  P16  1  0.250000  0.596712  0.386646  1
  P  P17  1  0.250000  0.903337  0.886639  1
  P  P18  1  0.750000  0.403106  0.613362  1
  P  P19  1  0.750000  0.096622  0.113367  1
  Ir  Ir20  1  0.250000  0.723873  0.988407  1
  Ir  Ir21  1  0.250000  0.776314  0.488148  1
  Ir  Ir22  1  0.750000  0.276179  0.011900  1
  Ir  Ir23  1  0.750000  0.223712  0.511856  1
  Ir  Ir24  1  0.250000  0.408634  0.479448  1
  Ir  Ir25  1  0.250000  0.091250  0.979590  1
  Ir  Ir26  1  0.750000  0.591332  0.520891  1
  Ir  Ir27  1  0.750000  0.908801  0.020460  1
  Ir  Ir28  1  0.250000  0.236562  0.176066  1
  Ir  Ir29  1  0.250000  0.263445  0.676100  1
  Ir  Ir30  1  0.750000  0.763356  0.823859  1
  Ir  Ir31  1  0.750000  0.736344  0.324050  1
  Ir  Ir32  1  0.250000  0.881481  0.701334  1
  Ir  Ir33  1  0.250000  0.618388  0.201381  1
  Ir  Ir34  1  0.750000  0.118330  0.298665  1
  Ir  Ir35  1  0.750000  0.381589  0.798558  1
