# generated using pymatgen
data_CaEu(ZnIn)2
_symmetry_space_group_name_H-M   'P 1'
_cell_length_a   7.60774100
_cell_length_b   4.79776300
_cell_length_c   8.30594700
_cell_angle_alpha   90.00000000
_cell_angle_beta   90.00000000
_cell_angle_gamma   90.00000000
_symmetry_Int_Tables_number   1
_chemical_formula_structural   CaEu(ZnIn)2
_chemical_formula_sum   'Ca2 Eu2 Zn4 In4'
_cell_volume   303.16821407
_cell_formula_units_Z   2
loop_
 _symmetry_equiv_pos_site_id
 _symmetry_equiv_pos_as_xyz
  1  'x, y, z'
loop_
 _atom_site_type_symbol
 _atom_site_label
 _atom_site_symmetry_multiplicity
 _atom_site_fract_x
 _atom_site_fract_y
 _atom_site_fract_z
 _atom_site_occupancy
  Ca  Ca0  1  0.995554  0.750000  0.710186  1
  Ca  Ca1  1  0.495554  0.750000  0.789815  1
  Eu  Eu2  1  0.504253  0.250000  0.209998  1
  Eu  Eu3  1  0.004253  0.250000  0.290001  1
  Zn  Zn4  1  0.203915  0.750000  0.087986  1
  Zn  Zn5  1  0.703917  0.750000  0.412013  1
  Zn  Zn6  1  0.295938  0.250000  0.589313  1
  Zn  Zn7  1  0.795938  0.250000  0.910688  1
  In  In8  1  0.804899  0.750000  0.082308  1
  In  In9  1  0.304899  0.750000  0.417691  1
  In  In10  1  0.695441  0.250000  0.584941  1
  In  In11  1  0.195441  0.250000  0.915060  1
