# generated using pymatgen
data_Dy5As12Ru6Rh13
_symmetry_space_group_name_H-M   'P 1'
_cell_length_a   13.11373430
_cell_length_b   13.10156995
_cell_length_c   4.01880700
_cell_angle_alpha   90.00000000
_cell_angle_beta   90.00000000
_cell_angle_gamma   119.98308303
_symmetry_Int_Tables_number   1
_chemical_formula_structural   Dy5As12Ru6Rh13
_chemical_formula_sum   'Dy5 As12 Ru6 Rh13'
_cell_volume   598.06929926
_cell_formula_units_Z   1
loop_
 _symmetry_equiv_pos_site_id
 _symmetry_equiv_pos_as_xyz
  1  'x, y, z'
loop_
 _atom_site_type_symbol
 _atom_site_label
 _atom_site_symmetry_multiplicity
 _atom_site_fract_x
 _atom_site_fract_y
 _atom_site_fract_z
 _atom_site_occupancy
  Dy  Dy0  1  0.669028  0.331413  0.000000  1
  Dy  Dy1  1  0.333018  0.667395  0.000000  1
  Dy  Dy2  1  0.813689  0.001745  0.500000  1
  Dy  Dy3  1  0.185244  0.188129  0.500000  1
  Dy  Dy4  1  0.999774  0.813692  0.500000  1
  As  As5  1  0.637000  0.000053  0.000000  1
  As  As6  1  0.365435  0.366066  0.000000  1
  As  As7  1  0.000372  0.633782  0.000000  1
  As  As8  1  0.684404  0.516641  0.500000  1
  As  As9  1  0.833708  0.313944  0.500000  1
  As  As10  1  0.318879  0.835078  0.500000  1
  As  As11  1  0.516800  0.686682  0.500000  1
  As  As12  1  0.179347  0.999821  0.000000  1
  As  As13  1  0.819794  0.819148  0.000000  1
  As  As14  1  0.996662  0.177492  0.000000  1
  As  As15  1  0.480735  0.166414  0.500000  1
  As  As16  1  0.163566  0.481758  0.500000  1
  Ru  Ru17  1  0.517281  0.875224  0.500000  1
  Ru  Ru18  1  0.715237  0.714945  0.500000  1
  Ru  Ru19  1  0.000270  0.284211  0.500000  1
  Ru  Ru20  1  0.003584  0.448612  0.000000  1
  Ru  Ru21  1  0.819191  0.195920  0.000000  1
  Ru  Ru22  1  0.282368  0.999205  0.500000  1
  Rh  Rh23  1  0.624576  0.804471  0.000000  1
  Rh  Rh24  1  0.179666  0.372569  0.000000  1
  Rh  Rh25  1  0.373986  0.180588  0.000000  1
  Rh  Rh26  1  0.195234  0.818918  0.000000  1
  Rh  Rh27  1  0.804159  0.622213  0.000000  1
  Rh  Rh28  1  0.874145  0.513930  0.500000  1
  Rh  Rh29  1  0.485801  0.356382  0.500000  1
  Rh  Rh30  1  0.640543  0.128543  0.500000  1
  Rh  Rh31  1  0.128649  0.643642  0.500000  1
  Rh  Rh32  1  0.354557  0.488351  0.500000  1
  Rh  Rh33  1  0.999442  0.998574  0.000000  1
  Rh  Rh34  1  0.451371  0.002128  0.000000  1
  Rh  Rh35  1  0.552486  0.552321  0.000000  1
