# generated using pymatgen
data_NdTh(TcB4)2
_symmetry_space_group_name_H-M   'P 1'
_cell_length_a   6.06771201
_cell_length_b   6.06771339
_cell_length_c   3.70999300
_cell_angle_alpha   90.00000000
_cell_angle_beta   90.00000000
_cell_angle_gamma   103.95346144
_symmetry_Int_Tables_number   1
_chemical_formula_structural   NdTh(TcB4)2
_chemical_formula_sum   'Nd1 Th1 Tc2 B8'
_cell_volume   132.56077264
_cell_formula_units_Z   1
loop_
 _symmetry_equiv_pos_site_id
 _symmetry_equiv_pos_as_xyz
  1  'x, y, z'
loop_
 _atom_site_type_symbol
 _atom_site_label
 _atom_site_symmetry_multiplicity
 _atom_site_fract_x
 _atom_site_fract_y
 _atom_site_fract_z
 _atom_site_occupancy
  Nd  Nd0  1  0.300878  0.699122  0.000000  1
  Th  Th1  1  0.697947  0.302053  0.000000  1
  Tc  Tc2  1  0.822457  0.822322  0.000000  1
  Tc  Tc3  1  0.177678  0.177543  0.000000  1
  B  B4  1  0.089833  0.910167  0.500000  1
  B  B5  1  0.910693  0.089307  0.500000  1
  B  B6  1  0.630910  0.629698  0.500000  1
  B  B7  1  0.370302  0.369090  0.500000  1
  B  B8  1  0.064647  0.375295  0.500000  1
  B  B9  1  0.934500  0.624547  0.500000  1
  B  B10  1  0.375453  0.065500  0.500000  1
  B  B11  1  0.624705  0.935353  0.500000  1
