# generated using pymatgen
data_NdEr4(InSb)2
_symmetry_space_group_name_H-M   'P 1'
_cell_length_a   9.02726664
_cell_length_b   8.57037904
_cell_length_c   8.10429361
_cell_angle_alpha   89.35203620
_cell_angle_beta   90.06673679
_cell_angle_gamma   125.19885664
_symmetry_Int_Tables_number   1
_chemical_formula_structural   NdEr4(InSb)2
_chemical_formula_sum   'Nd2 Er8 In4 Sb4'
_cell_volume   512.31793350
_cell_formula_units_Z   2
loop_
 _symmetry_equiv_pos_site_id
 _symmetry_equiv_pos_as_xyz
  1  'x, y, z'
loop_
 _atom_site_type_symbol
 _atom_site_label
 _atom_site_symmetry_multiplicity
 _atom_site_fract_x
 _atom_site_fract_y
 _atom_site_fract_z
 _atom_site_occupancy
  Nd  Nd0  1  0.045126  0.342933  0.320908  1
  Nd  Nd1  1  0.954874  0.657067  0.679092  1
  Er  Er2  1  0.452859  0.172699  0.829157  1
  Er  Er3  1  0.787891  0.523892  0.163570  1
  Er  Er4  1  0.547141  0.827301  0.170843  1
  Er  Er5  1  0.212109  0.476108  0.836430  1
  Er  Er6  1  0.712268  0.981550  0.661003  1
  Er  Er7  1  0.287732  0.018450  0.338997  1
  Er  Er8  1  0.000000  0.000000  0.000000  1
  Er  Er9  1  0.500000  0.500000  0.500000  1
  In  In10  1  0.371100  0.370949  0.127614  1
  In  In11  1  0.628900  0.629051  0.872386  1
  In  In12  1  0.128386  0.124425  0.628985  1
  In  In13  1  0.871614  0.875575  0.371015  1
  Sb  Sb14  1  0.804438  0.220638  0.973429  1
  Sb  Sb15  1  0.195562  0.779362  0.026571  1
  Sb  Sb16  1  0.678913  0.277302  0.480940  1
  Sb  Sb17  1  0.321087  0.722698  0.519060  1
