# generated using pymatgen
data_Dy3Y12Th(CdNi)4
_symmetry_space_group_name_H-M   'P 1'
_cell_length_a   9.60779870
_cell_length_b   9.60779983
_cell_length_c   9.60779927
_cell_angle_alpha   59.98211186
_cell_angle_beta   59.98210762
_cell_angle_gamma   59.98211462
_symmetry_Int_Tables_number   1
_chemical_formula_structural   Dy3Y12Th(CdNi)4
_chemical_formula_sum   'Dy3 Y12 Th1 Cd4 Ni4'
_cell_volume   626.87444795
_cell_formula_units_Z   1
loop_
 _symmetry_equiv_pos_site_id
 _symmetry_equiv_pos_as_xyz
  1  'x, y, z'
loop_
 _atom_site_type_symbol
 _atom_site_label
 _atom_site_symmetry_multiplicity
 _atom_site_fract_x
 _atom_site_fract_y
 _atom_site_fract_z
 _atom_site_occupancy
  Dy  Dy0  1  0.598369  0.598369  0.201950  1
  Dy  Dy1  1  0.598369  0.201950  0.598369  1
  Dy  Dy2  1  0.201950  0.598369  0.598369  1
  Y  Y3  1  0.061809  0.439021  0.439021  1
  Y  Y4  1  0.440458  0.061322  0.061322  1
  Y  Y5  1  0.439021  0.061809  0.439021  1
  Y  Y6  1  0.061322  0.440458  0.061322  1
  Y  Y7  1  0.439021  0.439021  0.061809  1
  Y  Y8  1  0.061322  0.061322  0.440458  1
  Y  Y9  1  0.187195  0.814017  0.814017  1
  Y  Y10  1  0.814130  0.186213  0.186213  1
  Y  Y11  1  0.814017  0.187195  0.814017  1
  Y  Y12  1  0.186213  0.814130  0.186213  1
  Y  Y13  1  0.814017  0.814017  0.187195  1
  Y  Y14  1  0.186213  0.186213  0.814130  1
  Th  Th15  1  0.595040  0.595040  0.595040  1
  Cd  Cd16  1  0.831085  0.831085  0.831085  1
  Cd  Cd17  1  0.831726  0.831726  0.505890  1
  Cd  Cd18  1  0.831726  0.505890  0.831726  1
  Cd  Cd19  1  0.505890  0.831726  0.831726  1
  Ni  Ni20  1  0.393366  0.393366  0.393366  1
  Ni  Ni21  1  0.394342  0.394342  0.819058  1
  Ni  Ni22  1  0.394342  0.819058  0.394342  1
  Ni  Ni23  1  0.819058  0.394342  0.394342  1
