# generated using pymatgen
data_Pr2PaSn3Ir2Rh
_symmetry_space_group_name_H-M   'P 1'
_cell_length_a   7.76410700
_cell_length_b   7.69657500
_cell_length_c   3.94642600
_cell_angle_alpha   90.00000000
_cell_angle_beta   90.00000000
_cell_angle_gamma   120.29068252
_symmetry_Int_Tables_number   1
_chemical_formula_structural   Pr2PaSn3Ir2Rh
_chemical_formula_sum   'Pr2 Pa1 Sn3 Ir2 Rh1'
_cell_volume   203.63107313
_cell_formula_units_Z   1
loop_
 _symmetry_equiv_pos_site_id
 _symmetry_equiv_pos_as_xyz
  1  'x, y, z'
loop_
 _atom_site_type_symbol
 _atom_site_label
 _atom_site_symmetry_multiplicity
 _atom_site_fract_x
 _atom_site_fract_y
 _atom_site_fract_z
 _atom_site_occupancy
  Pr  Pr0  1  0.408393  0.408892  0.500000  1
  Pr  Pr1  1  0.999502  0.591108  0.500000  1
  Pa  Pa2  1  0.584573  0.000000  0.500000  1
  Sn  Sn3  1  0.241846  0.000000  0.000000  1
  Sn  Sn4  1  0.745739  0.738938  0.000000  1
  Sn  Sn5  1  0.006799  0.261062  0.000000  1
  Ir  Ir6  1  0.370670  0.710153  0.000000  1
  Ir  Ir7  1  0.660519  0.289847  0.000000  1
  Rh  Rh8  1  0.981960  0.000000  0.500000  1
