# generated using pymatgen
data_EuTcMoO8
_symmetry_space_group_name_H-M   'P 1'
_cell_length_a   6.27786100
_cell_length_b   6.27786164
_cell_length_c   6.20152500
_cell_angle_alpha   90.00000000
_cell_angle_beta   90.00000000
_cell_angle_gamma   120.00001208
_symmetry_Int_Tables_number   1
_chemical_formula_structural   EuTcMoO8
_chemical_formula_sum   'Eu1 Tc1 Mo1 O8'
_cell_volume   211.66668744
_cell_formula_units_Z   1
loop_
 _symmetry_equiv_pos_site_id
 _symmetry_equiv_pos_as_xyz
  1  'x, y, z'
loop_
 _atom_site_type_symbol
 _atom_site_label
 _atom_site_symmetry_multiplicity
 _atom_site_fract_x
 _atom_site_fract_y
 _atom_site_fract_z
 _atom_site_occupancy
  Eu  Eu0  1  0.000000  0.000000  0.515281  1
  Tc  Tc1  1  0.666667  0.333333  0.200536  1
  Mo  Mo2  1  0.333333  0.666667  0.795811  1
  O  O3  1  0.208308  0.855924  0.702821  1
  O  O4  1  0.144076  0.352383  0.702821  1
  O  O5  1  0.333333  0.666667  0.076298  1
  O  O6  1  0.364194  0.207818  0.292979  1
  O  O7  1  0.647617  0.791692  0.702821  1
  O  O8  1  0.666667  0.333333  0.924675  1
  O  O9  1  0.843625  0.635806  0.292979  1
  O  O10  1  0.792182  0.156375  0.292979  1
