# generated using pymatgen
data_Tb3HoBeCo3I2
_symmetry_space_group_name_H-M   'P 1'
_cell_length_a   3.92635000
_cell_length_b   3.92635187
_cell_length_c   16.88969000
_cell_angle_alpha   90.00000000
_cell_angle_beta   90.00000000
_cell_angle_gamma   119.99998427
_symmetry_Int_Tables_number   1
_chemical_formula_structural   Tb3HoBeCo3I2
_chemical_formula_sum   'Tb3 Ho1 Be1 Co3 I2'
_cell_volume   225.49172379
_cell_formula_units_Z   1
loop_
 _symmetry_equiv_pos_site_id
 _symmetry_equiv_pos_as_xyz
  1  'x, y, z'
loop_
 _atom_site_type_symbol
 _atom_site_label
 _atom_site_symmetry_multiplicity
 _atom_site_fract_x
 _atom_site_fract_y
 _atom_site_fract_z
 _atom_site_occupancy
  Tb  Tb0  1  0.000000  0.000000  0.104833  1
  Tb  Tb1  1  0.000000  0.000000  0.895208  1
  Tb  Tb2  1  0.000000  0.000000  0.601764  1
  Ho  Ho3  1  0.000000  0.000000  0.399232  1
  Be  Be4  1  0.333333  0.666667  0.499864  1
  Co  Co5  1  0.666667  0.333333  0.498147  1
  Co  Co6  1  0.666667  0.333333  0.001942  1
  Co  Co7  1  0.333333  0.666667  0.998366  1
  I  I8  1  0.333333  0.666667  0.251079  1
  I  I9  1  0.666667  0.333333  0.749563  1
