# generated using pymatgen
data_Ta12Be5B7Ru12
_symmetry_space_group_name_H-M   'P 1'
_cell_length_a   3.18126700
_cell_length_b   9.05800595
_cell_length_c   15.69683567
_cell_angle_alpha   89.94729174
_cell_angle_beta   90.00000000
_cell_angle_gamma   90.00000000
_symmetry_Int_Tables_number   1
_chemical_formula_structural   Ta12Be5B7Ru12
_chemical_formula_sum   'Ta12 Be5 B7 Ru12'
_cell_volume   452.31881162
_cell_formula_units_Z   1
loop_
 _symmetry_equiv_pos_site_id
 _symmetry_equiv_pos_as_xyz
  1  'x, y, z'
loop_
 _atom_site_type_symbol
 _atom_site_label
 _atom_site_symmetry_multiplicity
 _atom_site_fract_x
 _atom_site_fract_y
 _atom_site_fract_z
 _atom_site_occupancy
  Ta  Ta0  1  0.000000  0.807273  0.495894  1
  Ta  Ta1  1  0.000000  0.197532  0.504592  1
  Ta  Ta2  1  0.000000  0.300793  0.004774  1
  Ta  Ta3  1  0.000000  0.699264  0.995433  1
  Ta  Ta4  1  0.000000  0.513308  0.596817  1
  Ta  Ta5  1  0.000000  0.483235  0.402850  1
  Ta  Ta6  1  0.000000  0.014637  0.905092  1
  Ta  Ta7  1  0.000000  0.985810  0.094789  1
  Ta  Ta8  1  0.000000  0.685136  0.204095  1
  Ta  Ta9  1  0.000000  0.315202  0.796080  1
  Ta  Ta10  1  0.000000  0.183621  0.295978  1
  Ta  Ta11  1  0.000000  0.815642  0.704567  1
  Be  Be12  1  0.500000  0.606604  0.494316  1
  Be  Be13  1  0.000000  0.609738  0.832986  1
  Be  Be14  1  0.000000  0.390123  0.167281  1
  Be  Be15  1  0.000000  0.110026  0.668119  1
  Be  Be16  1  0.000000  0.889664  0.331628  1
  B  B17  1  0.500000  0.390123  0.502696  1
  B  B18  1  0.500000  0.104401  0.003436  1
  B  B19  1  0.500000  0.895839  0.996420  1
  B  B20  1  0.500000  0.716723  0.602083  1
  B  B21  1  0.500000  0.283428  0.400893  1
  B  B22  1  0.500000  0.213568  0.900685  1
  B  B23  1  0.500000  0.786716  0.099427  1
  Ru  Ru24  1  0.500000  0.714701  0.356233  1
  Ru  Ru25  1  0.500000  0.285508  0.642263  1
  Ru  Ru26  1  0.500000  0.214409  0.141177  1
  Ru  Ru27  1  0.500000  0.785860  0.858721  1
  Ru  Ru28  1  0.500000  0.522690  0.093818  1
  Ru  Ru29  1  0.500000  0.477346  0.906467  1
  Ru  Ru30  1  0.500000  0.021158  0.405666  1
  Ru  Ru31  1  0.500000  0.979086  0.594872  1
  Ru  Ru32  1  0.500000  0.568571  0.731375  1
  Ru  Ru33  1  0.500000  0.430794  0.268854  1
  Ru  Ru34  1  0.500000  0.068118  0.770016  1
  Ru  Ru35  1  0.500000  0.933352  0.229607  1
