# generated using pymatgen
data_LiDy2Ho(Co4P3)2
_symmetry_space_group_name_H-M   'P 1'
_cell_length_a   3.71114600
_cell_length_b   10.56504400
_cell_length_c   12.17838100
_cell_angle_alpha   90.00000000
_cell_angle_beta   90.00000000
_cell_angle_gamma   90.00000000
_symmetry_Int_Tables_number   1
_chemical_formula_structural   LiDy2Ho(Co4P3)2
_chemical_formula_sum   'Li2 Dy4 Ho2 Co16 P12'
_cell_volume   477.49508667
_cell_formula_units_Z   2
loop_
 _symmetry_equiv_pos_site_id
 _symmetry_equiv_pos_as_xyz
  1  'x, y, z'
loop_
 _atom_site_type_symbol
 _atom_site_label
 _atom_site_symmetry_multiplicity
 _atom_site_fract_x
 _atom_site_fract_y
 _atom_site_fract_z
 _atom_site_occupancy
  Li  Li0  1  0.500000  0.500000  0.153145  1
  Li  Li1  1  0.000000  0.000000  0.846789  1
  Dy  Dy2  1  0.000000  0.500000  0.523154  1
  Dy  Dy3  1  0.500000  0.000000  0.476841  1
  Dy  Dy4  1  0.000000  0.680626  0.794013  1
  Dy  Dy5  1  0.000000  0.319374  0.794013  1
  Ho  Ho6  1  0.500000  0.819478  0.205965  1
  Ho  Ho7  1  0.500000  0.180522  0.205965  1
  Co  Co8  1  0.500000  0.500000  0.704083  1
  Co  Co9  1  0.000000  0.000000  0.295743  1
  Co  Co10  1  0.000000  0.500000  0.986969  1
  Co  Co11  1  0.500000  0.000000  0.013305  1
  Co  Co12  1  0.500000  0.332888  0.996956  1
  Co  Co13  1  0.500000  0.667112  0.996956  1
  Co  Co14  1  0.000000  0.166956  0.003294  1
  Co  Co15  1  0.000000  0.833044  0.003294  1
  Co  Co16  1  0.500000  0.296585  0.430942  1
  Co  Co17  1  0.500000  0.703415  0.430942  1
  Co  Co18  1  0.000000  0.203333  0.568878  1
  Co  Co19  1  0.000000  0.796667  0.568878  1
  Co  Co20  1  0.500000  0.878780  0.706616  1
  Co  Co21  1  0.500000  0.121220  0.706616  1
  Co  Co22  1  0.000000  0.621370  0.293267  1
  Co  Co23  1  0.000000  0.378630  0.293267  1
  P  P24  1  0.500000  0.500000  0.884872  1
  P  P25  1  0.000000  0.000000  0.115480  1
  P  P26  1  0.500000  0.500000  0.345994  1
  P  P27  1  0.000000  0.000000  0.653994  1
  P  P28  1  0.500000  0.309502  0.615815  1
  P  P29  1  0.500000  0.690498  0.615815  1
  P  P30  1  0.000000  0.190340  0.383845  1
  P  P31  1  0.000000  0.809660  0.383845  1
  P  P32  1  0.500000  0.843586  0.893698  1
  P  P33  1  0.500000  0.156414  0.893698  1
  P  P34  1  0.000000  0.656709  0.106527  1
  P  P35  1  0.000000  0.343291  0.106527  1
