# generated using pymatgen
data_ErTm9Si5Ge
_symmetry_space_group_name_H-M   'P 1'
_cell_length_a   8.33311502
_cell_length_b   8.33311499
_cell_length_c   6.24730200
_cell_angle_alpha   90.00000000
_cell_angle_beta   90.00000000
_cell_angle_gamma   120.01943086
_symmetry_Int_Tables_number   1
_chemical_formula_structural   ErTm9Si5Ge
_chemical_formula_sum   'Er1 Tm9 Si5 Ge1'
_cell_volume   375.62355287
_cell_formula_units_Z   1
loop_
 _symmetry_equiv_pos_site_id
 _symmetry_equiv_pos_as_xyz
  1  'x, y, z'
loop_
 _atom_site_type_symbol
 _atom_site_label
 _atom_site_symmetry_multiplicity
 _atom_site_fract_x
 _atom_site_fract_y
 _atom_site_fract_z
 _atom_site_occupancy
  Er  Er0  1  0.758274  0.758274  0.250000  1
  Tm  Tm1  1  0.667477  0.333152  0.500712  1
  Tm  Tm2  1  0.333152  0.667477  0.500712  1
  Tm  Tm3  1  0.333152  0.667477  0.999288  1
  Tm  Tm4  1  0.667477  0.333152  0.999288  1
  Tm  Tm5  1  0.242437  0.998794  0.250000  1
  Tm  Tm6  1  0.998794  0.242437  0.250000  1
  Tm  Tm7  1  0.242321  0.242321  0.750000  1
  Tm  Tm8  1  0.757201  0.999959  0.750000  1
  Tm  Tm9  1  0.999959  0.757201  0.750000  1
  Si  Si10  1  0.606028  0.000021  0.250000  1
  Si  Si11  1  0.000021  0.606028  0.250000  1
  Si  Si12  1  0.606303  0.606303  0.750000  1
  Si  Si13  1  0.393885  0.000068  0.750000  1
  Si  Si14  1  0.000068  0.393885  0.750000  1
  Ge  Ge15  1  0.393452  0.393452  0.250000  1
