# generated using pymatgen
data_Y14Ho2In4RuRh3
_symmetry_space_group_name_H-M   'P 1'
_cell_length_a   9.69699097
_cell_length_b   9.71418126
_cell_length_c   9.69699859
_cell_angle_alpha   59.85517760
_cell_angle_beta   59.77475400
_cell_angle_gamma   59.85518378
_symmetry_Int_Tables_number   1
_chemical_formula_structural   Y14Ho2In4RuRh3
_chemical_formula_sum   'Y14 Ho2 In4 Ru1 Rh3'
_cell_volume   643.38346012
_cell_formula_units_Z   1
loop_
 _symmetry_equiv_pos_site_id
 _symmetry_equiv_pos_as_xyz
  1  'x, y, z'
loop_
 _atom_site_type_symbol
 _atom_site_label
 _atom_site_symmetry_multiplicity
 _atom_site_fract_x
 _atom_site_fract_y
 _atom_site_fract_z
 _atom_site_occupancy
  Y  Y0  1  0.189342  0.189757  0.810976  1
  Y  Y1  1  0.600249  0.601232  0.201340  1
  Y  Y2  1  0.441315  0.055408  0.441305  1
  Y  Y3  1  0.441298  0.441659  0.057236  1
  Y  Y4  1  0.810516  0.190315  0.810511  1
  Y  Y5  1  0.190446  0.812215  0.190439  1
  Y  Y6  1  0.440358  0.056626  0.060482  1
  Y  Y7  1  0.190262  0.812971  0.807718  1
  Y  Y8  1  0.058810  0.440448  0.058811  1
  Y  Y9  1  0.807717  0.812962  0.190267  1
  Y  Y10  1  0.201339  0.601231  0.600249  1
  Y  Y11  1  0.057243  0.441652  0.441296  1
  Y  Y12  1  0.060483  0.056630  0.440349  1
  Y  Y13  1  0.810972  0.189751  0.189348  1
  Ho  Ho14  1  0.599727  0.202501  0.599731  1
  Ho  Ho15  1  0.597508  0.599770  0.597525  1
  In  In16  1  0.833400  0.832599  0.833398  1
  In  In17  1  0.832691  0.833066  0.500408  1
  In  In18  1  0.500409  0.833068  0.832691  1
  In  In19  1  0.832128  0.501643  0.832126  1
  Ru  Ru20  1  0.393426  0.824099  0.393428  1
  Rh  Rh21  1  0.392768  0.388802  0.392765  1
  Rh  Rh22  1  0.823015  0.390804  0.394581  1
  Rh  Rh23  1  0.394578  0.390792  0.823021  1
