# generated using pymatgen
data_Ce2Nb2P7Rh9W
_symmetry_space_group_name_H-M   'P 1'
_cell_length_a   3.94683600
_cell_length_b   9.59362505
_cell_length_c   9.59667700
_cell_angle_alpha   119.88426985
_cell_angle_beta   90.00018872
_cell_angle_gamma   89.99997764
_symmetry_Int_Tables_number   1
_chemical_formula_structural   Ce2Nb2P7Rh9W
_chemical_formula_sum   'Ce2 Nb2 P7 Rh9 W1'
_cell_volume   315.05662299
_cell_formula_units_Z   1
loop_
 _symmetry_equiv_pos_site_id
 _symmetry_equiv_pos_as_xyz
  1  'x, y, z'
loop_
 _atom_site_type_symbol
 _atom_site_label
 _atom_site_symmetry_multiplicity
 _atom_site_fract_x
 _atom_site_fract_y
 _atom_site_fract_z
 _atom_site_occupancy
  Ce  Ce0  1  0.261715  0.666562  0.332764  1
  Ce  Ce1  1  0.761987  0.333284  0.666472  1
  Nb  Nb2  1  0.761964  0.127693  0.220536  1
  Nb  Nb3  1  0.761921  0.779566  0.905036  1
  P  P4  1  0.262003  0.000754  0.998685  1
  P  P5  1  0.761889  0.883794  0.596898  1
  P  P6  1  0.761833  0.407857  0.288549  1
  P  P7  1  0.761689  0.711609  0.118378  1
  P  P8  1  0.261918  0.114699  0.413081  1
  P  P9  1  0.261957  0.587472  0.701565  1
  P  P10  1  0.261921  0.296144  0.885386  1
  Rh  Rh11  1  0.261831  0.882683  0.160535  1
  Rh  Rh12  1  0.261938  0.841648  0.723114  1
  Rh  Rh13  1  0.261940  0.275756  0.114629  1
  Rh  Rh14  1  0.761931  0.613211  0.559712  1
  Rh  Rh15  1  0.761932  0.438037  0.050138  1
  Rh  Rh16  1  0.761871  0.948368  0.390889  1
  Rh  Rh17  1  0.261947  0.369367  0.437551  1
  Rh  Rh18  1  0.261929  0.560872  0.930168  1
  Rh  Rh19  1  0.261913  0.069298  0.633714  1
  W  W20  1  0.761971  0.091329  0.872196  1
