# generated using pymatgen
data_Ta2NbCr3Si2P
_symmetry_space_group_name_H-M   'P 1'
_cell_length_a   6.59700393
_cell_length_b   6.59700454
_cell_length_c   3.29063500
_cell_angle_alpha   90.00000000
_cell_angle_beta   90.00000000
_cell_angle_gamma   119.82232241
_symmetry_Int_Tables_number   1
_chemical_formula_structural   Ta2NbCr3Si2P
_chemical_formula_sum   'Ta2 Nb1 Cr3 Si2 P1'
_cell_volume   124.24492233
_cell_formula_units_Z   1
loop_
 _symmetry_equiv_pos_site_id
 _symmetry_equiv_pos_as_xyz
  1  'x, y, z'
loop_
 _atom_site_type_symbol
 _atom_site_label
 _atom_site_symmetry_multiplicity
 _atom_site_fract_x
 _atom_site_fract_y
 _atom_site_fract_z
 _atom_site_occupancy
  Ta  Ta0  1  0.999647  0.599935  0.500000  1
  Ta  Ta1  1  0.599935  0.999647  0.500000  1
  Nb  Nb2  1  0.400836  0.400836  0.500000  1
  Cr  Cr3  1  0.752973  0.752973  0.000000  1
  Cr  Cr4  1  0.247812  0.998813  0.000000  1
  Cr  Cr5  1  0.998813  0.247812  0.000000  1
  Si  Si6  1  0.666450  0.333367  0.000000  1
  Si  Si7  1  0.333367  0.666450  0.000000  1
  P  P8  1  0.000167  0.000167  0.500000  1
