# generated using pymatgen
data_Ca3NdAl18OsPd5
_symmetry_space_group_name_H-M   'P 1'
_cell_length_a   7.68658626
_cell_length_b   7.66518752
_cell_length_c   9.59638428
_cell_angle_alpha   90.04618416
_cell_angle_beta   90.06949454
_cell_angle_gamma   119.56562594
_symmetry_Int_Tables_number   1
_chemical_formula_structural   Ca3NdAl18OsPd5
_chemical_formula_sum   'Ca3 Nd1 Al18 Os1 Pd5'
_cell_volume   491.78807980
_cell_formula_units_Z   1
loop_
 _symmetry_equiv_pos_site_id
 _symmetry_equiv_pos_as_xyz
  1  'x, y, z'
loop_
 _atom_site_type_symbol
 _atom_site_label
 _atom_site_symmetry_multiplicity
 _atom_site_fract_x
 _atom_site_fract_y
 _atom_site_fract_z
 _atom_site_occupancy
  Ca  Ca0  1  0.993063  0.669840  0.247878  1
  Ca  Ca1  1  0.004251  0.329418  0.751103  1
  Ca  Ca2  1  0.672916  0.996000  0.248918  1
  Nd  Nd3  1  0.330109  0.001690  0.751944  1
  Al  Al4  1  0.130523  0.133937  0.249224  1
  Al  Al5  1  0.869170  0.869401  0.750482  1
  Al  Al6  1  0.994512  0.334695  0.074580  1
  Al  Al7  1  0.993478  0.656660  0.926059  1
  Al  Al8  1  0.996005  0.663277  0.575695  1
  Al  Al9  1  0.334181  0.001779  0.419340  1
  Al  Al10  1  0.001767  0.335856  0.424315  1
  Al  Al11  1  0.666968  0.998713  0.574836  1
  Al  Al12  1  0.668652  0.004978  0.926992  1
  Al  Al13  1  0.341655  0.005447  0.078683  1
  Al  Al14  1  0.333276  0.334550  0.553325  1
  Al  Al15  1  0.664435  0.665638  0.446584  1
  Al  Al16  1  0.667098  0.662280  0.046853  1
  Al  Al17  1  0.336870  0.332861  0.953588  1
  Al  Al18  1  0.338543  0.545770  0.249347  1
  Al  Al19  1  0.659547  0.452965  0.754046  1
  Al  Al20  1  0.548135  0.341849  0.246095  1
  Al  Al21  1  0.457838  0.663227  0.750782  1
  Os  Os22  1  0.669389  0.327844  0.999866  1
  Pd  Pd23  1  0.328549  0.671664  0.999333  1
  Pd  Pd24  1  0.328049  0.672011  0.500743  1
  Pd  Pd25  1  0.669705  0.328252  0.499864  1
  Pd  Pd26  1  0.000925  0.999807  0.999986  1
  Pd  Pd27  1  0.000393  0.999590  0.499537  1
