# generated using pymatgen
data_Er4Tm4Lu4Co5Bi
_symmetry_space_group_name_H-M   'P 1'
_cell_length_a   8.18837772
_cell_length_b   8.18837603
_cell_length_c   8.18837624
_cell_angle_alpha   110.84951936
_cell_angle_beta   110.98016840
_cell_angle_gamma   106.62104820
_symmetry_Int_Tables_number   1
_chemical_formula_structural   Er4Tm4Lu4Co5Bi
_chemical_formula_sum   'Er4 Tm4 Lu4 Co5 Bi1'
_cell_volume   421.86090901
_cell_formula_units_Z   1
loop_
 _symmetry_equiv_pos_site_id
 _symmetry_equiv_pos_as_xyz
  1  'x, y, z'
loop_
 _atom_site_type_symbol
 _atom_site_label
 _atom_site_symmetry_multiplicity
 _atom_site_fract_x
 _atom_site_fract_y
 _atom_site_fract_z
 _atom_site_occupancy
  Er  Er0  1  0.210544  0.406445  0.195901  1
  Er  Er1  1  0.789456  0.593555  0.804099  1
  Er  Er2  1  0.210544  0.014643  0.804099  1
  Er  Er3  1  0.789456  0.985357  0.195901  1
  Tm  Tm4  1  0.285876  0.182664  0.468540  1
  Tm  Tm5  1  0.714124  0.817336  0.531460  1
  Tm  Tm6  1  0.285876  0.817336  0.103212  1
  Tm  Tm7  1  0.714124  0.182664  0.896788  1
  Lu  Lu8  1  0.623381  0.312901  0.310480  1
  Lu  Lu9  1  0.376619  0.687099  0.689520  1
  Lu  Lu10  1  0.002422  0.312901  0.689520  1
  Lu  Lu11  1  0.997578  0.687099  0.310480  1
  Co  Co12  1  0.000000  0.374501  0.374501  1
  Co  Co13  1  0.000000  0.625499  0.625499  1
  Co  Co14  1  0.388256  0.888256  0.500000  1
  Co  Co15  1  0.611744  0.111744  0.500000  1
  Co  Co16  1  0.000000  0.000000  0.000000  1
  Bi  Bi17  1  0.500000  0.500000  0.000000  1
