# generated using pymatgen
data_Ni3SnSb11Pt
_symmetry_space_group_name_H-M   'P 1'
_cell_length_a   8.08195121
_cell_length_b   8.09083973
_cell_length_c   8.04410504
_cell_angle_alpha   109.38274731
_cell_angle_beta   109.49106131
_cell_angle_gamma   109.66121114
_symmetry_Int_Tables_number   1
_chemical_formula_structural   Ni3SnSb11Pt
_chemical_formula_sum   'Ni3 Sn1 Sb11 Pt1'
_cell_volume   404.30726986
_cell_formula_units_Z   1
loop_
 _symmetry_equiv_pos_site_id
 _symmetry_equiv_pos_as_xyz
  1  'x, y, z'
loop_
 _atom_site_type_symbol
 _atom_site_label
 _atom_site_symmetry_multiplicity
 _atom_site_fract_x
 _atom_site_fract_y
 _atom_site_fract_z
 _atom_site_occupancy
  Ni  Ni0  1  0.504896  0.002132  0.003902  1
  Ni  Ni1  1  0.998538  0.498036  0.998439  1
  Ni  Ni2  1  0.497935  0.496716  0.498465  1
  Sn  Sn3  1  0.163673  0.818461  0.669529  1
  Sb  Sb4  1  0.840275  0.190310  0.335210  1
  Sb  Sb5  1  0.840603  0.505121  0.663447  1
  Sb  Sb6  1  0.161146  0.500118  0.339016  1
  Sb  Sb7  1  0.812475  0.649977  0.147682  1
  Sb  Sb8  1  0.186687  0.348630  0.852455  1
  Sb  Sb9  1  0.502084  0.663639  0.839047  1
  Sb  Sb10  1  0.495377  0.334239  0.159424  1
  Sb  Sb11  1  0.662595  0.157763  0.822832  1
  Sb  Sb12  1  0.335460  0.838564  0.173229  1
  Sb  Sb13  1  0.651021  0.834940  0.501636  1
  Sb  Sb14  1  0.348350  0.160050  0.496935  1
  Pt  Pt15  1  0.998887  0.001304  0.498752  1
