# generated using pymatgen
data_Ho4MgAl17Pd6
_symmetry_space_group_name_H-M   'P 1'
_cell_length_a   7.65861016
_cell_length_b   7.66997845
_cell_length_c   9.46992457
_cell_angle_alpha   90.06392554
_cell_angle_beta   89.95394784
_cell_angle_gamma   119.56900579
_symmetry_Int_Tables_number   1
_chemical_formula_structural   Ho4MgAl17Pd6
_chemical_formula_sum   'Ho4 Mg1 Al17 Pd6'
_cell_volume   483.82774373
_cell_formula_units_Z   1
loop_
 _symmetry_equiv_pos_site_id
 _symmetry_equiv_pos_as_xyz
  1  'x, y, z'
loop_
 _atom_site_type_symbol
 _atom_site_label
 _atom_site_symmetry_multiplicity
 _atom_site_fract_x
 _atom_site_fract_y
 _atom_site_fract_z
 _atom_site_occupancy
  Ho  Ho0  1  0.995199  0.674821  0.251933  1
  Ho  Ho1  1  0.005663  0.330309  0.747452  1
  Ho  Ho2  1  0.666136  0.989109  0.251971  1
  Ho  Ho3  1  0.330173  0.005776  0.749799  1
  Mg  Mg4  1  0.996487  0.334576  0.079395  1
  Al  Al5  1  0.129194  0.127320  0.250772  1
  Al  Al6  1  0.870872  0.870156  0.750986  1
  Al  Al7  1  0.000775  0.663347  0.922357  1
  Al  Al8  1  0.000024  0.665178  0.578651  1
  Al  Al9  1  0.335325  0.000981  0.421990  1
  Al  Al10  1  0.000140  0.334944  0.417795  1
  Al  Al11  1  0.665373  0.999766  0.578898  1
  Al  Al12  1  0.667659  0.002171  0.922595  1
  Al  Al13  1  0.335377  0.000918  0.077900  1
  Al  Al14  1  0.332936  0.333240  0.558806  1
  Al  Al15  1  0.666324  0.665994  0.441245  1
  Al  Al16  1  0.666747  0.665841  0.057620  1
  Al  Al17  1  0.330508  0.333076  0.940584  1
  Al  Al18  1  0.340320  0.548740  0.250567  1
  Al  Al19  1  0.660447  0.453481  0.749239  1
  Al  Al20  1  0.551746  0.338048  0.249196  1
  Al  Al21  1  0.452766  0.662730  0.750914  1
  Pd  Pd22  1  0.661196  0.326371  0.995835  1
  Pd  Pd23  1  0.335722  0.679901  0.999708  1
  Pd  Pd24  1  0.329078  0.672937  0.501494  1
  Pd  Pd25  1  0.671878  0.327974  0.501135  1
  Pd  Pd26  1  0.001494  0.992930  0.999297  1
  Pd  Pd27  1  0.000442  0.999368  0.501865  1
