# generated using pymatgen
data_Ca7Pr(MnN3)4
_symmetry_space_group_name_H-M   'P 1'
_cell_length_a   5.93149338
_cell_length_b   5.93149321
_cell_length_c   11.66241120
_cell_angle_alpha   90.19837581
_cell_angle_beta   89.80162418
_cell_angle_gamma   125.27516920
_symmetry_Int_Tables_number   1
_chemical_formula_structural   Ca7Pr(MnN3)4
_chemical_formula_sum   'Ca7 Pr1 Mn4 N12'
_cell_volume   334.97293648
_cell_formula_units_Z   1
loop_
 _symmetry_equiv_pos_site_id
 _symmetry_equiv_pos_as_xyz
  1  'x, y, z'
loop_
 _atom_site_type_symbol
 _atom_site_label
 _atom_site_symmetry_multiplicity
 _atom_site_fract_x
 _atom_site_fract_y
 _atom_site_fract_z
 _atom_site_occupancy
  Ca  Ca0  1  0.551426  0.448574  0.647730  1
  Ca  Ca1  1  0.050582  0.949418  0.854013  1
  Ca  Ca2  1  0.946856  0.053144  0.141026  1
  Ca  Ca3  1  0.140597  0.859403  0.427392  1
  Ca  Ca4  1  0.860872  0.139128  0.577940  1
  Ca  Ca5  1  0.360488  0.639512  0.922629  1
  Ca  Ca6  1  0.639123  0.360877  0.074613  1
  Pr  Pr7  1  0.450279  0.549721  0.354382  1
  Mn  Mn8  1  0.251129  0.748871  0.159195  1
  Mn  Mn9  1  0.745738  0.254262  0.839268  1
  Mn  Mn10  1  0.245489  0.754511  0.661758  1
  Mn  Mn11  1  0.755463  0.244537  0.339598  1
  N  N12  1  0.155411  0.844589  0.037684  1
  N  N13  1  0.842681  0.157319  0.961260  1
  N  N14  1  0.344328  0.655672  0.536276  1
  N  N15  1  0.654318  0.345682  0.462337  1
  N  N16  1  0.420944  0.579056  0.136351  1
  N  N17  1  0.578921  0.421079  0.865239  1
  N  N18  1  0.078505  0.921495  0.636777  1
  N  N19  1  0.925267  0.074733  0.363684  1
  N  N20  1  0.965323  0.535786  0.250899  1
  N  N21  1  0.536643  0.964596  0.749524  1
  N  N22  1  0.035404  0.463357  0.749524  1
  N  N23  1  0.464214  0.034677  0.250899  1
