# generated using pymatgen
data_Nb6ZnGa5Ru12
_symmetry_space_group_name_H-M   'P 1'
_cell_length_a   4.39378800
_cell_length_b   6.22324200
_cell_length_c   13.14371400
_cell_angle_alpha   90.00000000
_cell_angle_beta   90.00041788
_cell_angle_gamma   90.00000000
_symmetry_Int_Tables_number   1
_chemical_formula_structural   Nb6ZnGa5Ru12
_chemical_formula_sum   'Nb6 Zn1 Ga5 Ru12'
_cell_volume   359.39653726
_cell_formula_units_Z   1
loop_
 _symmetry_equiv_pos_site_id
 _symmetry_equiv_pos_as_xyz
  1  'x, y, z'
loop_
 _atom_site_type_symbol
 _atom_site_label
 _atom_site_symmetry_multiplicity
 _atom_site_fract_x
 _atom_site_fract_y
 _atom_site_fract_z
 _atom_site_occupancy
  Nb  Nb0  1  0.999998  0.500000  0.998079  1
  Nb  Nb1  1  0.499771  0.000000  0.165712  1
  Nb  Nb2  1  0.999778  0.500000  0.333341  1
  Nb  Nb3  1  0.500003  0.000000  0.500945  1
  Nb  Nb4  1  0.000234  0.500000  0.668579  1
  Nb  Nb5  1  0.500227  0.000000  0.833337  1
  Zn  Zn6  1  0.500269  0.500000  0.833309  1
  Ga  Ga7  1  0.000000  0.000000  0.999586  1
  Ga  Ga8  1  0.499744  0.500000  0.166440  1
  Ga  Ga9  1  0.999745  0.000000  0.333315  1
  Ga  Ga10  1  0.500001  0.500000  0.500242  1
  Ga  Ga11  1  0.000259  0.000000  0.667092  1
  Ru  Ru12  1  0.499999  0.249697  0.000964  1
  Ru  Ru13  1  0.499999  0.750304  0.000964  1
  Ru  Ru14  1  0.999761  0.249505  0.167169  1
  Ru  Ru15  1  0.999761  0.750496  0.167169  1
  Ru  Ru16  1  0.499776  0.250541  0.333354  1
  Ru  Ru17  1  0.499776  0.749458  0.333354  1
  Ru  Ru18  1  0.000003  0.249503  0.499475  1
  Ru  Ru19  1  0.000003  0.750498  0.499475  1
  Ru  Ru20  1  0.500215  0.249665  0.665695  1
  Ru  Ru21  1  0.500215  0.750334  0.665695  1
  Ru  Ru22  1  0.000231  0.249046  0.833353  1
  Ru  Ru23  1  0.000231  0.750955  0.833353  1
