# generated using pymatgen
data_Eu16Mg3InNi4
_symmetry_space_group_name_H-M   'P 1'
_cell_length_a   10.18622821
_cell_length_b   10.18622778
_cell_length_c   10.18622619
_cell_angle_alpha   60.33042458
_cell_angle_beta   60.33042706
_cell_angle_gamma   60.33042001
_symmetry_Int_Tables_number   1
_chemical_formula_structural   Eu16Mg3InNi4
_chemical_formula_sum   'Eu16 Mg3 In1 Ni4'
_cell_volume   752.93886105
_cell_formula_units_Z   1
loop_
 _symmetry_equiv_pos_site_id
 _symmetry_equiv_pos_as_xyz
  1  'x, y, z'
loop_
 _atom_site_type_symbol
 _atom_site_label
 _atom_site_symmetry_multiplicity
 _atom_site_fract_x
 _atom_site_fract_y
 _atom_site_fract_z
 _atom_site_occupancy
  Eu  Eu0  1  0.441176  0.061398  0.441176  1
  Eu  Eu1  1  0.061398  0.441176  0.441176  1
  Eu  Eu2  1  0.441176  0.441176  0.061398  1
  Eu  Eu3  1  0.058304  0.441358  0.058304  1
  Eu  Eu4  1  0.441358  0.058304  0.058304  1
  Eu  Eu5  1  0.058304  0.058304  0.441358  1
  Eu  Eu6  1  0.810529  0.190665  0.810529  1
  Eu  Eu7  1  0.190665  0.810529  0.810529  1
  Eu  Eu8  1  0.810529  0.810529  0.190665  1
  Eu  Eu9  1  0.192156  0.806748  0.192156  1
  Eu  Eu10  1  0.806748  0.192156  0.192156  1
  Eu  Eu11  1  0.192156  0.192156  0.806748  1
  Eu  Eu12  1  0.655133  0.655133  0.655133  1
  Eu  Eu13  1  0.655180  0.655180  0.034345  1
  Eu  Eu14  1  0.034345  0.655180  0.655180  1
  Eu  Eu15  1  0.655180  0.034345  0.655180  1
  Mg  Mg16  1  0.421986  0.421986  0.728451  1
  Mg  Mg17  1  0.728451  0.421986  0.421986  1
  Mg  Mg18  1  0.421986  0.728451  0.421986  1
  In  In19  1  0.420647  0.420647  0.420647  1
  Ni  Ni20  1  0.859913  0.859913  0.859913  1
  Ni  Ni21  1  0.860264  0.860264  0.422150  1
  Ni  Ni22  1  0.422150  0.860264  0.860264  1
  Ni  Ni23  1  0.860264  0.422150  0.860264  1
