# generated using pymatgen
data_Ac3(In2Ir)2
_symmetry_space_group_name_H-M   'P 1'
_cell_length_a   8.03913400
_cell_length_b   8.03913450
_cell_length_c   4.37211100
_cell_angle_alpha   90.00000000
_cell_angle_beta   90.00000000
_cell_angle_gamma   120.00000287
_symmetry_Int_Tables_number   1
_chemical_formula_structural   Ac3(In2Ir)2
_chemical_formula_sum   'Ac3 In4 Ir2'
_cell_volume   244.70360135
_cell_formula_units_Z   1
loop_
 _symmetry_equiv_pos_site_id
 _symmetry_equiv_pos_as_xyz
  1  'x, y, z'
loop_
 _atom_site_type_symbol
 _atom_site_label
 _atom_site_symmetry_multiplicity
 _atom_site_fract_x
 _atom_site_fract_y
 _atom_site_fract_z
 _atom_site_occupancy
  Ac  Ac0  1  0.696403  0.946058  0.500000  1
  Ac  Ac1  1  0.249655  0.303597  0.500000  1
  Ac  Ac2  1  0.053942  0.750345  0.500000  1
  In  In3  1  0.901880  0.334020  0.000000  1
  In  In4  1  0.432141  0.098120  0.000000  1
  In  In5  1  0.665980  0.567859  0.000000  1
  In  In6  1  0.333333  0.666667  0.000000  1
  Ir  Ir7  1  0.666667  0.333333  0.500000  1
  Ir  Ir8  1  0.000000  0.000000  0.000000  1
