# generated using pymatgen
data_CsCaH9W
_symmetry_space_group_name_H-M   'P 1'
_cell_length_a   9.13618000
_cell_length_b   9.13617916
_cell_length_c   5.83613800
_cell_angle_alpha   90.00000000
_cell_angle_beta   90.00000000
_cell_angle_gamma   120.00000305
_symmetry_Int_Tables_number   1
_chemical_formula_structural   CsCaH9W
_chemical_formula_sum   'Cs3 Ca3 H27 W3'
_cell_volume   421.87658870
_cell_formula_units_Z   3
loop_
 _symmetry_equiv_pos_site_id
 _symmetry_equiv_pos_as_xyz
  1  'x, y, z'
loop_
 _atom_site_type_symbol
 _atom_site_label
 _atom_site_symmetry_multiplicity
 _atom_site_fract_x
 _atom_site_fract_y
 _atom_site_fract_z
 _atom_site_occupancy
  Cs  Cs0  1  0.000000  0.585496  0.000000  1
  Cs  Cs1  1  0.414504  0.414504  0.000000  1
  Cs  Cs2  1  0.585496  0.000000  0.000000  1
  Ca  Ca3  1  0.000000  0.278652  0.500000  1
  Ca  Ca4  1  0.721348  0.721348  0.500000  1
  Ca  Ca5  1  0.278652  0.000000  0.500000  1
  H  H6  1  0.788898  0.303342  0.713121  1
  H  H7  1  0.696658  0.485556  0.713121  1
  H  H8  1  0.514444  0.211102  0.713121  1
  H  H9  1  0.211102  0.514444  0.286879  1
  H  H10  1  0.514444  0.211102  0.286879  1
  H  H11  1  0.788898  0.303342  0.286879  1
  H  H12  1  0.696658  0.485556  0.286879  1
  H  H13  1  0.303342  0.788898  0.713121  1
  H  H14  1  0.485556  0.696658  0.713121  1
  H  H15  1  0.191561  0.000000  0.000000  1
  H  H16  1  0.808439  0.808439  0.000000  1
  H  H17  1  0.000000  0.191561  0.000000  1
  H  H18  1  0.866983  0.000000  0.229703  1
  H  H19  1  0.133017  0.133017  0.770297  1
  H  H20  1  0.000000  0.866983  0.770297  1
  H  H21  1  0.000000  0.866983  0.229703  1
  H  H22  1  0.133017  0.133017  0.229703  1
  H  H23  1  0.866983  0.000000  0.770297  1
  H  H24  1  0.126354  0.628590  0.500000  1
  H  H25  1  0.502236  0.873646  0.500000  1
  H  H26  1  0.371410  0.497764  0.500000  1
  H  H27  1  0.497764  0.371410  0.500000  1
  H  H28  1  0.873646  0.502236  0.500000  1
  H  H29  1  0.628590  0.126354  0.500000  1
  H  H30  1  0.211102  0.514444  0.713121  1
  H  H31  1  0.303342  0.788898  0.286879  1
  H  H32  1  0.485556  0.696658  0.286879  1
  W  W33  1  0.666667  0.333333  0.500000  1
  W  W34  1  0.333333  0.666667  0.500000  1
  W  W35  1  0.000000  0.000000  0.000000  1
