# generated using pymatgen
data_Sr5NpPa4O18
_symmetry_space_group_name_H-M   'P 1'
_cell_length_a   7.01115487
_cell_length_b   7.85035017
_cell_length_c   8.84133318
_cell_angle_alpha   101.34417432
_cell_angle_beta   97.66475735
_cell_angle_gamma   106.93711480
_symmetry_Int_Tables_number   1
_chemical_formula_structural   Sr5NpPa4O18
_chemical_formula_sum   'Sr5 Np1 Pa4 O18'
_cell_volume   446.89347984
_cell_formula_units_Z   1
loop_
 _symmetry_equiv_pos_site_id
 _symmetry_equiv_pos_as_xyz
  1  'x, y, z'
loop_
 _atom_site_type_symbol
 _atom_site_label
 _atom_site_symmetry_multiplicity
 _atom_site_fract_x
 _atom_site_fract_y
 _atom_site_fract_z
 _atom_site_occupancy
  Sr  Sr0  1  0.799709  0.102472  0.582580  1
  Sr  Sr1  1  0.590717  0.694045  0.196012  1
  Sr  Sr2  1  0.409283  0.305955  0.803988  1
  Sr  Sr3  1  0.200291  0.897528  0.417420  1
  Sr  Sr4  1  0.000000  0.500000  0.000000  1
  Np  Np5  1  0.000000  0.000000  0.000000  1
  Pa  Pa6  1  0.788363  0.576485  0.581983  1
  Pa  Pa7  1  0.625967  0.197251  0.194037  1
  Pa  Pa8  1  0.374033  0.802749  0.805963  1
  Pa  Pa9  1  0.211637  0.423515  0.418017  1
  O  O10  1  0.824475  0.784452  0.465467  1
  O  O11  1  0.010571  0.224228  0.175291  1
  O  O12  1  0.665962  0.398027  0.070474  1
  O  O13  1  0.453927  0.998268  0.683161  1
  O  O14  1  0.862590  0.348422  0.416674  1
  O  O15  1  0.503431  0.392362  0.351688  1
  O  O16  1  0.243891  0.606289  0.277965  1
  O  O17  1  0.981701  0.835559  0.143511  1
  O  O18  1  0.670616  0.947626  0.991030  1
  O  O19  1  0.329384  0.052374  0.008970  1
  O  O20  1  0.018299  0.164441  0.856489  1
  O  O21  1  0.756109  0.393711  0.722035  1
  O  O22  1  0.496569  0.607638  0.648312  1
  O  O23  1  0.137410  0.651578  0.583326  1
  O  O24  1  0.546073  0.001732  0.316839  1
  O  O25  1  0.334038  0.601973  0.929526  1
  O  O26  1  0.989429  0.775772  0.824709  1
  O  O27  1  0.175525  0.215548  0.534533  1
