# generated using pymatgen
data_SrGa2IrRh
_symmetry_space_group_name_H-M   'P 1'
_cell_length_a   8.61444237
_cell_length_b   7.39132803
_cell_length_c   6.04803617
_cell_angle_alpha   79.03761376
_cell_angle_beta   57.39007298
_cell_angle_gamma   43.57232098
_symmetry_Int_Tables_number   1
_chemical_formula_structural   SrGa2IrRh
_chemical_formula_sum   'Sr2 Ga4 Ir2 Rh2'
_cell_volume   209.86518660
_cell_formula_units_Z   2
loop_
 _symmetry_equiv_pos_site_id
 _symmetry_equiv_pos_as_xyz
  1  'x, y, z'
loop_
 _atom_site_type_symbol
 _atom_site_label
 _atom_site_symmetry_multiplicity
 _atom_site_fract_x
 _atom_site_fract_y
 _atom_site_fract_z
 _atom_site_occupancy
  Sr  Sr0  1  0.500000  0.500000  0.500000  1
  Sr  Sr1  1  0.750000  0.750000  0.750000  1
  Ga  Ga2  1  0.817620  0.182380  0.817620  1
  Ga  Ga3  1  0.182380  0.817620  0.182380  1
  Ga  Ga4  1  0.433012  0.066988  0.433012  1
  Ga  Ga5  1  0.066988  0.433012  0.066988  1
  Ir  Ir6  1  0.115869  0.115869  0.884131  1
  Ir  Ir7  1  0.884131  0.884131  0.115869  1
  Rh  Rh8  1  0.133946  0.133946  0.366054  1
  Rh  Rh9  1  0.366054  0.366054  0.133946  1
