# generated using pymatgen
data_SmHoEr4(RuI3)2
_symmetry_space_group_name_H-M   'P 1'
_cell_length_a   4.21037000
_cell_length_b   8.89012607
_cell_length_c   12.33479606
_cell_angle_alpha   94.33638255
_cell_angle_beta   90.00000000
_cell_angle_gamma   90.00000000
_symmetry_Int_Tables_number   1
_chemical_formula_structural   SmHoEr4(RuI3)2
_chemical_formula_sum   'Sm1 Ho1 Er4 Ru2 I6'
_cell_volume   460.37859920
_cell_formula_units_Z   1
loop_
 _symmetry_equiv_pos_site_id
 _symmetry_equiv_pos_as_xyz
  1  'x, y, z'
loop_
 _atom_site_type_symbol
 _atom_site_label
 _atom_site_symmetry_multiplicity
 _atom_site_fract_x
 _atom_site_fract_y
 _atom_site_fract_z
 _atom_site_occupancy
  Sm  Sm0  1  0.750000  0.267754  0.602901  1
  Ho  Ho1  1  0.250000  0.738387  0.396724  1
  Er  Er2  1  0.750000  0.873010  0.625358  1
  Er  Er3  1  0.250000  0.124765  0.373308  1
  Er  Er4  1  0.750000  0.895884  0.187338  1
  Er  Er5  1  0.250000  0.101249  0.813760  1
  Ru  Ru6  1  0.750000  0.943793  0.407024  1
  Ru  Ru7  1  0.250000  0.054207  0.592540  1
  I  I8  1  0.750000  0.423795  0.364591  1
  I  I9  1  0.250000  0.580307  0.633749  1
  I  I10  1  0.750000  0.863752  0.890232  1
  I  I11  1  0.250000  0.134906  0.110140  1
  I  I12  1  0.750000  0.353775  0.867069  1
  I  I13  1  0.250000  0.644415  0.135268  1
