# generated using pymatgen
data_Sr4Sc2IrWO12
_symmetry_space_group_name_H-M   'P 1'
_cell_length_a   5.74748442
_cell_length_b   5.70954922
_cell_length_c   8.09509772
_cell_angle_alpha   90.03144626
_cell_angle_beta   90.20090234
_cell_angle_gamma   90.00299500
_symmetry_Int_Tables_number   1
_chemical_formula_structural   Sr4Sc2IrWO12
_chemical_formula_sum   'Sr4 Sc2 Ir1 W1 O12'
_cell_volume   265.64337163
_cell_formula_units_Z   1
loop_
 _symmetry_equiv_pos_site_id
 _symmetry_equiv_pos_as_xyz
  1  'x, y, z'
loop_
 _atom_site_type_symbol
 _atom_site_label
 _atom_site_symmetry_multiplicity
 _atom_site_fract_x
 _atom_site_fract_y
 _atom_site_fract_z
 _atom_site_occupancy
  Sr  Sr0  1  0.502844  0.502157  0.264474  1
  Sr  Sr1  1  0.996145  0.002963  0.265780  1
  Sr  Sr2  1  0.003854  0.997038  0.734220  1
  Sr  Sr3  1  0.497155  0.497842  0.735526  1
  Sc  Sc4  1  0.000000  0.499999  0.000000  1
  Sc  Sc5  1  0.499999  0.000000  0.500000  1
  Ir  Ir6  1  0.999999  0.499999  0.500000  1
  W  W7  1  0.500001  0.000000  0.000000  1
  O  O8  1  0.734318  0.243376  0.031838  1
  O  O9  1  0.740628  0.763045  0.031947  1
  O  O10  1  0.441487  0.999292  0.237522  1
  O  O11  1  0.058027  0.499032  0.250776  1
  O  O12  1  0.749995  0.255410  0.471236  1
  O  O13  1  0.755907  0.750426  0.471349  1
  O  O14  1  0.244094  0.249575  0.528651  1
  O  O15  1  0.250004  0.744591  0.528764  1
  O  O16  1  0.941972  0.500969  0.749224  1
  O  O17  1  0.558513  0.000709  0.762477  1
  O  O18  1  0.259372  0.236956  0.968053  1
  O  O19  1  0.265681  0.756625  0.968162  1
