# generated using pymatgen
data_Yb5Mn2Co17As12
_symmetry_space_group_name_H-M   'P 1'
_cell_length_a   12.58540900
_cell_length_b   12.57525472
_cell_length_c   3.82984300
_cell_angle_alpha   90.00000000
_cell_angle_beta   90.00000000
_cell_angle_gamma   119.97331748
_symmetry_Int_Tables_number   1
_chemical_formula_structural   Yb5Mn2Co17As12
_chemical_formula_sum   'Yb5 Mn2 Co17 As12'
_cell_volume   525.06423059
_cell_formula_units_Z   1
loop_
 _symmetry_equiv_pos_site_id
 _symmetry_equiv_pos_as_xyz
  1  'x, y, z'
loop_
 _atom_site_type_symbol
 _atom_site_label
 _atom_site_symmetry_multiplicity
 _atom_site_fract_x
 _atom_site_fract_y
 _atom_site_fract_z
 _atom_site_occupancy
  Yb  Yb0  1  0.667598  0.334475  0.000000  1
  Yb  Yb1  1  0.332402  0.666878  0.000000  1
  Yb  Yb2  1  0.816502  0.816579  0.500000  1
  Yb  Yb3  1  0.183498  0.000076  0.500000  1
  Yb  Yb4  1  0.000000  0.186072  0.500000  1
  Mn  Mn5  1  0.440335  0.440210  0.000000  1
  Mn  Mn6  1  0.559665  0.999875  0.000000  1
  Co  Co7  1  0.877112  0.356567  0.500000  1
  Co  Co8  1  0.644448  0.519727  0.500000  1
  Co  Co9  1  0.479472  0.122803  0.500000  1
  Co  Co10  1  0.355552  0.875277  0.500000  1
  Co  Co11  1  0.520528  0.643331  0.500000  1
  Co  Co12  1  0.122888  0.479455  0.500000  1
  Co  Co13  1  0.000000  0.556417  0.000000  1
  Co  Co14  1  0.800446  0.178383  0.000000  1
  Co  Co15  1  0.823166  0.622418  0.000000  1
  Co  Co16  1  0.376918  0.199102  0.000000  1
  Co  Co17  1  0.176834  0.799252  0.000000  1
  Co  Co18  1  0.623082  0.822184  0.000000  1
  Co  Co19  1  0.199554  0.377938  0.000000  1
  Co  Co20  1  0.285554  0.285969  0.500000  1
  Co  Co21  1  0.714446  0.000415  0.500000  1
  Co  Co22  1  0.000000  0.713854  0.500000  1
  Co  Co23  1  0.000000  0.999667  0.000000  1
  As  As24  1  0.686298  0.169632  0.500000  1
  As  As25  1  0.834513  0.517796  0.500000  1
  As  As26  1  0.482599  0.313345  0.500000  1
  As  As27  1  0.165487  0.683283  0.500000  1
  As  As28  1  0.517401  0.830746  0.500000  1
  As  As29  1  0.313702  0.483335  0.500000  1
  As  As30  1  0.179749  0.180573  0.000000  1
  As  As31  1  0.820251  0.000823  0.000000  1
  As  As32  1  0.000000  0.818872  0.000000  1
  As  As33  1  0.638583  0.637446  0.000000  1
  As  As34  1  0.361417  0.998863  0.000000  1
  As  As35  1  0.000000  0.368359  0.000000  1
