# generated using pymatgen
data_DyHo5GaNiRu
_symmetry_space_group_name_H-M   'P 1'
_cell_length_a   8.31196978
_cell_length_b   8.31032239
_cell_length_c   8.31030996
_cell_angle_alpha   112.96740204
_cell_angle_beta   110.14839873
_cell_angle_gamma   105.37891472
_symmetry_Int_Tables_number   1
_chemical_formula_structural   DyHo5GaNiRu
_chemical_formula_sum   'Dy2 Ho10 Ga2 Ni2 Ru2'
_cell_volume   439.97833432
_cell_formula_units_Z   2
loop_
 _symmetry_equiv_pos_site_id
 _symmetry_equiv_pos_as_xyz
  1  'x, y, z'
loop_
 _atom_site_type_symbol
 _atom_site_label
 _atom_site_symmetry_multiplicity
 _atom_site_fract_x
 _atom_site_fract_y
 _atom_site_fract_z
 _atom_site_occupancy
  Dy  Dy0  1  0.435174  0.241665  0.193514  1
  Dy  Dy1  1  0.564826  0.758335  0.806486  1
  Ho  Ho2  1  0.047918  0.241562  0.806358  1
  Ho  Ho3  1  0.952082  0.758438  0.193642  1
  Ho  Ho4  1  0.179809  0.279074  0.459198  1
  Ho  Ho5  1  0.820191  0.720926  0.540802  1
  Ho  Ho6  1  0.179815  0.720615  0.900737  1
  Ho  Ho7  1  0.820185  0.279385  0.099263  1
  Ho  Ho8  1  0.328915  0.640695  0.311364  1
  Ho  Ho9  1  0.671085  0.359305  0.688636  1
  Ho  Ho10  1  0.328921  0.017553  0.688221  1
  Ho  Ho11  1  0.671079  0.982447  0.311779  1
  Ga  Ga12  1  0.500000  0.500000  0.000000  1
  Ga  Ga13  1  0.000000  0.000000  0.000000  1
  Ni  Ni14  1  0.117916  0.618037  0.499872  1
  Ni  Ni15  1  0.882084  0.381963  0.500128  1
  Ru  Ru16  1  0.329489  0.999869  0.329615  1
  Ru  Ru17  1  0.670511  0.000131  0.670385  1
