# generated using pymatgen
data_TbDy8Y3Co5Hg
_symmetry_space_group_name_H-M   'P 1'
_cell_length_a   8.29819530
_cell_length_b   8.28339711
_cell_length_c   8.28434992
_cell_angle_alpha   107.77618482
_cell_angle_beta   110.05489208
_cell_angle_gamma   110.52236594
_symmetry_Int_Tables_number   1
_chemical_formula_structural   TbDy8Y3Co5Hg
_chemical_formula_sum   'Tb1 Dy8 Y3 Co5 Hg1'
_cell_volume   438.46814163
_cell_formula_units_Z   1
loop_
 _symmetry_equiv_pos_site_id
 _symmetry_equiv_pos_as_xyz
  1  'x, y, z'
loop_
 _atom_site_type_symbol
 _atom_site_label
 _atom_site_symmetry_multiplicity
 _atom_site_fract_x
 _atom_site_fract_y
 _atom_site_fract_z
 _atom_site_occupancy
  Tb  Tb0  1  0.522469  0.707197  0.815282  1
  Dy  Dy1  1  0.304909  0.620608  0.315910  1
  Dy  Dy2  1  0.304884  0.988923  0.684297  1
  Dy  Dy3  1  0.695335  0.379527  0.684323  1
  Dy  Dy4  1  0.695333  0.011080  0.315799  1
  Dy  Dy5  1  0.192196  0.208375  0.400654  1
  Dy  Dy6  1  0.807925  0.791634  0.599630  1
  Dy  Dy7  1  0.192238  0.791568  0.983808  1
  Dy  Dy8  1  0.807887  0.208278  0.016302  1
  Y  Y9  1  0.477710  0.292267  0.185432  1
  Y  Y10  1  0.105567  0.291503  0.814118  1
  Y  Y11  1  0.894469  0.708301  0.186121  1
  Co  Co12  1  0.499485  0.613624  0.112527  1
  Co  Co13  1  0.499679  0.386863  0.886112  1
  Co  Co14  1  0.378249  0.999849  0.378489  1
  Co  Co15  1  0.621887  0.000444  0.621363  1
  Co  Co16  1  0.000034  0.999957  0.000083  1
  Hg  Hg17  1  0.999746  0.500003  0.499752  1
