# generated using pymatgen
data_Eu4Y3Tm5Se16
_symmetry_space_group_name_H-M   'P 1'
_cell_length_a   4.10749400
_cell_length_b   12.47992641
_cell_length_c   14.82044700
_cell_angle_alpha   90.09292718
_cell_angle_beta   90.00000000
_cell_angle_gamma   90.00000000
_symmetry_Int_Tables_number   1
_chemical_formula_structural   Eu4Y3Tm5Se16
_chemical_formula_sum   'Eu4 Y3 Tm5 Se16'
_cell_volume   759.71323744
_cell_formula_units_Z   1
loop_
 _symmetry_equiv_pos_site_id
 _symmetry_equiv_pos_as_xyz
  1  'x, y, z'
loop_
 _atom_site_type_symbol
 _atom_site_label
 _atom_site_symmetry_multiplicity
 _atom_site_fract_x
 _atom_site_fract_y
 _atom_site_fract_z
 _atom_site_occupancy
  Eu  Eu0  1  0.750000  0.741724  0.164715  1
  Eu  Eu1  1  0.750000  0.240492  0.333926  1
  Eu  Eu2  1  0.250000  0.258439  0.835767  1
  Eu  Eu3  1  0.250000  0.759081  0.664768  1
  Y  Y4  1  0.750000  0.564636  0.388628  1
  Y  Y5  1  0.250000  0.935665  0.889393  1
  Y  Y6  1  0.250000  0.434953  0.611259  1
  Tm  Tm7  1  0.750000  0.081970  0.597250  1
  Tm  Tm8  1  0.750000  0.582294  0.902828  1
  Tm  Tm9  1  0.250000  0.918522  0.402399  1
  Tm  Tm10  1  0.250000  0.417558  0.096863  1
  Tm  Tm11  1  0.750000  0.063220  0.111945  1
  Se  Se12  1  0.750000  0.291124  0.675850  1
  Se  Se13  1  0.750000  0.791731  0.824710  1
  Se  Se14  1  0.250000  0.708928  0.324266  1
  Se  Se15  1  0.250000  0.206501  0.172951  1
  Se  Se16  1  0.750000  0.369309  0.968843  1
  Se  Se17  1  0.750000  0.868939  0.530163  1
  Se  Se18  1  0.250000  0.631326  0.031002  1
  Se  Se19  1  0.250000  0.131473  0.469354  1
  Se  Se20  1  0.750000  0.975365  0.285626  1
  Se  Se21  1  0.750000  0.473293  0.213524  1
  Se  Se22  1  0.250000  0.025899  0.714082  1
  Se  Se23  1  0.250000  0.525904  0.786409  1
  Se  Se24  1  0.750000  0.092175  0.923496  1
  Se  Se25  1  0.750000  0.591792  0.579396  1
  Se  Se26  1  0.250000  0.909711  0.080228  1
  Se  Se27  1  0.250000  0.407971  0.420359  1
