# generated using pymatgen
data_TbY5(Ga2Si)4
_symmetry_space_group_name_H-M   'P 1'
_cell_length_a   4.08737844
_cell_length_b   4.18357108
_cell_length_c   21.63754415
_cell_angle_alpha   84.45234573
_cell_angle_beta   84.58027994
_cell_angle_gamma   90.00001680
_symmetry_Int_Tables_number   1
_chemical_formula_structural   TbY5(Ga2Si)4
_chemical_formula_sum   'Tb1 Y5 Ga8 Si4'
_cell_volume   366.60358997
_cell_formula_units_Z   1
loop_
 _symmetry_equiv_pos_site_id
 _symmetry_equiv_pos_as_xyz
  1  'x, y, z'
loop_
 _atom_site_type_symbol
 _atom_site_label
 _atom_site_symmetry_multiplicity
 _atom_site_fract_x
 _atom_site_fract_y
 _atom_site_fract_z
 _atom_site_occupancy
  Tb  Tb0  1  0.957912  0.707912  0.084176  1
  Y  Y1  1  0.290257  0.040257  0.419487  1
  Y  Y2  1  0.623228  0.373228  0.753543  1
  Y  Y3  1  0.377233  0.627233  0.245535  1
  Y  Y4  1  0.709712  0.959712  0.580574  1
  Y  Y5  1  0.041458  0.291458  0.917083  1
  Ga  Ga6  1  0.820067  0.570067  0.359866  1
  Ga  Ga7  1  0.152760  0.902760  0.694481  1
  Ga  Ga8  1  0.431465  0.181465  0.137071  1
  Ga  Ga9  1  0.764309  0.514309  0.471382  1
  Ga  Ga10  1  0.097020  0.847020  0.805961  1
  Ga  Ga11  1  0.847778  0.097778  0.304444  1
  Ga  Ga12  1  0.180479  0.430479  0.639042  1
  Ga  Ga13  1  0.513231  0.763231  0.973537  1
  Si  Si14  1  0.902634  0.152634  0.194733  1
  Si  Si15  1  0.235491  0.485491  0.529019  1
  Si  Si16  1  0.568394  0.818394  0.863211  1
  Si  Si17  1  0.486572  0.236572  0.026854  1
