# generated using pymatgen
data_Er4Zr2SnO12
_symmetry_space_group_name_H-M   'P 1'
_cell_length_a   6.35259930
_cell_length_b   6.38575874
_cell_length_c   6.47748710
_cell_angle_alpha   99.64631336
_cell_angle_beta   98.67715033
_cell_angle_gamma   99.74600470
_symmetry_Int_Tables_number   1
_chemical_formula_structural   Er4Zr2SnO12
_chemical_formula_sum   'Er4 Zr2 Sn1 O12'
_cell_volume   250.93146806
_cell_formula_units_Z   1
loop_
 _symmetry_equiv_pos_site_id
 _symmetry_equiv_pos_as_xyz
  1  'x, y, z'
loop_
 _atom_site_type_symbol
 _atom_site_label
 _atom_site_symmetry_multiplicity
 _atom_site_fract_x
 _atom_site_fract_y
 _atom_site_fract_z
 _atom_site_occupancy
  Er  Er0  1  0.390175  0.699045  0.863522  1
  Er  Er1  1  0.694811  0.863436  0.391493  1
  Er  Er2  1  0.609825  0.300955  0.136478  1
  Er  Er3  1  0.305189  0.136564  0.608507  1
  Zr  Zr4  1  0.852709  0.395028  0.679644  1
  Zr  Zr5  1  0.147291  0.604972  0.320356  1
  Sn  Sn6  1  0.000000  0.000000  0.000000  1
  O  O7  1  0.034100  0.679429  0.899176  1
  O  O8  1  0.687235  0.931656  0.056346  1
  O  O9  1  0.922036  0.078108  0.691584  1
  O  O10  1  0.965900  0.320571  0.100824  1
  O  O11  1  0.312765  0.068344  0.943654  1
  O  O12  1  0.077964  0.921892  0.308416  1
  O  O13  1  0.590691  0.185770  0.435901  1
  O  O14  1  0.172720  0.429278  0.573098  1
  O  O15  1  0.416077  0.580073  0.178753  1
  O  O16  1  0.409309  0.814230  0.564099  1
  O  O17  1  0.827280  0.570722  0.426902  1
  O  O18  1  0.583923  0.419927  0.821247  1
