# generated using pymatgen
data_YbPa7TlSn3Pt8
_symmetry_space_group_name_H-M   'P 1'
_cell_length_a   7.81411994
_cell_length_b   7.81764089
_cell_length_c   7.36519978
_cell_angle_alpha   90.04973024
_cell_angle_beta   90.10108761
_cell_angle_gamma   90.28192224
_symmetry_Int_Tables_number   1
_chemical_formula_structural   YbPa7TlSn3Pt8
_chemical_formula_sum   'Yb1 Pa7 Tl1 Sn3 Pt8'
_cell_volume   449.91888408
_cell_formula_units_Z   1
loop_
 _symmetry_equiv_pos_site_id
 _symmetry_equiv_pos_as_xyz
  1  'x, y, z'
loop_
 _atom_site_type_symbol
 _atom_site_label
 _atom_site_symmetry_multiplicity
 _atom_site_fract_x
 _atom_site_fract_y
 _atom_site_fract_z
 _atom_site_occupancy
  Yb  Yb0  1  0.179478  0.821942  0.500684  1
  Pa  Pa1  1  0.682834  0.679677  0.999802  1
  Pa  Pa2  1  0.334164  0.338100  0.500189  1
  Pa  Pa3  1  0.821790  0.179749  0.499458  1
  Pa  Pa4  1  0.663884  0.663939  0.499760  1
  Pa  Pa5  1  0.319507  0.318801  0.000383  1
  Pa  Pa6  1  0.838748  0.161934  0.999694  1
  Pa  Pa7  1  0.165084  0.832157  0.000321  1
  Tl  Tl8  1  0.491748  0.996514  0.744033  1
  Sn  Sn9  1  0.493736  0.997583  0.254079  1
  Sn  Sn10  1  0.002589  0.506681  0.745790  1
  Sn  Sn11  1  0.002984  0.506953  0.254303  1
  Pt  Pt12  1  0.867343  0.870438  0.737074  1
  Pt  Pt13  1  0.124594  0.137663  0.738547  1
  Pt  Pt14  1  0.634818  0.368875  0.767810  1
  Pt  Pt15  1  0.633113  0.367265  0.231409  1
  Pt  Pt16  1  0.375753  0.624412  0.229307  1
  Pt  Pt17  1  0.128064  0.134702  0.262309  1
  Pt  Pt18  1  0.866068  0.871682  0.263128  1
  Pt  Pt19  1  0.373702  0.620932  0.771924  1
