# generated using pymatgen
data_Hf3ScU2F22
_symmetry_space_group_name_H-M   'P 1'
_cell_length_a   8.38937795
_cell_length_b   8.38937963
_cell_length_c   8.42919531
_cell_angle_alpha   125.05690665
_cell_angle_beta   106.75198695
_cell_angle_gamma   97.65956148
_symmetry_Int_Tables_number   1
_chemical_formula_structural   Hf3ScU2F22
_chemical_formula_sum   'Hf3 Sc1 U2 F22'
_cell_volume   429.90011021
_cell_formula_units_Z   1
loop_
 _symmetry_equiv_pos_site_id
 _symmetry_equiv_pos_as_xyz
  1  'x, y, z'
loop_
 _atom_site_type_symbol
 _atom_site_label
 _atom_site_symmetry_multiplicity
 _atom_site_fract_x
 _atom_site_fract_y
 _atom_site_fract_z
 _atom_site_occupancy
  Hf  Hf0  1  0.323042  0.368366  0.691407  1
  Hf  Hf1  1  0.178694  0.867921  0.046616  1
  Hf  Hf2  1  0.814352  0.134173  0.948524  1
  Sc  Sc3  1  0.682031  0.637513  0.319544  1
  U  U4  1  0.748825  0.246616  0.492814  1
  U  U5  1  0.246198  0.743989  0.492814  1
  F  F6  1  0.705945  0.903802  0.345671  1
  F  F7  1  0.294235  0.101411  0.655583  1
  F  F8  1  0.554170  0.361347  0.655583  1
  F  F9  1  0.946079  0.606293  0.813407  1
  F  F10  1  0.441869  0.639726  0.345671  1
  F  F11  1  0.056133  0.389980  0.184705  1
  F  F12  1  0.794724  0.128571  0.184705  1
  F  F13  1  0.207114  0.867327  0.813407  1
  F  F14  1  0.497020  0.497962  0.994981  1
  F  F15  1  0.000678  0.001791  0.002469  1
  F  F16  1  0.780321  0.875080  0.655401  1
  F  F17  1  0.221581  0.130556  0.352136  1
  F  F18  1  0.278255  0.631425  0.909681  1
  F  F19  1  0.720758  0.367594  0.088351  1
  F  F20  1  0.959408  0.737182  0.419981  1
  F  F21  1  0.050322  0.263128  0.585047  1
  F  F22  1  0.321919  0.534724  0.585047  1
  F  F23  1  0.174842  0.759654  0.209847  1
  F  F24  1  0.682798  0.460574  0.419981  1
  F  F25  1  0.824748  0.244643  0.788392  1
  F  F26  1  0.543749  0.963644  0.788392  1
  F  F27  1  0.450194  0.035005  0.209847  1
