# generated using pymatgen
data_Tb5Sm3(AsBr6)2
_symmetry_space_group_name_H-M   'P 1'
_cell_length_a   4.09493600
_cell_length_b   13.42166177
_cell_length_c   14.14178771
_cell_angle_alpha   89.81876610
_cell_angle_beta   90.00000000
_cell_angle_gamma   90.00000000
_symmetry_Int_Tables_number   1
_chemical_formula_structural   Tb5Sm3(AsBr6)2
_chemical_formula_sum   'Tb5 Sm3 As2 Br12'
_cell_volume   777.24072730
_cell_formula_units_Z   1
loop_
 _symmetry_equiv_pos_site_id
 _symmetry_equiv_pos_as_xyz
  1  'x, y, z'
loop_
 _atom_site_type_symbol
 _atom_site_label
 _atom_site_symmetry_multiplicity
 _atom_site_fract_x
 _atom_site_fract_y
 _atom_site_fract_z
 _atom_site_occupancy
  Tb  Tb0  1  0.500000  0.118768  0.341024  1
  Tb  Tb1  1  0.500000  0.881503  0.658813  1
  Tb  Tb2  1  0.500000  0.618205  0.158478  1
  Tb  Tb3  1  0.500000  0.381769  0.841508  1
  Tb  Tb4  1  0.000000  0.381636  0.078887  1
  Sm  Sm5  1  0.000000  0.119257  0.579334  1
  Sm  Sm6  1  0.000000  0.880867  0.420398  1
  Sm  Sm7  1  0.000000  0.618168  0.921175  1
  As  As8  1  0.500000  0.000111  0.499844  1
  As  As9  1  0.500000  0.497796  0.001449  1
  Br  Br10  1  0.500000  0.244359  0.163628  1
  Br  Br11  1  0.500000  0.759045  0.834829  1
  Br  Br12  1  0.500000  0.739720  0.334098  1
  Br  Br13  1  0.500000  0.259886  0.666168  1
  Br  Br14  1  0.000000  0.254214  0.408965  1
  Br  Br15  1  0.000000  0.745939  0.590728  1
  Br  Br16  1  0.000000  0.753796  0.090371  1
  Br  Br17  1  0.000000  0.247263  0.912647  1
  Br  Br18  1  0.000000  0.004990  0.242967  1
  Br  Br19  1  0.000000  0.995533  0.756683  1
  Br  Br20  1  0.000000  0.501309  0.254370  1
  Br  Br21  1  0.000000  0.495866  0.743635  1
