# generated using pymatgen
data_Dy5FeRhO12
_symmetry_space_group_name_H-M   'P 1'
_cell_length_a   6.80215051
_cell_length_b   6.80214984
_cell_length_c   7.30162820
_cell_angle_alpha   74.32415802
_cell_angle_beta   74.32416241
_cell_angle_gamma   51.34127901
_symmetry_Int_Tables_number   1
_chemical_formula_structural   Dy5FeRhO12
_chemical_formula_sum   'Dy5 Fe1 Rh1 O12'
_cell_volume   251.67989053
_cell_formula_units_Z   1
loop_
 _symmetry_equiv_pos_site_id
 _symmetry_equiv_pos_as_xyz
  1  'x, y, z'
loop_
 _atom_site_type_symbol
 _atom_site_label
 _atom_site_symmetry_multiplicity
 _atom_site_fract_x
 _atom_site_fract_y
 _atom_site_fract_z
 _atom_site_occupancy
  Dy  Dy0  1  0.302969  0.305979  0.359413  1
  Dy  Dy1  1  0.694021  0.697031  0.640587  1
  Dy  Dy2  1  0.310637  0.309006  0.828981  1
  Dy  Dy3  1  0.690994  0.689363  0.171019  1
  Dy  Dy4  1  0.998437  0.001563  0.500000  1
  Fe  Fe5  1  0.246763  0.753237  0.000000  1
  Rh  Rh6  1  0.758247  0.241753  0.000000  1
  O  O7  1  0.902302  0.429780  0.917868  1
  O  O8  1  0.419971  0.899769  0.919661  1
  O  O9  1  0.100231  0.580029  0.080339  1
  O  O10  1  0.570220  0.097698  0.082132  1
  O  O11  1  0.097207  0.596865  0.575283  1
  O  O12  1  0.596040  0.095410  0.576646  1
  O  O13  1  0.904590  0.403960  0.423354  1
  O  O14  1  0.403135  0.902793  0.424717  1
  O  O15  1  0.998701  0.002713  0.815066  1
  O  O16  1  0.997287  0.001299  0.184934  1
  O  O17  1  0.504372  0.496124  0.812131  1
  O  O18  1  0.503876  0.495628  0.187869  1
