# generated using pymatgen
data_Ho2Fe(Co2B)3
_symmetry_space_group_name_H-M   'P 1'
_cell_length_a   5.05118162
_cell_length_b   5.05488387
_cell_length_c   12.62317900
_cell_angle_alpha   90.00061162
_cell_angle_beta   89.99864977
_cell_angle_gamma   120.11017233
_symmetry_Int_Tables_number   1
_chemical_formula_structural   Ho2Fe(Co2B)3
_chemical_formula_sum   'Ho4 Fe2 Co12 B6'
_cell_volume   278.81769175
_cell_formula_units_Z   2
loop_
 _symmetry_equiv_pos_site_id
 _symmetry_equiv_pos_as_xyz
  1  'x, y, z'
loop_
 _atom_site_type_symbol
 _atom_site_label
 _atom_site_symmetry_multiplicity
 _atom_site_fract_x
 _atom_site_fract_y
 _atom_site_fract_z
 _atom_site_occupancy
  Ho  Ho0  1  0.000070  0.999995  0.500135  1
  Ho  Ho1  1  0.000079  0.999991  0.260540  1
  Ho  Ho2  1  0.000072  0.999993  0.739633  1
  Ho  Ho3  1  0.999758  0.000043  0.999896  1
  Fe  Fe4  1  0.332008  0.666279  0.999612  1
  Fe  Fe5  1  0.666911  0.333832  0.999750  1
  Co  Co6  1  0.500012  0.999844  0.384923  1
  Co  Co7  1  0.000222  0.500056  0.384891  1
  Co  Co8  1  0.500006  0.500071  0.384941  1
  Co  Co9  1  0.500029  0.999869  0.615283  1
  Co  Co10  1  0.500030  0.500064  0.615268  1
  Co  Co11  1  0.000204  0.500048  0.615315  1
  Co  Co12  1  0.500094  0.999991  0.155230  1
  Co  Co13  1  0.000026  0.499951  0.155351  1
  Co  Co14  1  0.500059  0.500012  0.155305  1
  Co  Co15  1  0.500125  0.000069  0.844557  1
  Co  Co16  1  0.500084  0.499992  0.844568  1
  Co  Co17  1  0.999958  0.499922  0.844437  1
  B  B18  1  0.333584  0.666693  0.268482  1
  B  B19  1  0.666444  0.333293  0.268414  1
  B  B20  1  0.666398  0.333320  0.731653  1
  B  B21  1  0.333637  0.666687  0.731597  1
  B  B22  1  0.333359  0.666633  0.500105  1
  B  B23  1  0.666730  0.333356  0.500111  1
