# generated using pymatgen
data_MgSc6Co6Sn23
_symmetry_space_group_name_H-M   'P 1'
_cell_length_a   9.55320000
_cell_length_b   9.55320010
_cell_length_c   9.78407300
_cell_angle_alpha   90.00000000
_cell_angle_beta   90.00000000
_cell_angle_gamma   119.99999966
_symmetry_Int_Tables_number   1
_chemical_formula_structural   MgSc6Co6Sn23
_chemical_formula_sum   'Mg1 Sc6 Co6 Sn23'
_cell_volume   773.30009209
_cell_formula_units_Z   1
loop_
 _symmetry_equiv_pos_site_id
 _symmetry_equiv_pos_as_xyz
  1  'x, y, z'
loop_
 _atom_site_type_symbol
 _atom_site_label
 _atom_site_symmetry_multiplicity
 _atom_site_fract_x
 _atom_site_fract_y
 _atom_site_fract_z
 _atom_site_occupancy
  Mg  Mg0  1  0.000000  0.000000  0.000000  1
  Sc  Sc1  1  0.517333  0.482667  0.692472  1
  Sc  Sc2  1  0.517333  0.034664  0.692472  1
  Sc  Sc3  1  0.965336  0.482667  0.692472  1
  Sc  Sc4  1  0.034664  0.517333  0.307528  1
  Sc  Sc5  1  0.482667  0.965336  0.307528  1
  Sc  Sc6  1  0.482667  0.517333  0.307528  1
  Co  Co7  1  0.169922  0.830078  0.800131  1
  Co  Co8  1  0.169922  0.339844  0.800131  1
  Co  Co9  1  0.660156  0.830078  0.800131  1
  Co  Co10  1  0.339844  0.169922  0.199869  1
  Co  Co11  1  0.830078  0.660156  0.199869  1
  Co  Co12  1  0.830078  0.169922  0.199869  1
  Sn  Sn13  1  0.666667  0.333333  0.179401  1
  Sn  Sn14  1  0.666667  0.333333  0.862561  1
  Sn  Sn15  1  0.333333  0.666667  0.137439  1
  Sn  Sn16  1  0.346047  0.346047  0.000000  1
  Sn  Sn17  1  0.000000  0.653953  0.000000  1
  Sn  Sn18  1  0.653953  0.000000  0.000000  1
  Sn  Sn19  1  0.653953  0.653953  0.000000  1
  Sn  Sn20  1  0.333333  0.666667  0.820599  1
  Sn  Sn21  1  0.441386  0.220693  0.454088  1
  Sn  Sn22  1  0.220693  0.779307  0.545912  1
  Sn  Sn23  1  0.220693  0.441386  0.545912  1
  Sn  Sn24  1  0.558614  0.779307  0.545912  1
  Sn  Sn25  1  0.121252  0.878748  0.275187  1
  Sn  Sn26  1  0.779307  0.558614  0.454088  1
  Sn  Sn27  1  0.779307  0.220693  0.454088  1
  Sn  Sn28  1  0.346047  0.000000  0.000000  1
  Sn  Sn29  1  0.121252  0.242503  0.275187  1
  Sn  Sn30  1  0.757497  0.878748  0.275187  1
  Sn  Sn31  1  0.242503  0.121252  0.724813  1
  Sn  Sn32  1  0.878748  0.757497  0.724813  1
  Sn  Sn33  1  0.878748  0.121252  0.724813  1
  Sn  Sn34  1  0.000000  0.000000  0.500000  1
  Sn  Sn35  1  0.000000  0.346047  0.000000  1
