# generated using pymatgen
data_Nd2Si2(Tc5C)3
_symmetry_space_group_name_H-M   'P 1'
_cell_length_a   6.94891514
_cell_length_b   6.94891702
_cell_length_c   6.97395597
_cell_angle_alpha   82.33964200
_cell_angle_beta   82.33963990
_cell_angle_gamma   83.02416377
_symmetry_Int_Tables_number   1
_chemical_formula_structural   Nd2Si2(Tc5C)3
_chemical_formula_sum   'Nd2 Si2 Tc15 C3'
_cell_volume   328.92269893
_cell_formula_units_Z   1
loop_
 _symmetry_equiv_pos_site_id
 _symmetry_equiv_pos_as_xyz
  1  'x, y, z'
loop_
 _atom_site_type_symbol
 _atom_site_label
 _atom_site_symmetry_multiplicity
 _atom_site_fract_x
 _atom_site_fract_y
 _atom_site_fract_z
 _atom_site_occupancy
  Nd  Nd0  1  0.652001  0.652001  0.651548  1
  Nd  Nd1  1  0.347999  0.347999  0.348452  1
  Si  Si2  1  0.500000  0.000000  0.000000  1
  Si  Si3  1  0.000000  0.500000  0.000000  1
  Tc  Tc4  1  0.000000  0.000000  0.500000  1
  Tc  Tc5  1  0.723505  0.276495  0.000000  1
  Tc  Tc6  1  0.003429  0.722338  0.274669  1
  Tc  Tc7  1  0.277662  0.996571  0.725331  1
  Tc  Tc8  1  0.996571  0.277662  0.725331  1
  Tc  Tc9  1  0.722338  0.003429  0.274669  1
  Tc  Tc10  1  0.276495  0.723505  0.000000  1
  Tc  Tc11  1  0.353287  0.859059  0.347050  1
  Tc  Tc12  1  0.342879  0.342879  0.865296  1
  Tc  Tc13  1  0.859059  0.353287  0.347050  1
  Tc  Tc14  1  0.646713  0.140941  0.652950  1
  Tc  Tc15  1  0.657121  0.657121  0.134704  1
  Tc  Tc16  1  0.140941  0.646713  0.652950  1
  Tc  Tc17  1  0.901205  0.901205  0.901868  1
  Tc  Tc18  1  0.098795  0.098795  0.098132  1
  C  C19  1  0.500000  0.500000  0.000000  1
  C  C20  1  0.000000  0.500000  0.500000  1
  C  C21  1  0.500000  0.000000  0.500000  1
