# generated using pymatgen
data_CeNd2(InNi)3
_symmetry_space_group_name_H-M   'P 1'
_cell_length_a   7.52657946
_cell_length_b   7.52640054
_cell_length_c   3.95429800
_cell_angle_alpha   90.00000000
_cell_angle_beta   90.00000000
_cell_angle_gamma   119.49447686
_symmetry_Int_Tables_number   1
_chemical_formula_structural   CeNd2(InNi)3
_chemical_formula_sum   'Ce1 Nd2 In3 Ni3'
_cell_volume   194.97316072
_cell_formula_units_Z   1
loop_
 _symmetry_equiv_pos_site_id
 _symmetry_equiv_pos_as_xyz
  1  'x, y, z'
loop_
 _atom_site_type_symbol
 _atom_site_label
 _atom_site_symmetry_multiplicity
 _atom_site_fract_x
 _atom_site_fract_y
 _atom_site_fract_z
 _atom_site_occupancy
  Ce  Ce0  1  0.415561  0.415581  0.500000  1
  Nd  Nd1  1  0.586634  0.998599  0.500000  1
  Nd  Nd2  1  0.998652  0.586664  0.500000  1
  In  In3  1  0.754198  0.754189  0.000000  1
  In  In4  1  0.248258  0.000371  0.000000  1
  In  In5  1  0.000338  0.248219  0.000000  1
  Ni  Ni6  1  0.005493  0.005479  0.500000  1
  Ni  Ni7  1  0.653288  0.337589  0.000000  1
  Ni  Ni8  1  0.337579  0.653310  0.000000  1
