# generated using pymatgen
data_Dy4Tm4VOs3C8
_symmetry_space_group_name_H-M   'P 1'
_cell_length_a   5.05616800
_cell_length_b   6.51076073
_cell_length_c   9.71787908
_cell_angle_alpha   89.84012240
_cell_angle_beta   90.00000000
_cell_angle_gamma   90.00000000
_symmetry_Int_Tables_number   1
_chemical_formula_structural   Dy4Tm4VOs3C8
_chemical_formula_sum   'Dy4 Tm4 V1 Os3 C8'
_cell_volume   319.90647561
_cell_formula_units_Z   1
loop_
 _symmetry_equiv_pos_site_id
 _symmetry_equiv_pos_as_xyz
  1  'x, y, z'
loop_
 _atom_site_type_symbol
 _atom_site_label
 _atom_site_symmetry_multiplicity
 _atom_site_fract_x
 _atom_site_fract_y
 _atom_site_fract_z
 _atom_site_occupancy
  Dy  Dy0  1  0.250000  0.533282  0.211223  1
  Dy  Dy1  1  0.750000  0.466524  0.781795  1
  Dy  Dy2  1  0.750000  0.972744  0.714701  1
  Dy  Dy3  1  0.250000  0.030220  0.285154  1
  Tm  Tm4  1  0.250000  0.680249  0.558694  1
  Tm  Tm5  1  0.750000  0.324502  0.443781  1
  Tm  Tm6  1  0.750000  0.822849  0.055855  1
  Tm  Tm7  1  0.250000  0.172297  0.941833  1
  V  V8  1  0.250000  0.723639  0.866565  1
  Os  Os9  1  0.750000  0.277563  0.134056  1
  Os  Os10  1  0.750000  0.776816  0.365253  1
  Os  Os11  1  0.250000  0.225686  0.634442  1
  C  C12  1  0.250000  0.458247  0.762919  1
  C  C13  1  0.750000  0.543150  0.241574  1
  C  C14  1  0.750000  0.043522  0.259885  1
  C  C15  1  0.250000  0.955290  0.740340  1
  C  C16  1  0.250000  0.823497  0.051314  1
  C  C17  1  0.750000  0.170589  0.950107  1
  C  C18  1  0.750000  0.672573  0.551965  1
  C  C19  1  0.250000  0.326763  0.448542  1
