# generated using pymatgen
data_Ti13Ga9FeCo7
_symmetry_space_group_name_H-M   'P 1'
_cell_length_a   8.48389917
_cell_length_b   8.48389893
_cell_length_c   8.48389900
_cell_angle_alpha   59.85249151
_cell_angle_beta   59.85249247
_cell_angle_gamma   59.85250421
_symmetry_Int_Tables_number   1
_chemical_formula_structural   Ti13Ga9FeCo7
_chemical_formula_sum   'Ti13 Ga9 Fe1 Co7'
_cell_volume   430.34354357
_cell_formula_units_Z   1
loop_
 _symmetry_equiv_pos_site_id
 _symmetry_equiv_pos_as_xyz
  1  'x, y, z'
loop_
 _atom_site_type_symbol
 _atom_site_label
 _atom_site_symmetry_multiplicity
 _atom_site_fract_x
 _atom_site_fract_y
 _atom_site_fract_z
 _atom_site_occupancy
  Ti  Ti0  1  0.205849  0.205849  0.793339  1
  Ti  Ti1  1  0.793339  0.205849  0.205849  1
  Ti  Ti2  1  0.205849  0.793339  0.205849  1
  Ti  Ti3  1  0.803259  0.803259  0.179157  1
  Ti  Ti4  1  0.179157  0.803259  0.803259  1
  Ti  Ti5  1  0.803259  0.179157  0.803259  1
  Ti  Ti6  1  0.378102  0.378102  0.378102  1
  Ti  Ti7  1  0.379354  0.865777  0.379354  1
  Ti  Ti8  1  0.865777  0.379354  0.379354  1
  Ti  Ti9  1  0.379354  0.379354  0.865777  1
  Ti  Ti10  1  0.842385  0.479007  0.842385  1
  Ti  Ti11  1  0.479007  0.842385  0.842385  1
  Ti  Ti12  1  0.842385  0.842385  0.479007  1
  Ga  Ga13  1  0.154315  0.154315  0.154315  1
  Ga  Ga14  1  0.158959  0.527350  0.158959  1
  Ga  Ga15  1  0.527350  0.158959  0.158959  1
  Ga  Ga16  1  0.158959  0.158959  0.527350  1
  Ga  Ga17  1  0.619351  0.619351  0.619351  1
  Ga  Ga18  1  0.616311  0.149404  0.616311  1
  Ga  Ga19  1  0.149404  0.616311  0.616311  1
  Ga  Ga20  1  0.616311  0.616311  0.149404  1
  Ga  Ga21  1  0.828683  0.828683  0.828683  1
  Fe  Fe22  1  0.003233  0.003233  0.003233  1
  Co  Co23  1  0.004032  0.004032  0.496757  1
  Co  Co24  1  0.496757  0.004032  0.004032  1
  Co  Co25  1  0.004032  0.496757  0.004032  1
  Co  Co26  1  0.500643  0.500643  0.001952  1
  Co  Co27  1  0.001952  0.500643  0.500643  1
  Co  Co28  1  0.500643  0.001952  0.500643  1
  Co  Co29  1  0.501989  0.501989  0.501989  1
