# generated using pymatgen
data_K2GaFeF8
_symmetry_space_group_name_H-M   'P 1'
_cell_length_a   3.97089200
_cell_length_b   6.53647581
_cell_length_c   7.70407400
_cell_angle_alpha   90.15036435
_cell_angle_beta   90.00000000
_cell_angle_gamma   72.31710174
_symmetry_Int_Tables_number   1
_chemical_formula_structural   K2GaFeF8
_chemical_formula_sum   'K2 Ga1 Fe1 F8'
_cell_volume   190.51557517
_cell_formula_units_Z   1
loop_
 _symmetry_equiv_pos_site_id
 _symmetry_equiv_pos_as_xyz
  1  'x, y, z'
loop_
 _atom_site_type_symbol
 _atom_site_label
 _atom_site_symmetry_multiplicity
 _atom_site_fract_x
 _atom_site_fract_y
 _atom_site_fract_z
 _atom_site_occupancy
  K  K0  1  0.728665  0.542671  0.249022  1
  K  K1  1  0.271335  0.457329  0.750978  1
  Ga  Ga2  1  0.000000  0.000000  0.000000  1
  Fe  Fe3  1  0.000000  0.000000  0.499999  1
  F  F4  1  0.499999  0.000000  0.000000  1
  F  F5  1  0.146107  0.707785  0.049592  1
  F  F6  1  0.961548  0.076905  0.247906  1
  F  F7  1  0.149624  0.700750  0.449516  1
  F  F8  1  0.499999  0.000000  0.499999  1
  F  F9  1  0.850377  0.299249  0.550484  1
  F  F10  1  0.038452  0.923095  0.752094  1
  F  F11  1  0.853894  0.292214  0.950408  1
