# generated using pymatgen
data_Cs4Mn3SiS8
_symmetry_space_group_name_H-M   'P 1'
_cell_length_a   5.39781798
_cell_length_b   7.37053118
_cell_length_c   12.56696000
_cell_angle_alpha   88.25491572
_cell_angle_beta   83.58142515
_cell_angle_gamma   79.59030454
_symmetry_Int_Tables_number   1
_chemical_formula_structural   Cs4Mn3SiS8
_chemical_formula_sum   'Cs4 Mn3 Si1 S8'
_cell_volume   488.63541599
_cell_formula_units_Z   1
loop_
 _symmetry_equiv_pos_site_id
 _symmetry_equiv_pos_as_xyz
  1  'x, y, z'
loop_
 _atom_site_type_symbol
 _atom_site_label
 _atom_site_symmetry_multiplicity
 _atom_site_fract_x
 _atom_site_fract_y
 _atom_site_fract_z
 _atom_site_occupancy
  Cs  Cs0  1  0.080596  0.026619  0.672566  1
  Cs  Cs1  1  0.567884  0.527460  0.178693  1
  Cs  Cs2  1  0.421264  0.474143  0.821831  1
  Cs  Cs3  1  0.929272  0.973510  0.327412  1
  Mn  Mn4  1  0.250685  0.498702  0.499469  1
  Mn  Mn5  1  0.749593  0.501159  0.500354  1
  Mn  Mn6  1  0.248962  0.002991  0.000960  1
  Si  Si7  1  0.750903  0.998018  0.999401  1
  S  S8  1  0.952860  0.556804  0.634099  1
  S  S9  1  0.482477  0.060189  0.139425  1
  S  S10  1  0.917266  0.238704  0.960373  1
  S  S11  1  0.451838  0.730194  0.461797  1
  S  S12  1  0.579693  0.937833  0.861036  1
  S  S13  1  0.046511  0.443139  0.365598  1
  S  S14  1  0.549357  0.269708  0.538182  1
  S  S15  1  0.020838  0.760820  0.038802  1
