# generated using pymatgen
data_Ca2CeAl3Si2Pd
_symmetry_space_group_name_H-M   'P 1'
_cell_length_a   6.93340900
_cell_length_b   7.01216571
_cell_length_c   4.34679300
_cell_angle_alpha   90.00000000
_cell_angle_beta   90.00000000
_cell_angle_gamma   119.62914319
_symmetry_Int_Tables_number   1
_chemical_formula_structural   Ca2CeAl3Si2Pd
_chemical_formula_sum   'Ca2 Ce1 Al3 Si2 Pd1'
_cell_volume   183.70011981
_cell_formula_units_Z   1
loop_
 _symmetry_equiv_pos_site_id
 _symmetry_equiv_pos_as_xyz
  1  'x, y, z'
loop_
 _atom_site_type_symbol
 _atom_site_label
 _atom_site_symmetry_multiplicity
 _atom_site_fract_x
 _atom_site_fract_y
 _atom_site_fract_z
 _atom_site_occupancy
  Ca  Ca0  1  0.998894  0.578124  0.500000  1
  Ca  Ca1  1  0.420770  0.421876  0.500000  1
  Ce  Ce2  1  0.577013  0.000000  0.500000  1
  Al  Al3  1  0.995400  0.232426  0.000000  1
  Al  Al4  1  0.762974  0.767574  0.000000  1
  Al  Al5  1  0.236509  0.000000  0.000000  1
  Si  Si6  1  0.338660  0.671221  0.000000  1
  Si  Si7  1  0.667440  0.328779  0.000000  1
  Pd  Pd8  1  0.002339  0.000000  0.500000  1
