# generated using pymatgen
data_Ac6Mg5Cd18S
_symmetry_space_group_name_H-M   'P 1'
_cell_length_a   10.36666371
_cell_length_b   10.31712523
_cell_length_c   10.31394300
_cell_angle_alpha   60.01009684
_cell_angle_beta   60.16791299
_cell_angle_gamma   60.45770862
_symmetry_Int_Tables_number   1
_chemical_formula_structural   Ac6Mg5Cd18S
_chemical_formula_sum   'Ac6 Mg5 Cd18 S1'
_cell_volume   783.74111110
_cell_formula_units_Z   1
loop_
 _symmetry_equiv_pos_site_id
 _symmetry_equiv_pos_as_xyz
  1  'x, y, z'
loop_
 _atom_site_type_symbol
 _atom_site_label
 _atom_site_symmetry_multiplicity
 _atom_site_fract_x
 _atom_site_fract_y
 _atom_site_fract_z
 _atom_site_occupancy
  Ac  Ac0  1  0.790595  0.786166  0.211616  1
  Ac  Ac1  1  0.209435  0.788137  0.211724  1
  Ac  Ac2  1  0.790554  0.211860  0.209293  1
  Ac  Ac3  1  0.209405  0.213834  0.788384  1
  Ac  Ac4  1  0.790565  0.211863  0.788276  1
  Ac  Ac5  1  0.209446  0.788140  0.790707  1
  Mg  Mg6  1  0.000000  0.000000  0.500000  1
  Mg  Mg7  1  0.500000  0.000000  0.500000  1
  Mg  Mg8  1  0.500000  0.500000  0.000000  1
  Mg  Mg9  1  0.500000  0.000000  0.000000  1
  Mg  Mg10  1  0.500000  0.500000  0.500000  1
  Cd  Cd11  1  0.826609  0.830572  0.514035  1
  Cd  Cd12  1  0.825720  0.514997  0.829640  1
  Cd  Cd13  1  0.512777  0.828934  0.829145  1
  Cd  Cd14  1  0.826608  0.830574  0.828786  1
  Cd  Cd15  1  0.173391  0.169428  0.485965  1
  Cd  Cd16  1  0.174280  0.485003  0.170360  1
  Cd  Cd17  1  0.487223  0.171066  0.170855  1
  Cd  Cd18  1  0.173392  0.169426  0.171214  1
  Cd  Cd19  1  0.617830  0.624687  0.134812  1
  Cd  Cd20  1  0.620504  0.135795  0.621848  1
  Cd  Cd21  1  0.136132  0.624866  0.619503  1
  Cd  Cd22  1  0.617829  0.624682  0.622681  1
  Cd  Cd23  1  0.382170  0.375313  0.865188  1
  Cd  Cd24  1  0.379496  0.864205  0.378152  1
  Cd  Cd25  1  0.863868  0.375134  0.380497  1
  Cd  Cd26  1  0.382171  0.375318  0.377319  1
  Cd  Cd27  1  0.000000  0.500000  0.500000  1
  Cd  Cd28  1  0.000000  0.500000  0.000000  1
  S  S29  1  0.000000  0.000000  0.000000  1
