# generated using pymatgen
data_Tb20SnBi7Rh4
_symmetry_space_group_name_H-M   'P 1'
_cell_length_a   8.04661879
_cell_length_b   9.02160917
_cell_length_c   12.47870841
_cell_angle_alpha   90.02659851
_cell_angle_beta   90.04348399
_cell_angle_gamma   90.02989537
_symmetry_Int_Tables_number   1
_chemical_formula_structural   Tb20SnBi7Rh4
_chemical_formula_sum   'Tb20 Sn1 Bi7 Rh4'
_cell_volume   905.87201166
_cell_formula_units_Z   1
loop_
 _symmetry_equiv_pos_site_id
 _symmetry_equiv_pos_as_xyz
  1  'x, y, z'
loop_
 _atom_site_type_symbol
 _atom_site_label
 _atom_site_symmetry_multiplicity
 _atom_site_fract_x
 _atom_site_fract_y
 _atom_site_fract_z
 _atom_site_occupancy
  Tb  Tb0  1  0.841170  0.745989  0.793125  1
  Tb  Tb1  1  0.155271  0.250518  0.204330  1
  Tb  Tb2  1  0.346731  0.253536  0.708314  1
  Tb  Tb3  1  0.655196  0.750776  0.294266  1
  Tb  Tb4  1  0.379101  0.746194  0.696956  1
  Tb  Tb5  1  0.623821  0.249984  0.305453  1
  Tb  Tb6  1  0.869550  0.253618  0.804703  1
  Tb  Tb7  1  0.124445  0.749787  0.195208  1
  Tb  Tb8  1  0.955806  0.750832  0.501699  1
  Tb  Tb9  1  0.046586  0.249290  0.498635  1
  Tb  Tb10  1  0.458285  0.254311  0.995502  1
  Tb  Tb11  1  0.545906  0.745927  0.999732  1
  Tb  Tb12  1  0.679867  0.039796  0.565882  1
  Tb  Tb13  1  0.320871  0.959673  0.434597  1
  Tb  Tb14  1  0.178864  0.961496  0.934543  1
  Tb  Tb15  1  0.320841  0.539107  0.434328  1
  Tb  Tb16  1  0.819600  0.037983  0.065145  1
  Tb  Tb17  1  0.677504  0.461200  0.570057  1
  Tb  Tb18  1  0.819583  0.460501  0.062904  1
  Tb  Tb19  1  0.182827  0.538965  0.933692  1
  Sn  Sn20  1  0.571365  0.493207  0.827782  1
  Bi  Bi21  1  0.427973  0.508066  0.173992  1
  Bi  Bi22  1  0.072509  0.507709  0.672552  1
  Bi  Bi23  1  0.427756  0.992507  0.171712  1
  Bi  Bi24  1  0.927680  0.491838  0.327130  1
  Bi  Bi25  1  0.571672  0.006898  0.827036  1
  Bi  Bi26  1  0.928464  0.008505  0.326243  1
  Bi  Bi27  1  0.071933  0.992423  0.674752  1
  Rh  Rh28  1  0.568611  0.749777  0.510229  1
  Rh  Rh29  1  0.431764  0.249463  0.490605  1
  Rh  Rh30  1  0.065316  0.250044  0.989152  1
  Rh  Rh31  1  0.933134  0.750084  0.009746  1
