# generated using pymatgen
data_Ca14VSb11
_symmetry_space_group_name_H-M   'P 1'
_cell_length_a   16.26331287
_cell_length_b   16.26340926
_cell_length_c   16.26340900
_cell_angle_alpha   93.78490065
_cell_angle_beta   117.83965547
_cell_angle_gamma   117.83965567
_symmetry_Int_Tables_number   1
_chemical_formula_structural   Ca14VSb11
_chemical_formula_sum   'Ca56 V4 Sb44'
_cell_volume   3133.61977201
_cell_formula_units_Z   4
loop_
 _symmetry_equiv_pos_site_id
 _symmetry_equiv_pos_as_xyz
  1  'x, y, z'
loop_
 _atom_site_type_symbol
 _atom_site_label
 _atom_site_symmetry_multiplicity
 _atom_site_fract_x
 _atom_site_fract_y
 _atom_site_fract_z
 _atom_site_occupancy
  Ca  Ca0  1  0.969848  0.254664  0.371980  1
  Ca  Ca1  1  0.354854  0.881227  0.481567  1
  Ca  Ca2  1  0.589509  0.838285  0.566388  1
  Ca  Ca3  1  0.100337  0.473627  0.118773  1
  Ca  Ca4  1  0.228105  0.976880  0.066389  1
  Ca  Ca5  1  0.089507  0.523120  0.751223  1
  Ca  Ca6  1  0.030152  0.745336  0.628020  1
  Ca  Ca7  1  0.882682  0.754658  0.784815  1
  Ca  Ca8  1  0.145143  0.626713  0.526374  1
  Ca  Ca9  1  0.410491  0.161715  0.433612  1
  Ca  Ca10  1  0.600337  0.618773  0.973627  1
  Ca  Ca11  1  0.899662  0.873286  0.018432  1
  Ca  Ca12  1  0.355022  0.250000  0.605024  1
  Ca  Ca13  1  0.645146  0.118773  0.518433  1
  Ca  Ca14  1  0.645143  0.026374  0.126713  1
  Ca  Ca15  1  0.969848  0.215185  0.597869  1
  Ca  Ca16  1  0.855022  0.105024  0.750000  1
  Ca  Ca17  1  0.589507  0.251223  0.023120  1
  Ca  Ca18  1  0.399663  0.381227  0.026373  1
  Ca  Ca19  1  0.530152  0.128020  0.245336  1
  Ca  Ca20  1  0.271895  0.433611  0.523120  1
  Ca  Ca21  1  0.854854  0.981567  0.381227  1
  Ca  Ca22  1  0.271900  0.338283  0.748777  1
  Ca  Ca23  1  0.771900  0.248777  0.838283  1
  Ca  Ca24  1  0.399662  0.518432  0.373286  1
  Ca  Ca25  1  0.382682  0.284815  0.254658  1
  Ca  Ca26  1  0.910491  0.933612  0.661715  1
  Ca  Ca27  1  0.354857  0.973626  0.873287  1
  Ca  Ca28  1  0.100338  0.126714  0.981568  1
  Ca  Ca29  1  0.144978  0.750001  0.894978  1
  Ca  Ca30  1  0.899663  0.526373  0.881227  1
  Ca  Ca31  1  0.728105  0.566389  0.476880  1
  Ca  Ca32  1  0.410493  0.748777  0.976880  1
  Ca  Ca33  1  0.355022  0.605022  0.749999  1
  Ca  Ca34  1  0.882685  0.628022  0.097868  1
  Ca  Ca35  1  0.469848  0.097869  0.715185  1
  Ca  Ca36  1  0.855022  0.249999  0.105022  1
  Ca  Ca37  1  0.854857  0.373287  0.473626  1
  Ca  Ca38  1  0.469848  0.871980  0.754664  1
  Ca  Ca39  1  0.771895  0.023120  0.933611  1
  Ca  Ca40  1  0.617315  0.402132  0.871978  1
  Ca  Ca41  1  0.910493  0.476880  0.248777  1
  Ca  Ca42  1  0.144978  0.894976  0.250000  1
  Ca  Ca43  1  0.644978  0.394978  0.250001  1
  Ca  Ca44  1  0.145146  0.018433  0.618773  1
  Ca  Ca45  1  0.728100  0.661717  0.251223  1
  Ca  Ca46  1  0.530152  0.902131  0.284815  1
  Ca  Ca47  1  0.382685  0.597868  0.128022  1
  Ca  Ca48  1  0.117318  0.245342  0.215185  1
  Ca  Ca49  1  0.030152  0.784815  0.402131  1
  Ca  Ca50  1  0.089509  0.066388  0.338285  1
  Ca  Ca51  1  0.228100  0.751223  0.161717  1
  Ca  Ca52  1  0.117315  0.371978  0.902132  1
  Ca  Ca53  1  0.600338  0.481568  0.626714  1
  Ca  Ca54  1  0.617318  0.715185  0.745342  1
  Ca  Ca55  1  0.644978  0.750000  0.394976  1
  V  V56  1  0.249996  0.624992  0.375009  1
  V  V57  1  0.250004  0.124991  0.875008  1
  V  V58  1  0.749996  0.875009  0.124992  1
  V  V59  1  0.750004  0.375008  0.624991  1
  Sb  Sb60  1  0.108870  0.425556  0.308309  1
  Sb  Sb61  1  0.155648  0.072681  0.177295  1
  Sb  Sb62  1  0.617247  0.800563  0.191688  1
  Sb  Sb63  1  0.750000  0.125000  0.375000  1
  Sb  Sb64  1  0.617245  0.316684  0.425547  1
  Sb  Sb65  1  0.117245  0.925547  0.816684  1
  Sb  Sb66  1  0.250000  0.739973  0.760027  1
  Sb  Sb67  1  0.882755  0.074453  0.183316  1
  Sb  Sb68  1  0.895387  0.822707  0.478355  1
  Sb  Sb69  1  0.604615  0.082967  0.927321  1
  Sb  Sb70  1  0.250000  0.010027  0.489973  1
  Sb  Sb71  1  0.155648  0.582967  0.978354  1
  Sb  Sb72  1  0.108874  0.183310  0.800565  1
  Sb  Sb73  1  0.891130  0.574444  0.691691  1
  Sb  Sb74  1  0.608874  0.300565  0.683310  1
  Sb  Sb75  1  0.604613  0.021645  0.677293  1
  Sb  Sb76  1  0.117247  0.691688  0.300563  1
  Sb  Sb77  1  0.344352  0.322705  0.427319  1
  Sb  Sb78  1  0.608870  0.808309  0.925556  1
  Sb  Sb79  1  0.250000  0.875000  0.625000  1
  Sb  Sb80  1  0.391130  0.191691  0.074444  1
  Sb  Sb81  1  0.104613  0.177293  0.521645  1
  Sb  Sb82  1  0.750000  0.989973  0.510027  1
  Sb  Sb83  1  0.750000  0.260027  0.239973  1
  Sb  Sb84  1  0.382755  0.683316  0.574453  1
  Sb  Sb85  1  0.844352  0.927319  0.822705  1
  Sb  Sb86  1  0.391126  0.699435  0.316690  1
  Sb  Sb87  1  0.479945  0.489973  0.739973  1
  Sb  Sb88  1  0.382753  0.199437  0.808312  1
  Sb  Sb89  1  0.979945  0.239973  0.989973  1
  Sb  Sb90  1  0.844352  0.417033  0.021646  1
  Sb  Sb91  1  0.750000  0.625000  0.875000  1
  Sb  Sb92  1  0.344352  0.521646  0.917033  1
  Sb  Sb93  1  0.104615  0.427321  0.582967  1
  Sb  Sb94  1  0.891126  0.816690  0.199435  1
  Sb  Sb95  1  0.395387  0.978355  0.322707  1
  Sb  Sb96  1  0.895385  0.572679  0.417033  1
  Sb  Sb97  1  0.655648  0.677295  0.572681  1
  Sb  Sb98  1  0.250000  0.375000  0.125000  1
  Sb  Sb99  1  0.882753  0.308312  0.699437  1
  Sb  Sb100  1  0.520055  0.510027  0.260027  1
  Sb  Sb101  1  0.395385  0.917033  0.072679  1
  Sb  Sb102  1  0.020055  0.760027  0.010027  1
  Sb  Sb103  1  0.655648  0.478354  0.082967  1
