# generated using pymatgen
data_Ce3Lu2Ir3
_symmetry_space_group_name_H-M   'P 1'
_cell_length_a   6.43962100
_cell_length_b   8.17730788
_cell_length_c   8.17655612
_cell_angle_alpha   120.00303917
_cell_angle_beta   90.00000000
_cell_angle_gamma   90.00000000
_symmetry_Int_Tables_number   1
_chemical_formula_structural   Ce3Lu2Ir3
_chemical_formula_sum   'Ce6 Lu4 Ir6'
_cell_volume   372.87083052
_cell_formula_units_Z   2
loop_
 _symmetry_equiv_pos_site_id
 _symmetry_equiv_pos_as_xyz
  1  'x, y, z'
loop_
 _atom_site_type_symbol
 _atom_site_label
 _atom_site_symmetry_multiplicity
 _atom_site_fract_x
 _atom_site_fract_y
 _atom_site_fract_z
 _atom_site_occupancy
  Ce  Ce0  1  0.750109  0.255876  0.000000  1
  Ce  Ce1  1  0.749927  0.744344  0.744448  1
  Ce  Ce2  1  0.749927  0.999896  0.255552  1
  Ce  Ce3  1  0.250109  0.744124  0.000000  1
  Ce  Ce4  1  0.249927  0.255656  0.255552  1
  Ce  Ce5  1  0.249927  0.000104  0.744448  1
  Lu  Lu6  1  0.500015  0.333365  0.666717  1
  Lu  Lu7  1  0.500015  0.666648  0.333283  1
  Lu  Lu8  1  0.000015  0.666635  0.333283  1
  Lu  Lu9  1  0.000015  0.333352  0.666717  1
  Ir  Ir10  1  0.749948  0.613530  0.000000  1
  Ir  Ir11  1  0.750029  0.386492  0.386384  1
  Ir  Ir12  1  0.750029  0.000108  0.613616  1
  Ir  Ir13  1  0.249948  0.386470  0.000000  1
  Ir  Ir14  1  0.250030  0.613508  0.613616  1
  Ir  Ir15  1  0.250030  0.999892  0.386384  1
