# generated using pymatgen
data_Y5HfZr2(Co4As3)4
_symmetry_space_group_name_H-M   'P 1'
_cell_length_a   12.73588283
_cell_length_b   12.73588153
_cell_length_c   3.83647700
_cell_angle_alpha   90.00000000
_cell_angle_beta   90.00000000
_cell_angle_gamma   120.04135473
_symmetry_Int_Tables_number   1
_chemical_formula_structural   Y5HfZr2(Co4As3)4
_chemical_formula_sum   'Y5 Hf1 Zr2 Co16 As12'
_cell_volume   538.69155483
_cell_formula_units_Z   1
loop_
 _symmetry_equiv_pos_site_id
 _symmetry_equiv_pos_as_xyz
  1  'x, y, z'
loop_
 _atom_site_type_symbol
 _atom_site_label
 _atom_site_symmetry_multiplicity
 _atom_site_fract_x
 _atom_site_fract_y
 _atom_site_fract_z
 _atom_site_occupancy
  Y  Y0  1  0.182897  0.182897  0.500000  1
  Y  Y1  1  0.817499  0.999885  0.500000  1
  Y  Y2  1  0.999885  0.817499  0.500000  1
  Y  Y3  1  0.333382  0.666707  0.000000  1
  Y  Y4  1  0.666707  0.333382  0.000000  1
  Hf  Hf5  1  0.561313  0.561313  0.000000  1
  Zr  Zr6  1  0.439561  0.000098  0.000000  1
  Zr  Zr7  1  0.000098  0.439561  0.000000  1
  Co  Co8  1  0.718210  0.718210  0.500000  1
  Co  Co9  1  0.280441  0.999884  0.500000  1
  Co  Co10  1  0.999884  0.280441  0.500000  1
  Co  Co11  1  0.177884  0.374040  0.000000  1
  Co  Co12  1  0.625696  0.802239  0.000000  1
  Co  Co13  1  0.196278  0.822465  0.000000  1
  Co  Co14  1  0.802239  0.625696  0.000000  1
  Co  Co15  1  0.822465  0.196278  0.000000  1
  Co  Co16  1  0.374040  0.177884  0.000000  1
  Co  Co17  1  0.358202  0.480120  0.500000  1
  Co  Co18  1  0.520964  0.877073  0.500000  1
  Co  Co19  1  0.122359  0.643205  0.500000  1
  Co  Co20  1  0.877073  0.520964  0.500000  1
  Co  Co21  1  0.643205  0.122359  0.500000  1
  Co  Co22  1  0.480120  0.358202  0.500000  1
  Co  Co23  1  0.000023  0.000023  0.000000  1
  As  As24  1  0.822372  0.822372  0.000000  1
  As  As25  1  0.177700  0.000167  0.000000  1
  As  As26  1  0.000167  0.177700  0.000000  1
  As  As27  1  0.173433  0.481660  0.500000  1
  As  As28  1  0.517902  0.690404  0.500000  1
  As  As29  1  0.308591  0.826789  0.500000  1
  As  As30  1  0.690404  0.517902  0.500000  1
  As  As31  1  0.826789  0.308591  0.500000  1
  As  As32  1  0.481660  0.173433  0.500000  1
  As  As33  1  0.352762  0.352762  0.000000  1
  As  As34  1  0.648277  0.999522  0.000000  1
  As  As35  1  0.999522  0.648277  0.000000  1
