# generated using pymatgen
data_YEr3Ga5Tc3
_symmetry_space_group_name_H-M   'P 1'
_cell_length_a   5.46658917
_cell_length_b   5.51876880
_cell_length_c   8.68953242
_cell_angle_alpha   90.00000228
_cell_angle_beta   89.96939002
_cell_angle_gamma   120.31626479
_symmetry_Int_Tables_number   1
_chemical_formula_structural   YEr3Ga5Tc3
_chemical_formula_sum   'Y1 Er3 Ga5 Tc3'
_cell_volume   226.30424609
_cell_formula_units_Z   1
loop_
 _symmetry_equiv_pos_site_id
 _symmetry_equiv_pos_as_xyz
  1  'x, y, z'
loop_
 _atom_site_type_symbol
 _atom_site_label
 _atom_site_symmetry_multiplicity
 _atom_site_fract_x
 _atom_site_fract_y
 _atom_site_fract_z
 _atom_site_occupancy
  Y  Y0  1  0.333888  0.666945  0.443044  1
  Er  Er1  1  0.662541  0.331270  0.552422  1
  Er  Er2  1  0.662646  0.331323  0.947722  1
  Er  Er3  1  0.334533  0.667267  0.056349  1
  Ga  Ga4  1  0.835506  0.164803  0.249835  1
  Ga  Ga5  1  0.835506  0.670704  0.249835  1
  Ga  Ga6  1  0.326381  0.163191  0.249883  1
  Ga  Ga7  1  0.189166  0.841359  0.750206  1
  Ga  Ga8  1  0.189166  0.347807  0.750206  1
  Tc  Tc9  1  0.975816  0.987908  0.510443  1
  Tc  Tc10  1  0.975469  0.987735  0.989833  1
  Tc  Tc11  1  0.679380  0.839690  0.750222  1
