# generated using pymatgen
data_Ce4ThU(Cu3Sn4)2
_symmetry_space_group_name_H-M   'P 1'
_cell_length_a   8.40444709
_cell_length_b   8.40444748
_cell_length_c   8.40444784
_cell_angle_alpha   109.40656911
_cell_angle_beta   109.40655793
_cell_angle_gamma   109.60061543
_symmetry_Int_Tables_number   1
_chemical_formula_structural   Ce4ThU(Cu3Sn4)2
_chemical_formula_sum   'Ce4 Th1 U1 Cu6 Sn8'
_cell_volume   456.98709125
_cell_formula_units_Z   1
loop_
 _symmetry_equiv_pos_site_id
 _symmetry_equiv_pos_as_xyz
  1  'x, y, z'
loop_
 _atom_site_type_symbol
 _atom_site_label
 _atom_site_symmetry_multiplicity
 _atom_site_fract_x
 _atom_site_fract_y
 _atom_site_fract_z
 _atom_site_occupancy
  Ce  Ce0  1  0.875388  0.252153  0.123288  1
  Ce  Ce1  1  0.628864  0.752099  0.376712  1
  Ce  Ce2  1  0.247901  0.124612  0.876765  1
  Ce  Ce3  1  0.747847  0.371136  0.623235  1
  Th  Th4  1  0.125000  0.875000  0.250000  1
  U  U5  1  0.375000  0.625000  0.750000  1
  Cu  Cu6  1  0.375224  0.253447  0.629265  1
  Cu  Cu7  1  0.124182  0.745959  0.870735  1
  Cu  Cu8  1  0.254041  0.624776  0.378222  1
  Cu  Cu9  1  0.746553  0.875818  0.121778  1
  Cu  Cu10  1  0.625000  0.375000  0.250000  1
  Cu  Cu11  1  0.875000  0.125000  0.750000  1
  Sn  Sn12  1  0.660686  0.500861  0.998435  1
  Sn  Sn13  1  0.500100  0.998240  0.668098  1
  Sn  Sn14  1  0.002426  0.662251  0.501565  1
  Sn  Sn15  1  0.830142  0.832002  0.831902  1
  Sn  Sn16  1  0.499139  0.997574  0.159825  1
  Sn  Sn17  1  0.167998  0.499900  0.998140  1
  Sn  Sn18  1  0.001760  0.169858  0.501860  1
  Sn  Sn19  1  0.337749  0.339314  0.340175  1
