# generated using pymatgen
data_La7Pr(PBr6)2
_symmetry_space_group_name_H-M   'P 1'
_cell_length_a   4.27042500
_cell_length_b   13.67146289
_cell_length_c   14.54664600
_cell_angle_alpha   89.39749206
_cell_angle_beta   90.00000000
_cell_angle_gamma   90.00000000
_symmetry_Int_Tables_number   1
_chemical_formula_structural   La7Pr(PBr6)2
_chemical_formula_sum   'La7 Pr1 P2 Br12'
_cell_volume   849.22925047
_cell_formula_units_Z   1
loop_
 _symmetry_equiv_pos_site_id
 _symmetry_equiv_pos_as_xyz
  1  'x, y, z'
loop_
 _atom_site_type_symbol
 _atom_site_label
 _atom_site_symmetry_multiplicity
 _atom_site_fract_x
 _atom_site_fract_y
 _atom_site_fract_z
 _atom_site_occupancy
  La  La0  1  0.500000  0.121912  0.337720  1
  La  La1  1  0.500000  0.880750  0.659126  1
  La  La2  1  0.500000  0.616592  0.160349  1
  La  La3  1  0.500000  0.378966  0.842612  1
  La  La4  1  0.000000  0.117248  0.576443  1
  La  La5  1  0.000000  0.883527  0.422011  1
  La  La6  1  0.000000  0.616580  0.922664  1
  Pr  Pr7  1  0.000000  0.386424  0.075294  1
  P  P8  1  0.500000  0.001038  0.498270  1
  P  P9  1  0.500000  0.500967  0.999310  1
  Br  Br10  1  0.500000  0.249529  0.161990  1
  Br  Br11  1  0.500000  0.755548  0.838646  1
  Br  Br12  1  0.500000  0.742809  0.338016  1
  Br  Br13  1  0.500000  0.255618  0.663081  1
  Br  Br14  1  0.000000  0.259029  0.410594  1
  Br  Br15  1  0.000000  0.741970  0.588752  1
  Br  Br16  1  0.000000  0.756132  0.089007  1
  Br  Br17  1  0.000000  0.241269  0.917993  1
  Br  Br18  1  0.000000  0.003038  0.240389  1
  Br  Br19  1  0.000000  0.998533  0.757860  1
  Br  Br20  1  0.000000  0.494749  0.256850  1
  Br  Br21  1  0.000000  0.497768  0.743021  1
