# generated using pymatgen
data_Er7Lu(TcBr4)2
_symmetry_space_group_name_H-M   'P 1'
_cell_length_a   8.90713209
_cell_length_b   8.93166642
_cell_length_c   6.55124683
_cell_angle_alpha   89.38235021
_cell_angle_beta   89.50441304
_cell_angle_gamma   89.18452238
_symmetry_Int_Tables_number   1
_chemical_formula_structural   Er7Lu(TcBr4)2
_chemical_formula_sum   'Er7 Lu1 Tc2 Br8'
_cell_volume   521.08604908
_cell_formula_units_Z   1
loop_
 _symmetry_equiv_pos_site_id
 _symmetry_equiv_pos_as_xyz
  1  'x, y, z'
loop_
 _atom_site_type_symbol
 _atom_site_label
 _atom_site_symmetry_multiplicity
 _atom_site_fract_x
 _atom_site_fract_y
 _atom_site_fract_z
 _atom_site_occupancy
  Er  Er0  1  0.752858  0.098165  0.988275  1
  Er  Er1  1  0.099000  0.753017  0.488915  1
  Er  Er2  1  0.902272  0.246457  0.511660  1
  Er  Er3  1  0.753650  0.903430  0.508185  1
  Er  Er4  1  0.247203  0.095680  0.492715  1
  Er  Er5  1  0.097105  0.245865  0.992654  1
  Er  Er6  1  0.903392  0.753657  0.008224  1
  Lu  Lu7  1  0.243242  0.902920  0.012700  1
  Tc  Tc8  1  0.993992  0.005869  0.250352  1
  Tc  Tc9  1  0.006553  0.993526  0.750971  1
  Br  Br10  1  0.419917  0.817470  0.406617  1
  Br  Br11  1  0.580460  0.183472  0.589646  1
  Br  Br12  1  0.183890  0.581344  0.089685  1
  Br  Br13  1  0.817151  0.419476  0.910256  1
  Br  Br14  1  0.414909  0.188739  0.092866  1
  Br  Br15  1  0.583277  0.811672  0.905965  1
  Br  Br16  1  0.810441  0.585174  0.407726  1
  Br  Br17  1  0.190687  0.414064  0.592588  1
