# generated using pymatgen
data_Cs3Rb3(GdI6)2
_symmetry_space_group_name_H-M   'P 1'
_cell_length_a   10.59152500
_cell_length_b   10.56950151
_cell_length_c   8.80085500
_cell_angle_alpha   90.00000000
_cell_angle_beta   90.00000000
_cell_angle_gamma   90.06360295
_symmetry_Int_Tables_number   1
_chemical_formula_structural   Cs3Rb3(GdI6)2
_chemical_formula_sum   'Cs3 Rb3 Gd2 I12'
_cell_volume   985.22993541
_cell_formula_units_Z   1
loop_
 _symmetry_equiv_pos_site_id
 _symmetry_equiv_pos_as_xyz
  1  'x, y, z'
loop_
 _atom_site_type_symbol
 _atom_site_label
 _atom_site_symmetry_multiplicity
 _atom_site_fract_x
 _atom_site_fract_y
 _atom_site_fract_z
 _atom_site_occupancy
  Cs  Cs0  1  0.766882  0.417909  0.500000  1
  Cs  Cs1  1  0.416306  0.233673  0.000000  1
  Cs  Cs2  1  0.582998  0.766981  0.000000  1
  Rb  Rb3  1  0.000792  0.000072  0.500000  1
  Rb  Rb4  1  0.000501  0.000225  0.000000  1
  Rb  Rb5  1  0.232481  0.579445  0.500000  1
  Gd  Gd6  1  0.497902  0.000718  0.500000  1
  Gd  Gd7  1  0.001703  0.500059  0.000000  1
  I  I8  1  0.700737  0.055208  0.743833  1
  I  I9  1  0.297721  0.944989  0.745421  1
  I  I10  1  0.948889  0.700310  0.247392  1
  I  I11  1  0.057133  0.299529  0.245493  1
  I  I12  1  0.297721  0.944989  0.254579  1
  I  I13  1  0.700737  0.055208  0.256167  1
  I  I14  1  0.057133  0.299529  0.754507  1
  I  I15  1  0.948889  0.700310  0.752608  1
  I  I16  1  0.560866  0.718114  0.500000  1
  I  I17  1  0.427820  0.281662  0.500000  1
  I  I18  1  0.280351  0.570107  0.000000  1
  I  I19  1  0.722440  0.430964  0.000000  1
