# generated using pymatgen
data_Lu4Cu3Pt
_symmetry_space_group_name_H-M   'P 1'
_cell_length_a   4.42862100
_cell_length_b   5.35056919
_cell_length_c   6.89783613
_cell_angle_alpha   90.40471647
_cell_angle_beta   90.00000000
_cell_angle_gamma   90.00000000
_symmetry_Int_Tables_number   1
_chemical_formula_structural   Lu4Cu3Pt
_chemical_formula_sum   'Lu4 Cu3 Pt1'
_cell_volume   163.44458532
_cell_formula_units_Z   1
loop_
 _symmetry_equiv_pos_site_id
 _symmetry_equiv_pos_as_xyz
  1  'x, y, z'
loop_
 _atom_site_type_symbol
 _atom_site_label
 _atom_site_symmetry_multiplicity
 _atom_site_fract_x
 _atom_site_fract_y
 _atom_site_fract_z
 _atom_site_occupancy
  Lu  Lu0  1  0.250000  0.358436  0.686835  1
  Lu  Lu1  1  0.250000  0.145197  0.178705  1
  Lu  Lu2  1  0.750000  0.636113  0.318311  1
  Lu  Lu3  1  0.750000  0.860117  0.817051  1
  Cu  Cu4  1  0.250000  0.869088  0.526320  1
  Cu  Cu5  1  0.250000  0.645446  0.043996  1
  Cu  Cu6  1  0.750000  0.127206  0.465439  1
  Pt  Pt7  1  0.750000  0.358397  0.963342  1
