# generated using pymatgen
data_Yb3DyCd2(GaPt2)2
_symmetry_space_group_name_H-M   'P 1'
_cell_length_a   4.24015900
_cell_length_b   7.12504465
_cell_length_c   8.34302690
_cell_angle_alpha   92.51834086
_cell_angle_beta   90.00000000
_cell_angle_gamma   90.00000000
_symmetry_Int_Tables_number   1
_chemical_formula_structural   Yb3DyCd2(GaPt2)2
_chemical_formula_sum   'Yb3 Dy1 Cd2 Ga2 Pt4'
_cell_volume   251.81044195
_cell_formula_units_Z   1
loop_
 _symmetry_equiv_pos_site_id
 _symmetry_equiv_pos_as_xyz
  1  'x, y, z'
loop_
 _atom_site_type_symbol
 _atom_site_label
 _atom_site_symmetry_multiplicity
 _atom_site_fract_x
 _atom_site_fract_y
 _atom_site_fract_z
 _atom_site_occupancy
  Yb  Yb0  1  0.250000  0.465951  0.183934  1
  Yb  Yb1  1  0.750000  0.533724  0.815546  1
  Yb  Yb2  1  0.750000  0.036585  0.678653  1
  Dy  Dy3  1  0.250000  0.961276  0.324232  1
  Cd  Cd4  1  0.250000  0.855132  0.932331  1
  Cd  Cd5  1  0.750000  0.147846  0.063678  1
  Ga  Ga6  1  0.750000  0.641004  0.437404  1
  Ga  Ga7  1  0.250000  0.353561  0.563518  1
  Pt  Pt8  1  0.250000  0.727604  0.601392  1
  Pt  Pt9  1  0.750000  0.268964  0.395537  1
  Pt  Pt10  1  0.750000  0.755666  0.149236  1
  Pt  Pt11  1  0.250000  0.252687  0.854537  1
