# generated using pymatgen
data_Ho4Hf2Sn5
_symmetry_space_group_name_H-M   'P 1'
_cell_length_a   11.33036739
_cell_length_b   11.33036660
_cell_length_c   11.33036612
_cell_angle_alpha   148.44940379
_cell_angle_beta   131.83356716
_cell_angle_gamma   58.72491150
_symmetry_Int_Tables_number   1
_chemical_formula_structural   Ho4Hf2Sn5
_chemical_formula_sum   'Ho8 Hf4 Sn10'
_cell_volume   562.54600953
_cell_formula_units_Z   2
loop_
 _symmetry_equiv_pos_site_id
 _symmetry_equiv_pos_as_xyz
  1  'x, y, z'
loop_
 _atom_site_type_symbol
 _atom_site_label
 _atom_site_symmetry_multiplicity
 _atom_site_fract_x
 _atom_site_fract_y
 _atom_site_fract_z
 _atom_site_occupancy
  Ho  Ho0  1  0.672543  0.439472  0.233071  1
  Ho  Ho1  1  0.327457  0.560528  0.766929  1
  Ho  Ho2  1  0.206402  0.939472  0.266929  1
  Ho  Ho3  1  0.793598  0.060528  0.733071  1
  Ho  Ho4  1  0.258846  0.145349  0.113496  1
  Ho  Ho5  1  0.741154  0.854651  0.886504  1
  Ho  Ho6  1  0.031851  0.645349  0.386504  1
  Ho  Ho7  1  0.968149  0.354651  0.613496  1
  Hf  Hf8  1  0.305441  0.555441  0.250000  1
  Hf  Hf9  1  0.694559  0.444559  0.750000  1
  Hf  Hf10  1  0.694559  0.944559  0.250000  1
  Hf  Hf11  1  0.305441  0.055441  0.750000  1
  Sn  Sn12  1  0.589603  0.289587  0.300016  1
  Sn  Sn13  1  0.410397  0.710413  0.699984  1
  Sn  Sn14  1  0.989571  0.789587  0.199984  1
  Sn  Sn15  1  0.010429  0.210413  0.800016  1
  Sn  Sn16  1  0.000000  0.250000  0.250000  1
  Sn  Sn17  1  0.000000  0.750000  0.750000  1
  Sn  Sn18  1  0.478260  0.076922  0.401337  1
  Sn  Sn19  1  0.521740  0.923078  0.598663  1
  Sn  Sn20  1  0.675585  0.576922  0.098663  1
  Sn  Sn21  1  0.324415  0.423078  0.901337  1
