# generated using pymatgen
data_TaTi2CrSi3Ru2
_symmetry_space_group_name_H-M   'P 1'
_cell_length_a   7.39982132
_cell_length_b   7.39982019
_cell_length_c   7.39982032
_cell_angle_alpha   127.45020319
_cell_angle_beta   124.36087514
_cell_angle_gamma   80.06823879
_symmetry_Int_Tables_number   1
_chemical_formula_structural   TaTi2CrSi3Ru2
_chemical_formula_sum   'Ta2 Ti4 Cr2 Si6 Ru4'
_cell_volume   256.37515847
_cell_formula_units_Z   2
loop_
 _symmetry_equiv_pos_site_id
 _symmetry_equiv_pos_as_xyz
  1  'x, y, z'
loop_
 _atom_site_type_symbol
 _atom_site_label
 _atom_site_symmetry_multiplicity
 _atom_site_fract_x
 _atom_site_fract_y
 _atom_site_fract_z
 _atom_site_occupancy
  Ta  Ta0  1  0.745183  0.073524  0.828341  1
  Ta  Ta1  1  0.254817  0.083158  0.328341  1
  Ti  Ti2  1  0.939683  0.896728  0.457046  1
  Ti  Ti3  1  0.060317  0.517363  0.957046  1
  Ti  Ti4  1  0.535664  0.511092  0.475428  1
  Ti  Ti5  1  0.464336  0.939763  0.975428  1
  Cr  Cr6  1  0.500000  0.757753  0.257753  1
  Cr  Cr7  1  0.000000  0.757753  0.757753  1
  Si  Si8  1  0.722435  0.467194  0.244758  1
  Si  Si9  1  0.277565  0.522323  0.744758  1
  Si  Si10  1  0.677959  0.175666  0.512699  1
  Si  Si11  1  0.322041  0.834739  0.497706  1
  Si  Si12  1  0.162966  0.175666  0.997706  1
  Si  Si13  1  0.837034  0.834739  0.012699  1
  Ru  Ru14  1  0.907185  0.250716  0.411638  1
  Ru  Ru15  1  0.092815  0.504454  0.343531  1
  Ru  Ru16  1  0.339077  0.250716  0.843531  1
  Ru  Ru17  1  0.660923  0.504454  0.911638  1
