# generated using pymatgen
data_Ac3DyAu5
_symmetry_space_group_name_H-M   'P 1'
_cell_length_a   8.53153538
_cell_length_b   8.53153524
_cell_length_c   8.53153611
_cell_angle_alpha   65.92351596
_cell_angle_beta   65.92351362
_cell_angle_gamma   65.92349820
_symmetry_Int_Tables_number   1
_chemical_formula_structural   Ac3DyAu5
_chemical_formula_sum   'Ac6 Dy2 Au10'
_cell_volume   495.43086804
_cell_formula_units_Z   2
loop_
 _symmetry_equiv_pos_site_id
 _symmetry_equiv_pos_as_xyz
  1  'x, y, z'
loop_
 _atom_site_type_symbol
 _atom_site_label
 _atom_site_symmetry_multiplicity
 _atom_site_fract_x
 _atom_site_fract_y
 _atom_site_fract_z
 _atom_site_occupancy
  Ac  Ac0  1  0.890953  0.186321  0.624112  1
  Ac  Ac1  1  0.624112  0.890953  0.186321  1
  Ac  Ac2  1  0.186321  0.624112  0.890953  1
  Ac  Ac3  1  0.109047  0.813679  0.375888  1
  Ac  Ac4  1  0.375888  0.109047  0.813679  1
  Ac  Ac5  1  0.813679  0.375888  0.109047  1
  Dy  Dy6  1  0.657286  0.657286  0.657286  1
  Dy  Dy7  1  0.342714  0.342714  0.342714  1
  Au  Au8  1  0.000000  0.000000  0.000000  1
  Au  Au9  1  0.500000  0.500000  0.500000  1
  Au  Au10  1  0.802512  0.802512  0.802512  1
  Au  Au11  1  0.197488  0.197488  0.197488  1
  Au  Au12  1  0.941826  0.546621  0.324778  1
  Au  Au13  1  0.324778  0.941826  0.546621  1
  Au  Au14  1  0.546621  0.324778  0.941826  1
  Au  Au15  1  0.058174  0.453379  0.675222  1
  Au  Au16  1  0.675222  0.058174  0.453379  1
  Au  Au17  1  0.453379  0.675222  0.058174  1
