# generated using pymatgen
data_TiVSiRh5
_symmetry_space_group_name_H-M   'P 1'
_cell_length_a   3.95813300
_cell_length_b   5.38316271
_cell_length_c   10.46004237
_cell_angle_alpha   90.09163470
_cell_angle_beta   90.00000000
_cell_angle_gamma   90.00000000
_symmetry_Int_Tables_number   1
_chemical_formula_structural   TiVSiRh5
_chemical_formula_sum   'Ti2 V2 Si2 Rh10'
_cell_volume   222.87470336
_cell_formula_units_Z   2
loop_
 _symmetry_equiv_pos_site_id
 _symmetry_equiv_pos_as_xyz
  1  'x, y, z'
loop_
 _atom_site_type_symbol
 _atom_site_label
 _atom_site_symmetry_multiplicity
 _atom_site_fract_x
 _atom_site_fract_y
 _atom_site_fract_z
 _atom_site_occupancy
  Ti  Ti0  1  0.500000  0.169948  0.640666  1
  Ti  Ti1  1  0.500000  0.830052  0.359334  1
  V  V2  1  0.500000  0.668696  0.855240  1
  V  V3  1  0.500000  0.331304  0.144760  1
  Si  Si4  1  0.000000  0.500000  0.500000  1
  Si  Si5  1  0.000000  0.000000  0.000000  1
  Rh  Rh6  1  0.500000  0.320409  0.392047  1
  Rh  Rh7  1  0.500000  0.679591  0.607953  1
  Rh  Rh8  1  0.500000  0.809659  0.100625  1
  Rh  Rh9  1  0.500000  0.190341  0.899375  1
  Rh  Rh10  1  0.000000  0.420633  0.741534  1
  Rh  Rh11  1  0.000000  0.579367  0.258466  1
  Rh  Rh12  1  0.000000  0.913407  0.766827  1
  Rh  Rh13  1  0.000000  0.086593  0.233173  1
  Rh  Rh14  1  0.000000  0.500000  0.000000  1
  Rh  Rh15  1  0.000000  0.000000  0.500000  1
