# generated using pymatgen
data_Dy2Ho6VOs3C8
_symmetry_space_group_name_H-M   'P 1'
_cell_length_a   5.08199500
_cell_length_b   6.50776155
_cell_length_c   9.78382500
_cell_angle_alpha   89.82460456
_cell_angle_beta   90.00000000
_cell_angle_gamma   90.00000000
_symmetry_Int_Tables_number   1
_chemical_formula_structural   Dy2Ho6VOs3C8
_chemical_formula_sum   'Dy2 Ho6 V1 Os3 C8'
_cell_volume   323.57317194
_cell_formula_units_Z   1
loop_
 _symmetry_equiv_pos_site_id
 _symmetry_equiv_pos_as_xyz
  1  'x, y, z'
loop_
 _atom_site_type_symbol
 _atom_site_label
 _atom_site_symmetry_multiplicity
 _atom_site_fract_x
 _atom_site_fract_y
 _atom_site_fract_z
 _atom_site_occupancy
  Dy  Dy0  1  0.750000  0.468162  0.780380  1
  Dy  Dy1  1  0.750000  0.972585  0.715993  1
  Ho  Ho2  1  0.250000  0.682866  0.557549  1
  Ho  Ho3  1  0.750000  0.321366  0.444333  1
  Ho  Ho4  1  0.750000  0.819784  0.054855  1
  Ho  Ho5  1  0.250000  0.175704  0.942811  1
  Ho  Ho6  1  0.250000  0.533202  0.213289  1
  Ho  Ho7  1  0.250000  0.029493  0.283555  1
  V  V8  1  0.250000  0.723012  0.866572  1
  Os  Os9  1  0.750000  0.278054  0.134725  1
  Os  Os10  1  0.750000  0.777333  0.364226  1
  Os  Os11  1  0.250000  0.225323  0.634869  1
  C  C12  1  0.250000  0.458642  0.762234  1
  C  C13  1  0.750000  0.542645  0.242212  1
  C  C14  1  0.750000  0.043321  0.259077  1
  C  C15  1  0.250000  0.956413  0.741450  1
  C  C16  1  0.250000  0.819648  0.051251  1
  C  C17  1  0.750000  0.174100  0.951475  1
  C  C18  1  0.750000  0.675497  0.550374  1
  C  C19  1  0.250000  0.322855  0.448771  1
