# generated using pymatgen
data_Tm6HfZr3(Sn3O)2
_symmetry_space_group_name_H-M   'P 1'
_cell_length_a   8.68032400
_cell_length_b   8.68032428
_cell_length_c   5.98062000
_cell_angle_alpha   90.00000000
_cell_angle_beta   90.00000000
_cell_angle_gamma   119.99999130
_symmetry_Int_Tables_number   1
_chemical_formula_structural   Tm6HfZr3(Sn3O)2
_chemical_formula_sum   'Tm6 Hf1 Zr3 Sn6 O2'
_cell_volume   390.25525918
_cell_formula_units_Z   1
loop_
 _symmetry_equiv_pos_site_id
 _symmetry_equiv_pos_as_xyz
  1  'x, y, z'
loop_
 _atom_site_type_symbol
 _atom_site_label
 _atom_site_symmetry_multiplicity
 _atom_site_fract_x
 _atom_site_fract_y
 _atom_site_fract_z
 _atom_site_occupancy
  Tm  Tm0  1  0.000035  0.773657  0.749940  1
  Tm  Tm1  1  0.000035  0.226378  0.250060  1
  Tm  Tm2  1  0.226343  0.226378  0.749940  1
  Tm  Tm3  1  0.226343  0.999965  0.250060  1
  Tm  Tm4  1  0.773622  0.773657  0.250060  1
  Tm  Tm5  1  0.773622  0.999965  0.749940  1
  Hf  Hf6  1  0.333333  0.666667  0.000000  1
  Zr  Zr7  1  0.333333  0.666667  0.500000  1
  Zr  Zr8  1  0.666667  0.333333  0.000000  1
  Zr  Zr9  1  0.666667  0.333333  0.500000  1
  Sn  Sn10  1  0.000654  0.596528  0.249237  1
  Sn  Sn11  1  0.000654  0.404126  0.750763  1
  Sn  Sn12  1  0.403472  0.404126  0.249237  1
  Sn  Sn13  1  0.595874  0.596528  0.750763  1
  Sn  Sn14  1  0.403472  0.999346  0.750763  1
  Sn  Sn15  1  0.595874  0.999346  0.249237  1
  O  O16  1  0.000000  0.000000  0.000000  1
  O  O17  1  0.000000  0.000000  0.500000  1
