# generated using pymatgen
data_Er2Lu3In4AgPt
_symmetry_space_group_name_H-M   'P 1'
_cell_length_a   3.63463700
_cell_length_b   8.08443529
_cell_length_c   18.10274882
_cell_angle_alpha   89.89424083
_cell_angle_beta   90.00000000
_cell_angle_gamma   90.00000000
_symmetry_Int_Tables_number   1
_chemical_formula_structural   Er2Lu3In4AgPt
_chemical_formula_sum   'Er4 Lu6 In8 Ag2 Pt2'
_cell_volume   531.93004116
_cell_formula_units_Z   2
loop_
 _symmetry_equiv_pos_site_id
 _symmetry_equiv_pos_as_xyz
  1  'x, y, z'
loop_
 _atom_site_type_symbol
 _atom_site_label
 _atom_site_symmetry_multiplicity
 _atom_site_fract_x
 _atom_site_fract_y
 _atom_site_fract_z
 _atom_site_occupancy
  Er  Er0  1  0.000000  0.276648  0.721025  1
  Er  Er1  1  0.000000  0.723352  0.278975  1
  Er  Er2  1  0.000000  0.000000  0.000000  1
  Er  Er3  1  0.000000  0.500000  0.500000  1
  Lu  Lu4  1  0.000000  0.119802  0.420746  1
  Lu  Lu5  1  0.000000  0.880198  0.579254  1
  Lu  Lu6  1  0.000000  0.384476  0.915416  1
  Lu  Lu7  1  0.000000  0.615524  0.084584  1
  Lu  Lu8  1  0.000000  0.257351  0.213802  1
  Lu  Lu9  1  0.000000  0.742649  0.786198  1
  In  In10  1  0.500000  0.413265  0.352029  1
  In  In11  1  0.500000  0.586735  0.647971  1
  In  In12  1  0.500000  0.077713  0.851713  1
  In  In13  1  0.500000  0.922287  0.148287  1
  In  In14  1  0.500000  0.293508  0.063432  1
  In  In15  1  0.500000  0.706492  0.936568  1
  In  In16  1  0.500000  0.207595  0.567707  1
  In  In17  1  0.500000  0.792405  0.432293  1
  Ag  Ag18  1  0.500000  0.029294  0.301604  1
  Ag  Ag19  1  0.500000  0.970706  0.698396  1
  Pt  Pt20  1  0.500000  0.476623  0.805186  1
  Pt  Pt21  1  0.500000  0.523377  0.194814  1
