# generated using pymatgen
data_Ho4Ga4Ir3Pd
_symmetry_space_group_name_H-M   'P 1'
_cell_length_a   4.35020700
_cell_length_b   6.82035987
_cell_length_c   7.77546891
_cell_angle_alpha   90.08262660
_cell_angle_beta   90.00000000
_cell_angle_gamma   90.00000000
_symmetry_Int_Tables_number   1
_chemical_formula_structural   Ho4Ga4Ir3Pd
_chemical_formula_sum   'Ho4 Ga4 Ir3 Pd1'
_cell_volume   230.69774588
_cell_formula_units_Z   1
loop_
 _symmetry_equiv_pos_site_id
 _symmetry_equiv_pos_as_xyz
  1  'x, y, z'
loop_
 _atom_site_type_symbol
 _atom_site_label
 _atom_site_symmetry_multiplicity
 _atom_site_fract_x
 _atom_site_fract_y
 _atom_site_fract_z
 _atom_site_occupancy
  Ho  Ho0  1  0.250000  0.030779  0.809892  1
  Ho  Ho1  1  0.250000  0.520722  0.684809  1
  Ho  Ho2  1  0.750000  0.980544  0.195064  1
  Ho  Ho3  1  0.750000  0.477979  0.310791  1
  Ga  Ga4  1  0.250000  0.156714  0.429623  1
  Ga  Ga5  1  0.250000  0.655428  0.070090  1
  Ga  Ga6  1  0.750000  0.844820  0.568051  1
  Ga  Ga7  1  0.750000  0.338046  0.930162  1
  Ir  Ir8  1  0.250000  0.766796  0.390196  1
  Ir  Ir9  1  0.250000  0.267306  0.109098  1
  Ir  Ir10  1  0.750000  0.231930  0.610383  1
  Pd  Pd11  1  0.750000  0.728936  0.891842  1
