# generated using pymatgen
data_Mg3ScMn2(B2Rh5)2
_symmetry_space_group_name_H-M   'P 1'
_cell_length_a   9.43624033
_cell_length_b   9.43624033
_cell_length_c   2.97118700
_cell_angle_alpha   90.00000000
_cell_angle_beta   90.00000000
_cell_angle_gamma   89.66082393
_symmetry_Int_Tables_number   1
_chemical_formula_structural   Mg3ScMn2(B2Rh5)2
_chemical_formula_sum   'Mg3 Sc1 Mn2 B4 Rh10'
_cell_volume   264.55767406
_cell_formula_units_Z   1
loop_
 _symmetry_equiv_pos_site_id
 _symmetry_equiv_pos_as_xyz
  1  'x, y, z'
loop_
 _atom_site_type_symbol
 _atom_site_label
 _atom_site_symmetry_multiplicity
 _atom_site_fract_x
 _atom_site_fract_y
 _atom_site_fract_z
 _atom_site_occupancy
  Mg  Mg0  1  0.176920  0.324241  0.000000  1
  Mg  Mg1  1  0.824240  0.676920  0.000000  1
  Mg  Mg2  1  0.321297  0.821296  0.000000  1
  Sc  Sc3  1  0.675620  0.175620  0.000000  1
  Mn  Mn4  1  0.001578  0.999476  0.000000  1
  Mn  Mn5  1  0.499476  0.501578  0.000000  1
  B  B6  1  0.373632  0.126541  0.000000  1
  B  B7  1  0.876889  0.376888  0.000000  1
  B  B8  1  0.126009  0.626010  0.000000  1
  B  B9  1  0.626542  0.873633  0.000000  1
  Rh  Rh10  1  0.498897  0.998897  0.500001  1
  Rh  Rh11  1  0.218017  0.071187  0.500001  1
  Rh  Rh12  1  0.927786  0.217561  0.500001  1
  Rh  Rh13  1  0.430995  0.281731  0.500001  1
  Rh  Rh14  1  0.717562  0.427786  0.500001  1
  Rh  Rh15  1  0.999927  0.499927  0.500001  1
  Rh  Rh16  1  0.281885  0.569816  0.500001  1
  Rh  Rh17  1  0.571188  0.718018  0.500001  1
  Rh  Rh18  1  0.069815  0.781886  0.500001  1
  Rh  Rh19  1  0.781732  0.930995  0.500001  1
