# generated using pymatgen
data_Sr3ErLu4(Si3Pd)4
_symmetry_space_group_name_H-M   'P 1'
_cell_length_a   8.24596700
_cell_length_b   8.25560151
_cell_length_c   8.20867300
_cell_angle_alpha   90.00000000
_cell_angle_beta   90.00000000
_cell_angle_gamma   119.96139855
_symmetry_Int_Tables_number   1
_chemical_formula_structural   Sr3ErLu4(Si3Pd)4
_chemical_formula_sum   'Sr3 Er1 Lu4 Si12 Pd4'
_cell_volume   484.13078467
_cell_formula_units_Z   1
loop_
 _symmetry_equiv_pos_site_id
 _symmetry_equiv_pos_as_xyz
  1  'x, y, z'
loop_
 _atom_site_type_symbol
 _atom_site_label
 _atom_site_symmetry_multiplicity
 _atom_site_fract_x
 _atom_site_fract_y
 _atom_site_fract_z
 _atom_site_occupancy
  Sr  Sr0  1  0.497044  0.994090  0.750000  1
  Sr  Sr1  1  0.006057  0.502957  0.750000  1
  Sr  Sr2  1  0.496898  0.502957  0.750000  1
  Er  Er3  1  0.503514  0.007027  0.250000  1
  Lu  Lu4  1  0.993241  0.496755  0.250000  1
  Lu  Lu5  1  0.503515  0.496755  0.250000  1
  Lu  Lu6  1  0.999925  0.999848  0.250000  1
  Lu  Lu7  1  0.000053  0.000109  0.750000  1
  Si  Si8  1  0.163838  0.327676  0.014734  1
  Si  Si9  1  0.837102  0.674201  0.011768  1
  Si  Si10  1  0.672280  0.836004  0.014581  1
  Si  Si11  1  0.837102  0.674201  0.488232  1
  Si  Si12  1  0.325648  0.162934  0.011888  1
  Si  Si13  1  0.163838  0.327676  0.485266  1
  Si  Si14  1  0.163724  0.836004  0.014581  1
  Si  Si15  1  0.325648  0.162934  0.488112  1
  Si  Si16  1  0.837287  0.162934  0.011888  1
  Si  Si17  1  0.672280  0.836004  0.485419  1
  Si  Si18  1  0.837287  0.162934  0.488112  1
  Si  Si19  1  0.163724  0.836004  0.485419  1
  Pd  Pd20  1  0.332955  0.665911  0.048318  1
  Pd  Pd21  1  0.667044  0.334087  0.027441  1
  Pd  Pd22  1  0.667044  0.334087  0.472559  1
  Pd  Pd23  1  0.332955  0.665911  0.451682  1
