# generated using pymatgen
data_Zr(Mn2P)2
_symmetry_space_group_name_H-M   'P 1'
_cell_length_a   6.86690400
_cell_length_b   6.86690400
_cell_length_c   3.66777900
_cell_angle_alpha   90.00000000
_cell_angle_beta   90.00000000
_cell_angle_gamma   90.00000000
_symmetry_Int_Tables_number   1
_chemical_formula_structural   Zr(Mn2P)2
_chemical_formula_sum   'Zr2 Mn8 P4'
_cell_volume   172.95181004
_cell_formula_units_Z   2
loop_
 _symmetry_equiv_pos_site_id
 _symmetry_equiv_pos_as_xyz
  1  'x, y, z'
loop_
 _atom_site_type_symbol
 _atom_site_label
 _atom_site_symmetry_multiplicity
 _atom_site_fract_x
 _atom_site_fract_y
 _atom_site_fract_z
 _atom_site_occupancy
  Zr  Zr0  1  0.500000  0.500000  0.000000  1
  Zr  Zr1  1  0.000000  0.000000  0.500000  1
  Mn  Mn2  1  0.584475  0.154219  0.500000  1
  Mn  Mn3  1  0.415525  0.845781  0.500000  1
  Mn  Mn4  1  0.084475  0.345781  0.000000  1
  Mn  Mn5  1  0.915525  0.654219  0.000000  1
  Mn  Mn6  1  0.154219  0.584475  0.500000  1
  Mn  Mn7  1  0.845781  0.415525  0.500000  1
  Mn  Mn8  1  0.345781  0.084475  0.000000  1
  Mn  Mn9  1  0.654219  0.915525  0.000000  1
  P  P10  1  0.715174  0.715174  0.500000  1
  P  P11  1  0.284826  0.284826  0.500000  1
  P  P12  1  0.215174  0.784826  0.000000  1
  P  P13  1  0.784826  0.215174  0.000000  1
