# generated using pymatgen
data_ErUSbN2
_symmetry_space_group_name_H-M   'P 1'
_cell_length_a   6.69685325
_cell_length_b   6.69685279
_cell_length_c   6.69685225
_cell_angle_alpha   146.10947308
_cell_angle_beta   146.10946776
_cell_angle_gamma   48.68419196
_symmetry_Int_Tables_number   1
_chemical_formula_structural   ErUSbN2
_chemical_formula_sum   'Er1 U1 Sb1 N2'
_cell_volume   92.98022454
_cell_formula_units_Z   1
loop_
 _symmetry_equiv_pos_site_id
 _symmetry_equiv_pos_as_xyz
  1  'x, y, z'
loop_
 _atom_site_type_symbol
 _atom_site_label
 _atom_site_symmetry_multiplicity
 _atom_site_fract_x
 _atom_site_fract_y
 _atom_site_fract_z
 _atom_site_occupancy
  Er  Er0  1  0.340927  0.340927  0.000000  1
  U  U1  1  0.667634  0.667634  0.000000  1
  Sb  Sb2  1  0.006551  0.006551  0.000000  1
  N  N3  1  0.742444  0.242444  0.500000  1
  N  N4  1  0.242444  0.742444  0.500000  1
