# generated using pymatgen
data_Fe2Si4HW6
_symmetry_space_group_name_H-M   'P 1'
_cell_length_a   7.72834430
_cell_length_b   7.72834502
_cell_length_c   7.72834400
_cell_angle_alpha   59.99999581
_cell_angle_beta   59.99999272
_cell_angle_gamma   59.99999577
_symmetry_Int_Tables_number   1
_chemical_formula_structural   Fe2Si4HW6
_chemical_formula_sum   'Fe4 Si8 H2 W12'
_cell_volume   326.39564805
_cell_formula_units_Z   2
loop_
 _symmetry_equiv_pos_site_id
 _symmetry_equiv_pos_as_xyz
  1  'x, y, z'
loop_
 _atom_site_type_symbol
 _atom_site_label
 _atom_site_symmetry_multiplicity
 _atom_site_fract_x
 _atom_site_fract_y
 _atom_site_fract_z
 _atom_site_occupancy
  Fe  Fe0  1  0.125000  0.125000  0.625000  1
  Fe  Fe1  1  0.125000  0.625000  0.125000  1
  Fe  Fe2  1  0.125000  0.125000  0.125000  1
  Fe  Fe3  1  0.625000  0.125000  0.125000  1
  Si  Si4  1  0.915622  0.253135  0.915622  1
  Si  Si5  1  0.334378  0.996865  0.334378  1
  Si  Si6  1  0.334378  0.334378  0.334378  1
  Si  Si7  1  0.996865  0.334378  0.334378  1
  Si  Si8  1  0.915622  0.915622  0.253135  1
  Si  Si9  1  0.253135  0.915622  0.915622  1
  Si  Si10  1  0.334378  0.334378  0.996865  1
  Si  Si11  1  0.915622  0.915622  0.915622  1
  H  H12  1  0.750000  0.750000  0.750000  1
  H  H13  1  0.500000  0.500000  0.500000  1
  W  W14  1  0.310278  0.689722  0.689722  1
  W  W15  1  0.310278  0.310278  0.689722  1
  W  W16  1  0.560278  0.939722  0.560278  1
  W  W17  1  0.939722  0.560278  0.560278  1
  W  W18  1  0.560278  0.939722  0.939722  1
  W  W19  1  0.689722  0.310278  0.310278  1
  W  W20  1  0.939722  0.560278  0.939722  1
  W  W21  1  0.310278  0.689722  0.310278  1
  W  W22  1  0.560278  0.560278  0.939722  1
  W  W23  1  0.689722  0.310278  0.689722  1
  W  W24  1  0.689722  0.689722  0.310278  1
  W  W25  1  0.939722  0.939722  0.560278  1
