# generated using pymatgen
data_Ce8Zn3Si12Pt
_symmetry_space_group_name_H-M   'P 1'
_cell_length_a   8.19470300
_cell_length_b   8.19470364
_cell_length_c   8.44547800
_cell_angle_alpha   90.00000000
_cell_angle_beta   90.00000000
_cell_angle_gamma   119.99999339
_symmetry_Int_Tables_number   1
_chemical_formula_structural   Ce8Zn3Si12Pt
_chemical_formula_sum   'Ce8 Zn3 Si12 Pt1'
_cell_volume   491.15816210
_cell_formula_units_Z   1
loop_
 _symmetry_equiv_pos_site_id
 _symmetry_equiv_pos_as_xyz
  1  'x, y, z'
loop_
 _atom_site_type_symbol
 _atom_site_label
 _atom_site_symmetry_multiplicity
 _atom_site_fract_x
 _atom_site_fract_y
 _atom_site_fract_z
 _atom_site_occupancy
  Ce  Ce0  1  0.000000  0.000000  0.250322  1
  Ce  Ce1  1  0.000000  0.000000  0.749699  1
  Ce  Ce2  1  0.499187  0.500813  0.249386  1
  Ce  Ce3  1  0.499187  0.998372  0.249386  1
  Ce  Ce4  1  0.001628  0.500813  0.249386  1
  Ce  Ce5  1  0.498739  0.501261  0.750600  1
  Ce  Ce6  1  0.498739  0.997479  0.750600  1
  Ce  Ce7  1  0.002521  0.501261  0.750600  1
  Zn  Zn8  1  0.333333  0.666667  0.498338  1
  Zn  Zn9  1  0.666667  0.333333  0.501919  1
  Zn  Zn10  1  0.666667  0.333333  0.999066  1
  Si  Si11  1  0.165793  0.834207  0.500497  1
  Si  Si12  1  0.165793  0.331587  0.500497  1
  Si  Si13  1  0.668413  0.834207  0.500497  1
  Si  Si14  1  0.833903  0.166097  0.499650  1
  Si  Si15  1  0.833903  0.667805  0.499650  1
  Si  Si16  1  0.332195  0.166097  0.499650  1
  Si  Si17  1  0.834508  0.165492  0.999747  1
  Si  Si18  1  0.834508  0.669014  0.999747  1
  Si  Si19  1  0.330986  0.165492  0.999747  1
  Si  Si20  1  0.165238  0.834762  0.000184  1
  Si  Si21  1  0.165238  0.330477  0.000184  1
  Si  Si22  1  0.669523  0.834762  0.000184  1
  Pt  Pt23  1  0.333333  0.666667  0.000465  1
