# generated using pymatgen
data_Nd8Tm7Sc5Bi12
_symmetry_space_group_name_H-M   'P 1'
_cell_length_a   8.19248120
_cell_length_b   9.40758665
_cell_length_c   12.23172638
_cell_angle_alpha   89.95729880
_cell_angle_beta   90.09302452
_cell_angle_gamma   89.94782758
_symmetry_Int_Tables_number   1
_chemical_formula_structural   Nd8Tm7Sc5Bi12
_chemical_formula_sum   'Nd8 Tm7 Sc5 Bi12'
_cell_volume   942.71531907
_cell_formula_units_Z   1
loop_
 _symmetry_equiv_pos_site_id
 _symmetry_equiv_pos_as_xyz
  1  'x, y, z'
loop_
 _atom_site_type_symbol
 _atom_site_label
 _atom_site_symmetry_multiplicity
 _atom_site_fract_x
 _atom_site_fract_y
 _atom_site_fract_z
 _atom_site_occupancy
  Nd  Nd0  1  0.351287  0.247941  0.283127  1
  Nd  Nd1  1  0.646469  0.749740  0.716033  1
  Nd  Nd2  1  0.146779  0.748866  0.784682  1
  Nd  Nd3  1  0.853314  0.249642  0.215127  1
  Nd  Nd4  1  0.182786  0.249379  0.778997  1
  Nd  Nd5  1  0.816820  0.749560  0.220946  1
  Nd  Nd6  1  0.317324  0.750600  0.278659  1
  Nd  Nd7  1  0.682332  0.249423  0.722115  1
  Tm  Tm8  1  0.805683  0.934237  0.943112  1
  Tm  Tm9  1  0.304615  0.933864  0.556922  1
  Tm  Tm10  1  0.806934  0.566265  0.943968  1
  Tm  Tm11  1  0.694880  0.065917  0.442855  1
  Tm  Tm12  1  0.194211  0.435150  0.056870  1
  Tm  Tm13  1  0.694902  0.433589  0.442911  1
  Tm  Tm14  1  0.305112  0.566352  0.557274  1
  Sc  Sc15  1  0.023805  0.249721  0.511037  1
  Sc  Sc16  1  0.975989  0.749816  0.488015  1
  Sc  Sc17  1  0.476312  0.750346  0.011452  1
  Sc  Sc18  1  0.522052  0.248283  0.989458  1
  Sc  Sc19  1  0.196055  0.069008  0.055361  1
  Bi  Bi20  1  0.401303  0.250165  0.542003  1
  Bi  Bi21  1  0.598879  0.749695  0.457609  1
  Bi  Bi22  1  0.101269  0.757535  0.043420  1
  Bi  Bi23  1  0.904536  0.248066  0.958568  1
  Bi  Bi24  1  0.063638  0.003837  0.336433  1
  Bi  Bi25  1  0.935997  0.995517  0.662566  1
  Bi  Bi26  1  0.434861  0.995579  0.838535  1
  Bi  Bi27  1  0.935878  0.503619  0.662636  1
  Bi  Bi28  1  0.561871  0.004083  0.161736  1
  Bi  Bi29  1  0.064170  0.495693  0.336642  1
  Bi  Bi30  1  0.563598  0.495107  0.162897  1
  Bi  Bi31  1  0.436340  0.503409  0.838036  1
