# generated using pymatgen
data_DyEr11In2(CoTc)2
_symmetry_space_group_name_H-M   'P 1'
_cell_length_a   8.38725171
_cell_length_b   8.38546036
_cell_length_c   8.38725013
_cell_angle_alpha   112.89794728
_cell_angle_beta   111.03649311
_cell_angle_gamma   104.60083715
_symmetry_Int_Tables_number   1
_chemical_formula_structural   DyEr11In2(CoTc)2
_chemical_formula_sum   'Dy1 Er11 In2 Co2 Tc2'
_cell_volume   451.47918315
_cell_formula_units_Z   1
loop_
 _symmetry_equiv_pos_site_id
 _symmetry_equiv_pos_as_xyz
  1  'x, y, z'
loop_
 _atom_site_type_symbol
 _atom_site_label
 _atom_site_symmetry_multiplicity
 _atom_site_fract_x
 _atom_site_fract_y
 _atom_site_fract_z
 _atom_site_occupancy
  Dy  Dy0  1  0.673062  0.992642  0.319579  1
  Er  Er1  1  0.444418  0.244270  0.200459  1
  Er  Er2  1  0.555355  0.755956  0.799225  1
  Er  Er3  1  0.043811  0.244270  0.799850  1
  Er  Er4  1  0.956731  0.755956  0.200603  1
  Er  Er5  1  0.185512  0.287872  0.473179  1
  Er  Er6  1  0.814784  0.712019  0.526995  1
  Er  Er7  1  0.185023  0.712019  0.897234  1
  Er  Er8  1  0.814694  0.287872  0.102360  1
  Er  Er9  1  0.326850  0.647088  0.320238  1
  Er  Er10  1  0.672915  0.353062  0.680147  1
  Er  Er11  1  0.327076  0.006884  0.679809  1
  In  In12  1  0.499896  0.499780  0.999884  1
  In  In13  1  0.999960  0.999959  0.999998  1
  Co  Co14  1  0.110578  0.610542  0.499964  1
  Co  Co15  1  0.889695  0.389888  0.500193  1
  Tc  Tc16  1  0.322037  0.999959  0.322359  1
  Tc  Tc17  1  0.677601  0.999959  0.677922  1
