# generated using pymatgen
data_Y3Sn3Ir2Pt
_symmetry_space_group_name_H-M   'P 1'
_cell_length_a   7.57750800
_cell_length_b   7.57750750
_cell_length_c   3.91685600
_cell_angle_alpha   90.00000000
_cell_angle_beta   90.00000000
_cell_angle_gamma   119.99998473
_symmetry_Int_Tables_number   1
_chemical_formula_structural   Y3Sn3Ir2Pt
_chemical_formula_sum   'Y3 Sn3 Ir2 Pt1'
_cell_volume   194.76955956
_cell_formula_units_Z   1
loop_
 _symmetry_equiv_pos_site_id
 _symmetry_equiv_pos_as_xyz
  1  'x, y, z'
loop_
 _atom_site_type_symbol
 _atom_site_label
 _atom_site_symmetry_multiplicity
 _atom_site_fract_x
 _atom_site_fract_y
 _atom_site_fract_z
 _atom_site_occupancy
  Y  Y0  1  0.408781  0.402181  0.500000  1
  Y  Y1  1  0.597819  0.006600  0.500000  1
  Y  Y2  1  0.993400  0.591219  0.500000  1
  Sn  Sn3  1  0.742351  0.739593  0.000000  1
  Sn  Sn4  1  0.260407  0.002758  0.000000  1
  Sn  Sn5  1  0.997242  0.257649  0.000000  1
  Ir  Ir6  1  0.666667  0.333333  0.000000  1
  Ir  Ir7  1  0.000000  0.000000  0.500000  1
  Pt  Pt8  1  0.333333  0.666667  0.000000  1
