# generated using pymatgen
data_Ce2Dy14Mg3ZnCo4
_symmetry_space_group_name_H-M   'P 1'
_cell_length_a   9.38363684
_cell_length_b   9.62428891
_cell_length_c   9.62428773
_cell_angle_alpha   58.96435732
_cell_angle_beta   61.32008177
_cell_angle_gamma   61.32007461
_symmetry_Int_Tables_number   1
_chemical_formula_structural   Ce2Dy14Mg3ZnCo4
_chemical_formula_sum   'Ce2 Dy14 Mg3 Zn1 Co4'
_cell_volume   621.34915420
_cell_formula_units_Z   1
loop_
 _symmetry_equiv_pos_site_id
 _symmetry_equiv_pos_as_xyz
  1  'x, y, z'
loop_
 _atom_site_type_symbol
 _atom_site_label
 _atom_site_symmetry_multiplicity
 _atom_site_fract_x
 _atom_site_fract_y
 _atom_site_fract_z
 _atom_site_occupancy
  Ce  Ce0  1  0.818326  0.181850  0.181850  1
  Ce  Ce1  1  0.179706  0.818054  0.818054  1
  Dy  Dy2  1  0.188302  0.811373  0.187919  1
  Dy  Dy3  1  0.809014  0.191896  0.809787  1
  Dy  Dy4  1  0.188302  0.187919  0.811373  1
  Dy  Dy5  1  0.809014  0.809787  0.191896  1
  Dy  Dy6  1  0.919818  0.574759  0.574759  1
  Dy  Dy7  1  0.575713  0.924192  0.924192  1
  Dy  Dy8  1  0.557981  0.934751  0.558737  1
  Dy  Dy9  1  0.939236  0.559026  0.941910  1
  Dy  Dy10  1  0.557981  0.558737  0.934751  1
  Dy  Dy11  1  0.939236  0.941910  0.559026  1
  Dy  Dy12  1  0.335530  0.347056  0.347056  1
  Dy  Dy13  1  0.348726  0.334631  0.967471  1
  Dy  Dy14  1  0.348726  0.967471  0.334631  1
  Dy  Dy15  1  0.969528  0.348992  0.348992  1
  Mg  Mg16  1  0.580011  0.582448  0.266493  1
  Mg  Mg17  1  0.580011  0.266493  0.582448  1
  Mg  Mg18  1  0.268937  0.579510  0.579510  1
  Zn  Zn19  1  0.589516  0.580135  0.580135  1
  Co  Co20  1  0.092611  0.155877  0.155877  1
  Co  Co21  1  0.154503  0.092805  0.595093  1
  Co  Co22  1  0.154503  0.595093  0.092805  1
  Co  Co23  1  0.594771  0.155236  0.155236  1
