# generated using pymatgen
data_PuUSN2
_symmetry_space_group_name_H-M   'P 1'
_cell_length_a   3.75017000
_cell_length_b   3.75017094
_cell_length_c   6.43896100
_cell_angle_alpha   90.00000000
_cell_angle_beta   90.00000000
_cell_angle_gamma   120.00000932
_symmetry_Int_Tables_number   1
_chemical_formula_structural   PuUSN2
_chemical_formula_sum   'Pu1 U1 S1 N2'
_cell_volume   78.42389449
_cell_formula_units_Z   1
loop_
 _symmetry_equiv_pos_site_id
 _symmetry_equiv_pos_as_xyz
  1  'x, y, z'
loop_
 _atom_site_type_symbol
 _atom_site_label
 _atom_site_symmetry_multiplicity
 _atom_site_fract_x
 _atom_site_fract_y
 _atom_site_fract_z
 _atom_site_occupancy
  Pu  Pu0  1  0.666667  0.333333  0.723977  1
  U  U1  1  0.333333  0.666667  0.286262  1
  S  S2  1  0.000000  0.000000  0.998997  1
  N  N3  1  0.333333  0.666667  0.623208  1
  N  N4  1  0.666667  0.333333  0.367556  1
