# generated using pymatgen
data_La10Cd(HgRu2)3
_symmetry_space_group_name_H-M   'P 1'
_cell_length_a   8.83427678
_cell_length_b   8.74746497
_cell_length_c   8.74746500
_cell_angle_alpha   109.26932059
_cell_angle_beta   109.67237950
_cell_angle_gamma   109.67238099
_symmetry_Int_Tables_number   1
_chemical_formula_structural   La10Cd(HgRu2)3
_chemical_formula_sum   'La10 Cd1 Hg3 Ru6'
_cell_volume   519.07403271
_cell_formula_units_Z   1
loop_
 _symmetry_equiv_pos_site_id
 _symmetry_equiv_pos_as_xyz
  1  'x, y, z'
loop_
 _atom_site_type_symbol
 _atom_site_label
 _atom_site_symmetry_multiplicity
 _atom_site_fract_x
 _atom_site_fract_y
 _atom_site_fract_z
 _atom_site_occupancy
  La  La0  1  0.786162  0.000000  0.000000  1
  La  La1  1  0.249312  0.314588  0.062976  1
  La  La2  1  0.712483  0.712432  0.212152  1
  La  La3  1  0.186335  0.937024  0.251612  1
  La  La4  1  0.000052  0.499722  0.287569  1
  La  La5  1  0.750938  0.186439  0.437826  1
  La  La6  1  0.500332  0.787850  0.500280  1
  La  La7  1  0.934723  0.748388  0.685412  1
  La  La8  1  0.313111  0.562174  0.748613  1
  La  La9  1  0.564498  0.251387  0.813560  1
  Cd  Cd10  1  0.409966  0.000000  0.000000  1
  Hg  Hg11  1  0.500139  0.409998  0.499008  1
  Hg  Hg12  1  0.090141  0.089008  0.590002  1
  Hg  Hg13  1  0.001131  0.500992  0.910992  1
  Ru  Ru14  1  0.393030  0.751553  0.141939  1
  Ru  Ru15  1  0.641475  0.390386  0.248447  1
  Ru  Ru16  1  0.108804  0.253191  0.358136  1
  Ru  Ru17  1  0.251090  0.858061  0.609615  1
  Ru  Ru18  1  0.855612  0.104945  0.746809  1
  Ru  Ru19  1  0.750668  0.641864  0.895055  1
