# generated using pymatgen
data_Dy10CdIn7Ni4
_symmetry_space_group_name_H-M   'P 1'
_cell_length_a   3.55976200
_cell_length_b   8.05426781
_cell_length_c   17.98818079
_cell_angle_alpha   89.94870089
_cell_angle_beta   90.00000000
_cell_angle_gamma   90.00000000
_symmetry_Int_Tables_number   1
_chemical_formula_structural   Dy10CdIn7Ni4
_chemical_formula_sum   'Dy10 Cd1 In7 Ni4'
_cell_volume   515.74389840
_cell_formula_units_Z   1
loop_
 _symmetry_equiv_pos_site_id
 _symmetry_equiv_pos_as_xyz
  1  'x, y, z'
loop_
 _atom_site_type_symbol
 _atom_site_label
 _atom_site_symmetry_multiplicity
 _atom_site_fract_x
 _atom_site_fract_y
 _atom_site_fract_z
 _atom_site_occupancy
  Dy  Dy0  1  0.500000  0.382760  0.587745  1
  Dy  Dy1  1  0.500000  0.882980  0.911855  1
  Dy  Dy2  1  0.500000  0.113753  0.088336  1
  Dy  Dy3  1  0.500000  0.755197  0.721275  1
  Dy  Dy4  1  0.500000  0.254523  0.778421  1
  Dy  Dy5  1  0.500000  0.500535  0.000590  1
  Dy  Dy6  1  0.500000  0.747897  0.220261  1
  Dy  Dy7  1  0.500000  0.244341  0.278938  1
  Dy  Dy8  1  0.500000  0.999739  0.499887  1
  Dy  Dy9  1  0.500000  0.616931  0.411702  1
  Cd  Cd10  1  0.000000  0.792533  0.069335  1
  In  In11  1  0.000000  0.926807  0.348006  1
  In  In12  1  0.000000  0.073073  0.652101  1
  In  In13  1  0.000000  0.573115  0.848193  1
  In  In14  1  0.000000  0.705681  0.568892  1
  In  In15  1  0.000000  0.205796  0.930863  1
  In  In16  1  0.000000  0.293998  0.431068  1
  In  In17  1  0.000000  0.428132  0.151879  1
  Ni  Ni18  1  0.000000  0.977632  0.803797  1
  Ni  Ni19  1  0.000000  0.522721  0.303905  1
  Ni  Ni20  1  0.000000  0.476253  0.696077  1
  Ni  Ni21  1  0.000000  0.025602  0.196876  1
