# generated using pymatgen
data_TbTm4(MnB3)2
_symmetry_space_group_name_H-M   'P 1'
_cell_length_a   5.39464852
_cell_length_b   5.39464821
_cell_length_c   8.16404049
_cell_angle_alpha   70.70749950
_cell_angle_beta   70.70749609
_cell_angle_gamma   60.00001123
_symmetry_Int_Tables_number   1
_chemical_formula_structural   TbTm4(MnB3)2
_chemical_formula_sum   'Tb1 Tm4 Mn2 B6'
_cell_volume   190.19842489
_cell_formula_units_Z   1
loop_
 _symmetry_equiv_pos_site_id
 _symmetry_equiv_pos_as_xyz
  1  'x, y, z'
loop_
 _atom_site_type_symbol
 _atom_site_label
 _atom_site_symmetry_multiplicity
 _atom_site_fract_x
 _atom_site_fract_y
 _atom_site_fract_z
 _atom_site_occupancy
  Tb  Tb0  1  0.000000  0.000000  0.000000  1
  Tm  Tm1  1  0.250040  0.250040  0.249879  1
  Tm  Tm2  1  0.749960  0.749960  0.750121  1
  Tm  Tm3  1  0.416874  0.416874  0.749380  1
  Tm  Tm4  1  0.583126  0.583126  0.250620  1
  Mn  Mn5  1  0.113408  0.113408  0.659775  1
  Mn  Mn6  1  0.886592  0.886592  0.340225  1
  B  B7  1  0.167137  0.832863  0.500000  1
  B  B8  1  0.832863  0.500000  0.500000  1
  B  B9  1  0.500000  0.167137  0.500000  1
  B  B10  1  0.167137  0.500000  0.500000  1
  B  B11  1  0.500000  0.832863  0.500000  1
  B  B12  1  0.832863  0.167137  0.500000  1
