# generated using pymatgen
data_Dy3Lu14(ZrIr4)3
_symmetry_space_group_name_H-M   'P 1'
_cell_length_a   10.69861694
_cell_length_b   10.71565156
_cell_length_c   6.20294955
_cell_angle_alpha   89.94747023
_cell_angle_beta   89.93864882
_cell_angle_gamma   89.94072714
_symmetry_Int_Tables_number   1
_chemical_formula_structural   Dy3Lu14(ZrIr4)3
_chemical_formula_sum   'Dy3 Lu14 Zr3 Ir12'
_cell_volume   711.12149624
_cell_formula_units_Z   1
loop_
 _symmetry_equiv_pos_site_id
 _symmetry_equiv_pos_as_xyz
  1  'x, y, z'
loop_
 _atom_site_type_symbol
 _atom_site_label
 _atom_site_symmetry_multiplicity
 _atom_site_fract_x
 _atom_site_fract_y
 _atom_site_fract_z
 _atom_site_occupancy
  Dy  Dy0  1  0.912415  0.289558  0.631810  1
  Dy  Dy1  1  0.087054  0.711651  0.632674  1
  Dy  Dy2  1  0.088306  0.288522  0.130580  1
  Lu  Lu3  1  0.291709  0.083404  0.370998  1
  Lu  Lu4  1  0.291593  0.915708  0.873125  1
  Lu  Lu5  1  0.708369  0.084419  0.870871  1
  Lu  Lu6  1  0.709067  0.914740  0.369353  1
  Lu  Lu7  1  0.586667  0.790840  0.872411  1
  Lu  Lu8  1  0.584666  0.208570  0.370927  1
  Lu  Lu9  1  0.415376  0.791206  0.370448  1
  Lu  Lu10  1  0.413150  0.209274  0.871615  1
  Lu  Lu11  1  0.209050  0.415019  0.629732  1
  Lu  Lu12  1  0.209404  0.587983  0.129621  1
  Lu  Lu13  1  0.790348  0.413944  0.129578  1
  Lu  Lu14  1  0.790868  0.586722  0.630940  1
  Lu  Lu15  1  0.912888  0.710332  0.129618  1
  Lu  Lu16  1  0.500543  0.500345  0.499871  1
  Zr  Zr17  1  0.999248  0.999785  0.494543  1
  Zr  Zr18  1  0.999098  0.998506  0.995606  1
  Zr  Zr19  1  0.499984  0.500294  0.000210  1
  Ir  Ir20  1  0.849452  0.145208  0.248036  1
  Ir  Ir21  1  0.850642  0.852585  0.747041  1
  Ir  Ir22  1  0.148966  0.145605  0.744056  1
  Ir  Ir23  1  0.148454  0.853281  0.246875  1
  Ir  Ir24  1  0.647280  0.346779  0.759797  1
  Ir  Ir25  1  0.653726  0.649063  0.242673  1
  Ir  Ir26  1  0.349294  0.350517  0.244964  1
  Ir  Ir27  1  0.352992  0.653589  0.759157  1
  Ir  Ir28  1  0.500275  0.999955  0.117013  1
  Ir  Ir29  1  0.500114  0.999769  0.616772  1
  Ir  Ir30  1  0.999587  0.501399  0.885865  1
  Ir  Ir31  1  0.999416  0.501428  0.383216  1
