# generated using pymatgen
data_Er16Ag3Rh4Pb
_symmetry_space_group_name_H-M   'P 1'
_cell_length_a   9.51325072
_cell_length_b   9.46290257
_cell_length_c   9.51325000
_cell_angle_alpha   59.82384244
_cell_angle_beta   60.00000249
_cell_angle_gamma   59.82384160
_symmetry_Int_Tables_number   1
_chemical_formula_structural   Er16Ag3Rh4Pb
_chemical_formula_sum   'Er16 Ag3 Rh4 Pb1'
_cell_volume   603.95658471
_cell_formula_units_Z   1
loop_
 _symmetry_equiv_pos_site_id
 _symmetry_equiv_pos_as_xyz
  1  'x, y, z'
loop_
 _atom_site_type_symbol
 _atom_site_label
 _atom_site_symmetry_multiplicity
 _atom_site_fract_x
 _atom_site_fract_y
 _atom_site_fract_z
 _atom_site_occupancy
  Er  Er0  1  0.186893  0.186282  0.813412  1
  Er  Er1  1  0.435097  0.073461  0.056346  1
  Er  Er2  1  0.435097  0.073461  0.435097  1
  Er  Er3  1  0.062416  0.439797  0.062416  1
  Er  Er4  1  0.648455  0.054636  0.648455  1
  Er  Er5  1  0.188608  0.811242  0.811542  1
  Er  Er6  1  0.056346  0.073461  0.435097  1
  Er  Er7  1  0.813412  0.186282  0.186893  1
  Er  Er8  1  0.811542  0.811242  0.188608  1
  Er  Er9  1  0.647967  0.647638  0.056428  1
  Er  Er10  1  0.647967  0.647638  0.647967  1
  Er  Er11  1  0.062416  0.439797  0.435371  1
  Er  Er12  1  0.056428  0.647638  0.647967  1
  Er  Er13  1  0.813412  0.186282  0.813412  1
  Er  Er14  1  0.435371  0.439797  0.062416  1
  Er  Er15  1  0.188608  0.811242  0.188608  1
  Ag  Ag16  1  0.418559  0.410179  0.752704  1
  Ag  Ag17  1  0.752704  0.410179  0.418559  1
  Ag  Ag18  1  0.418559  0.410179  0.418559  1
  Rh  Rh19  1  0.856115  0.431653  0.856115  1
  Rh  Rh20  1  0.857843  0.854813  0.429500  1
  Rh  Rh21  1  0.429500  0.854813  0.857843  1
  Rh  Rh22  1  0.857843  0.854813  0.857843  1
  Pb  Pb23  1  0.418843  0.743473  0.418843  1
