# generated using pymatgen
data_Li3(SnRh)2
_symmetry_space_group_name_H-M   'P 1'
_cell_length_a   7.18425231
_cell_length_b   7.18425296
_cell_length_c   7.18425290
_cell_angle_alpha   35.96599000
_cell_angle_beta   35.96598157
_cell_angle_gamma   35.96598311
_symmetry_Int_Tables_number   1
_chemical_formula_structural   Li3(SnRh)2
_chemical_formula_sum   'Li3 Sn2 Rh2'
_cell_volume   114.39080136
_cell_formula_units_Z   1
loop_
 _symmetry_equiv_pos_site_id
 _symmetry_equiv_pos_as_xyz
  1  'x, y, z'
loop_
 _atom_site_type_symbol
 _atom_site_label
 _atom_site_symmetry_multiplicity
 _atom_site_fract_x
 _atom_site_fract_y
 _atom_site_fract_z
 _atom_site_occupancy
  Li  Li0  1  0.644498  0.644498  0.644498  1
  Li  Li1  1  0.355502  0.355502  0.355502  1
  Li  Li2  1  0.500000  0.500000  0.500000  1
  Sn  Sn3  1  0.917082  0.917082  0.917082  1
  Sn  Sn4  1  0.082918  0.082918  0.082918  1
  Rh  Rh5  1  0.783462  0.783462  0.783462  1
  Rh  Rh6  1  0.216539  0.216539  0.216539  1
