# generated using pymatgen
data_La16Yb4Ga11Ge
_symmetry_space_group_name_H-M   'P 1'
_cell_length_a   7.94719800
_cell_length_b   7.94719800
_cell_length_c   14.62324700
_cell_angle_alpha   90.00000000
_cell_angle_beta   90.00000000
_cell_angle_gamma   90.00000000
_symmetry_Int_Tables_number   1
_chemical_formula_structural   La16Yb4Ga11Ge
_chemical_formula_sum   'La16 Yb4 Ga11 Ge1'
_cell_volume   923.57439135
_cell_formula_units_Z   1
loop_
 _symmetry_equiv_pos_site_id
 _symmetry_equiv_pos_as_xyz
  1  'x, y, z'
loop_
 _atom_site_type_symbol
 _atom_site_label
 _atom_site_symmetry_multiplicity
 _atom_site_fract_x
 _atom_site_fract_y
 _atom_site_fract_z
 _atom_site_occupancy
  La  La0  1  0.824155  0.826946  0.601809  1
  La  La1  1  0.174730  0.826596  0.099616  1
  La  La2  1  0.172339  0.824537  0.398343  1
  La  La3  1  0.827661  0.175463  0.398343  1
  La  La4  1  0.675463  0.672339  0.398343  1
  La  La5  1  0.673054  0.324155  0.601809  1
  La  La6  1  0.326946  0.675845  0.601809  1
  La  La7  1  0.673404  0.674730  0.099616  1
  La  La8  1  0.675976  0.328579  0.900197  1
  La  La9  1  0.828579  0.824024  0.900197  1
  La  La10  1  0.324537  0.327661  0.398343  1
  La  La11  1  0.175845  0.173054  0.601809  1
  La  La12  1  0.825270  0.173404  0.099616  1
  La  La13  1  0.324024  0.671421  0.900197  1
  La  La14  1  0.326596  0.325270  0.099616  1
  La  La15  1  0.171421  0.175976  0.900197  1
  Yb  Yb16  1  0.000000  0.500000  0.744633  1
  Yb  Yb17  1  0.000000  0.500000  0.248507  1
  Yb  Yb18  1  0.500000  0.000000  0.247924  1
  Yb  Yb19  1  0.500000  0.000000  0.760316  1
  Ga  Ga20  1  0.617220  0.383215  0.249107  1
  Ga  Ga21  1  0.116916  0.882827  0.750737  1
  Ga  Ga22  1  0.382827  0.383084  0.750737  1
  Ga  Ga23  1  0.382780  0.616785  0.249107  1
  Ga  Ga24  1  0.883215  0.882780  0.249107  1
  Ga  Ga25  1  0.617173  0.616916  0.750737  1
  Ga  Ga26  1  0.883084  0.117173  0.750737  1
  Ga  Ga27  1  0.500000  0.000000  0.497857  1
  Ga  Ga28  1  0.500000  0.000000  0.998647  1
  Ga  Ga29  1  0.116785  0.117220  0.249107  1
  Ga  Ga30  1  0.000000  0.500000  0.001435  1
  Ge  Ge31  1  0.000000  0.500000  0.501448  1
