# generated using pymatgen
data_Tm2U(SnRh)3
_symmetry_space_group_name_H-M   'P 1'
_cell_length_a   7.47278537
_cell_length_b   7.58261629
_cell_length_c   3.85938500
_cell_angle_alpha   90.00000000
_cell_angle_beta   90.00000000
_cell_angle_gamma   120.48738051
_symmetry_Int_Tables_number   1
_chemical_formula_structural   Tm2U(SnRh)3
_chemical_formula_sum   'Tm2 U1 Sn3 Rh3'
_cell_volume   188.45011728
_cell_formula_units_Z   1
loop_
 _symmetry_equiv_pos_site_id
 _symmetry_equiv_pos_as_xyz
  1  'x, y, z'
loop_
 _atom_site_type_symbol
 _atom_site_label
 _atom_site_symmetry_multiplicity
 _atom_site_fract_x
 _atom_site_fract_y
 _atom_site_fract_z
 _atom_site_occupancy
  Tm  Tm0  1  0.404892  0.405367  0.500000  1
  Tm  Tm1  1  0.595108  0.000475  0.500000  1
  U  U2  1  0.000000  0.585636  0.500000  1
  Sn  Sn3  1  0.726679  0.740266  0.000000  1
  Sn  Sn4  1  0.273321  0.013587  0.000000  1
  Sn  Sn5  1  0.000000  0.245805  0.000000  1
  Rh  Rh6  1  0.695609  0.359577  0.000000  1
  Rh  Rh7  1  0.304391  0.663969  0.000000  1
  Rh  Rh8  1  0.000000  0.985319  0.500000  1
