# generated using pymatgen
data_Ho10Co4PtRh
_symmetry_space_group_name_H-M   'P 1'
_cell_length_a   7.10187542
_cell_length_b   7.10187550
_cell_length_c   8.70934798
_cell_angle_alpha   114.06140602
_cell_angle_beta   114.06140717
_cell_angle_gamma   90.00000524
_symmetry_Int_Tables_number   1
_chemical_formula_structural   Ho10Co4PtRh
_chemical_formula_sum   'Ho10 Co4 Pt1 Rh1'
_cell_volume   358.89642342
_cell_formula_units_Z   1
loop_
 _symmetry_equiv_pos_site_id
 _symmetry_equiv_pos_as_xyz
  1  'x, y, z'
loop_
 _atom_site_type_symbol
 _atom_site_label
 _atom_site_symmetry_multiplicity
 _atom_site_fract_x
 _atom_site_fract_y
 _atom_site_fract_z
 _atom_site_occupancy
  Ho  Ho0  1  0.000938  0.000938  0.001877  1
  Ho  Ho1  1  0.499062  0.499062  0.998123  1
  Ho  Ho2  1  0.465117  0.319372  0.281347  1
  Ho  Ho3  1  0.961976  0.465117  0.281347  1
  Ho  Ho4  1  0.319372  0.816230  0.281347  1
  Ho  Ho5  1  0.816230  0.961976  0.281347  1
  Ho  Ho6  1  0.180628  0.034883  0.718652  1
  Ho  Ho7  1  0.683768  0.180628  0.718652  1
  Ho  Ho8  1  0.034883  0.538024  0.718652  1
  Ho  Ho9  1  0.538024  0.683768  0.718652  1
  Co  Co10  1  0.612821  0.112821  0.000000  1
  Co  Co11  1  0.112821  0.387180  0.000000  1
  Co  Co12  1  0.887179  0.612821  0.000000  1
  Co  Co13  1  0.387180  0.887179  0.000000  1
  Pt  Pt14  1  0.250000  0.250000  0.500000  1
  Rh  Rh15  1  0.750000  0.750000  0.500000  1
