# generated using pymatgen
data_LiMn17Cr3(WC3)2
_symmetry_space_group_name_H-M   'P 1'
_cell_length_a   7.39923765
_cell_length_b   7.39923878
_cell_length_c   7.39923651
_cell_angle_alpha   60.12843785
_cell_angle_beta   60.12843734
_cell_angle_gamma   60.12843517
_symmetry_Int_Tables_number   1
_chemical_formula_structural   LiMn17Cr3(WC3)2
_chemical_formula_sum   'Li1 Mn17 Cr3 W2 C6'
_cell_volume   287.28154382
_cell_formula_units_Z   1
loop_
 _symmetry_equiv_pos_site_id
 _symmetry_equiv_pos_as_xyz
  1  'x, y, z'
loop_
 _atom_site_type_symbol
 _atom_site_label
 _atom_site_symmetry_multiplicity
 _atom_site_fract_x
 _atom_site_fract_y
 _atom_site_fract_z
 _atom_site_occupancy
  Li  Li0  1  0.002329  0.002329  0.002329  1
  Mn  Mn1  1  0.615085  0.615085  0.153403  1
  Mn  Mn2  1  0.615085  0.153403  0.615085  1
  Mn  Mn3  1  0.153403  0.615085  0.615085  1
  Mn  Mn4  1  0.615531  0.615531  0.615531  1
  Mn  Mn5  1  0.383592  0.383592  0.847142  1
  Mn  Mn6  1  0.383592  0.847142  0.383592  1
  Mn  Mn7  1  0.847142  0.383592  0.383592  1
  Mn  Mn8  1  0.384061  0.384061  0.384061  1
  Mn  Mn9  1  0.999998  0.999998  0.341239  1
  Mn  Mn10  1  0.659217  0.999359  0.341493  1
  Mn  Mn11  1  0.999359  0.659217  0.341493  1
  Mn  Mn12  1  0.659217  0.341493  0.999359  1
  Mn  Mn13  1  0.999998  0.341239  0.999998  1
  Mn  Mn14  1  0.999359  0.341493  0.659217  1
  Mn  Mn15  1  0.341493  0.659217  0.999359  1
  Mn  Mn16  1  0.341493  0.999359  0.659217  1
  Mn  Mn17  1  0.341239  0.999998  0.999998  1
  Cr  Cr18  1  0.000634  0.000634  0.658979  1
  Cr  Cr19  1  0.000634  0.658979  0.000634  1
  Cr  Cr20  1  0.658979  0.000634  0.000634  1
  W  W21  1  0.749665  0.749665  0.749665  1
  W  W22  1  0.250140  0.250140  0.250140  1
  C  C23  1  0.724899  0.724899  0.277991  1
  C  C24  1  0.271080  0.728806  0.271080  1
  C  C25  1  0.728806  0.271080  0.271080  1
  C  C26  1  0.271080  0.271080  0.728806  1
  C  C27  1  0.724899  0.277991  0.724899  1
  C  C28  1  0.277991  0.724899  0.724899  1
