# generated using pymatgen
data_LaTb2Nd(Sn5Rh3)2
_symmetry_space_group_name_H-M   'P 1'
_cell_length_a   13.55713486
_cell_length_b   13.55713436
_cell_length_c   7.29041677
_cell_angle_alpha   89.88807784
_cell_angle_beta   90.11192641
_cell_angle_gamma   160.89578862
_symmetry_Int_Tables_number   1
_chemical_formula_structural   LaTb2Nd(Sn5Rh3)2
_chemical_formula_sum   'La1 Tb2 Nd1 Sn10 Rh6'
_cell_volume   438.54740565
_cell_formula_units_Z   1
loop_
 _symmetry_equiv_pos_site_id
 _symmetry_equiv_pos_as_xyz
  1  'x, y, z'
loop_
 _atom_site_type_symbol
 _atom_site_label
 _atom_site_symmetry_multiplicity
 _atom_site_fract_x
 _atom_site_fract_y
 _atom_site_fract_z
 _atom_site_occupancy
  La  La0  1  0.828168  0.171832  0.255500  1
  Tb  Tb1  1  0.476453  0.523547  0.737063  1
  Tb  Tb2  1  0.523464  0.476536  0.236958  1
  Nd  Nd3  1  0.172027  0.827973  0.754277  1
  Sn  Sn4  1  0.880564  0.119436  0.732475  1
  Sn  Sn5  1  0.119381  0.880619  0.231651  1
  Sn  Sn6  1  0.704420  0.295580  0.050753  1
  Sn  Sn7  1  0.295104  0.704896  0.553130  1
  Sn  Sn8  1  0.595301  0.404699  0.612027  1
  Sn  Sn9  1  0.405099  0.594901  0.109660  1
  Sn  Sn10  1  0.952882  0.047118  0.399669  1
  Sn  Sn11  1  0.047248  0.952752  0.899579  1
  Sn  Sn12  1  0.290228  0.709772  0.973750  1
  Sn  Sn13  1  0.709685  0.290315  0.475806  1
  Rh  Rh14  1  0.050228  0.949772  0.517963  1
  Rh  Rh15  1  0.949889  0.050111  0.017676  1
  Rh  Rh16  1  0.777487  0.222513  0.764239  1
  Rh  Rh17  1  0.222313  0.777687  0.264013  1
  Rh  Rh18  1  0.395017  0.604983  0.484867  1
  Rh  Rh19  1  0.605040  0.394960  0.984944  1
