# generated using pymatgen
data_Y6Th2Cd2IrRu
_symmetry_space_group_name_H-M   'P 1'
_cell_length_a   9.75867895
_cell_length_b   9.75867827
_cell_length_c   9.77499000
_cell_angle_alpha   59.94469147
_cell_angle_beta   59.94469377
_cell_angle_gamma   59.97097135
_symmetry_Int_Tables_number   1
_chemical_formula_structural   Y6Th2Cd2IrRu
_chemical_formula_sum   'Y12 Th4 Cd4 Ir2 Ru2'
_cell_volume   657.54364142
_cell_formula_units_Z   2
loop_
 _symmetry_equiv_pos_site_id
 _symmetry_equiv_pos_as_xyz
  1  'x, y, z'
loop_
 _atom_site_type_symbol
 _atom_site_label
 _atom_site_symmetry_multiplicity
 _atom_site_fract_x
 _atom_site_fract_y
 _atom_site_fract_z
 _atom_site_occupancy
  Y  Y0  1  0.812661  0.188137  0.188785  1
  Y  Y1  1  0.188137  0.812661  0.810417  1
  Y  Y2  1  0.188137  0.812661  0.188785  1
  Y  Y3  1  0.812661  0.188137  0.810417  1
  Y  Y4  1  0.188103  0.188103  0.811897  1
  Y  Y5  1  0.811315  0.811315  0.188685  1
  Y  Y6  1  0.936260  0.563061  0.564656  1
  Y  Y7  1  0.563061  0.936260  0.936022  1
  Y  Y8  1  0.563061  0.936260  0.564656  1
  Y  Y9  1  0.936260  0.563061  0.936022  1
  Y  Y10  1  0.563263  0.563263  0.936737  1
  Y  Y11  1  0.935620  0.935620  0.564380  1
  Th  Th12  1  0.347105  0.347105  0.350893  1
  Th  Th13  1  0.347105  0.347105  0.954896  1
  Th  Th14  1  0.345659  0.956678  0.348832  1
  Th  Th15  1  0.956678  0.345659  0.348832  1
  Cd  Cd16  1  0.581556  0.581556  0.582547  1
  Cd  Cd17  1  0.581556  0.581556  0.254340  1
  Cd  Cd18  1  0.581954  0.252591  0.582728  1
  Cd  Cd19  1  0.252591  0.581954  0.582728  1
  Ir  Ir20  1  0.144521  0.571013  0.142233  1
  Ir  Ir21  1  0.571013  0.144521  0.142233  1
  Ru  Ru22  1  0.145860  0.145860  0.143136  1
  Ru  Ru23  1  0.145860  0.145860  0.565143  1
