# generated using pymatgen
data_Tm2VO5
_symmetry_space_group_name_H-M   'P 1'
_cell_length_a   3.67286300
_cell_length_b   10.26203300
_cell_length_c   11.15884700
_cell_angle_alpha   90.00000000
_cell_angle_beta   90.00000000
_cell_angle_gamma   90.00000000
_symmetry_Int_Tables_number   1
_chemical_formula_structural   Tm2VO5
_chemical_formula_sum   'Tm8 V4 O20'
_cell_volume   420.58856325
_cell_formula_units_Z   4
loop_
 _symmetry_equiv_pos_site_id
 _symmetry_equiv_pos_as_xyz
  1  'x, y, z'
loop_
 _atom_site_type_symbol
 _atom_site_label
 _atom_site_symmetry_multiplicity
 _atom_site_fract_x
 _atom_site_fract_y
 _atom_site_fract_z
 _atom_site_occupancy
  Tm  Tm0  1  0.250000  0.120292  0.773027  1
  Tm  Tm1  1  0.250000  0.136363  0.443545  1
  Tm  Tm2  1  0.750000  0.363637  0.943545  1
  Tm  Tm3  1  0.750000  0.379708  0.273027  1
  Tm  Tm4  1  0.250000  0.620292  0.726973  1
  Tm  Tm5  1  0.250000  0.636363  0.056455  1
  Tm  Tm6  1  0.750000  0.863637  0.556455  1
  Tm  Tm7  1  0.750000  0.879708  0.226973  1
  V  V8  1  0.250000  0.170236  0.116997  1
  V  V9  1  0.750000  0.329764  0.616997  1
  V  V10  1  0.250000  0.670236  0.383003  1
  V  V11  1  0.750000  0.829764  0.883003  1
  O  O12  1  0.250000  0.993862  0.605432  1
  O  O13  1  0.250000  0.005534  0.154700  1
  O  O14  1  0.750000  0.238019  0.113936  1
  O  O15  1  0.750000  0.242917  0.769372  1
  O  O16  1  0.250000  0.225818  0.954142  1
  O  O17  1  0.750000  0.274182  0.454142  1
  O  O18  1  0.250000  0.257083  0.269372  1
  O  O19  1  0.250000  0.261981  0.613936  1
  O  O20  1  0.750000  0.494466  0.654700  1
  O  O21  1  0.750000  0.506138  0.105432  1
  O  O22  1  0.250000  0.493862  0.894568  1
  O  O23  1  0.250000  0.505534  0.345300  1
  O  O24  1  0.750000  0.738019  0.386064  1
  O  O25  1  0.750000  0.742917  0.730628  1
  O  O26  1  0.250000  0.725818  0.545858  1
  O  O27  1  0.750000  0.774182  0.045858  1
  O  O28  1  0.250000  0.757083  0.230628  1
  O  O29  1  0.250000  0.761981  0.886064  1
  O  O30  1  0.750000  0.994466  0.845300  1
  O  O31  1  0.750000  0.006138  0.394568  1
