# generated using pymatgen
data_Yb12AlGe7Pd8
_symmetry_space_group_name_H-M   'P 1'
_cell_length_a   5.59309300
_cell_length_b   8.11218983
_cell_length_c   13.41817534
_cell_angle_alpha   90.05143885
_cell_angle_beta   90.00000000
_cell_angle_gamma   90.00000000
_symmetry_Int_Tables_number   1
_chemical_formula_structural   Yb12AlGe7Pd8
_chemical_formula_sum   'Yb12 Al1 Ge7 Pd8'
_cell_volume   608.81232083
_cell_formula_units_Z   1
loop_
 _symmetry_equiv_pos_site_id
 _symmetry_equiv_pos_as_xyz
  1  'x, y, z'
loop_
 _atom_site_type_symbol
 _atom_site_label
 _atom_site_symmetry_multiplicity
 _atom_site_fract_x
 _atom_site_fract_y
 _atom_site_fract_z
 _atom_site_occupancy
  Yb  Yb0  1  0.649472  0.253349  0.254232  1
  Yb  Yb1  1  0.353001  0.747748  0.748359  1
  Yb  Yb2  1  0.353001  0.752252  0.251641  1
  Yb  Yb3  1  0.649472  0.246651  0.745768  1
  Yb  Yb4  1  0.145989  0.399068  0.103930  1
  Yb  Yb5  1  0.859245  0.612120  0.898051  1
  Yb  Yb6  1  0.856346  0.607815  0.601598  1
  Yb  Yb7  1  0.856346  0.892185  0.398402  1
  Yb  Yb8  1  0.143660  0.392035  0.399312  1
  Yb  Yb9  1  0.143660  0.107965  0.600688  1
  Yb  Yb10  1  0.145989  0.100932  0.896070  1
  Yb  Yb11  1  0.859245  0.887880  0.101949  1
  Al  Al12  1  0.632247  0.250000  0.000000  1
  Ge  Ge13  1  0.147918  0.105927  0.250058  1
  Ge  Ge14  1  0.851542  0.895212  0.748885  1
  Ge  Ge15  1  0.851542  0.604788  0.251115  1
  Ge  Ge16  1  0.147918  0.394073  0.749942  1
  Ge  Ge17  1  0.346492  0.750000  0.000000  1
  Ge  Ge18  1  0.344789  0.750000  0.500000  1
  Ge  Ge19  1  0.655053  0.250000  0.500000  1
  Pd  Pd20  1  0.376894  0.037139  0.092186  1
  Pd  Pd21  1  0.627955  0.967136  0.910862  1
  Pd  Pd22  1  0.620452  0.961730  0.589924  1
  Pd  Pd23  1  0.620452  0.538270  0.410076  1
  Pd  Pd24  1  0.378235  0.038464  0.409204  1
  Pd  Pd25  1  0.378235  0.461536  0.590796  1
  Pd  Pd26  1  0.376894  0.462861  0.907814  1
  Pd  Pd27  1  0.627955  0.532864  0.089138  1
