# generated using pymatgen
data_Er12AlCo5
_symmetry_space_group_name_H-M   'P 1'
_cell_length_a   8.16535633
_cell_length_b   8.16548774
_cell_length_c   8.16535591
_cell_angle_alpha   110.88179175
_cell_angle_beta   110.86529965
_cell_angle_gamma   106.70094464
_symmetry_Int_Tables_number   1
_chemical_formula_structural   Er12AlCo5
_chemical_formula_sum   'Er12 Al1 Co5'
_cell_volume   418.36616050
_cell_formula_units_Z   1
loop_
 _symmetry_equiv_pos_site_id
 _symmetry_equiv_pos_as_xyz
  1  'x, y, z'
loop_
 _atom_site_type_symbol
 _atom_site_label
 _atom_site_symmetry_multiplicity
 _atom_site_fract_x
 _atom_site_fract_y
 _atom_site_fract_z
 _atom_site_occupancy
  Er  Er0  1  0.288346  0.186047  0.474384  1
  Er  Er1  1  0.711654  0.813953  0.525616  1
  Er  Er2  1  0.288337  0.813953  0.102299  1
  Er  Er3  1  0.711663  0.186047  0.897701  1
  Er  Er4  1  0.618082  0.315204  0.302879  1
  Er  Er5  1  0.381918  0.684796  0.697121  1
  Er  Er6  1  0.012325  0.315204  0.697121  1
  Er  Er7  1  0.987675  0.684796  0.302879  1
  Er  Er8  1  0.215239  0.406862  0.191623  1
  Er  Er9  1  0.784761  0.593138  0.808377  1
  Er  Er10  1  0.215229  0.023600  0.808371  1
  Er  Er11  1  0.784771  0.976400  0.191629  1
  Al  Al12  1  0.500000  0.500000  0.000000  1
  Co  Co13  1  0.999999  0.376485  0.376486  1
  Co  Co14  1  0.000001  0.623515  0.623514  1
  Co  Co15  1  0.386762  0.886762  0.500000  1
  Co  Co16  1  0.613238  0.113238  0.500000  1
  Co  Co17  1  0.000000  0.000000  0.000000  1
