# generated using pymatgen
data_Ta3NbNi8(BO6)4
_symmetry_space_group_name_H-M   'P 1'
_cell_length_a   10.16017034
_cell_length_b   8.75446800
_cell_length_c   4.53790959
_cell_angle_alpha   90.00000000
_cell_angle_beta   90.05867989
_cell_angle_gamma   90.00000000
_symmetry_Int_Tables_number   1
_chemical_formula_structural   Ta3NbNi8(BO6)4
_chemical_formula_sum   'Ta3 Nb1 Ni8 B4 O24'
_cell_volume   403.63271595
_cell_formula_units_Z   1
loop_
 _symmetry_equiv_pos_site_id
 _symmetry_equiv_pos_as_xyz
  1  'x, y, z'
loop_
 _atom_site_type_symbol
 _atom_site_label
 _atom_site_symmetry_multiplicity
 _atom_site_fract_x
 _atom_site_fract_y
 _atom_site_fract_z
 _atom_site_occupancy
  Ta  Ta0  1  0.917208  0.250000  0.025376  1
  Ta  Ta1  1  0.417318  0.250000  0.474712  1
  Ta  Ta2  1  0.582236  0.750000  0.525266  1
  Nb  Nb3  1  0.081216  0.750000  0.975005  1
  Ni  Ni4  1  0.634317  0.069104  0.019306  1
  Ni  Ni5  1  0.634317  0.430896  0.019306  1
  Ni  Ni6  1  0.135193  0.069278  0.479125  1
  Ni  Ni7  1  0.135193  0.430722  0.479125  1
  Ni  Ni8  1  0.864642  0.569150  0.518886  1
  Ni  Ni9  1  0.864642  0.930851  0.518886  1
  Ni  Ni10  1  0.365345  0.569553  0.980002  1
  Ni  Ni11  1  0.365345  0.930448  0.980002  1
  B  B12  1  0.773680  0.750000  0.090611  1
  B  B13  1  0.274988  0.750000  0.410362  1
  B  B14  1  0.725521  0.250000  0.589781  1
  B  B15  1  0.225555  0.250000  0.909807  1
  O  O16  1  0.914343  0.750000  0.216079  1
  O  O17  1  0.228384  0.250000  0.229228  1
  O  O18  1  0.707337  0.616785  0.240178  1
  O  O19  1  0.707337  0.883215  0.240178  1
  O  O20  1  0.461558  0.084023  0.241266  1
  O  O21  1  0.461558  0.415977  0.241266  1
  O  O22  1  0.961606  0.083534  0.258485  1
  O  O23  1  0.961606  0.416466  0.258485  1
  O  O24  1  0.209314  0.616485  0.261415  1
  O  O25  1  0.209314  0.883515  0.261415  1
  O  O26  1  0.728574  0.250000  0.270587  1
  O  O27  1  0.417150  0.750000  0.287034  1
  O  O28  1  0.583943  0.250000  0.711219  1
  O  O29  1  0.273577  0.750000  0.728818  1
  O  O30  1  0.792023  0.116885  0.740212  1
  O  O31  1  0.792023  0.383114  0.740212  1
  O  O32  1  0.038800  0.583295  0.740901  1
  O  O33  1  0.038800  0.916706  0.740901  1
  O  O34  1  0.538582  0.583639  0.758522  1
  O  O35  1  0.538582  0.916362  0.758522  1
  O  O36  1  0.291766  0.116992  0.759802  1
  O  O37  1  0.291766  0.383007  0.759802  1
  O  O38  1  0.771876  0.750000  0.771225  1
  O  O39  1  0.083463  0.250000  0.788692  1
