# generated using pymatgen
data_Ta7Nb5(MoRu)6
_symmetry_space_group_name_H-M   'P 1'
_cell_length_a   4.53933100
_cell_length_b   6.38098701
_cell_length_c   13.61887001
_cell_angle_alpha   90.00504796
_cell_angle_beta   90.00002104
_cell_angle_gamma   89.99997840
_symmetry_Int_Tables_number   1
_chemical_formula_structural   Ta7Nb5(MoRu)6
_chemical_formula_sum   'Ta7 Nb5 Mo6 Ru6'
_cell_volume   394.47618112
_cell_formula_units_Z   1
loop_
 _symmetry_equiv_pos_site_id
 _symmetry_equiv_pos_as_xyz
  1  'x, y, z'
loop_
 _atom_site_type_symbol
 _atom_site_label
 _atom_site_symmetry_multiplicity
 _atom_site_fract_x
 _atom_site_fract_y
 _atom_site_fract_z
 _atom_site_occupancy
  Ta  Ta0  1  0.499996  0.750369  0.333399  1
  Ta  Ta1  1  0.000001  0.250214  0.500180  1
  Ta  Ta2  1  0.000003  0.749831  0.499713  1
  Ta  Ta3  1  0.500009  0.249858  0.666756  1
  Ta  Ta4  1  0.500010  0.750241  0.666705  1
  Ta  Ta5  1  0.000017  0.250162  0.833283  1
  Ta  Ta6  1  0.000015  0.749719  0.833283  1
  Nb  Nb7  1  0.500000  0.249670  0.999949  1
  Nb  Nb8  1  0.500004  0.750467  0.000000  1
  Nb  Nb9  1  0.999986  0.250402  0.166502  1
  Nb  Nb10  1  0.999985  0.749603  0.166903  1
  Nb  Nb11  1  0.499994  0.249729  0.333338  1
  Mo  Mo12  1  0.000001  0.500022  0.999943  1
  Mo  Mo13  1  0.499997  0.000078  0.166637  1
  Mo  Mo14  1  0.999985  0.499667  0.333416  1
  Mo  Mo15  1  0.500000  0.000029  0.500195  1
  Mo  Mo16  1  0.000022  0.500029  0.666567  1
  Mo  Mo17  1  0.500005  0.999974  0.833239  1
  Ru  Ru18  1  0.000005  0.999972  0.999022  1
  Ru  Ru19  1  0.499989  0.500784  0.167140  1
  Ru  Ru20  1  0.999982  0.998484  0.334254  1
  Ru  Ru21  1  0.500000  0.500698  0.500437  1
  Ru  Ru22  1  0.999995  0.999983  0.666686  1
  Ru  Ru23  1  0.499998  0.500019  0.832454  1
