# generated using pymatgen
data_Tm3Lu13(In3Pt)2
_symmetry_space_group_name_H-M   'P 1'
_cell_length_a   10.30432500
_cell_length_b   10.30432506
_cell_length_c   6.86705100
_cell_angle_alpha   90.00000000
_cell_angle_beta   90.00000000
_cell_angle_gamma   120.00000302
_symmetry_Int_Tables_number   1
_chemical_formula_structural   Tm3Lu13(In3Pt)2
_chemical_formula_sum   'Tm3 Lu13 In6 Pt2'
_cell_volume   631.45148619
_cell_formula_units_Z   1
loop_
 _symmetry_equiv_pos_site_id
 _symmetry_equiv_pos_as_xyz
  1  'x, y, z'
loop_
 _atom_site_type_symbol
 _atom_site_label
 _atom_site_symmetry_multiplicity
 _atom_site_fract_x
 _atom_site_fract_y
 _atom_site_fract_z
 _atom_site_occupancy
  Tm  Tm0  1  0.530899  0.061798  0.525559  1
  Tm  Tm1  1  0.938202  0.469101  0.525559  1
  Tm  Tm2  1  0.530899  0.469101  0.525559  1
  Lu  Lu3  1  0.468942  0.937883  0.025443  1
  Lu  Lu4  1  0.062117  0.531058  0.025443  1
  Lu  Lu5  1  0.468942  0.531058  0.025443  1
  Lu  Lu6  1  0.175668  0.351334  0.731595  1
  Lu  Lu7  1  0.648666  0.824332  0.731595  1
  Lu  Lu8  1  0.175668  0.824332  0.731595  1
  Lu  Lu9  1  0.824359  0.648718  0.231164  1
  Lu  Lu10  1  0.351282  0.175641  0.231164  1
  Lu  Lu11  1  0.824359  0.175641  0.231164  1
  Lu  Lu12  1  0.666667  0.333333  0.900625  1
  Lu  Lu13  1  0.333333  0.666667  0.400176  1
  Lu  Lu14  1  0.000000  0.000000  0.504685  1
  Lu  Lu15  1  0.000000  0.000000  0.004848  1
  In  In16  1  0.837624  0.675246  0.768152  1
  In  In17  1  0.324754  0.162376  0.768152  1
  In  In18  1  0.837624  0.162376  0.768152  1
  In  In19  1  0.162453  0.324908  0.268077  1
  In  In20  1  0.675092  0.837547  0.268077  1
  In  In21  1  0.162453  0.837547  0.268077  1
  Pt  Pt22  1  0.666667  0.333333  0.297389  1
  Pt  Pt23  1  0.333333  0.666667  0.797991  1
