# generated using pymatgen
data_LaTb11MnFeI17
_symmetry_space_group_name_H-M   'P 1'
_cell_length_a   9.76234487
_cell_length_b   11.85939408
_cell_length_c   11.77498521
_cell_angle_alpha   74.15852012
_cell_angle_beta   75.55585284
_cell_angle_gamma   65.71488393
_symmetry_Int_Tables_number   1
_chemical_formula_structural   LaTb11MnFeI17
_chemical_formula_sum   'La1 Tb11 Mn1 Fe1 I17'
_cell_volume   1180.71086939
_cell_formula_units_Z   1
loop_
 _symmetry_equiv_pos_site_id
 _symmetry_equiv_pos_as_xyz
  1  'x, y, z'
loop_
 _atom_site_type_symbol
 _atom_site_label
 _atom_site_symmetry_multiplicity
 _atom_site_fract_x
 _atom_site_fract_y
 _atom_site_fract_z
 _atom_site_occupancy
  La  La0  1  0.155284  0.715113  0.156052  1
  Tb  Tb1  1  0.453451  0.488317  0.322941  1
  Tb  Tb2  1  0.552117  0.670612  0.009430  1
  Tb  Tb3  1  0.274118  0.984935  0.107102  1
  Tb  Tb4  1  0.856788  0.288511  0.846980  1
  Tb  Tb5  1  0.411833  0.241898  0.719208  1
  Tb  Tb6  1  0.722211  0.026332  0.888331  1
  Tb  Tb7  1  0.551161  0.498520  0.680236  1
  Tb  Tb8  1  0.457237  0.326372  0.981253  1
  Tb  Tb9  1  0.577435  0.756697  0.277783  1
  Tb  Tb10  1  0.814272  0.193461  0.591888  1
  Tb  Tb11  1  0.175366  0.811152  0.418071  1
  Mn  Mn12  1  0.348165  0.735925  0.208465  1
  Fe  Fe13  1  0.634507  0.262186  0.786183  1
  I  I14  1  0.055896  0.101979  0.325796  1
  I  I15  1  0.466463  0.947255  0.843102  1
  I  I16  1  0.431592  0.809995  0.533334  1
  I  I17  1  0.571029  0.187165  0.462901  1
  I  I18  1  0.833205  0.713373  0.048069  1
  I  I19  1  0.236373  0.408292  0.241118  1
  I  I20  1  0.689797  0.370929  0.102919  1
  I  I21  1  0.534122  0.047087  0.159279  1
  I  I22  1  0.742206  0.475183  0.414223  1
  I  I23  1  0.882467  0.788494  0.379956  1
  I  I24  1  0.948021  0.899439  0.675903  1
  I  I25  1  0.160855  0.289849  0.955174  1
  I  I26  1  0.319054  0.629001  0.892520  1
  I  I27  1  0.999536  0.006608  0.998859  1
  I  I28  1  0.112779  0.216377  0.632075  1
  I  I29  1  0.776206  0.581157  0.760179  1
  I  I30  1  0.256453  0.527787  0.580671  1
