# generated using pymatgen
data_Ce4Si4TcRh3
_symmetry_space_group_name_H-M   'P 1'
_cell_length_a   7.39105385
_cell_length_b   4.35990300
_cell_length_c   6.87034982
_cell_angle_alpha   90.00000000
_cell_angle_beta   89.89779088
_cell_angle_gamma   90.00000000
_symmetry_Int_Tables_number   1
_chemical_formula_structural   Ce4Si4TcRh3
_chemical_formula_sum   'Ce4 Si4 Tc1 Rh3'
_cell_volume   221.39170922
_cell_formula_units_Z   1
loop_
 _symmetry_equiv_pos_site_id
 _symmetry_equiv_pos_as_xyz
  1  'x, y, z'
loop_
 _atom_site_type_symbol
 _atom_site_label
 _atom_site_symmetry_multiplicity
 _atom_site_fract_x
 _atom_site_fract_y
 _atom_site_fract_z
 _atom_site_occupancy
  Ce  Ce0  1  0.514830  0.250001  0.165243  1
  Ce  Ce1  1  0.015089  0.250001  0.336104  1
  Ce  Ce2  1  0.989218  0.750001  0.664503  1
  Ce  Ce3  1  0.481184  0.750001  0.836018  1
  Si  Si4  1  0.806402  0.750001  0.109257  1
  Si  Si5  1  0.306206  0.750001  0.382120  1
  Si  Si6  1  0.694311  0.250001  0.612042  1
  Si  Si7  1  0.193462  0.250001  0.895637  1
  Tc  Tc8  1  0.136596  0.750001  0.068181  1
  Rh  Rh9  1  0.639186  0.750001  0.428615  1
  Rh  Rh10  1  0.363282  0.250001  0.572101  1
  Rh  Rh11  1  0.860234  0.250001  0.930180  1
