# generated using pymatgen
data_Cs4TaNb5Br18
_symmetry_space_group_name_H-M   'P 1'
_cell_length_a   10.93469099
_cell_length_b   10.93469456
_cell_length_c   10.78903360
_cell_angle_alpha   76.38523139
_cell_angle_beta   76.38517678
_cell_angle_gamma   116.13806547
_symmetry_Int_Tables_number   1
_chemical_formula_structural   Cs4TaNb5Br18
_chemical_formula_sum   'Cs4 Ta1 Nb5 Br18'
_cell_volume   1037.07196277
_cell_formula_units_Z   1
loop_
 _symmetry_equiv_pos_site_id
 _symmetry_equiv_pos_as_xyz
  1  'x, y, z'
loop_
 _atom_site_type_symbol
 _atom_site_label
 _atom_site_symmetry_multiplicity
 _atom_site_fract_x
 _atom_site_fract_y
 _atom_site_fract_z
 _atom_site_occupancy
  Cs  Cs0  1  0.736363  0.051891  0.322845  1
  Cs  Cs1  1  0.264888  0.948213  0.677982  1
  Cs  Cs2  1  0.948214  0.264889  0.677982  1
  Cs  Cs3  1  0.051892  0.736364  0.322845  1
  Ta  Ta4  1  0.604106  0.604106  0.117644  1
  Nb  Nb5  1  0.394696  0.394695  0.881081  1
  Nb  Nb6  1  0.456934  0.296339  0.129836  1
  Nb  Nb7  1  0.542864  0.703420  0.869867  1
  Nb  Nb8  1  0.703420  0.542864  0.869868  1
  Nb  Nb9  1  0.296339  0.456934  0.129835  1
  Br  Br10  1  0.697315  0.302710  0.999945  1
  Br  Br11  1  0.302710  0.697315  0.999945  1
  Br  Br12  1  0.398228  0.018457  0.308165  1
  Br  Br13  1  0.602953  0.982457  0.692794  1
  Br  Br14  1  0.982457  0.602953  0.692794  1
  Br  Br15  1  0.018457  0.398227  0.308165  1
  Br  Br16  1  0.320570  0.122122  0.013799  1
  Br  Br17  1  0.679126  0.876054  0.987497  1
  Br  Br18  1  0.876054  0.679125  0.987497  1
  Br  Br19  1  0.122122  0.320571  0.013798  1
  Br  Br20  1  0.744517  0.744517  0.274624  1
  Br  Br21  1  0.253695  0.253695  0.723311  1
  Br  Br22  1  0.804091  0.804091  0.681113  1
  Br  Br23  1  0.195776  0.195776  0.318685  1
  Br  Br24  1  0.575577  0.380503  0.302274  1
  Br  Br25  1  0.424692  0.621445  0.696769  1
  Br  Br26  1  0.621446  0.424693  0.696769  1
  Br  Br27  1  0.380502  0.575577  0.302274  1
