# generated using pymatgen
data_Eu8Si15Au
_symmetry_space_group_name_H-M   'P 1'
_cell_length_a   8.24224900
_cell_length_b   8.24225060
_cell_length_c   8.70717300
_cell_angle_alpha   90.00000000
_cell_angle_beta   90.00000000
_cell_angle_gamma   120.00000562
_symmetry_Int_Tables_number   1
_chemical_formula_structural   Eu8Si15Au
_chemical_formula_sum   'Eu8 Si15 Au1'
_cell_volume   512.27047507
_cell_formula_units_Z   1
loop_
 _symmetry_equiv_pos_site_id
 _symmetry_equiv_pos_as_xyz
  1  'x, y, z'
loop_
 _atom_site_type_symbol
 _atom_site_label
 _atom_site_symmetry_multiplicity
 _atom_site_fract_x
 _atom_site_fract_y
 _atom_site_fract_z
 _atom_site_occupancy
  Eu  Eu0  1  0.497559  0.502441  0.746158  1
  Eu  Eu1  1  0.497734  0.502266  0.253806  1
  Eu  Eu2  1  0.004882  0.502441  0.746158  1
  Eu  Eu3  1  0.004534  0.502266  0.253806  1
  Eu  Eu4  1  0.497559  0.995118  0.746158  1
  Eu  Eu5  1  0.497734  0.995466  0.253806  1
  Eu  Eu6  1  0.000000  0.000000  0.749274  1
  Eu  Eu7  1  0.000000  0.000000  0.250804  1
  Si  Si8  1  0.835558  0.164442  0.000045  1
  Si  Si9  1  0.164824  0.835176  0.000044  1
  Si  Si10  1  0.328886  0.164442  0.000045  1
  Si  Si11  1  0.166653  0.833347  0.499706  1
  Si  Si12  1  0.670352  0.835176  0.000044  1
  Si  Si13  1  0.833808  0.166192  0.500293  1
  Si  Si14  1  0.835558  0.671114  0.000045  1
  Si  Si15  1  0.666694  0.833347  0.499706  1
  Si  Si16  1  0.164824  0.329648  0.000044  1
  Si  Si17  1  0.332384  0.166192  0.500293  1
  Si  Si18  1  0.166653  0.333306  0.499706  1
  Si  Si19  1  0.833808  0.667616  0.500293  1
  Si  Si20  1  0.333333  0.666667  0.000334  1
  Si  Si21  1  0.333333  0.666667  0.499739  1
  Si  Si22  1  0.666667  0.333333  0.499986  1
  Au  Au23  1  0.666667  0.333333  0.999708  1
