# generated using pymatgen
data_Y4Al17Ga(PtRh2)2
_symmetry_space_group_name_H-M   'P 1'
_cell_length_a   7.57405931
_cell_length_b   7.57405135
_cell_length_c   9.49091553
_cell_angle_alpha   89.96732648
_cell_angle_beta   89.96729354
_cell_angle_gamma   119.45383526
_symmetry_Int_Tables_number   1
_chemical_formula_structural   Y4Al17Ga(PtRh2)2
_chemical_formula_sum   'Y4 Al17 Ga1 Pt2 Rh4'
_cell_volume   474.08841583
_cell_formula_units_Z   1
loop_
 _symmetry_equiv_pos_site_id
 _symmetry_equiv_pos_as_xyz
  1  'x, y, z'
loop_
 _atom_site_type_symbol
 _atom_site_label
 _atom_site_symmetry_multiplicity
 _atom_site_fract_x
 _atom_site_fract_y
 _atom_site_fract_z
 _atom_site_occupancy
  Y  Y0  1  0.994344  0.673033  0.250160  1
  Y  Y1  1  0.004561  0.329285  0.749846  1
  Y  Y2  1  0.673031  0.994345  0.250159  1
  Y  Y3  1  0.329286  0.004560  0.749847  1
  Al  Al4  1  0.872455  0.872454  0.748972  1
  Al  Al5  1  0.001207  0.331662  0.077280  1
  Al  Al6  1  0.998717  0.668359  0.922574  1
  Al  Al7  1  0.999892  0.664873  0.574225  1
  Al  Al8  1  0.335614  0.000055  0.425997  1
  Al  Al9  1  0.000054  0.335615  0.425997  1
  Al  Al10  1  0.664873  0.999892  0.574225  1
  Al  Al11  1  0.668360  0.998716  0.922574  1
  Al  Al12  1  0.331662  0.001207  0.077281  1
  Al  Al13  1  0.331682  0.331684  0.552302  1
  Al  Al14  1  0.667010  0.667010  0.450321  1
  Al  Al15  1  0.668614  0.668613  0.054403  1
  Al  Al16  1  0.330193  0.330192  0.942895  1
  Al  Al17  1  0.339765  0.548712  0.253926  1
  Al  Al18  1  0.659993  0.452342  0.746188  1
  Al  Al19  1  0.548710  0.339764  0.253926  1
  Al  Al20  1  0.452342  0.659992  0.746187  1
  Ga  Ga21  1  0.131640  0.131633  0.250818  1
  Pt  Pt22  1  0.671298  0.327276  0.000058  1
  Pt  Pt23  1  0.327276  0.671297  0.000057  1
  Rh  Rh24  1  0.327508  0.671183  0.499945  1
  Rh  Rh25  1  0.671196  0.327530  0.499942  1
  Rh  Rh26  1  0.999481  0.999476  0.997868  1
  Rh  Rh27  1  0.999237  0.999239  0.502029  1
