# generated using pymatgen
data_Ho3Er2(In2Ir)2
_symmetry_space_group_name_H-M   'P 1'
_cell_length_a   3.63642500
_cell_length_b   7.98538700
_cell_length_c   18.20040700
_cell_angle_alpha   90.00000000
_cell_angle_beta   90.00000000
_cell_angle_gamma   90.00000000
_symmetry_Int_Tables_number   1
_chemical_formula_structural   Ho3Er2(In2Ir)2
_chemical_formula_sum   'Ho6 Er4 In8 Ir4'
_cell_volume   528.50816734
_cell_formula_units_Z   2
loop_
 _symmetry_equiv_pos_site_id
 _symmetry_equiv_pos_as_xyz
  1  'x, y, z'
loop_
 _atom_site_type_symbol
 _atom_site_label
 _atom_site_symmetry_multiplicity
 _atom_site_fract_x
 _atom_site_fract_y
 _atom_site_fract_z
 _atom_site_occupancy
  Ho  Ho0  1  0.000000  0.244097  0.221149  1
  Ho  Ho1  1  0.000000  0.755903  0.778851  1
  Ho  Ho2  1  0.000000  0.255903  0.721149  1
  Ho  Ho3  1  0.000000  0.744097  0.278851  1
  Ho  Ho4  1  0.000000  0.000000  0.000000  1
  Ho  Ho5  1  0.000000  0.500000  0.500000  1
  Er  Er6  1  0.000000  0.115668  0.411143  1
  Er  Er7  1  0.000000  0.884332  0.588857  1
  Er  Er8  1  0.000000  0.384332  0.911143  1
  Er  Er9  1  0.000000  0.615668  0.088857  1
  In  In10  1  0.500000  0.425044  0.350365  1
  In  In11  1  0.500000  0.574956  0.649635  1
  In  In12  1  0.500000  0.074956  0.850365  1
  In  In13  1  0.500000  0.925044  0.149635  1
  In  In14  1  0.500000  0.294282  0.067136  1
  In  In15  1  0.500000  0.705718  0.932864  1
  In  In16  1  0.500000  0.205718  0.567136  1
  In  In17  1  0.500000  0.794282  0.432864  1
  Ir  Ir18  1  0.500000  0.022228  0.304593  1
  Ir  Ir19  1  0.500000  0.977772  0.695407  1
  Ir  Ir20  1  0.500000  0.477772  0.804593  1
  Ir  Ir21  1  0.500000  0.522228  0.195407  1
