# generated using pymatgen
data_Co6Re(MoW)3
_symmetry_space_group_name_H-M   'P 1'
_cell_length_a   9.14109576
_cell_length_b   9.14109645
_cell_length_c   9.14109705
_cell_angle_alpha   30.21115757
_cell_angle_beta   30.21115041
_cell_angle_gamma   30.21115507
_symmetry_Int_Tables_number   1
_chemical_formula_structural   Co6Re(MoW)3
_chemical_formula_sum   'Co6 Re1 Mo3 W3'
_cell_volume   171.36375924
_cell_formula_units_Z   1
loop_
 _symmetry_equiv_pos_site_id
 _symmetry_equiv_pos_as_xyz
  1  'x, y, z'
loop_
 _atom_site_type_symbol
 _atom_site_label
 _atom_site_symmetry_multiplicity
 _atom_site_fract_x
 _atom_site_fract_y
 _atom_site_fract_z
 _atom_site_occupancy
  Co  Co0  1  0.090457  0.090457  0.583734  1
  Co  Co1  1  0.416373  0.909538  0.909538  1
  Co  Co2  1  0.583734  0.090457  0.090457  1
  Co  Co3  1  0.909538  0.909538  0.416373  1
  Co  Co4  1  0.909538  0.416373  0.909538  1
  Co  Co5  1  0.090457  0.583734  0.090457  1
  Re  Re6  1  0.000140  0.000140  0.000140  1
  Mo  Mo7  1  0.548885  0.548885  0.548885  1
  Mo  Mo8  1  0.162463  0.162463  0.162463  1
  Mo  Mo9  1  0.349654  0.349654  0.349654  1
  W  W10  1  0.837346  0.837346  0.837346  1
  W  W11  1  0.650241  0.650241  0.650241  1
  W  W12  1  0.451175  0.451175  0.451175  1
