# generated using pymatgen
data_Y3In3Cu2Pt
_symmetry_space_group_name_H-M   'P 1'
_cell_length_a   7.57529500
_cell_length_b   7.57529346
_cell_length_c   3.90624500
_cell_angle_alpha   90.00000000
_cell_angle_beta   90.00000000
_cell_angle_gamma   119.99999362
_symmetry_Int_Tables_number   1
_chemical_formula_structural   Y3In3Cu2Pt
_chemical_formula_sum   'Y3 In3 Cu2 Pt1'
_cell_volume   194.12843352
_cell_formula_units_Z   1
loop_
 _symmetry_equiv_pos_site_id
 _symmetry_equiv_pos_as_xyz
  1  'x, y, z'
loop_
 _atom_site_type_symbol
 _atom_site_label
 _atom_site_symmetry_multiplicity
 _atom_site_fract_x
 _atom_site_fract_y
 _atom_site_fract_z
 _atom_site_occupancy
  Y  Y0  1  0.408474  0.994063  0.500000  1
  Y  Y1  1  0.005937  0.414411  0.500000  1
  Y  Y2  1  0.585589  0.591526  0.500000  1
  In  In3  1  0.752682  0.007923  0.000000  1
  In  In4  1  0.992077  0.744758  0.000000  1
  In  In5  1  0.255242  0.247318  0.000000  1
  Cu  Cu6  1  0.666667  0.333333  0.000000  1
  Cu  Cu7  1  0.000000  0.000000  0.500000  1
  Pt  Pt8  1  0.333333  0.666667  0.000000  1
