# generated using pymatgen
data_Er20Si3Bi8As
_symmetry_space_group_name_H-M   'P 1'
_cell_length_a   11.93449091
_cell_length_b   9.12207900
_cell_length_c   7.99516236
_cell_angle_alpha   90.00000000
_cell_angle_beta   89.82485330
_cell_angle_gamma   90.00000000
_symmetry_Int_Tables_number   1
_chemical_formula_structural   Er20Si3Bi8As
_chemical_formula_sum   'Er20 Si3 Bi8 As1'
_cell_volume   870.40822322
_cell_formula_units_Z   1
loop_
 _symmetry_equiv_pos_site_id
 _symmetry_equiv_pos_as_xyz
  1  'x, y, z'
loop_
 _atom_site_type_symbol
 _atom_site_label
 _atom_site_symmetry_multiplicity
 _atom_site_fract_x
 _atom_site_fract_y
 _atom_site_fract_z
 _atom_site_occupancy
  Er  Er0  1  0.061608  0.555028  0.820407  1
  Er  Er1  1  0.562662  0.946426  0.681711  1
  Er  Er2  1  0.938180  0.054666  0.179542  1
  Er  Er3  1  0.438097  0.441509  0.320551  1
  Er  Er4  1  0.938180  0.445334  0.179542  1
  Er  Er5  1  0.438097  0.058491  0.320551  1
  Er  Er6  1  0.061608  0.944972  0.820407  1
  Er  Er7  1  0.562662  0.553574  0.681711  1
  Er  Er8  1  0.001646  0.750000  0.461376  1
  Er  Er9  1  0.500639  0.750000  0.035462  1
  Er  Er10  1  0.999018  0.250000  0.539354  1
  Er  Er11  1  0.498796  0.250000  0.960553  1
  Er  Er12  1  0.209095  0.750000  0.162643  1
  Er  Er13  1  0.713140  0.750000  0.334943  1
  Er  Er14  1  0.788712  0.250000  0.835493  1
  Er  Er15  1  0.289011  0.250000  0.664120  1
  Er  Er16  1  0.293364  0.750000  0.640432  1
  Er  Er17  1  0.793661  0.750000  0.862003  1
  Er  Er18  1  0.705320  0.250000  0.362122  1
  Er  Er19  1  0.205959  0.250000  0.137951  1
  Si  Si20  1  0.976452  0.750000  0.088906  1
  Si  Si21  1  0.522342  0.250000  0.588530  1
  Si  Si22  1  0.023080  0.250000  0.910400  1
  Bi  Bi23  1  0.325559  0.510718  0.932354  1
  Bi  Bi24  1  0.825265  0.989221  0.567341  1
  Bi  Bi25  1  0.674133  0.010164  0.068484  1
  Bi  Bi26  1  0.175283  0.489913  0.432257  1
  Bi  Bi27  1  0.674133  0.489836  0.068484  1
  Bi  Bi28  1  0.175283  0.010087  0.432257  1
  Bi  Bi29  1  0.325559  0.989282  0.932354  1
  Bi  Bi30  1  0.825265  0.510779  0.567341  1
  As  As31  1  0.478190  0.750000  0.410418  1
