# generated using pymatgen
data_Tb15Dy3(ErSn8)2
_symmetry_space_group_name_H-M   'P 1'
_cell_length_a   8.05154600
_cell_length_b   8.20258520
_cell_length_c   15.51025900
_cell_angle_alpha   90.00326902
_cell_angle_beta   90.00053371
_cell_angle_gamma   90.01207719
_symmetry_Int_Tables_number   1
_chemical_formula_structural   Tb15Dy3(ErSn8)2
_chemical_formula_sum   'Tb15 Dy3 Er2 Sn16'
_cell_volume   1024.35164209
_cell_formula_units_Z   1
loop_
 _symmetry_equiv_pos_site_id
 _symmetry_equiv_pos_as_xyz
  1  'x, y, z'
loop_
 _atom_site_type_symbol
 _atom_site_label
 _atom_site_symmetry_multiplicity
 _atom_site_fract_x
 _atom_site_fract_y
 _atom_site_fract_z
 _atom_site_occupancy
  Tb  Tb0  1  0.867306  0.663713  0.621794  1
  Tb  Tb1  1  0.632490  0.163654  0.378001  1
  Tb  Tb2  1  0.132682  0.336268  0.121718  1
  Tb  Tb3  1  0.632492  0.163706  0.121978  1
  Tb  Tb4  1  0.132489  0.336320  0.377999  1
  Tb  Tb5  1  0.367407  0.836299  0.621744  1
  Tb  Tb6  1  0.867484  0.663658  0.878441  1
  Tb  Tb7  1  0.519912  0.320075  0.902452  1
  Tb  Tb8  1  0.019975  0.179795  0.597678  1
  Tb  Tb9  1  0.480048  0.679863  0.402177  1
  Tb  Tb10  1  0.979902  0.820107  0.097852  1
  Tb  Tb11  1  0.480026  0.679901  0.097630  1
  Tb  Tb12  1  0.980039  0.820190  0.402130  1
  Tb  Tb13  1  0.519905  0.320196  0.597694  1
  Tb  Tb14  1  0.019989  0.179737  0.902363  1
  Dy  Dy15  1  0.367302  0.836466  0.878097  1
  Dy  Dy16  1  0.198617  0.502432  0.750123  1
  Dy  Dy17  1  0.698488  0.997540  0.750077  1
  Er  Er18  1  0.801519  0.497656  0.249982  1
  Er  Er19  1  0.301461  0.002387  0.249849  1
  Sn  Sn20  1  0.292907  0.035322  0.042263  1
  Sn  Sn21  1  0.792909  0.464389  0.457368  1
  Sn  Sn22  1  0.707048  0.964195  0.541778  1
  Sn  Sn23  1  0.207580  0.536474  0.958147  1
  Sn  Sn24  1  0.706322  0.963975  0.958197  1
  Sn  Sn25  1  0.206943  0.535798  0.541783  1
  Sn  Sn26  1  0.292872  0.035678  0.457329  1
  Sn  Sn27  1  0.792929  0.464201  0.042793  1
  Sn  Sn28  1  0.565047  0.618409  0.750253  1
  Sn  Sn29  1  0.065442  0.881634  0.750255  1
  Sn  Sn30  1  0.435574  0.381669  0.249948  1
  Sn  Sn31  1  0.935580  0.118530  0.249892  1
  Sn  Sn32  1  0.328361  0.146807  0.750215  1
  Sn  Sn33  1  0.828248  0.353122  0.750136  1
  Sn  Sn34  1  0.671315  0.852389  0.249938  1
  Sn  Sn35  1  0.171387  0.647448  0.249925  1
