# generated using pymatgen
data_GdIO4
_symmetry_space_group_name_H-M   'P 1'
_cell_length_a   5.07106354
_cell_length_b   5.07106248
_cell_length_c   7.33575700
_cell_angle_alpha   90.00000000
_cell_angle_beta   90.00000000
_cell_angle_gamma   94.69622077
_symmetry_Int_Tables_number   1
_chemical_formula_structural   GdIO4
_chemical_formula_sum   'Gd2 I2 O8'
_cell_volume   188.01066247
_cell_formula_units_Z   2
loop_
 _symmetry_equiv_pos_site_id
 _symmetry_equiv_pos_as_xyz
  1  'x, y, z'
loop_
 _atom_site_type_symbol
 _atom_site_label
 _atom_site_symmetry_multiplicity
 _atom_site_fract_x
 _atom_site_fract_y
 _atom_site_fract_z
 _atom_site_occupancy
  Gd  Gd0  1  0.000000  0.000000  0.000000  1
  Gd  Gd1  1  0.000000  0.000000  0.500000  1
  I  I2  1  0.468726  0.531274  0.750000  1
  I  I3  1  0.531274  0.468726  0.250000  1
  O  O4  1  0.310586  0.689414  0.946234  1
  O  O5  1  0.310586  0.689414  0.553766  1
  O  O6  1  0.689414  0.310586  0.053766  1
  O  O7  1  0.689414  0.310586  0.446234  1
  O  O8  1  0.828719  0.761189  0.250000  1
  O  O9  1  0.238811  0.171281  0.250000  1
  O  O10  1  0.761189  0.828719  0.750000  1
  O  O11  1  0.171281  0.238811  0.750000  1
