# generated using pymatgen
data_Pr2BeB3Rh5
_symmetry_space_group_name_H-M   'P 1'
_cell_length_a   7.66406088
_cell_length_b   6.44797942
_cell_length_c   5.68382915
_cell_angle_alpha   77.25937137
_cell_angle_beta   55.40367263
_cell_angle_gamma   46.52034991
_symmetry_Int_Tables_number   1
_chemical_formula_structural   Pr2BeB3Rh5
_chemical_formula_sum   'Pr2 Be1 B3 Rh5'
_cell_volume   160.82176943
_cell_formula_units_Z   1
loop_
 _symmetry_equiv_pos_site_id
 _symmetry_equiv_pos_as_xyz
  1  'x, y, z'
loop_
 _atom_site_type_symbol
 _atom_site_label
 _atom_site_symmetry_multiplicity
 _atom_site_fract_x
 _atom_site_fract_y
 _atom_site_fract_z
 _atom_site_occupancy
  Pr  Pr0  1  0.862956  0.861000  0.139000  1
  Pr  Pr1  1  0.145335  0.145506  0.854494  1
  Be  Be2  1  0.784740  0.478533  0.521467  1
  B  B3  1  0.202807  0.534050  0.465950  1
  B  B4  1  0.538955  0.207283  0.792717  1
  B  B5  1  0.467890  0.789285  0.210715  1
  Rh  Rh6  1  0.750863  0.753568  0.756451  1
  Rh  Rh7  1  0.496758  0.499705  0.005917  1
  Rh  Rh8  1  0.486433  0.493438  0.506562  1
  Rh  Rh9  1  0.002380  0.994083  0.500295  1
  Rh  Rh10  1  0.260882  0.243549  0.246432  1
