# generated using pymatgen
data_Tc4GeAs4P
_symmetry_space_group_name_H-M   'P 1'
_cell_length_a   6.30241342
_cell_length_b   6.71929607
_cell_length_c   8.13024959
_cell_angle_alpha   95.67159481
_cell_angle_beta   101.16163119
_cell_angle_gamma   103.58022362
_symmetry_Int_Tables_number   1
_chemical_formula_structural   Tc4GeAs4P
_chemical_formula_sum   'Tc8 Ge2 As8 P2'
_cell_volume   324.56240350
_cell_formula_units_Z   2
loop_
 _symmetry_equiv_pos_site_id
 _symmetry_equiv_pos_as_xyz
  1  'x, y, z'
loop_
 _atom_site_type_symbol
 _atom_site_label
 _atom_site_symmetry_multiplicity
 _atom_site_fract_x
 _atom_site_fract_y
 _atom_site_fract_z
 _atom_site_occupancy
  Tc  Tc0  1  0.899268  0.425933  0.140441  1
  Tc  Tc1  1  0.100732  0.574067  0.859559  1
  Tc  Tc2  1  0.383971  0.426998  0.138650  1
  Tc  Tc3  1  0.616029  0.573002  0.861350  1
  Tc  Tc4  1  0.551740  0.867034  0.366184  1
  Tc  Tc5  1  0.448260  0.132966  0.633816  1
  Tc  Tc6  1  0.065832  0.868382  0.369513  1
  Tc  Tc7  1  0.934168  0.131618  0.630487  1
  Ge  Ge8  1  0.737199  0.567543  0.381132  1
  Ge  Ge9  1  0.262801  0.432457  0.618868  1
  As  As10  1  0.867310  0.150687  0.321308  1
  As  As11  1  0.132690  0.849313  0.678692  1
  As  As12  1  0.370724  0.156947  0.324507  1
  As  As13  1  0.629276  0.843053  0.675493  1
  As  As14  1  0.538578  0.198402  0.955040  1
  As  As15  1  0.461422  0.801598  0.044960  1
  As  As16  1  0.036874  0.194477  0.951716  1
  As  As17  1  0.963126  0.805523  0.048284  1
  P  P18  1  0.234461  0.578764  0.362197  1
  P  P19  1  0.765539  0.421236  0.637803  1
