# generated using pymatgen
data_Er8Hf12Si15Pt
_symmetry_space_group_name_H-M   'P 1'
_cell_length_a   7.28151565
_cell_length_b   7.25580440
_cell_length_c   13.34780760
_cell_angle_alpha   90.07002241
_cell_angle_beta   89.95301905
_cell_angle_gamma   89.98834030
_symmetry_Int_Tables_number   1
_chemical_formula_structural   Er8Hf12Si15Pt
_chemical_formula_sum   'Er8 Hf12 Si15 Pt1'
_cell_volume   705.20732135
_cell_formula_units_Z   1
loop_
 _symmetry_equiv_pos_site_id
 _symmetry_equiv_pos_as_xyz
  1  'x, y, z'
loop_
 _atom_site_type_symbol
 _atom_site_label
 _atom_site_symmetry_multiplicity
 _atom_site_fract_x
 _atom_site_fract_y
 _atom_site_fract_z
 _atom_site_occupancy
  Er  Er0  1  0.496505  0.154637  0.535121  1
  Er  Er1  1  0.499813  0.841599  0.034268  1
  Er  Er2  1  0.653776  0.004453  0.285891  1
  Er  Er3  1  0.344888  0.995291  0.784028  1
  Er  Er4  1  0.848409  0.505466  0.964528  1
  Er  Er5  1  0.153245  0.494973  0.464919  1
  Er  Er6  1  0.003897  0.654319  0.715160  1
  Er  Er7  1  0.994927  0.344546  0.214304  1
  Hf  Hf8  1  0.676909  0.324081  0.748952  1
  Hf  Hf9  1  0.324036  0.674395  0.250132  1
  Hf  Hf10  1  0.823675  0.823758  0.500078  1
  Hf  Hf11  1  0.176882  0.176140  0.000465  1
  Hf  Hf12  1  0.502926  0.351523  0.124807  1
  Hf  Hf13  1  0.502922  0.647437  0.625397  1
  Hf  Hf14  1  0.851448  0.005149  0.875177  1
  Hf  Hf15  1  0.148331  0.996759  0.375517  1
  Hf  Hf16  1  0.646601  0.503422  0.375981  1
  Hf  Hf17  1  0.351763  0.499332  0.873711  1
  Hf  Hf18  1  0.005103  0.854179  0.128764  1
  Hf  Hf19  1  0.996533  0.146854  0.624098  1
  Si  Si20  1  0.205191  0.859242  0.568756  1
  Si  Si21  1  0.640850  0.703939  0.817511  1
  Si  Si22  1  0.359438  0.295692  0.317948  1
  Si  Si23  1  0.859262  0.204104  0.432568  1
  Si  Si24  1  0.141770  0.795595  0.931316  1
  Si  Si25  1  0.699872  0.643214  0.184795  1
  Si  Si26  1  0.296001  0.359055  0.681845  1
  Si  Si27  1  0.546712  0.206866  0.933166  1
  Si  Si28  1  0.449792  0.795619  0.435893  1
  Si  Si29  1  0.704205  0.950391  0.685282  1
  Si  Si30  1  0.296290  0.051311  0.186921  1
  Si  Si31  1  0.796452  0.450638  0.564565  1
  Si  Si32  1  0.206080  0.550545  0.063278  1
  Si  Si33  1  0.949385  0.704464  0.315722  1
  Si  Si34  1  0.051201  0.295631  0.812483  1
  Pt  Pt35  1  0.794910  0.135380  0.066654  1
