# generated using pymatgen
data_La6PaO12
_symmetry_space_group_name_H-M   'P 1'
_cell_length_a   6.95996484
_cell_length_b   6.95996487
_cell_length_c   6.95996554
_cell_angle_alpha   99.02110330
_cell_angle_beta   99.02110527
_cell_angle_gamma   99.02112215
_symmetry_Int_Tables_number   1
_chemical_formula_structural   La6PaO12
_chemical_formula_sum   'La6 Pa1 O12'
_cell_volume   323.12348289
_cell_formula_units_Z   1
loop_
 _symmetry_equiv_pos_site_id
 _symmetry_equiv_pos_as_xyz
  1  'x, y, z'
loop_
 _atom_site_type_symbol
 _atom_site_label
 _atom_site_symmetry_multiplicity
 _atom_site_fract_x
 _atom_site_fract_y
 _atom_site_fract_z
 _atom_site_occupancy
  La  La0  1  0.301092  0.605872  0.139252  1
  La  La1  1  0.605872  0.139252  0.301092  1
  La  La2  1  0.394128  0.860748  0.698908  1
  La  La3  1  0.698908  0.394128  0.860748  1
  La  La4  1  0.860748  0.698908  0.394128  1
  La  La5  1  0.139252  0.301092  0.605872  1
  Pa  Pa6  1  0.000000  0.000000  0.000000  1
  O  O7  1  0.436024  0.176540  0.589806  1
  O  O8  1  0.931857  0.695597  0.052365  1
  O  O9  1  0.176540  0.589806  0.436024  1
  O  O10  1  0.823460  0.410194  0.563976  1
  O  O11  1  0.563976  0.823460  0.410194  1
  O  O12  1  0.589806  0.436024  0.176540  1
  O  O13  1  0.410194  0.563976  0.823460  1
  O  O14  1  0.947635  0.068143  0.304403  1
  O  O15  1  0.052365  0.931857  0.695597  1
  O  O16  1  0.695597  0.052365  0.931857  1
  O  O17  1  0.068143  0.304403  0.947635  1
  O  O18  1  0.304403  0.947635  0.068143  1
