# generated using pymatgen
data_Th4As3N4
_symmetry_space_group_name_H-M   'P 1'
_cell_length_a   7.19213012
_cell_length_b   7.19212853
_cell_length_c   8.22344900
_cell_angle_alpha   89.98973124
_cell_angle_beta   90.01026876
_cell_angle_gamma   146.83618087
_symmetry_Int_Tables_number   1
_chemical_formula_structural   Th4As3N4
_chemical_formula_sum   'Th4 As3 N4'
_cell_volume   232.69329106
_cell_formula_units_Z   1
loop_
 _symmetry_equiv_pos_site_id
 _symmetry_equiv_pos_as_xyz
  1  'x, y, z'
loop_
 _atom_site_type_symbol
 _atom_site_label
 _atom_site_symmetry_multiplicity
 _atom_site_fract_x
 _atom_site_fract_y
 _atom_site_fract_z
 _atom_site_occupancy
  Th  Th0  1  0.323226  0.676774  0.241256  1
  Th  Th1  1  0.982940  0.017060  0.499995  1
  Th  Th2  1  0.994636  0.005364  0.000041  1
  Th  Th3  1  0.323262  0.676738  0.758687  1
  As  As4  1  0.627918  0.372082  0.727810  1
  As  As5  1  0.627925  0.372075  0.272240  1
  As  As6  1  0.698954  0.301046  0.000004  1
  N  N7  1  0.412718  0.587282  0.000000  1
  N  N8  1  0.905709  0.094291  0.751984  1
  N  N9  1  0.905667  0.094333  0.247997  1
  N  N10  1  0.394938  0.605062  0.499985  1
