# generated using pymatgen
data_Y5ZnGaBi
_symmetry_space_group_name_H-M   'P 1'
_cell_length_a   8.61376617
_cell_length_b   8.61376630
_cell_length_c   8.76260248
_cell_angle_alpha   123.67138591
_cell_angle_beta   123.67138780
_cell_angle_gamma   82.64495455
_symmetry_Int_Tables_number   1
_chemical_formula_structural   Y5ZnGaBi
_chemical_formula_sum   'Y10 Zn2 Ga2 Bi2'
_cell_volume   434.94182254
_cell_formula_units_Z   2
loop_
 _symmetry_equiv_pos_site_id
 _symmetry_equiv_pos_as_xyz
  1  'x, y, z'
loop_
 _atom_site_type_symbol
 _atom_site_label
 _atom_site_symmetry_multiplicity
 _atom_site_fract_x
 _atom_site_fract_y
 _atom_site_fract_z
 _atom_site_occupancy
  Y  Y0  1  0.000000  0.000000  0.000000  1
  Y  Y1  1  0.500000  0.500000  0.000000  1
  Y  Y2  1  0.795387  0.295387  0.800001  1
  Y  Y3  1  0.204613  0.704613  0.199999  1
  Y  Y4  1  0.495386  0.995386  0.199999  1
  Y  Y5  1  0.291973  0.482882  0.500000  1
  Y  Y6  1  0.017118  0.208027  0.500000  1
  Y  Y7  1  0.504614  0.004614  0.800001  1
  Y  Y8  1  0.708027  0.517118  0.500000  1
  Y  Y9  1  0.982882  0.791973  0.500000  1
  Zn  Zn10  1  0.636831  0.863169  0.500000  1
  Zn  Zn11  1  0.363169  0.136831  0.500000  1
  Ga  Ga12  1  0.152626  0.652626  0.805253  1
  Ga  Ga13  1  0.847374  0.347374  0.194747  1
  Bi  Bi14  1  0.250000  0.250000  0.000000  1
  Bi  Bi15  1  0.750000  0.750000  0.000000  1
