# generated using pymatgen
data_Na4Fe4Cl10O
_symmetry_space_group_name_H-M   'P 1'
_cell_length_a   10.62261014
_cell_length_b   10.62324774
_cell_length_c   9.03378465
_cell_angle_alpha   79.60806990
_cell_angle_beta   79.55097211
_cell_angle_gamma   90.49411494
_symmetry_Int_Tables_number   1
_chemical_formula_structural   Na4Fe4Cl10O
_chemical_formula_sum   'Na8 Fe8 Cl20 O2'
_cell_volume   985.18101454
_cell_formula_units_Z   2
loop_
 _symmetry_equiv_pos_site_id
 _symmetry_equiv_pos_as_xyz
  1  'x, y, z'
loop_
 _atom_site_type_symbol
 _atom_site_label
 _atom_site_symmetry_multiplicity
 _atom_site_fract_x
 _atom_site_fract_y
 _atom_site_fract_z
 _atom_site_occupancy
  Na  Na0  1  0.280809  0.428082  0.162386  1
  Na  Na1  1  0.725583  0.944648  0.871405  1
  Na  Na2  1  0.945164  0.725729  0.372458  1
  Na  Na3  1  0.572884  0.719197  0.337303  1
  Na  Na4  1  0.427116  0.280803  0.662697  1
  Na  Na5  1  0.054836  0.274271  0.627542  1
  Na  Na6  1  0.719191  0.571918  0.837614  1
  Na  Na7  1  0.274417  0.055352  0.128595  1
  Fe  Fe8  1  0.956883  0.239603  0.114800  1
  Fe  Fe9  1  0.043117  0.760397  0.885200  1
  Fe  Fe10  1  0.644365  0.236692  0.121331  1
  Fe  Fe11  1  0.763420  0.355206  0.378481  1
  Fe  Fe12  1  0.236580  0.644794  0.621519  1
  Fe  Fe13  1  0.355635  0.763308  0.878669  1
  Fe  Fe14  1  0.761051  0.042754  0.385259  1
  Fe  Fe15  1  0.238949  0.957246  0.614741  1
  Cl  Cl16  1  0.155045  0.276292  0.948725  1
  Cl  Cl17  1  0.994350  0.006985  0.251567  1
  Cl  Cl18  1  0.722487  0.844480  0.551049  1
  Cl  Cl19  1  0.369232  0.007360  0.811779  1
  Cl  Cl20  1  0.257026  0.464976  0.500277  1
  Cl  Cl21  1  0.992303  0.631161  0.688172  1
  Cl  Cl22  1  0.826222  0.313327  0.901298  1
  Cl  Cl23  1  0.423893  0.575588  0.750041  1
  Cl  Cl24  1  0.464468  0.257461  0.000571  1
  Cl  Cl25  1  0.005650  0.993015  0.748433  1
  Cl  Cl26  1  0.312010  0.826962  0.401721  1
  Cl  Cl27  1  0.007697  0.368839  0.311828  1
  Cl  Cl28  1  0.844955  0.723708  0.051275  1
  Cl  Cl29  1  0.742974  0.535024  0.499723  1
  Cl  Cl30  1  0.630768  0.992640  0.188221  1
  Cl  Cl31  1  0.687990  0.173038  0.598279  1
  Cl  Cl32  1  0.173778  0.686673  0.098702  1
  Cl  Cl33  1  0.576107  0.424412  0.249959  1
  Cl  Cl34  1  0.277513  0.155520  0.448951  1
  Cl  Cl35  1  0.535532  0.742539  0.999429  1
  O  O36  1  0.217165  0.782823  0.750543  1
  O  O37  1  0.782835  0.217177  0.249457  1
