# generated using pymatgen
data_Ce6Nd2Al8ZnRu7
_symmetry_space_group_name_H-M   'P 1'
_cell_length_a   4.12732700
_cell_length_b   7.32986971
_cell_length_c   15.94182748
_cell_angle_alpha   90.09673541
_cell_angle_beta   90.00000000
_cell_angle_gamma   90.00000000
_symmetry_Int_Tables_number   1
_chemical_formula_structural   Ce6Nd2Al8ZnRu7
_chemical_formula_sum   'Ce6 Nd2 Al8 Zn1 Ru7'
_cell_volume   482.28373914
_cell_formula_units_Z   1
loop_
 _symmetry_equiv_pos_site_id
 _symmetry_equiv_pos_as_xyz
  1  'x, y, z'
loop_
 _atom_site_type_symbol
 _atom_site_label
 _atom_site_symmetry_multiplicity
 _atom_site_fract_x
 _atom_site_fract_y
 _atom_site_fract_z
 _atom_site_occupancy
  Ce  Ce0  1  0.750000  0.819287  0.437129  1
  Ce  Ce1  1  0.750000  0.454034  0.283572  1
  Ce  Ce2  1  0.750000  0.331110  0.064516  1
  Ce  Ce3  1  0.250000  0.662532  0.948358  1
  Ce  Ce4  1  0.250000  0.065085  0.778434  1
  Ce  Ce5  1  0.250000  0.530665  0.714108  1
  Nd  Nd6  1  0.750000  0.959312  0.218184  1
  Nd  Nd7  1  0.250000  0.155773  0.556325  1
  Al  Al8  1  0.750000  0.488736  0.561569  1
  Al  Al9  1  0.750000  0.365591  0.853637  1
  Al  Al10  1  0.750000  0.007550  0.939107  1
  Al  Al11  1  0.750000  0.868480  0.646903  1
  Al  Al12  1  0.250000  0.490038  0.437392  1
  Al  Al13  1  0.250000  0.997855  0.063254  1
  Al  Al14  1  0.250000  0.636015  0.152838  1
  Al  Al15  1  0.250000  0.129524  0.345556  1
  Zn  Zn16  1  0.750000  0.757950  0.812567  1
  Ru  Ru17  1  0.250000  0.239403  0.938228  1
  Ru  Ru18  1  0.750000  0.275365  0.420232  1
  Ru  Ru19  1  0.250000  0.759679  0.328957  1
  Ru  Ru20  1  0.750000  0.760787  0.061889  1
  Ru  Ru21  1  0.750000  0.249446  0.693617  1
  Ru  Ru22  1  0.250000  0.276334  0.174672  1
  Ru  Ru23  1  0.250000  0.719452  0.568958  1
