# generated using pymatgen
data_Er2Tm2Zn4Ir3Pt
_symmetry_space_group_name_H-M   'P 1'
_cell_length_a   4.04132300
_cell_length_b   6.95777815
_cell_length_c   8.11257300
_cell_angle_alpha   89.94535155
_cell_angle_beta   90.00000000
_cell_angle_gamma   90.00000000
_symmetry_Int_Tables_number   1
_chemical_formula_structural   Er2Tm2Zn4Ir3Pt
_chemical_formula_sum   'Er2 Tm2 Zn4 Ir3 Pt1'
_cell_volume   228.11432556
_cell_formula_units_Z   1
loop_
 _symmetry_equiv_pos_site_id
 _symmetry_equiv_pos_as_xyz
  1  'x, y, z'
loop_
 _atom_site_type_symbol
 _atom_site_label
 _atom_site_symmetry_multiplicity
 _atom_site_fract_x
 _atom_site_fract_y
 _atom_site_fract_z
 _atom_site_occupancy
  Er  Er0  1  0.750000  0.959144  0.681608  1
  Er  Er1  1  0.750000  0.462070  0.813880  1
  Tm  Tm2  1  0.250000  0.036196  0.321542  1
  Tm  Tm3  1  0.250000  0.546300  0.183662  1
  Zn  Zn4  1  0.250000  0.636705  0.564017  1
  Zn  Zn5  1  0.250000  0.134142  0.933466  1
  Zn  Zn6  1  0.750000  0.364664  0.438019  1
  Zn  Zn7  1  0.750000  0.861093  0.064350  1
  Ir  Ir8  1  0.250000  0.252959  0.622333  1
  Ir  Ir9  1  0.250000  0.752467  0.878571  1
  Ir  Ir10  1  0.750000  0.747042  0.376247  1
  Pt  Pt11  1  0.750000  0.247217  0.122306  1
