# generated using pymatgen
data_Yb3Dy2Ho3(B6Os)4
_symmetry_space_group_name_H-M   'P 1'
_cell_length_a   3.64507100
_cell_length_b   9.14792739
_cell_length_c   11.53699800
_cell_angle_alpha   89.92329739
_cell_angle_beta   90.00000000
_cell_angle_gamma   90.00000000
_symmetry_Int_Tables_number   1
_chemical_formula_structural   Yb3Dy2Ho3(B6Os)4
_chemical_formula_sum   'Yb3 Dy2 Ho3 B24 Os4'
_cell_volume   384.69906334
_cell_formula_units_Z   1
loop_
 _symmetry_equiv_pos_site_id
 _symmetry_equiv_pos_as_xyz
  1  'x, y, z'
loop_
 _atom_site_type_symbol
 _atom_site_label
 _atom_site_symmetry_multiplicity
 _atom_site_fract_x
 _atom_site_fract_y
 _atom_site_fract_z
 _atom_site_occupancy
  Yb  Yb0  1  0.000000  0.324695  0.414408  1
  Yb  Yb1  1  0.000000  0.675355  0.585174  1
  Yb  Yb2  1  0.000000  0.823220  0.086298  1
  Dy  Dy3  1  0.000000  0.175960  0.914737  1
  Dy  Dy4  1  0.000000  0.941164  0.367727  1
  Ho  Ho5  1  0.000000  0.058096  0.630837  1
  Ho  Ho6  1  0.000000  0.443061  0.132145  1
  Ho  Ho7  1  0.000000  0.558685  0.868551  1
  B  B8  1  0.500000  0.552874  0.433203  1
  B  B9  1  0.500000  0.446419  0.567631  1
  B  B10  1  0.500000  0.053505  0.066817  1
  B  B11  1  0.500000  0.946029  0.933302  1
  B  B12  1  0.500000  0.747472  0.417478  1
  B  B13  1  0.500000  0.251951  0.582459  1
  B  B14  1  0.500000  0.248628  0.082000  1
  B  B15  1  0.500000  0.752154  0.917925  1
  B  B16  1  0.500000  0.790062  0.264403  1
  B  B17  1  0.500000  0.209164  0.735527  1
  B  B18  1  0.500000  0.290877  0.234639  1
  B  B19  1  0.500000  0.710334  0.765154  1
  B  B20  1  0.500000  0.630858  0.186287  1
  B  B21  1  0.500000  0.369131  0.814592  1
  B  B22  1  0.500000  0.131280  0.313033  1
  B  B23  1  0.500000  0.869325  0.685611  1
  B  B24  1  0.500000  0.983061  0.210407  1
  B  B25  1  0.500000  0.016902  0.788498  1
  B  B26  1  0.500000  0.483509  0.289122  1
  B  B27  1  0.500000  0.516299  0.711573  1
  B  B28  1  0.500000  0.599467  0.027669  1
  B  B29  1  0.500000  0.400122  0.972439  1
  B  B30  1  0.500000  0.097841  0.472695  1
  B  B31  1  0.500000  0.902356  0.527025  1
  Os  Os32  1  0.000000  0.637986  0.321069  1
  Os  Os33  1  0.000000  0.360440  0.680466  1
  Os  Os34  1  0.000000  0.138357  0.178458  1
  Os  Os35  1  0.000000  0.863362  0.820644  1
