# generated using pymatgen
data_YTm2LuPt4F28
_symmetry_space_group_name_H-M   'P 1'
_cell_length_a   5.51124842
_cell_length_b   8.81436731
_cell_length_c   11.91889458
_cell_angle_alpha   62.57787087
_cell_angle_beta   89.92200807
_cell_angle_gamma   89.99135262
_symmetry_Int_Tables_number   1
_chemical_formula_structural   YTm2LuPt4F28
_chemical_formula_sum   'Y1 Tm2 Lu1 Pt4 F28'
_cell_volume   513.93988748
_cell_formula_units_Z   1
loop_
 _symmetry_equiv_pos_site_id
 _symmetry_equiv_pos_as_xyz
  1  'x, y, z'
loop_
 _atom_site_type_symbol
 _atom_site_label
 _atom_site_symmetry_multiplicity
 _atom_site_fract_x
 _atom_site_fract_y
 _atom_site_fract_z
 _atom_site_occupancy
  Y  Y0  1  0.261181  0.815729  0.264179  1
  Tm  Tm1  1  0.739151  0.183510  0.736243  1
  Tm  Tm2  1  0.761703  0.187227  0.235831  1
  Lu  Lu3  1  0.238601  0.816012  0.763597  1
  Pt  Pt4  1  0.759255  0.727233  0.040697  1
  Pt  Pt5  1  0.239984  0.274503  0.955679  1
  Pt  Pt6  1  0.259379  0.270337  0.458191  1
  Pt  Pt7  1  0.740114  0.727158  0.545501  1
  F  F8  1  0.936204  0.702598  0.417084  1
  F  F9  1  0.060609  0.295219  0.585794  1
  F  F10  1  0.438158  0.297539  0.084083  1
  F  F11  1  0.560871  0.703173  0.912903  1
  F  F12  1  0.465130  0.724452  0.134702  1
  F  F13  1  0.533121  0.273955  0.861388  1
  F  F14  1  0.965573  0.273513  0.363454  1
  F  F15  1  0.033852  0.727029  0.639493  1
  F  F16  1  0.948444  0.743896  0.174810  1
  F  F17  1  0.046847  0.255758  0.823151  1
  F  F18  1  0.452486  0.253468  0.324752  1
  F  F19  1  0.546119  0.745977  0.677853  1
  F  F20  1  0.773756  0.476540  0.141391  1
  F  F21  1  0.226586  0.525733  0.856443  1
  F  F22  1  0.273994  0.520633  0.358336  1
  F  F23  1  0.727110  0.475781  0.644064  1
  F  F24  1  0.938631  0.279946  0.043642  1
  F  F25  1  0.062639  0.722619  0.953461  1
  F  F26  1  0.439534  0.719600  0.459078  1
  F  F27  1  0.560761  0.276669  0.545499  1
  F  F28  1  0.742153  0.977722  0.449720  1
  F  F29  1  0.256174  0.019706  0.552831  1
  F  F30  1  0.243066  0.024142  0.049217  1
  F  F31  1  0.755674  0.977942  0.947171  1
  F  F32  1  0.590222  0.973189  0.231681  1
  F  F33  1  0.418395  0.026251  0.766998  1
  F  F34  1  0.083428  0.034653  0.267980  1
  F  F35  1  0.921097  0.970589  0.733099  1
