# generated using pymatgen
data_Rb4Mn4Cl10O
_symmetry_space_group_name_H-M   'P 1'
_cell_length_a   9.64556949
_cell_length_b   11.34981216
_cell_length_c   11.34981200
_cell_angle_alpha   90.71745455
_cell_angle_beta   99.75580176
_cell_angle_gamma   99.75579769
_symmetry_Int_Tables_number   1
_chemical_formula_structural   Rb4Mn4Cl10O
_chemical_formula_sum   'Rb8 Mn8 Cl20 O2'
_cell_volume   1205.76048710
_cell_formula_units_Z   2
loop_
 _symmetry_equiv_pos_site_id
 _symmetry_equiv_pos_as_xyz
  1  'x, y, z'
loop_
 _atom_site_type_symbol
 _atom_site_label
 _atom_site_symmetry_multiplicity
 _atom_site_fract_x
 _atom_site_fract_y
 _atom_site_fract_z
 _atom_site_occupancy
  Rb  Rb0  1  0.873649  0.285956  0.031741  1
  Rb  Rb1  1  0.373649  0.031740  0.285956  1
  Rb  Rb2  1  0.364547  0.443829  0.294114  1
  Rb  Rb3  1  0.864547  0.294113  0.443828  1
  Rb  Rb4  1  0.135453  0.705887  0.556171  1
  Rb  Rb5  1  0.635453  0.556172  0.705887  1
  Rb  Rb6  1  0.626351  0.968259  0.714044  1
  Rb  Rb7  1  0.126351  0.714044  0.968260  1
  Mn  Mn8  1  0.621939  0.765411  0.048564  1
  Mn  Mn9  1  0.871565  0.648879  0.231525  1
  Mn  Mn10  1  0.878062  0.951436  0.234589  1
  Mn  Mn11  1  0.628436  0.768475  0.351121  1
  Mn  Mn12  1  0.371565  0.231525  0.648879  1
  Mn  Mn13  1  0.121939  0.048565  0.765411  1
  Mn  Mn14  1  0.128436  0.351122  0.768475  1
  Mn  Mn15  1  0.378062  0.234589  0.951435  1
  Cl  Cl16  1  0.773658  0.603192  0.010219  1
  Cl  Cl17  1  0.750000  0.977617  0.022383  1
  Cl  Cl18  1  0.536384  0.264089  0.143727  1
  Cl  Cl19  1  0.419607  0.726148  0.176382  1
  Cl  Cl20  1  0.018477  0.493884  0.260499  1
  Cl  Cl21  1  0.036385  0.143727  0.264089  1
  Cl  Cl22  1  0.080394  0.823619  0.273852  1
  Cl  Cl23  1  0.726341  0.989781  0.396808  1
  Cl  Cl24  1  0.750000  0.586735  0.413265  1
  Cl  Cl25  1  0.518477  0.260498  0.493883  1
  Cl  Cl26  1  0.481523  0.739502  0.506117  1
  Cl  Cl27  1  0.250000  0.413265  0.586735  1
  Cl  Cl28  1  0.273658  0.010219  0.603192  1
  Cl  Cl29  1  0.919607  0.176381  0.726148  1
  Cl  Cl30  1  0.963616  0.856273  0.735911  1
  Cl  Cl31  1  0.981523  0.506116  0.739501  1
  Cl  Cl32  1  0.580394  0.273852  0.823619  1
  Cl  Cl33  1  0.463616  0.735911  0.856272  1
  Cl  Cl34  1  0.250000  0.022383  0.977617  1
  Cl  Cl35  1  0.226341  0.396807  0.989781  1
  O  O36  1  0.750000  0.782759  0.217241  1
  O  O37  1  0.250000  0.217241  0.782759  1
