# generated using pymatgen
data_LiCeInPt3
_symmetry_space_group_name_H-M   'P 1'
_cell_length_a   5.23518205
_cell_length_b   5.23518231
_cell_length_c   5.23518103
_cell_angle_alpha   63.20138642
_cell_angle_beta   63.20138954
_cell_angle_gamma   63.20139786
_symmetry_Int_Tables_number   1
_chemical_formula_structural   LiCeInPt3
_chemical_formula_sum   'Li1 Ce1 In1 Pt3'
_cell_volume   108.65607038
_cell_formula_units_Z   1
loop_
 _symmetry_equiv_pos_site_id
 _symmetry_equiv_pos_as_xyz
  1  'x, y, z'
loop_
 _atom_site_type_symbol
 _atom_site_label
 _atom_site_symmetry_multiplicity
 _atom_site_fract_x
 _atom_site_fract_y
 _atom_site_fract_z
 _atom_site_occupancy
  Li  Li0  1  0.627829  0.627829  0.627829  1
  Ce  Ce1  1  0.246898  0.246898  0.246898  1
  In  In2  1  0.995407  0.995407  0.995407  1
  Pt  Pt3  1  0.627114  0.627114  0.125638  1
  Pt  Pt4  1  0.627114  0.125638  0.627114  1
  Pt  Pt5  1  0.125638  0.627114  0.627114  1
