# generated using pymatgen
data_CeSc(B2Ir3)3
_symmetry_space_group_name_H-M   'P 1'
_cell_length_a   5.63604703
_cell_length_b   5.63426035
_cell_length_c   8.62033809
_cell_angle_alpha   90.00147292
_cell_angle_beta   90.00295506
_cell_angle_gamma   59.98951540
_symmetry_Int_Tables_number   1
_chemical_formula_structural   CeSc(B2Ir3)3
_chemical_formula_sum   'Ce1 Sc1 B6 Ir9'
_cell_volume   237.03940949
_cell_formula_units_Z   1
loop_
 _symmetry_equiv_pos_site_id
 _symmetry_equiv_pos_as_xyz
  1  'x, y, z'
loop_
 _atom_site_type_symbol
 _atom_site_label
 _atom_site_symmetry_multiplicity
 _atom_site_fract_x
 _atom_site_fract_y
 _atom_site_fract_z
 _atom_site_occupancy
  Ce  Ce0  1  0.000089  0.000000  0.696370  1
  Sc  Sc1  1  0.999835  0.000000  0.290414  1
  B  B2  1  0.666448  0.667098  0.002402  1
  B  B3  1  0.333546  0.332902  0.002402  1
  B  B4  1  0.666555  0.666862  0.332530  1
  B  B5  1  0.333418  0.333138  0.332530  1
  B  B6  1  0.333484  0.333037  0.667802  1
  B  B7  1  0.666522  0.666963  0.667802  1
  Ir  Ir8  1  0.499982  0.000000  0.166586  1
  Ir  Ir9  1  0.999980  0.500001  0.166500  1
  Ir  Ir10  1  0.499980  0.499999  0.166500  1
  Ir  Ir11  1  0.500032  0.000000  0.836962  1
  Ir  Ir12  1  0.000022  0.500017  0.836960  1
  Ir  Ir13  1  0.500040  0.499983  0.836960  1
  Ir  Ir14  1  0.500003  0.000000  0.499066  1
  Ir  Ir15  1  0.999990  0.499986  0.499107  1
  Ir  Ir16  1  0.499976  0.500014  0.499107  1
