# generated using pymatgen
data_La5Nd11(YIr3)4
_symmetry_space_group_name_H-M   'P 1'
_cell_length_a   11.27130635
_cell_length_b   11.27624172
_cell_length_c   6.54053277
_cell_angle_alpha   89.89675761
_cell_angle_beta   89.97855612
_cell_angle_gamma   89.91433974
_symmetry_Int_Tables_number   1
_chemical_formula_structural   La5Nd11(YIr3)4
_chemical_formula_sum   'La5 Nd11 Y4 Ir12'
_cell_volume   831.28613371
_cell_formula_units_Z   1
loop_
 _symmetry_equiv_pos_site_id
 _symmetry_equiv_pos_as_xyz
  1  'x, y, z'
loop_
 _atom_site_type_symbol
 _atom_site_label
 _atom_site_symmetry_multiplicity
 _atom_site_fract_x
 _atom_site_fract_y
 _atom_site_fract_z
 _atom_site_occupancy
  La  La0  1  0.289495  0.089490  0.382990  1
  La  La1  1  0.288383  0.910461  0.882974  1
  La  La2  1  0.711050  0.090920  0.883056  1
  La  La3  1  0.711137  0.911286  0.383239  1
  La  La4  1  0.588490  0.787391  0.882479  1
  Nd  Nd5  1  0.587848  0.212165  0.381579  1
  Nd  Nd6  1  0.411161  0.787633  0.381606  1
  Nd  Nd7  1  0.411980  0.212366  0.881494  1
  Nd  Nd8  1  0.210194  0.413087  0.618520  1
  Nd  Nd9  1  0.210230  0.586855  0.118522  1
  Nd  Nd10  1  0.789811  0.412831  0.117885  1
  Nd  Nd11  1  0.790385  0.586294  0.617296  1
  Nd  Nd12  1  0.913201  0.709580  0.117416  1
  Nd  Nd13  1  0.912812  0.290298  0.616729  1
  Nd  Nd14  1  0.087369  0.709740  0.616774  1
  Nd  Nd15  1  0.087260  0.290361  0.116809  1
  Y  Y16  1  0.000011  0.000048  0.499999  1
  Y  Y17  1  0.999964  0.000347  0.000027  1
  Y  Y18  1  0.499462  0.498902  0.001544  1
  Y  Y19  1  0.500115  0.499771  0.500765  1
  Ir  Ir20  1  0.849572  0.150511  0.249114  1
  Ir  Ir21  1  0.849798  0.849781  0.749175  1
  Ir  Ir22  1  0.150730  0.150248  0.748767  1
  Ir  Ir23  1  0.150544  0.849628  0.248960  1
  Ir  Ir24  1  0.649945  0.350101  0.749972  1
  Ir  Ir25  1  0.649769  0.650351  0.249366  1
  Ir  Ir26  1  0.350064  0.350102  0.250446  1
  Ir  Ir27  1  0.349474  0.649420  0.749647  1
  Ir  Ir28  1  0.499653  0.000511  0.120524  1
  Ir  Ir29  1  0.500085  0.999546  0.620837  1
  Ir  Ir30  1  0.000148  0.499882  0.880598  1
  Ir  Ir31  1  0.999862  0.500092  0.380892  1
