# generated using pymatgen
data_DyYMg2(PaNi2)2
_symmetry_space_group_name_H-M   'P 1'
_cell_length_a   7.54022114
_cell_length_b   7.45995511
_cell_length_c   3.52443400
_cell_angle_alpha   90.00000000
_cell_angle_beta   90.00000000
_cell_angle_gamma   89.91371358
_symmetry_Int_Tables_number   1
_chemical_formula_structural   DyYMg2(PaNi2)2
_chemical_formula_sum   'Dy1 Y1 Mg2 Pa2 Ni4'
_cell_volume   198.24816998
_cell_formula_units_Z   1
loop_
 _symmetry_equiv_pos_site_id
 _symmetry_equiv_pos_as_xyz
  1  'x, y, z'
loop_
 _atom_site_type_symbol
 _atom_site_label
 _atom_site_symmetry_multiplicity
 _atom_site_fract_x
 _atom_site_fract_y
 _atom_site_fract_z
 _atom_site_occupancy
  Dy  Dy0  1  0.328462  0.170239  0.500000  1
  Y  Y1  1  0.828274  0.329662  0.500000  1
  Mg  Mg2  1  0.502501  0.495512  0.000000  1
  Mg  Mg3  1  0.002585  0.004473  0.000000  1
  Pa  Pa4  1  0.169433  0.667172  0.500000  1
  Pa  Pa5  1  0.669430  0.832813  0.500000  1
  Ni  Ni6  1  0.872932  0.652253  0.000000  1
  Ni  Ni7  1  0.372788  0.848121  0.000000  1
  Ni  Ni8  1  0.626369  0.096451  0.000000  1
  Ni  Ni9  1  0.127225  0.403304  0.000000  1
