# generated using pymatgen
data_Er3In4CoPt
_symmetry_space_group_name_H-M   'P 1'
_cell_length_a   7.88803500
_cell_length_b   7.88803451
_cell_length_c   3.68971300
_cell_angle_alpha   90.00000000
_cell_angle_beta   90.00000000
_cell_angle_gamma   119.99999672
_symmetry_Int_Tables_number   1
_chemical_formula_structural   Er3In4CoPt
_chemical_formula_sum   'Er3 In4 Co1 Pt1'
_cell_volume   198.82036352
_cell_formula_units_Z   1
loop_
 _symmetry_equiv_pos_site_id
 _symmetry_equiv_pos_as_xyz
  1  'x, y, z'
loop_
 _atom_site_type_symbol
 _atom_site_label
 _atom_site_symmetry_multiplicity
 _atom_site_fract_x
 _atom_site_fract_y
 _atom_site_fract_z
 _atom_site_occupancy
  Er  Er0  1  0.699995  0.958111  0.500000  1
  Er  Er1  1  0.258115  0.300005  0.500000  1
  Er  Er2  1  0.041889  0.741885  0.500000  1
  In  In3  1  0.918820  0.340165  0.000000  1
  In  In4  1  0.421346  0.081180  0.000000  1
  In  In5  1  0.659835  0.578654  0.000000  1
  In  In6  1  0.333333  0.666667  0.000000  1
  Co  Co7  1  0.666667  0.333333  0.500000  1
  Pt  Pt8  1  0.000000  0.000000  0.000000  1
