# generated using pymatgen
data_Y8Sc11Si16Ag
_symmetry_space_group_name_H-M   'P 1'
_cell_length_a   7.04708300
_cell_length_b   7.40641340
_cell_length_c   14.03681800
_cell_angle_alpha   90.00000000
_cell_angle_beta   90.00000000
_cell_angle_gamma   89.91516098
_symmetry_Int_Tables_number   1
_chemical_formula_structural   Y8Sc11Si16Ag
_chemical_formula_sum   'Y8 Sc11 Si16 Ag1'
_cell_volume   732.63140107
_cell_formula_units_Z   1
loop_
 _symmetry_equiv_pos_site_id
 _symmetry_equiv_pos_as_xyz
  1  'x, y, z'
loop_
 _atom_site_type_symbol
 _atom_site_label
 _atom_site_symmetry_multiplicity
 _atom_site_fract_x
 _atom_site_fract_y
 _atom_site_fract_z
 _atom_site_occupancy
  Y  Y0  1  0.011251  0.175289  0.096606  1
  Y  Y1  1  0.990487  0.815503  0.900792  1
  Y  Y2  1  0.483772  0.673814  0.901235  1
  Y  Y3  1  0.990487  0.815503  0.599208  1
  Y  Y4  1  0.510834  0.323686  0.096548  1
  Y  Y5  1  0.011251  0.175289  0.403394  1
  Y  Y6  1  0.510834  0.323686  0.403452  1
  Y  Y7  1  0.483772  0.673814  0.598765  1
  Sc  Sc8  1  0.838569  0.497481  0.250000  1
  Sc  Sc9  1  0.339801  0.002565  0.250000  1
  Sc  Sc10  1  0.658178  0.998224  0.750000  1
  Sc  Sc11  1  0.326457  0.182822  0.626476  1
  Sc  Sc12  1  0.670993  0.823470  0.374918  1
  Sc  Sc13  1  0.170820  0.678295  0.374122  1
  Sc  Sc14  1  0.670993  0.823470  0.125082  1
  Sc  Sc15  1  0.835407  0.327122  0.626464  1
  Sc  Sc16  1  0.326457  0.182822  0.873524  1
  Sc  Sc17  1  0.835407  0.327122  0.873536  1
  Sc  Sc18  1  0.170820  0.678295  0.125878  1
  Si  Si19  1  0.028433  0.100774  0.750000  1
  Si  Si20  1  0.968820  0.886416  0.250000  1
  Si  Si21  1  0.467457  0.617153  0.250000  1
  Si  Si22  1  0.537423  0.384564  0.750000  1
  Si  Si23  1  0.288991  0.885401  0.750000  1
  Si  Si24  1  0.713577  0.126956  0.250000  1
  Si  Si25  1  0.212644  0.372765  0.250000  1
  Si  Si26  1  0.776349  0.628742  0.750000  1
  Si  Si27  1  0.160494  0.459970  0.531831  1
  Si  Si28  1  0.843256  0.535762  0.461974  1
  Si  Si29  1  0.344885  0.965200  0.462481  1
  Si  Si30  1  0.843256  0.535762  0.038026  1
  Si  Si31  1  0.657567  0.033904  0.540193  1
  Si  Si32  1  0.160494  0.459970  0.968169  1
  Si  Si33  1  0.657567  0.033904  0.959807  1
  Si  Si34  1  0.344885  0.965200  0.037519  1
  Ag  Ag35  1  0.157311  0.509280  0.750000  1
