# generated using pymatgen
data_BaNd2(H6Rh)2
_symmetry_space_group_name_H-M   'P 1'
_cell_length_a   5.07893600
_cell_length_b   5.07893771
_cell_length_c   8.86160700
_cell_angle_alpha   90.00000000
_cell_angle_beta   90.00000000
_cell_angle_gamma   120.00000187
_symmetry_Int_Tables_number   1
_chemical_formula_structural   BaNd2(H6Rh)2
_chemical_formula_sum   'Ba1 Nd2 H12 Rh2'
_cell_volume   197.96514678
_cell_formula_units_Z   1
loop_
 _symmetry_equiv_pos_site_id
 _symmetry_equiv_pos_as_xyz
  1  'x, y, z'
loop_
 _atom_site_type_symbol
 _atom_site_label
 _atom_site_symmetry_multiplicity
 _atom_site_fract_x
 _atom_site_fract_y
 _atom_site_fract_z
 _atom_site_occupancy
  Ba  Ba0  1  0.000000  0.000000  0.000000  1
  Nd  Nd1  1  0.666667  0.333333  0.365023  1
  Nd  Nd2  1  0.333333  0.666667  0.634977  1
  H  H3  1  0.175790  0.824210  0.381742  1
  H  H4  1  0.648419  0.824210  0.381742  1
  H  H5  1  0.175790  0.351581  0.381742  1
  H  H6  1  0.824210  0.175790  0.618258  1
  H  H7  1  0.351581  0.175790  0.618258  1
  H  H8  1  0.824210  0.648419  0.618258  1
  H  H9  1  0.508661  0.017322  0.844639  1
  H  H10  1  0.508661  0.491339  0.844639  1
  H  H11  1  0.982678  0.491339  0.844639  1
  H  H12  1  0.491339  0.982678  0.155361  1
  H  H13  1  0.491339  0.508661  0.155361  1
  H  H14  1  0.017322  0.508661  0.155361  1
  Rh  Rh15  1  0.666667  0.333333  0.731971  1
  Rh  Rh16  1  0.333333  0.666667  0.268029  1
