# generated using pymatgen
data_La8Zn8IrPd4Rh3
_symmetry_space_group_name_H-M   'P 1'
_cell_length_a   4.08678300
_cell_length_b   7.54184660
_cell_length_c   16.83832103
_cell_angle_alpha   90.01928217
_cell_angle_beta   90.00000000
_cell_angle_gamma   90.00000000
_symmetry_Int_Tables_number   1
_chemical_formula_structural   La8Zn8IrPd4Rh3
_chemical_formula_sum   'La8 Zn8 Ir1 Pd4 Rh3'
_cell_volume   518.98885694
_cell_formula_units_Z   1
loop_
 _symmetry_equiv_pos_site_id
 _symmetry_equiv_pos_as_xyz
  1  'x, y, z'
loop_
 _atom_site_type_symbol
 _atom_site_label
 _atom_site_symmetry_multiplicity
 _atom_site_fract_x
 _atom_site_fract_y
 _atom_site_fract_z
 _atom_site_occupancy
  La  La0  1  0.750000  0.332234  0.440321  1
  La  La1  1  0.250000  0.039969  0.716571  1
  La  La2  1  0.250000  0.554370  0.779553  1
  La  La3  1  0.250000  0.677963  0.557894  1
  La  La4  1  0.750000  0.827603  0.064222  1
  La  La5  1  0.250000  0.174241  0.946593  1
  La  La6  1  0.750000  0.456992  0.212671  1
  La  La7  1  0.750000  0.942326  0.283837  1
  Zn  Zn8  1  0.250000  0.124127  0.149160  1
  Zn  Zn9  1  0.250000  0.996349  0.438602  1
  Zn  Zn10  1  0.750000  0.873077  0.848980  1
  Zn  Zn11  1  0.750000  0.998922  0.559116  1
  Zn  Zn12  1  0.250000  0.498558  0.061383  1
  Zn  Zn13  1  0.750000  0.377092  0.650155  1
  Zn  Zn14  1  0.750000  0.500482  0.940788  1
  Zn  Zn15  1  0.250000  0.627770  0.350383  1
  Ir  Ir16  1  0.250000  0.750066  0.184181  1
  Pd  Pd17  1  0.750000  0.252185  0.814146  1
  Pd  Pd18  1  0.250000  0.247377  0.314953  1
  Pd  Pd19  1  0.250000  0.740040  0.933761  1
  Pd  Pd20  1  0.250000  0.239845  0.566514  1
  Rh  Rh21  1  0.750000  0.758277  0.434607  1
  Rh  Rh22  1  0.750000  0.260447  0.065530  1
  Rh  Rh23  1  0.750000  0.749687  0.686080  1
