# generated using pymatgen
data_LaPa2Zn4(PtRh)2
_symmetry_space_group_name_H-M   'P 1'
_cell_length_a   8.29277333
_cell_length_b   8.29277245
_cell_length_c   8.29277238
_cell_angle_alpha   153.61454063
_cell_angle_beta   121.31566297
_cell_angle_gamma   65.44432602
_symmetry_Int_Tables_number   1
_chemical_formula_structural   LaPa2Zn4(PtRh)2
_chemical_formula_sum   'La1 Pa2 Zn4 Pt2 Rh2'
_cell_volume   214.63285268
_cell_formula_units_Z   1
loop_
 _symmetry_equiv_pos_site_id
 _symmetry_equiv_pos_as_xyz
  1  'x, y, z'
loop_
 _atom_site_type_symbol
 _atom_site_label
 _atom_site_symmetry_multiplicity
 _atom_site_fract_x
 _atom_site_fract_y
 _atom_site_fract_z
 _atom_site_occupancy
  La  La0  1  0.500000  0.000000  0.500000  1
  Pa  Pa1  1  0.869496  0.869496  0.000000  1
  Pa  Pa2  1  0.130504  0.130504  0.000000  1
  Zn  Zn3  1  0.474683  0.676642  0.798041  1
  Zn  Zn4  1  0.878601  0.676642  0.201959  1
  Zn  Zn5  1  0.121399  0.323358  0.798041  1
  Zn  Zn6  1  0.525317  0.323358  0.201959  1
  Pt  Pt7  1  0.820009  0.500000  0.320009  1
  Pt  Pt8  1  0.179991  0.500000  0.679991  1
  Rh  Rh9  1  0.268739  0.768739  0.500000  1
  Rh  Rh10  1  0.731261  0.231261  0.500000  1
