# generated using pymatgen
data_Ta7Nb5Al8(PdC)4
_symmetry_space_group_name_H-M   'P 1'
_cell_length_a   8.37587304
_cell_length_b   8.37520579
_cell_length_c   8.38309101
_cell_angle_alpha   59.97354611
_cell_angle_beta   59.96873731
_cell_angle_gamma   59.96023623
_symmetry_Int_Tables_number   1
_chemical_formula_structural   Ta7Nb5Al8(PdC)4
_chemical_formula_sum   'Ta7 Nb5 Al8 Pd4 C4'
_cell_volume   415.52256472
_cell_formula_units_Z   1
loop_
 _symmetry_equiv_pos_site_id
 _symmetry_equiv_pos_as_xyz
  1  'x, y, z'
loop_
 _atom_site_type_symbol
 _atom_site_label
 _atom_site_symmetry_multiplicity
 _atom_site_fract_x
 _atom_site_fract_y
 _atom_site_fract_z
 _atom_site_occupancy
  Ta  Ta0  1  0.318196  0.318139  0.682101  1
  Ta  Ta1  1  0.568520  0.567961  0.931802  1
  Ta  Ta2  1  0.932051  0.567637  0.568426  1
  Ta  Ta3  1  0.568172  0.931965  0.931983  1
  Ta  Ta4  1  0.931835  0.931745  0.568491  1
  Ta  Ta5  1  0.681864  0.317919  0.682159  1
  Ta  Ta6  1  0.931762  0.568136  0.931691  1
  Nb  Nb7  1  0.567451  0.932451  0.567728  1
  Nb  Nb8  1  0.317498  0.681977  0.682926  1
  Nb  Nb9  1  0.682567  0.317464  0.317651  1
  Nb  Nb10  1  0.317166  0.682592  0.317314  1
  Nb  Nb11  1  0.682840  0.682254  0.317476  1
  Al  Al12  1  0.915941  0.915664  0.915866  1
  Al  Al13  1  0.997139  0.334370  0.334054  1
  Al  Al14  1  0.334374  0.996994  0.334433  1
  Al  Al15  1  0.334082  0.334462  0.997336  1
  Al  Al16  1  0.915755  0.252572  0.915977  1
  Al  Al17  1  0.915563  0.915919  0.252664  1
  Al  Al18  1  0.252712  0.915740  0.915585  1
  Al  Al19  1  0.334460  0.334219  0.334126  1
  Pd  Pd20  1  0.125451  0.125465  0.124151  1
  Pd  Pd21  1  0.625194  0.125837  0.123146  1
  Pd  Pd22  1  0.125112  0.624690  0.125097  1
  Pd  Pd23  1  0.123517  0.126161  0.625456  1
  C  C24  1  0.626374  0.623070  0.626614  1
  C  C25  1  0.123238  0.624370  0.626400  1
  C  C26  1  0.625141  0.124603  0.626832  1
  C  C27  1  0.626025  0.625623  0.122514  1
