# generated using pymatgen
data_Cs8Ho2O7
_symmetry_space_group_name_H-M   'P 1'
_cell_length_a   19.49481400
_cell_length_b   7.47077292
_cell_length_c   7.63080915
_cell_angle_alpha   61.22826061
_cell_angle_beta   90.00000000
_cell_angle_gamma   90.00000000
_symmetry_Int_Tables_number   1
_chemical_formula_structural   Cs8Ho2O7
_chemical_formula_sum   'Cs16 Ho4 O14'
_cell_volume   974.15719246
_cell_formula_units_Z   2
loop_
 _symmetry_equiv_pos_site_id
 _symmetry_equiv_pos_as_xyz
  1  'x, y, z'
loop_
 _atom_site_type_symbol
 _atom_site_label
 _atom_site_symmetry_multiplicity
 _atom_site_fract_x
 _atom_site_fract_y
 _atom_site_fract_z
 _atom_site_occupancy
  Cs  Cs0  1  0.504412  0.026731  0.237632  1
  Cs  Cs1  1  0.004412  0.473269  0.762368  1
  Cs  Cs2  1  0.495588  0.973269  0.762368  1
  Cs  Cs3  1  0.995588  0.526731  0.237632  1
  Cs  Cs4  1  0.705452  0.041648  0.233680  1
  Cs  Cs5  1  0.205452  0.458352  0.766320  1
  Cs  Cs6  1  0.294548  0.958352  0.766320  1
  Cs  Cs7  1  0.794548  0.541648  0.233680  1
  Cs  Cs8  1  0.087125  0.995245  0.359204  1
  Cs  Cs9  1  0.587125  0.504755  0.640796  1
  Cs  Cs10  1  0.912875  0.004755  0.640796  1
  Cs  Cs11  1  0.412875  0.495245  0.359204  1
  Cs  Cs12  1  0.807330  0.452822  0.781777  1
  Cs  Cs13  1  0.307330  0.047178  0.218223  1
  Cs  Cs14  1  0.192670  0.547178  0.218223  1
  Cs  Cs15  1  0.692670  0.952822  0.781777  1
  Ho  Ho16  1  0.596508  0.499366  0.145765  1
  Ho  Ho17  1  0.096508  0.000634  0.854235  1
  Ho  Ho18  1  0.403492  0.500634  0.854235  1
  Ho  Ho19  1  0.903492  0.999366  0.145765  1
  O  O20  1  0.500000  0.500000  0.000000  1
  O  O21  1  0.000000  0.000000  0.000000  1
  O  O22  1  0.177401  0.012061  0.039839  1
  O  O23  1  0.677401  0.487939  0.960161  1
  O  O24  1  0.822599  0.987939  0.960161  1
  O  O25  1  0.322599  0.512061  0.039839  1
  O  O26  1  0.892771  0.277510  0.160588  1
  O  O27  1  0.392771  0.222490  0.839412  1
  O  O28  1  0.107229  0.722490  0.839412  1
  O  O29  1  0.607229  0.777510  0.160588  1
  O  O30  1  0.598973  0.232983  0.433452  1
  O  O31  1  0.098973  0.267017  0.566548  1
  O  O32  1  0.401027  0.767017  0.566548  1
  O  O33  1  0.901027  0.732983  0.433452  1
