# generated using pymatgen
data_Tm10In8SiIr3
_symmetry_space_group_name_H-M   'P 1'
_cell_length_a   3.55382900
_cell_length_b   7.99816960
_cell_length_c   18.17577200
_cell_angle_alpha   90.08875002
_cell_angle_beta   90.00000000
_cell_angle_gamma   90.00000000
_symmetry_Int_Tables_number   1
_chemical_formula_structural   Tm10In8SiIr3
_chemical_formula_sum   'Tm10 In8 Si1 Ir3'
_cell_volume   516.62983285
_cell_formula_units_Z   1
loop_
 _symmetry_equiv_pos_site_id
 _symmetry_equiv_pos_as_xyz
  1  'x, y, z'
loop_
 _atom_site_type_symbol
 _atom_site_label
 _atom_site_symmetry_multiplicity
 _atom_site_fract_x
 _atom_site_fract_y
 _atom_site_fract_z
 _atom_site_occupancy
  Tm  Tm0  1  0.000000  0.496829  0.499925  1
  Tm  Tm1  1  0.000000  0.000701  0.999670  1
  Tm  Tm2  1  0.000000  0.731918  0.276205  1
  Tm  Tm3  1  0.000000  0.254579  0.722289  1
  Tm  Tm4  1  0.000000  0.754909  0.778361  1
  Tm  Tm5  1  0.000000  0.255377  0.219681  1
  Tm  Tm6  1  0.000000  0.617213  0.085545  1
  Tm  Tm7  1  0.000000  0.381523  0.913037  1
  Tm  Tm8  1  0.000000  0.883568  0.587141  1
  Tm  Tm9  1  0.000000  0.123568  0.415477  1
  In  In10  1  0.500000  0.707140  0.932777  1
  In  In11  1  0.500000  0.294114  0.067911  1
  In  In12  1  0.500000  0.793106  0.434756  1
  In  In13  1  0.500000  0.207913  0.568318  1
  In  In14  1  0.500000  0.571415  0.648143  1
  In  In15  1  0.500000  0.435903  0.352399  1
  In  In16  1  0.500000  0.923614  0.148220  1
  In  In17  1  0.500000  0.070477  0.851429  1
  Si  Si18  1  0.500000  0.017892  0.302546  1
  Ir  Ir19  1  0.500000  0.523340  0.196629  1
  Ir  Ir20  1  0.500000  0.476853  0.804059  1
  Ir  Ir21  1  0.500000  0.978049  0.695481  1
