# generated using pymatgen
data_KBa(PRu)4
_symmetry_space_group_name_H-M   'P 1'
_cell_length_a   6.81428525
_cell_length_b   6.81428598
_cell_length_c   5.74111500
_cell_angle_alpha   90.00000000
_cell_angle_beta   90.00000000
_cell_angle_gamma   130.36895391
_symmetry_Int_Tables_number   1
_chemical_formula_structural   KBa(PRu)4
_chemical_formula_sum   'K1 Ba1 P4 Ru4'
_cell_volume   203.10884368
_cell_formula_units_Z   1
loop_
 _symmetry_equiv_pos_site_id
 _symmetry_equiv_pos_as_xyz
  1  'x, y, z'
loop_
 _atom_site_type_symbol
 _atom_site_label
 _atom_site_symmetry_multiplicity
 _atom_site_fract_x
 _atom_site_fract_y
 _atom_site_fract_z
 _atom_site_occupancy
  K  K0  1  0.000000  0.000000  0.000000  1
  Ba  Ba1  1  0.500000  0.500000  0.500000  1
  P  P2  1  0.657954  0.342046  0.000000  1
  P  P3  1  0.157459  0.842541  0.500000  1
  P  P4  1  0.842541  0.157459  0.500000  1
  P  P5  1  0.342046  0.657954  0.000000  1
  Ru  Ru6  1  0.500000  0.000000  0.750033  1
  Ru  Ru7  1  0.000000  0.500000  0.249967  1
  Ru  Ru8  1  0.000000  0.500000  0.750033  1
  Ru  Ru9  1  0.500000  0.000000  0.249967  1
