# generated using pymatgen
data_Tm4Al4OsRu3
_symmetry_space_group_name_H-M   'P 1'
_cell_length_a   3.99254800
_cell_length_b   7.00291267
_cell_length_c   8.03057938
_cell_angle_alpha   89.81872111
_cell_angle_beta   90.00000000
_cell_angle_gamma   90.00000000
_symmetry_Int_Tables_number   1
_chemical_formula_structural   Tm4Al4OsRu3
_chemical_formula_sum   'Tm4 Al4 Os1 Ru3'
_cell_volume   224.52957923
_cell_formula_units_Z   1
loop_
 _symmetry_equiv_pos_site_id
 _symmetry_equiv_pos_as_xyz
  1  'x, y, z'
loop_
 _atom_site_type_symbol
 _atom_site_label
 _atom_site_symmetry_multiplicity
 _atom_site_fract_x
 _atom_site_fract_y
 _atom_site_fract_z
 _atom_site_occupancy
  Tm  Tm0  1  0.250000  0.965403  0.323668  1
  Tm  Tm1  1  0.750000  0.534551  0.823229  1
  Tm  Tm2  1  0.250000  0.466396  0.177069  1
  Tm  Tm3  1  0.750000  0.033033  0.676922  1
  Al  Al4  1  0.750000  0.637002  0.441505  1
  Al  Al5  1  0.750000  0.136747  0.058601  1
  Al  Al6  1  0.250000  0.363441  0.558316  1
  Al  Al7  1  0.250000  0.862645  0.940223  1
  Os  Os8  1  0.250000  0.731776  0.628101  1
  Ru  Ru9  1  0.750000  0.768695  0.127501  1
  Ru  Ru10  1  0.750000  0.267746  0.371451  1
  Ru  Ru11  1  0.250000  0.232567  0.873416  1
