# generated using pymatgen
data_Ce7Tm5(Si3Ir)4
_symmetry_space_group_name_H-M   'P 1'
_cell_length_a   4.28731600
_cell_length_b   10.61425788
_cell_length_c   12.54468600
_cell_angle_alpha   89.90734326
_cell_angle_beta   90.00000000
_cell_angle_gamma   90.00000000
_symmetry_Int_Tables_number   1
_chemical_formula_structural   Ce7Tm5(Si3Ir)4
_chemical_formula_sum   'Ce7 Tm5 Si12 Ir4'
_cell_volume   570.86623535
_cell_formula_units_Z   1
loop_
 _symmetry_equiv_pos_site_id
 _symmetry_equiv_pos_as_xyz
  1  'x, y, z'
loop_
 _atom_site_type_symbol
 _atom_site_label
 _atom_site_symmetry_multiplicity
 _atom_site_fract_x
 _atom_site_fract_y
 _atom_site_fract_z
 _atom_site_occupancy
  Ce  Ce0  1  0.250000  0.580698  0.101423  1
  Ce  Ce1  1  0.750000  0.078317  0.398762  1
  Ce  Ce2  1  0.750000  0.420306  0.899044  1
  Ce  Ce3  1  0.250000  0.656059  0.807184  1
  Ce  Ce4  1  0.250000  0.843833  0.307179  1
  Ce  Ce5  1  0.750000  0.345136  0.192256  1
  Ce  Ce6  1  0.750000  0.159108  0.693671  1
  Tm  Tm7  1  0.250000  0.884320  0.025577  1
  Tm  Tm8  1  0.250000  0.616785  0.527167  1
  Tm  Tm9  1  0.750000  0.115910  0.972396  1
  Tm  Tm10  1  0.750000  0.382082  0.474357  1
  Tm  Tm11  1  0.250000  0.915003  0.605208  1
  Si  Si12  1  0.250000  0.003299  0.819939  1
  Si  Si13  1  0.250000  0.497388  0.324262  1
  Si  Si14  1  0.750000  0.996898  0.175391  1
  Si  Si15  1  0.750000  0.503646  0.676176  1
  Si  Si16  1  0.250000  0.241689  0.838344  1
  Si  Si17  1  0.250000  0.257713  0.338138  1
  Si  Si18  1  0.750000  0.758291  0.161834  1
  Si  Si19  1  0.750000  0.742512  0.661430  1
  Si  Si20  1  0.250000  0.205062  0.537814  1
  Si  Si21  1  0.250000  0.289151  0.037245  1
  Si  Si22  1  0.750000  0.794960  0.464609  1
  Si  Si23  1  0.750000  0.711099  0.961702  1
  Ir  Ir24  1  0.250000  0.383232  0.676610  1
  Ir  Ir25  1  0.250000  0.116184  0.177222  1
  Ir  Ir26  1  0.750000  0.616904  0.324630  1
  Ir  Ir27  1  0.750000  0.884410  0.820431  1
