# generated using pymatgen
data_Y4Re5Os3
_symmetry_space_group_name_H-M   'P 1'
_cell_length_a   5.37795028
_cell_length_b   5.31398971
_cell_length_c   9.00667800
_cell_angle_alpha   90.00000000
_cell_angle_beta   90.00000000
_cell_angle_gamma   119.60735175
_symmetry_Int_Tables_number   1
_chemical_formula_structural   Y4Re5Os3
_chemical_formula_sum   'Y4 Re5 Os3'
_cell_volume   223.78837426
_cell_formula_units_Z   1
loop_
 _symmetry_equiv_pos_site_id
 _symmetry_equiv_pos_as_xyz
  1  'x, y, z'
loop_
 _atom_site_type_symbol
 _atom_site_label
 _atom_site_symmetry_multiplicity
 _atom_site_fract_x
 _atom_site_fract_y
 _atom_site_fract_z
 _atom_site_occupancy
  Y  Y0  1  0.334549  0.667275  0.435538  1
  Y  Y1  1  0.668588  0.334294  0.565258  1
  Y  Y2  1  0.668588  0.334294  0.934742  1
  Y  Y3  1  0.334549  0.667275  0.064462  1
  Re  Re4  1  0.829855  0.169350  0.250000  1
  Re  Re5  1  0.829855  0.660505  0.250000  1
  Re  Re6  1  0.343385  0.171692  0.250000  1
  Re  Re7  1  0.162669  0.829243  0.750000  1
  Re  Re8  1  0.162669  0.333426  0.750000  1
  Os  Os9  1  0.010752  0.005376  0.500064  1
  Os  Os10  1  0.010752  0.005376  0.999936  1
  Os  Os11  1  0.643788  0.821894  0.750000  1
