# generated using pymatgen
data_Dy16Ho4Sn15Sb
_symmetry_space_group_name_H-M   'P 1'
_cell_length_a   8.06552946
_cell_length_b   8.18955810
_cell_length_c   15.47744300
_cell_angle_alpha   90.03799636
_cell_angle_beta   90.28310826
_cell_angle_gamma   90.01525967
_symmetry_Int_Tables_number   1
_chemical_formula_structural   Dy16Ho4Sn15Sb
_chemical_formula_sum   'Dy16 Ho4 Sn15 Sb1'
_cell_volume   1022.32069029
_cell_formula_units_Z   1
loop_
 _symmetry_equiv_pos_site_id
 _symmetry_equiv_pos_as_xyz
  1  'x, y, z'
loop_
 _atom_site_type_symbol
 _atom_site_label
 _atom_site_symmetry_multiplicity
 _atom_site_fract_x
 _atom_site_fract_y
 _atom_site_fract_z
 _atom_site_occupancy
  Dy  Dy0  1  0.369699  0.836921  0.879053  1
  Dy  Dy1  1  0.867713  0.663274  0.622216  1
  Dy  Dy2  1  0.632400  0.163046  0.377556  1
  Dy  Dy3  1  0.130635  0.337836  0.121751  1
  Dy  Dy4  1  0.631842  0.163167  0.121042  1
  Dy  Dy5  1  0.132905  0.336904  0.377537  1
  Dy  Dy6  1  0.367427  0.837013  0.622119  1
  Dy  Dy7  1  0.868330  0.662966  0.878220  1
  Dy  Dy8  1  0.523367  0.323071  0.901254  1
  Dy  Dy9  1  0.020345  0.179245  0.597683  1
  Dy  Dy10  1  0.479671  0.678935  0.402156  1
  Dy  Dy11  1  0.975384  0.820826  0.098921  1
  Dy  Dy12  1  0.478802  0.677660  0.098073  1
  Dy  Dy13  1  0.979578  0.820744  0.402140  1
  Dy  Dy14  1  0.520468  0.320682  0.597740  1
  Dy  Dy15  1  0.020861  0.179553  0.901268  1
  Ho  Ho16  1  0.198456  0.501988  0.749767  1
  Ho  Ho17  1  0.698288  0.997692  0.750457  1
  Ho  Ho18  1  0.801340  0.497884  0.250445  1
  Ho  Ho19  1  0.301575  0.001802  0.251174  1
  Sn  Sn20  1  0.792691  0.464026  0.457796  1
  Sn  Sn21  1  0.707478  0.963959  0.542096  1
  Sn  Sn22  1  0.209865  0.534602  0.957794  1
  Sn  Sn23  1  0.712778  0.965641  0.957622  1
  Sn  Sn24  1  0.207439  0.535814  0.542065  1
  Sn  Sn25  1  0.292882  0.035803  0.457821  1
  Sn  Sn26  1  0.790977  0.465202  0.042439  1
  Sn  Sn27  1  0.565354  0.619654  0.749996  1
  Sn  Sn28  1  0.066047  0.880970  0.751099  1
  Sn  Sn29  1  0.434743  0.380357  0.248937  1
  Sn  Sn30  1  0.934541  0.118958  0.248929  1
  Sn  Sn31  1  0.330329  0.147260  0.750029  1
  Sn  Sn32  1  0.830137  0.352799  0.749734  1
  Sn  Sn33  1  0.668891  0.852671  0.249885  1
  Sn  Sn34  1  0.169545  0.647571  0.249824  1
  Sb  Sb35  1  0.287210  0.033503  0.043364  1
