# generated using pymatgen
data_Zn6Sn4RuRh3
_symmetry_space_group_name_H-M   'P 1'
_cell_length_a   4.25521700
_cell_length_b   8.31992400
_cell_length_c   13.65734700
_cell_angle_alpha   90.00000000
_cell_angle_beta   90.00000000
_cell_angle_gamma   90.00000000
_symmetry_Int_Tables_number   1
_chemical_formula_structural   Zn6Sn4RuRh3
_chemical_formula_sum   'Zn12 Sn8 Ru2 Rh6'
_cell_volume   483.51217634
_cell_formula_units_Z   2
loop_
 _symmetry_equiv_pos_site_id
 _symmetry_equiv_pos_as_xyz
  1  'x, y, z'
loop_
 _atom_site_type_symbol
 _atom_site_label
 _atom_site_symmetry_multiplicity
 _atom_site_fract_x
 _atom_site_fract_y
 _atom_site_fract_z
 _atom_site_occupancy
  Zn  Zn0  1  0.750000  0.468244  0.954304  1
  Zn  Zn1  1  0.750000  0.968244  0.545696  1
  Zn  Zn2  1  0.250000  0.528987  0.042692  1
  Zn  Zn3  1  0.250000  0.028987  0.457308  1
  Zn  Zn4  1  0.750000  0.159949  0.868642  1
  Zn  Zn5  1  0.750000  0.659949  0.631358  1
  Zn  Zn6  1  0.250000  0.842030  0.131482  1
  Zn  Zn7  1  0.250000  0.342030  0.368518  1
  Zn  Zn8  1  0.750000  0.912163  0.743504  1
  Zn  Zn9  1  0.750000  0.412163  0.756496  1
  Zn  Zn10  1  0.250000  0.087182  0.256757  1
  Zn  Zn11  1  0.250000  0.587182  0.243243  1
  Sn  Sn12  1  0.750000  0.345932  0.194220  1
  Sn  Sn13  1  0.750000  0.845932  0.305780  1
  Sn  Sn14  1  0.250000  0.654078  0.805114  1
  Sn  Sn15  1  0.250000  0.154078  0.694886  1
  Sn  Sn16  1  0.750000  0.846757  0.972477  1
  Sn  Sn17  1  0.750000  0.346757  0.527523  1
  Sn  Sn18  1  0.250000  0.153848  0.027701  1
  Sn  Sn19  1  0.250000  0.653848  0.472299  1
  Ru  Ru20  1  0.250000  0.347931  0.868195  1
  Ru  Ru21  1  0.250000  0.847931  0.631805  1
  Rh  Rh22  1  0.750000  0.040739  0.141570  1
  Rh  Rh23  1  0.750000  0.540739  0.358430  1
  Rh  Rh24  1  0.250000  0.959431  0.858830  1
  Rh  Rh25  1  0.250000  0.459431  0.641170  1
  Rh  Rh26  1  0.750000  0.652729  0.131263  1
  Rh  Rh27  1  0.750000  0.152729  0.368737  1
