# generated using pymatgen
data_Y4Mg3ZnRh4
_symmetry_space_group_name_H-M   'P 1'
_cell_length_a   4.07066000
_cell_length_b   7.10958992
_cell_length_c   8.47943835
_cell_angle_alpha   89.85061982
_cell_angle_beta   90.00000000
_cell_angle_gamma   90.00000000
_symmetry_Int_Tables_number   1
_chemical_formula_structural   Y4Mg3ZnRh4
_chemical_formula_sum   'Y4 Mg3 Zn1 Rh4'
_cell_volume   245.40024502
_cell_formula_units_Z   1
loop_
 _symmetry_equiv_pos_site_id
 _symmetry_equiv_pos_as_xyz
  1  'x, y, z'
loop_
 _atom_site_type_symbol
 _atom_site_label
 _atom_site_symmetry_multiplicity
 _atom_site_fract_x
 _atom_site_fract_y
 _atom_site_fract_z
 _atom_site_occupancy
  Y  Y0  1  0.250000  0.537507  0.174142  1
  Y  Y1  1  0.750000  0.452258  0.827910  1
  Y  Y2  1  0.750000  0.965237  0.682173  1
  Y  Y3  1  0.250000  0.038871  0.319910  1
  Mg  Mg4  1  0.250000  0.636591  0.561120  1
  Mg  Mg5  1  0.750000  0.364367  0.439163  1
  Mg  Mg6  1  0.750000  0.870018  0.056633  1
  Zn  Zn7  1  0.250000  0.133060  0.939353  1
  Rh  Rh8  1  0.250000  0.753599  0.872452  1
  Rh  Rh9  1  0.750000  0.245951  0.124841  1
  Rh  Rh10  1  0.750000  0.750704  0.369732  1
  Rh  Rh11  1  0.250000  0.251838  0.632574  1
