# generated using pymatgen
data_Dy15Th(ZnCo)4
_symmetry_space_group_name_H-M   'P 1'
_cell_length_a   9.37819324
_cell_length_b   9.37819274
_cell_length_c   9.37819307
_cell_angle_alpha   60.10229606
_cell_angle_beta   60.10230914
_cell_angle_gamma   60.10229183
_symmetry_Int_Tables_number   1
_chemical_formula_structural   Dy15Th(ZnCo)4
_chemical_formula_sum   'Dy15 Th1 Zn4 Co4'
_cell_volume   584.58541725
_cell_formula_units_Z   1
loop_
 _symmetry_equiv_pos_site_id
 _symmetry_equiv_pos_as_xyz
  1  'x, y, z'
loop_
 _atom_site_type_symbol
 _atom_site_label
 _atom_site_symmetry_multiplicity
 _atom_site_fract_x
 _atom_site_fract_y
 _atom_site_fract_z
 _atom_site_occupancy
  Dy  Dy0  1  0.600973  0.600973  0.196187  1
  Dy  Dy1  1  0.600973  0.196187  0.600973  1
  Dy  Dy2  1  0.196187  0.600973  0.600973  1
  Dy  Dy3  1  0.061091  0.439825  0.439825  1
  Dy  Dy4  1  0.441193  0.059699  0.059699  1
  Dy  Dy5  1  0.439825  0.061091  0.439825  1
  Dy  Dy6  1  0.059699  0.441193  0.059699  1
  Dy  Dy7  1  0.439825  0.439825  0.061091  1
  Dy  Dy8  1  0.059699  0.059699  0.441193  1
  Dy  Dy9  1  0.187484  0.813835  0.813835  1
  Dy  Dy10  1  0.812509  0.188394  0.188394  1
  Dy  Dy11  1  0.813835  0.187484  0.813835  1
  Dy  Dy12  1  0.188394  0.812509  0.188394  1
  Dy  Dy13  1  0.813835  0.813835  0.187484  1
  Dy  Dy14  1  0.188394  0.188394  0.812509  1
  Th  Th15  1  0.595736  0.595736  0.595736  1
  Zn  Zn16  1  0.827982  0.827982  0.827982  1
  Zn  Zn17  1  0.828817  0.828817  0.513762  1
  Zn  Zn18  1  0.828817  0.513762  0.828817  1
  Zn  Zn19  1  0.513762  0.828817  0.828817  1
  Co  Co20  1  0.392477  0.392477  0.392477  1
  Co  Co21  1  0.393732  0.393732  0.821030  1
  Co  Co22  1  0.393732  0.821030  0.393732  1
  Co  Co23  1  0.821030  0.393732  0.393732  1
