# generated using pymatgen
data_TbSm3(ZnPb)4
_symmetry_space_group_name_H-M   'P 1'
_cell_length_a   4.64556300
_cell_length_b   4.64556312
_cell_length_c   16.26968000
_cell_angle_alpha   90.00000000
_cell_angle_beta   90.00000000
_cell_angle_gamma   119.99999203
_symmetry_Int_Tables_number   1
_chemical_formula_structural   TbSm3(ZnPb)4
_chemical_formula_sum   'Tb1 Sm3 Zn4 Pb4'
_cell_volume   304.07897806
_cell_formula_units_Z   1
loop_
 _symmetry_equiv_pos_site_id
 _symmetry_equiv_pos_as_xyz
  1  'x, y, z'
loop_
 _atom_site_type_symbol
 _atom_site_label
 _atom_site_symmetry_multiplicity
 _atom_site_fract_x
 _atom_site_fract_y
 _atom_site_fract_z
 _atom_site_occupancy
  Tb  Tb0  1  0.000000  0.000000  0.750000  1
  Sm  Sm1  1  0.000000  0.000000  0.998813  1
  Sm  Sm2  1  0.000000  0.000000  0.250000  1
  Sm  Sm3  1  0.000000  0.000000  0.501187  1
  Zn  Zn4  1  0.666667  0.333334  0.163527  1
  Zn  Zn5  1  0.666667  0.333334  0.336473  1
  Zn  Zn6  1  0.333333  0.666666  0.665696  1
  Zn  Zn7  1  0.333333  0.666666  0.834304  1
  Pb  Pb8  1  0.333333  0.666666  0.110922  1
  Pb  Pb9  1  0.333333  0.666666  0.389078  1
  Pb  Pb10  1  0.666667  0.333334  0.612951  1
  Pb  Pb11  1  0.666667  0.333334  0.887049  1
