# generated using pymatgen
data_Pr5In11Ni5Ir
_symmetry_space_group_name_H-M   'P 1'
_cell_length_a   10.48685673
_cell_length_b   10.48685628
_cell_length_c   4.45060400
_cell_angle_alpha   90.00000000
_cell_angle_beta   90.00000000
_cell_angle_gamma   90.21763705
_symmetry_Int_Tables_number   1
_chemical_formula_structural   Pr5In11Ni5Ir
_chemical_formula_sum   'Pr5 In11 Ni5 Ir1'
_cell_volume   489.44790260
_cell_formula_units_Z   1
loop_
 _symmetry_equiv_pos_site_id
 _symmetry_equiv_pos_as_xyz
  1  'x, y, z'
loop_
 _atom_site_type_symbol
 _atom_site_label
 _atom_site_symmetry_multiplicity
 _atom_site_fract_x
 _atom_site_fract_y
 _atom_site_fract_z
 _atom_site_occupancy
  Pr  Pr0  1  0.036690  0.684641  0.000000  1
  Pr  Pr1  1  0.315359  0.963310  0.000000  1
  Pr  Pr2  1  0.696278  0.041810  0.000000  1
  Pr  Pr3  1  0.958190  0.303722  0.000000  1
  Pr  Pr4  1  0.497607  0.502393  0.500000  1
  In  In5  1  0.303130  0.306210  0.000000  1
  In  In6  1  0.693790  0.696870  0.000000  1
  In  In7  1  0.717640  0.282360  0.500000  1
  In  In8  1  0.847115  0.536417  0.500000  1
  In  In9  1  0.164350  0.159132  0.500000  1
  In  In10  1  0.840868  0.835650  0.500000  1
  In  In11  1  0.152969  0.463506  0.500000  1
  In  In12  1  0.274199  0.725801  0.500000  1
  In  In13  1  0.536494  0.847031  0.500000  1
  In  In14  1  0.008102  0.991898  0.000000  1
  In  In15  1  0.463583  0.152885  0.500000  1
  Ni  Ni16  1  0.551399  0.281886  0.000000  1
  Ni  Ni17  1  0.445175  0.719531  0.000000  1
  Ni  Ni18  1  0.095518  0.904482  0.500000  1
  Ni  Ni19  1  0.718114  0.448601  0.000000  1
  Ni  Ni20  1  0.280469  0.554825  0.000000  1
  Ir  Ir21  1  0.902959  0.097041  0.500000  1
