# generated using pymatgen
data_Er3MnAl12RePt2
_symmetry_space_group_name_H-M   'P 1'
_cell_length_a   8.82993023
_cell_length_b   8.82992927
_cell_length_c   9.48460901
_cell_angle_alpha   90.49052680
_cell_angle_beta   89.50947218
_cell_angle_gamma   119.53962412
_symmetry_Int_Tables_number   1
_chemical_formula_structural   Er3MnAl12RePt2
_chemical_formula_sum   'Er6 Mn2 Al24 Re2 Pt4'
_cell_volume   643.33817050
_cell_formula_units_Z   2
loop_
 _symmetry_equiv_pos_site_id
 _symmetry_equiv_pos_as_xyz
  1  'x, y, z'
loop_
 _atom_site_type_symbol
 _atom_site_label
 _atom_site_symmetry_multiplicity
 _atom_site_fract_x
 _atom_site_fract_y
 _atom_site_fract_z
 _atom_site_occupancy
  Er  Er0  1  0.187964  0.387662  0.254690  1
  Er  Er1  1  0.812036  0.612338  0.745310  1
  Er  Er2  1  0.612338  0.812036  0.254690  1
  Er  Er3  1  0.387662  0.187964  0.745310  1
  Er  Er4  1  0.194905  0.805095  0.256096  1
  Er  Er5  1  0.805095  0.194905  0.743904  1
  Mn  Mn6  1  0.000000  0.000000  0.000000  1
  Mn  Mn7  1  0.000000  0.000000  0.500000  1
  Al  Al8  1  0.333384  0.666616  0.027677  1
  Al  Al9  1  0.666616  0.333384  0.972323  1
  Al  Al10  1  0.668219  0.331781  0.520673  1
  Al  Al11  1  0.331781  0.668219  0.479327  1
  Al  Al12  1  0.156172  0.318705  0.578273  1
  Al  Al13  1  0.843828  0.681295  0.421727  1
  Al  Al14  1  0.681295  0.843828  0.578273  1
  Al  Al15  1  0.840889  0.684773  0.078946  1
  Al  Al16  1  0.318705  0.156172  0.421727  1
  Al  Al17  1  0.159111  0.315227  0.921054  1
  Al  Al18  1  0.161240  0.838760  0.577517  1
  Al  Al19  1  0.315227  0.159111  0.078946  1
  Al  Al20  1  0.838760  0.161240  0.422483  1
  Al  Al21  1  0.684773  0.840889  0.921054  1
  Al  Al22  1  0.841227  0.158773  0.077090  1
  Al  Al23  1  0.158773  0.841227  0.922910  1
  Al  Al24  1  0.563023  0.128149  0.250793  1
  Al  Al25  1  0.436977  0.871851  0.749207  1
  Al  Al26  1  0.871851  0.436977  0.250793  1
  Al  Al27  1  0.128149  0.563023  0.749207  1
  Al  Al28  1  0.562010  0.437990  0.248156  1
  Al  Al29  1  0.437990  0.562010  0.751844  1
  Al  Al30  1  0.999356  0.000644  0.250467  1
  Al  Al31  1  0.000644  0.999356  0.749533  1
  Re  Re32  1  0.500000  0.000000  0.500000  1
  Re  Re33  1  0.000000  0.500000  0.500000  1
  Pt  Pt34  1  0.500000  0.000000  0.000000  1
  Pt  Pt35  1  0.000000  0.500000  0.000000  1
  Pt  Pt36  1  0.500000  0.500000  0.000000  1
  Pt  Pt37  1  0.500000  0.500000  0.500000  1
