# generated using pymatgen
data_Y8Ho2SnBi5
_symmetry_space_group_name_H-M   'P 1'
_cell_length_a   9.13953306
_cell_length_b   9.15326211
_cell_length_c   6.47293500
_cell_angle_alpha   90.01327662
_cell_angle_beta   89.99334859
_cell_angle_gamma   120.04970589
_symmetry_Int_Tables_number   1
_chemical_formula_structural   Y8Ho2SnBi5
_chemical_formula_sum   'Y8 Ho2 Sn1 Bi5'
_cell_volume   468.72058833
_cell_formula_units_Z   1
loop_
 _symmetry_equiv_pos_site_id
 _symmetry_equiv_pos_as_xyz
  1  'x, y, z'
loop_
 _atom_site_type_symbol
 _atom_site_label
 _atom_site_symmetry_multiplicity
 _atom_site_fract_x
 _atom_site_fract_y
 _atom_site_fract_z
 _atom_site_occupancy
  Y  Y0  1  0.670626  0.334179  0.001424  1
  Y  Y1  1  0.329374  0.663553  0.001424  1
  Y  Y2  1  0.756872  0.756296  0.749988  1
  Y  Y3  1  0.243128  0.999424  0.749988  1
  Y  Y4  1  0.000000  0.242784  0.749929  1
  Y  Y5  1  0.238414  0.244327  0.250066  1
  Y  Y6  1  0.761586  0.005913  0.250066  1
  Y  Y7  1  0.000000  0.754107  0.250016  1
  Ho  Ho8  1  0.329064  0.663223  0.498431  1
  Ho  Ho9  1  0.670936  0.334158  0.498431  1
  Sn  Sn10  1  0.000000  0.393616  0.251360  1
  Bi  Bi11  1  0.391732  0.389420  0.748925  1
  Bi  Bi12  1  0.608268  0.997689  0.748925  1
  Bi  Bi13  1  0.000000  0.608853  0.748918  1
  Bi  Bi14  1  0.609651  0.611053  0.251054  1
  Bi  Bi15  1  0.390349  0.001402  0.251054  1
