# generated using pymatgen
data_SmPa3Rh4
_symmetry_space_group_name_H-M   'P 1'
_cell_length_a   3.97011300
_cell_length_b   5.83127127
_cell_length_c   7.53790548
_cell_angle_alpha   90.16329285
_cell_angle_beta   90.00000000
_cell_angle_gamma   90.00000000
_symmetry_Int_Tables_number   1
_chemical_formula_structural   SmPa3Rh4
_chemical_formula_sum   'Sm1 Pa3 Rh4'
_cell_volume   174.50787774
_cell_formula_units_Z   1
loop_
 _symmetry_equiv_pos_site_id
 _symmetry_equiv_pos_as_xyz
  1  'x, y, z'
loop_
 _atom_site_type_symbol
 _atom_site_label
 _atom_site_symmetry_multiplicity
 _atom_site_fract_x
 _atom_site_fract_y
 _atom_site_fract_z
 _atom_site_occupancy
  Sm  Sm0  1  0.250000  0.837751  0.674782  1
  Pa  Pa1  1  0.250000  0.670099  0.170715  1
  Pa  Pa2  1  0.750000  0.334399  0.825126  1
  Pa  Pa3  1  0.750000  0.169544  0.329663  1
  Rh  Rh4  1  0.250000  0.182526  0.062890  1
  Rh  Rh5  1  0.750000  0.822733  0.958215  1
  Rh  Rh6  1  0.750000  0.657273  0.416717  1
  Rh  Rh7  1  0.250000  0.325674  0.561892  1
