# generated using pymatgen
data_Hf6Ga6CuPdPt4
_symmetry_space_group_name_H-M   'P 1'
_cell_length_a   7.14894600
_cell_length_b   7.14894477
_cell_length_c   7.06256500
_cell_angle_alpha   90.00000000
_cell_angle_beta   90.00000000
_cell_angle_gamma   119.99999645
_symmetry_Int_Tables_number   1
_chemical_formula_structural   Hf6Ga6CuPdPt4
_chemical_formula_sum   'Hf6 Ga6 Cu1 Pd1 Pt4'
_cell_volume   312.59142724
_cell_formula_units_Z   1
loop_
 _symmetry_equiv_pos_site_id
 _symmetry_equiv_pos_as_xyz
  1  'x, y, z'
loop_
 _atom_site_type_symbol
 _atom_site_label
 _atom_site_symmetry_multiplicity
 _atom_site_fract_x
 _atom_site_fract_y
 _atom_site_fract_z
 _atom_site_occupancy
  Hf  Hf0  1  0.614066  0.585273  0.250000  1
  Hf  Hf1  1  0.028238  0.413764  0.750000  1
  Hf  Hf2  1  0.414727  0.028792  0.250000  1
  Hf  Hf3  1  0.971208  0.385934  0.250000  1
  Hf  Hf4  1  0.385525  0.971762  0.750000  1
  Hf  Hf5  1  0.586236  0.614475  0.750000  1
  Ga  Ga6  1  0.262207  0.262490  0.503557  1
  Ga  Ga7  1  0.737510  0.999717  0.503557  1
  Ga  Ga8  1  0.000283  0.737793  0.503557  1
  Ga  Ga9  1  0.737510  0.999717  0.996443  1
  Ga  Ga10  1  0.262207  0.262490  0.996443  1
  Ga  Ga11  1  0.000283  0.737793  0.996443  1
  Cu  Cu12  1  0.000000  0.000000  0.750000  1
  Pd  Pd13  1  0.000000  0.000000  0.250000  1
  Pt  Pt14  1  0.333333  0.666667  0.462749  1
  Pt  Pt15  1  0.333333  0.666667  0.037251  1
  Pt  Pt16  1  0.666667  0.333333  0.537184  1
  Pt  Pt17  1  0.666667  0.333333  0.962816  1
