# generated using pymatgen
data_Ho2Al20Fe2RuRh
_symmetry_space_group_name_H-M   'P 1'
_cell_length_a   6.81533448
_cell_length_b   6.80805022
_cell_length_c   9.07312179
_cell_angle_alpha   90.04148598
_cell_angle_beta   90.07884997
_cell_angle_gamma   96.87715300
_symmetry_Int_Tables_number   1
_chemical_formula_structural   Ho2Al20Fe2RuRh
_chemical_formula_sum   'Ho2 Al20 Fe2 Ru1 Rh1'
_cell_volume   417.95556276
_cell_formula_units_Z   1
loop_
 _symmetry_equiv_pos_site_id
 _symmetry_equiv_pos_as_xyz
  1  'x, y, z'
loop_
 _atom_site_type_symbol
 _atom_site_label
 _atom_site_symmetry_multiplicity
 _atom_site_fract_x
 _atom_site_fract_y
 _atom_site_fract_z
 _atom_site_occupancy
  Ho  Ho0  1  0.873781  0.128296  0.749625  1
  Ho  Ho1  1  0.126219  0.871704  0.250375  1
  Al  Al2  1  0.622190  0.374082  0.549232  1
  Al  Al3  1  0.377810  0.625918  0.450768  1
  Al  Al4  1  0.372765  0.619670  0.050138  1
  Al  Al5  1  0.627235  0.380330  0.949862  1
  Al  Al6  1  0.228737  0.223374  0.497258  1
  Al  Al7  1  0.771263  0.776626  0.502742  1
  Al  Al8  1  0.777595  0.769506  0.003559  1
  Al  Al9  1  0.222405  0.230494  0.996441  1
  Al  Al10  1  0.847337  0.161086  0.099838  1
  Al  Al11  1  0.152663  0.838914  0.900162  1
  Al  Al12  1  0.160222  0.846462  0.598394  1
  Al  Al13  1  0.839778  0.153538  0.401606  1
  Al  Al14  1  0.861816  0.585960  0.752963  1
  Al  Al15  1  0.138184  0.414040  0.247037  1
  Al  Al16  1  0.413769  0.138899  0.745671  1
  Al  Al17  1  0.586231  0.861101  0.254329  1
  Al  Al18  1  0.220248  0.479758  0.752342  1
  Al  Al19  1  0.779752  0.520242  0.247658  1
  Al  Al20  1  0.520294  0.778156  0.745395  1
  Al  Al21  1  0.479706  0.221844  0.254605  1
  Fe  Fe22  1  0.000000  0.500000  0.000000  1
  Fe  Fe23  1  0.500000  0.000000  0.500000  1
  Ru  Ru24  1  0.000000  0.500000  0.500000  1
  Rh  Rh25  1  0.500000  0.000000  0.000000  1
