# generated using pymatgen
data_NdEr5Ir11Rh7
_symmetry_space_group_name_H-M   'P 1'
_cell_length_a   5.29765300
_cell_length_b   5.30093871
_cell_length_c   17.45051408
_cell_angle_alpha   89.99043654
_cell_angle_beta   89.99998258
_cell_angle_gamma   119.97936127
_symmetry_Int_Tables_number   1
_chemical_formula_structural   NdEr5Ir11Rh7
_chemical_formula_sum   'Nd1 Er5 Ir11 Rh7'
_cell_volume   424.48800487
_cell_formula_units_Z   1
loop_
 _symmetry_equiv_pos_site_id
 _symmetry_equiv_pos_as_xyz
  1  'x, y, z'
loop_
 _atom_site_type_symbol
 _atom_site_label
 _atom_site_symmetry_multiplicity
 _atom_site_fract_x
 _atom_site_fract_y
 _atom_site_fract_z
 _atom_site_occupancy
  Nd  Nd0  1  0.666822  0.333643  0.249817  1
  Er  Er1  1  0.333582  0.667165  0.541927  1
  Er  Er2  1  0.666653  0.333299  0.040725  1
  Er  Er3  1  0.666345  0.332690  0.459200  1
  Er  Er4  1  0.333453  0.666902  0.958152  1
  Er  Er5  1  0.333411  0.666814  0.750039  1
  Ir  Ir6  1  0.167632  0.335267  0.125054  1
  Ir  Ir7  1  0.832331  0.664659  0.625412  1
  Ir  Ir8  1  0.664355  0.832377  0.124799  1
  Ir  Ir9  1  0.168012  0.832376  0.124801  1
  Ir  Ir10  1  0.832456  0.168173  0.625625  1
  Ir  Ir11  1  0.335719  0.168176  0.625624  1
  Ir  Ir12  1  0.832188  0.664379  0.874438  1
  Ir  Ir13  1  0.832221  0.167795  0.874320  1
  Ir  Ir14  1  0.335575  0.167801  0.874321  1
  Ir  Ir15  1  0.664752  0.833467  0.375265  1
  Ir  Ir16  1  0.168711  0.833466  0.375262  1
  Rh  Rh17  1  0.168099  0.336202  0.375532  1
  Rh  Rh18  1  0.998827  0.997684  0.249963  1
  Rh  Rh19  1  0.000071  0.000113  0.749970  1
  Rh  Rh20  1  0.333488  0.666949  0.250102  1
  Rh  Rh21  1  0.666695  0.333407  0.749896  1
  Rh  Rh22  1  0.000171  0.000337  0.999491  1
  Rh  Rh23  1  0.998429  0.996858  0.500267  1
