# generated using pymatgen
data_Sr2MnFeN6
_symmetry_space_group_name_H-M   'P 1'
_cell_length_a   6.33930979
_cell_length_b   6.33931002
_cell_length_c   5.55686000
_cell_angle_alpha   90.00000000
_cell_angle_beta   90.00000000
_cell_angle_gamma   142.29488382
_symmetry_Int_Tables_number   1
_chemical_formula_structural   Sr2MnFeN6
_chemical_formula_sum   'Sr2 Mn1 Fe1 N6'
_cell_volume   136.57753110
_cell_formula_units_Z   1
loop_
 _symmetry_equiv_pos_site_id
 _symmetry_equiv_pos_as_xyz
  1  'x, y, z'
loop_
 _atom_site_type_symbol
 _atom_site_label
 _atom_site_symmetry_multiplicity
 _atom_site_fract_x
 _atom_site_fract_y
 _atom_site_fract_z
 _atom_site_occupancy
  Sr  Sr0  1  0.125959  0.874041  0.250001  1
  Sr  Sr1  1  0.872905  0.127095  0.750001  1
  Mn  Mn2  1  0.588579  0.411421  0.750001  1
  Fe  Fe3  1  0.411455  0.588545  0.250001  1
  N  N4  1  0.501230  0.498770  0.998799  1
  N  N5  1  0.663166  0.033078  0.250001  1
  N  N6  1  0.966922  0.336833  0.250001  1
  N  N7  1  0.501230  0.498770  0.501201  1
  N  N8  1  0.030501  0.661948  0.750001  1
  N  N9  1  0.338051  0.969499  0.750001  1
