# generated using pymatgen
data_Cs8Hf7Zr5(BBr17)2
_symmetry_space_group_name_H-M   'P 1'
_cell_length_a   12.92912310
_cell_length_b   12.92912310
_cell_length_c   11.85967012
_cell_angle_alpha   90.12057007
_cell_angle_beta   90.12057007
_cell_angle_gamma   89.84407987
_symmetry_Int_Tables_number   1
_chemical_formula_structural   Cs8Hf7Zr5(BBr17)2
_chemical_formula_sum   'Cs8 Hf7 Zr5 B2 Br34'
_cell_volume   1982.47273925
_cell_formula_units_Z   1
loop_
 _symmetry_equiv_pos_site_id
 _symmetry_equiv_pos_as_xyz
  1  'x, y, z'
loop_
 _atom_site_type_symbol
 _atom_site_label
 _atom_site_symmetry_multiplicity
 _atom_site_fract_x
 _atom_site_fract_y
 _atom_site_fract_z
 _atom_site_occupancy
  Cs  Cs0  1  0.483122  0.719658  0.341382  1
  Cs  Cs1  1  0.016863  0.219386  0.659311  1
  Cs  Cs2  1  0.515778  0.280133  0.341313  1
  Cs  Cs3  1  0.983683  0.780770  0.659716  1
  Cs  Cs4  1  0.719386  0.516863  0.659311  1
  Cs  Cs5  1  0.780133  0.015778  0.341313  1
  Cs  Cs6  1  0.280770  0.483683  0.659716  1
  Cs  Cs7  1  0.219658  0.983122  0.341382  1
  Hf  Hf8  1  0.590250  0.909903  0.702313  1
  Hf  Hf9  1  0.909704  0.409704  0.297991  1
  Hf  Hf10  1  0.409903  0.090250  0.702313  1
  Hf  Hf11  1  0.090791  0.590791  0.297462  1
  Hf  Hf12  1  0.590493  0.909419  0.978538  1
  Hf  Hf13  1  0.909595  0.409595  0.020510  1
  Hf  Hf14  1  0.409419  0.090493  0.978538  1
  Zr  Zr15  1  0.091023  0.591023  0.020187  1
  Zr  Zr16  1  0.872690  0.628291  0.155761  1
  Zr  Zr17  1  0.627338  0.127338  0.843939  1
  Zr  Zr18  1  0.128291  0.372690  0.155761  1
  Zr  Zr19  1  0.372485  0.872485  0.842698  1
  B  B20  1  0.999319  0.499319  0.160022  1
  B  B21  1  0.499918  0.999918  0.840981  1
  Br  Br22  1  0.997745  0.497745  0.835930  1
  Br  Br23  1  0.500162  0.000162  0.161729  1
  Br  Br24  1  0.704399  0.794676  0.155936  1
  Br  Br25  1  0.794434  0.294434  0.845235  1
  Br  Br26  1  0.294676  0.204399  0.155936  1
  Br  Br27  1  0.206570  0.706570  0.841585  1
  Br  Br28  1  0.457965  0.751330  0.680354  1
  Br  Br29  1  0.043181  0.251552  0.318133  1
  Br  Br30  1  0.542469  0.248754  0.681581  1
  Br  Br31  1  0.956961  0.748641  0.319458  1
  Br  Br32  1  0.751552  0.543181  0.318133  1
  Br  Br33  1  0.748754  0.042469  0.681581  1
  Br  Br34  1  0.248641  0.456961  0.319458  1
  Br  Br35  1  0.251330  0.957965  0.680354  1
  Br  Br36  1  0.701820  0.798353  0.534458  1
  Br  Br37  1  0.798961  0.298961  0.464655  1
  Br  Br38  1  0.298353  0.201820  0.534458  1
  Br  Br39  1  0.200734  0.700734  0.467500  1
  Br  Br40  1  0.000199  0.500199  0.480410  1
  Br  Br41  1  0.500000  0.000000  0.518858  1
  Br  Br42  1  0.461856  0.749161  0.000840  1
  Br  Br43  1  0.038077  0.248453  0.998953  1
  Br  Br44  1  0.537852  0.251051  0.001839  1
  Br  Br45  1  0.959417  0.753232  0.999287  1
  Br  Br46  1  0.748453  0.538077  0.998953  1
  Br  Br47  1  0.751051  0.037852  0.001839  1
  Br  Br48  1  0.253232  0.459417  0.999287  1
  Br  Br49  1  0.249161  0.961856  0.000840  1
  Br  Br50  1  0.705750  0.794090  0.839708  1
  Br  Br51  1  0.794636  0.294636  0.159886  1
  Br  Br52  1  0.294090  0.205750  0.839708  1
  Br  Br53  1  0.206927  0.706927  0.163044  1
  Br  Br54  1  0.499961  0.500020  0.499811  1
  Br  Br55  1  0.000020  0.999961  0.499811  1
