# generated using pymatgen
data_Ta4Si4IrRu3
_symmetry_space_group_name_H-M   'P 1'
_cell_length_a   3.85508900
_cell_length_b   6.35764758
_cell_length_c   7.30481654
_cell_angle_alpha   90.17606996
_cell_angle_beta   90.00000000
_cell_angle_gamma   90.00000000
_symmetry_Int_Tables_number   1
_chemical_formula_structural   Ta4Si4IrRu3
_chemical_formula_sum   'Ta4 Si4 Ir1 Ru3'
_cell_volume   179.03507452
_cell_formula_units_Z   1
loop_
 _symmetry_equiv_pos_site_id
 _symmetry_equiv_pos_as_xyz
  1  'x, y, z'
loop_
 _atom_site_type_symbol
 _atom_site_label
 _atom_site_symmetry_multiplicity
 _atom_site_fract_x
 _atom_site_fract_y
 _atom_site_fract_z
 _atom_site_occupancy
  Ta  Ta0  1  0.750000  0.522912  0.820346  1
  Ta  Ta1  1  0.250000  0.975146  0.321663  1
  Ta  Ta2  1  0.750000  0.020347  0.678793  1
  Ta  Ta3  1  0.250000  0.480057  0.179204  1
  Si  Si4  1  0.250000  0.228645  0.874675  1
  Si  Si5  1  0.250000  0.725041  0.623849  1
  Si  Si6  1  0.750000  0.771038  0.121919  1
  Si  Si7  1  0.750000  0.273437  0.379411  1
  Ir  Ir8  1  0.750000  0.152387  0.063631  1
  Ru  Ru9  1  0.250000  0.850801  0.937872  1
  Ru  Ru10  1  0.250000  0.347105  0.561188  1
  Ru  Ru11  1  0.750000  0.653083  0.437451  1
