# generated using pymatgen
data_Li3Sc6Os2Pt
_symmetry_space_group_name_H-M   'P 1'
_cell_length_a   4.65531600
_cell_length_b   6.54865700
_cell_length_c   13.91521300
_cell_angle_alpha   89.99963510
_cell_angle_beta   89.99971450
_cell_angle_gamma   90.00012278
_symmetry_Int_Tables_number   1
_chemical_formula_structural   Li3Sc6Os2Pt
_chemical_formula_sum   'Li6 Sc12 Os4 Pt2'
_cell_volume   424.22012575
_cell_formula_units_Z   2
loop_
 _symmetry_equiv_pos_site_id
 _symmetry_equiv_pos_as_xyz
  1  'x, y, z'
loop_
 _atom_site_type_symbol
 _atom_site_label
 _atom_site_symmetry_multiplicity
 _atom_site_fract_x
 _atom_site_fract_y
 _atom_site_fract_z
 _atom_site_occupancy
  Li  Li0  1  0.999983  0.500001  0.001416  1
  Li  Li1  1  0.499838  0.000000  0.167882  1
  Li  Li2  1  0.999805  0.500000  0.332058  1
  Li  Li3  1  0.499996  0.000000  0.498597  1
  Li  Li4  1  0.000185  0.500000  0.666247  1
  Li  Li5  1  0.500206  0.000000  0.833816  1
  Sc  Sc6  1  0.499991  0.247022  0.003589  1
  Sc  Sc7  1  0.499992  0.752981  0.003589  1
  Sc  Sc8  1  0.999808  0.249805  0.167232  1
  Sc  Sc9  1  0.999802  0.750196  0.167230  1
  Sc  Sc10  1  0.499812  0.250124  0.332756  1
  Sc  Sc11  1  0.499814  0.749862  0.332756  1
  Sc  Sc12  1  0.999990  0.252970  0.496391  1
  Sc  Sc13  1  0.999997  0.747037  0.496391  1
  Sc  Sc14  1  0.500170  0.254659  0.663235  1
  Sc  Sc15  1  0.500183  0.745338  0.663234  1
  Sc  Sc16  1  0.000175  0.245339  0.836797  1
  Sc  Sc17  1  0.000187  0.754660  0.836802  1
  Os  Os18  1  0.000017  0.999998  0.996458  1
  Os  Os19  1  0.499782  0.500001  0.165680  1
  Os  Os20  1  0.999785  0.999996  0.334284  1
  Os  Os21  1  0.500014  0.500005  0.503550  1
  Pt  Pt22  1  0.000226  0.000000  0.668669  1
  Pt  Pt23  1  0.500231  0.499999  0.831338  1
