# generated using pymatgen
data_TbYGa10Ru3
_symmetry_space_group_name_H-M   'P 1'
_cell_length_a   8.91262667
_cell_length_b   8.91262667
_cell_length_c   6.45404900
_cell_angle_alpha   90.00000000
_cell_angle_beta   90.00000000
_cell_angle_gamma   90.04446025
_symmetry_Int_Tables_number   1
_chemical_formula_structural   TbYGa10Ru3
_chemical_formula_sum   'Tb2 Y2 Ga20 Ru6'
_cell_volume   512.67667404
_cell_formula_units_Z   2
loop_
 _symmetry_equiv_pos_site_id
 _symmetry_equiv_pos_as_xyz
  1  'x, y, z'
loop_
 _atom_site_type_symbol
 _atom_site_label
 _atom_site_symmetry_multiplicity
 _atom_site_fract_x
 _atom_site_fract_y
 _atom_site_fract_z
 _atom_site_occupancy
  Tb  Tb0  1  0.182694  0.682694  0.000000  1
  Tb  Tb1  1  0.817306  0.317306  0.000000  1
  Y  Y2  1  0.682530  0.817470  0.000000  1
  Y  Y3  1  0.317470  0.182530  0.000000  1
  Ga  Ga4  1  0.061055  0.206056  0.705503  1
  Ga  Ga5  1  0.938945  0.793944  0.705503  1
  Ga  Ga6  1  0.560815  0.294054  0.705486  1
  Ga  Ga7  1  0.439185  0.705946  0.705486  1
  Ga  Ga8  1  0.794054  0.060815  0.705486  1
  Ga  Ga9  1  0.205946  0.939185  0.705486  1
  Ga  Ga10  1  0.706056  0.561055  0.705503  1
  Ga  Ga11  1  0.293944  0.438945  0.705503  1
  Ga  Ga12  1  0.938945  0.793944  0.294497  1
  Ga  Ga13  1  0.061055  0.206056  0.294497  1
  Ga  Ga14  1  0.439185  0.705946  0.294514  1
  Ga  Ga15  1  0.560815  0.294054  0.294514  1
  Ga  Ga16  1  0.205946  0.939185  0.294514  1
  Ga  Ga17  1  0.794054  0.060815  0.294514  1
  Ga  Ga18  1  0.293944  0.438945  0.294497  1
  Ga  Ga19  1  0.706056  0.561055  0.294497  1
  Ga  Ga20  1  0.000000  0.500000  0.709594  1
  Ga  Ga21  1  0.500000  0.000000  0.709740  1
  Ga  Ga22  1  0.000000  0.500000  0.290406  1
  Ga  Ga23  1  0.500000  0.000000  0.290260  1
  Ru  Ru24  1  0.178799  0.678799  0.500000  1
  Ru  Ru25  1  0.821201  0.321201  0.500000  1
  Ru  Ru26  1  0.678624  0.821376  0.500000  1
  Ru  Ru27  1  0.321376  0.178624  0.500000  1
  Ru  Ru28  1  0.000000  0.000000  0.000000  1
  Ru  Ru29  1  0.500000  0.500000  0.000000  1
