# generated using pymatgen
data_Sm2EuMg3AgPb2
_symmetry_space_group_name_H-M   'P 1'
_cell_length_a   7.76890580
_cell_length_b   7.72745086
_cell_length_c   4.67245800
_cell_angle_alpha   90.00000000
_cell_angle_beta   90.00000000
_cell_angle_gamma   119.82363736
_symmetry_Int_Tables_number   1
_chemical_formula_structural   Sm2EuMg3AgPb2
_chemical_formula_sum   'Sm2 Eu1 Mg3 Ag1 Pb2'
_cell_volume   243.35552508
_cell_formula_units_Z   1
loop_
 _symmetry_equiv_pos_site_id
 _symmetry_equiv_pos_as_xyz
  1  'x, y, z'
loop_
 _atom_site_type_symbol
 _atom_site_label
 _atom_site_symmetry_multiplicity
 _atom_site_fract_x
 _atom_site_fract_y
 _atom_site_fract_z
 _atom_site_occupancy
  Sm  Sm0  1  0.586055  0.588628  0.500000  1
  Sm  Sm1  1  0.413945  0.002573  0.500000  1
  Eu  Eu2  1  0.000000  0.413955  0.500000  1
  Mg  Mg3  1  0.000000  0.767360  0.000000  1
  Mg  Mg4  1  0.234575  0.233424  0.000000  1
  Mg  Mg5  1  0.765425  0.998849  0.000000  1
  Ag  Ag6  1  0.000000  0.993004  0.500000  1
  Pb  Pb7  1  0.339557  0.670882  0.000000  1
  Pb  Pb8  1  0.660443  0.331324  0.000000  1
