# generated using pymatgen
data_Tb3Dy2Lu11(Ga3Co)2
_symmetry_space_group_name_H-M   'P 1'
_cell_length_a   9.82365802
_cell_length_b   9.82365805
_cell_length_c   6.92927301
_cell_angle_alpha   89.99470013
_cell_angle_beta   90.00530223
_cell_angle_gamma   120.00486915
_symmetry_Int_Tables_number   1
_chemical_formula_structural   Tb3Dy2Lu11(Ga3Co)2
_chemical_formula_sum   'Tb3 Dy2 Lu11 Ga6 Co2'
_cell_volume   579.08653065
_cell_formula_units_Z   1
loop_
 _symmetry_equiv_pos_site_id
 _symmetry_equiv_pos_as_xyz
  1  'x, y, z'
loop_
 _atom_site_type_symbol
 _atom_site_label
 _atom_site_symmetry_multiplicity
 _atom_site_fract_x
 _atom_site_fract_y
 _atom_site_fract_z
 _atom_site_occupancy
  Tb  Tb0  1  0.464914  0.535086  0.289967  1
  Tb  Tb1  1  0.999986  0.000014  0.768402  1
  Tb  Tb2  1  0.000005  0.999995  0.268718  1
  Dy  Dy3  1  0.464843  0.929755  0.290017  1
  Dy  Dy4  1  0.070245  0.535157  0.290017  1
  Lu  Lu5  1  0.825830  0.651503  0.491045  1
  Lu  Lu6  1  0.348497  0.174170  0.491045  1
  Lu  Lu7  1  0.825741  0.174259  0.490968  1
  Lu  Lu8  1  0.173890  0.347890  0.983062  1
  Lu  Lu9  1  0.652110  0.826110  0.983062  1
  Lu  Lu10  1  0.173998  0.826002  0.983145  1
  Lu  Lu11  1  0.666707  0.333293  0.173840  1
  Lu  Lu12  1  0.333277  0.666723  0.673683  1
  Lu  Lu13  1  0.537775  0.075581  0.792993  1
  Lu  Lu14  1  0.924419  0.462225  0.792993  1
  Lu  Lu15  1  0.537826  0.462174  0.793019  1
  Ga  Ga16  1  0.835408  0.670764  0.044349  1
  Ga  Ga17  1  0.329236  0.164592  0.044349  1
  Ga  Ga18  1  0.835379  0.164621  0.044420  1
  Ga  Ga19  1  0.164087  0.328290  0.543627  1
  Ga  Ga20  1  0.671710  0.835913  0.543627  1
  Ga  Ga21  1  0.164183  0.835817  0.543528  1
  Co  Co22  1  0.666680  0.333320  0.555655  1
  Co  Co23  1  0.333254  0.666746  0.050536  1
