# generated using pymatgen
data_DyY16Tm3Sn16
_symmetry_space_group_name_H-M   'P 1'
_cell_length_a   8.02720893
_cell_length_b   8.16993006
_cell_length_c   15.49976019
_cell_angle_alpha   90.00352420
_cell_angle_beta   89.97703304
_cell_angle_gamma   90.04899558
_symmetry_Int_Tables_number   1
_chemical_formula_structural   DyY16Tm3Sn16
_chemical_formula_sum   'Dy1 Y16 Tm3 Sn16'
_cell_volume   1016.50071789
_cell_formula_units_Z   1
loop_
 _symmetry_equiv_pos_site_id
 _symmetry_equiv_pos_as_xyz
  1  'x, y, z'
loop_
 _atom_site_type_symbol
 _atom_site_label
 _atom_site_symmetry_multiplicity
 _atom_site_fract_x
 _atom_site_fract_y
 _atom_site_fract_z
 _atom_site_occupancy
  Dy  Dy0  1  0.020405  0.178933  0.902730  1
  Y  Y1  1  0.367843  0.837683  0.877558  1
  Y  Y2  1  0.867358  0.663367  0.622157  1
  Y  Y3  1  0.632004  0.162804  0.377527  1
  Y  Y4  1  0.132298  0.336935  0.122552  1
  Y  Y5  1  0.632434  0.162947  0.122597  1
  Y  Y6  1  0.132042  0.337106  0.377405  1
  Y  Y7  1  0.368374  0.837513  0.622282  1
  Y  Y8  1  0.867204  0.663152  0.877641  1
  Y  Y9  1  0.521720  0.320773  0.902753  1
  Y  Y10  1  0.021448  0.178713  0.597354  1
  Y  Y11  1  0.478393  0.679026  0.402526  1
  Y  Y12  1  0.978714  0.820842  0.097323  1
  Y  Y13  1  0.478685  0.679069  0.097455  1
  Y  Y14  1  0.978442  0.820988  0.402627  1
  Y  Y15  1  0.521842  0.320758  0.597145  1
  Y  Y16  1  0.198851  0.502342  0.749987  1
  Tm  Tm17  1  0.699546  0.996971  0.749926  1
  Tm  Tm18  1  0.800677  0.497054  0.250061  1
  Tm  Tm19  1  0.300717  0.002962  0.250113  1
  Sn  Sn20  1  0.292730  0.036112  0.042405  1
  Sn  Sn21  1  0.792615  0.463931  0.457565  1
  Sn  Sn22  1  0.707550  0.964191  0.542328  1
  Sn  Sn23  1  0.206990  0.536276  0.958473  1
  Sn  Sn24  1  0.707296  0.963863  0.957744  1
  Sn  Sn25  1  0.207421  0.536388  0.541521  1
  Sn  Sn26  1  0.292469  0.036128  0.457607  1
  Sn  Sn27  1  0.793074  0.463665  0.042252  1
  Sn  Sn28  1  0.566168  0.618931  0.749944  1
  Sn  Sn29  1  0.064097  0.882825  0.750090  1
  Sn  Sn30  1  0.435453  0.381912  0.250060  1
  Sn  Sn31  1  0.935366  0.118011  0.250064  1
  Sn  Sn32  1  0.331279  0.147430  0.750069  1
  Sn  Sn33  1  0.830305  0.350116  0.750128  1
  Sn  Sn34  1  0.669265  0.850736  0.250017  1
  Sn  Sn35  1  0.168925  0.649547  0.250018  1
