# generated using pymatgen
data_Th3Al27Cr8Re
_symmetry_space_group_name_H-M   'P 1'
_cell_length_a   5.09064752
_cell_length_b   6.89016711
_cell_length_c   19.50437904
_cell_angle_alpha   87.11233675
_cell_angle_beta   97.83800306
_cell_angle_gamma   111.67947277
_symmetry_Int_Tables_number   1
_chemical_formula_structural   Th3Al27Cr8Re
_chemical_formula_sum   'Th3 Al27 Cr8 Re1'
_cell_volume   629.79333307
_cell_formula_units_Z   1
loop_
 _symmetry_equiv_pos_site_id
 _symmetry_equiv_pos_as_xyz
  1  'x, y, z'
loop_
 _atom_site_type_symbol
 _atom_site_label
 _atom_site_symmetry_multiplicity
 _atom_site_fract_x
 _atom_site_fract_y
 _atom_site_fract_z
 _atom_site_occupancy
  Th  Th0  1  0.333333  0.000000  0.666667  1
  Th  Th1  1  0.991339  0.000000  0.998642  1
  Th  Th2  1  0.675328  0.000000  0.334691  1
  Al  Al3  1  0.130648  0.357467  0.885345  1
  Al  Al4  1  0.775612  0.360075  0.219777  1
  Al  Al5  1  0.466887  0.357029  0.553405  1
  Al  Al6  1  0.199779  0.642971  0.779929  1
  Al  Al7  1  0.891055  0.639925  0.113556  1
  Al  Al8  1  0.536019  0.642533  0.447988  1
  Al  Al9  1  0.556809  0.357029  0.779929  1
  Al  Al10  1  0.251131  0.360075  0.113556  1
  Al  Al11  1  0.893486  0.357467  0.447988  1
  Al  Al12  1  0.773181  0.642533  0.885345  1
  Al  Al13  1  0.415536  0.639925  0.219777  1
  Al  Al14  1  0.109857  0.642971  0.553405  1
  Al  Al15  1  0.763096  0.773349  0.738097  1
  Al  Al16  1  0.411971  0.774215  0.069838  1
  Al  Al17  1  0.102426  0.772173  0.406064  1
  Al  Al18  1  0.564240  0.227827  0.927270  1
  Al  Al19  1  0.254696  0.225785  0.263495  1
  Al  Al20  1  0.903571  0.226651  0.595236  1
  Al  Al21  1  0.336413  0.772173  0.927270  1
  Al  Al22  1  0.028911  0.774215  0.263495  1
  Al  Al23  1  0.676919  0.773349  0.595236  1
  Al  Al24  1  0.989748  0.226651  0.738097  1
  Al  Al25  1  0.637756  0.225785  0.069838  1
  Al  Al26  1  0.330253  0.227827  0.406064  1
  Al  Al27  1  0.001600  0.000000  0.501380  1
  Al  Al28  1  0.665067  0.000000  0.831953  1
  Al  Al29  1  0.833333  0.000000  0.166667  1
  Cr  Cr30  1  0.499679  0.000000  0.499251  1
  Cr  Cr31  1  0.166988  0.000000  0.834082  1
  Cr  Cr32  1  0.994624  0.485173  0.999904  1
  Cr  Cr33  1  0.672043  0.514827  0.333429  1
  Cr  Cr34  1  0.333333  0.500000  0.666667  1
  Cr  Cr35  1  0.509450  0.514827  0.999904  1
  Cr  Cr36  1  0.157217  0.485173  0.333429  1
  Cr  Cr37  1  0.833333  0.500000  0.666667  1
  Re  Re38  1  0.333333  0.000000  0.166667  1
