# generated using pymatgen
data_Tb4Nd7In9Pd4
_symmetry_space_group_name_H-M   'P 1'
_cell_length_a   13.45353187
_cell_length_b   13.45405685
_cell_length_c   3.72427100
_cell_angle_alpha   90.00000000
_cell_angle_beta   90.00000000
_cell_angle_gamma   111.09569901
_symmetry_Int_Tables_number   1
_chemical_formula_structural   Tb4Nd7In9Pd4
_chemical_formula_sum   'Tb4 Nd7 In9 Pd4'
_cell_volume   628.93163271
_cell_formula_units_Z   1
loop_
 _symmetry_equiv_pos_site_id
 _symmetry_equiv_pos_as_xyz
  1  'x, y, z'
loop_
 _atom_site_type_symbol
 _atom_site_label
 _atom_site_symmetry_multiplicity
 _atom_site_fract_x
 _atom_site_fract_y
 _atom_site_fract_z
 _atom_site_occupancy
  Tb  Tb0  1  0.373329  0.626679  0.000000  1
  Tb  Tb1  1  0.626671  0.373321  0.000000  1
  Tb  Tb2  1  0.312685  0.312687  0.000000  1
  Tb  Tb3  1  0.687315  0.687313  0.000000  1
  Nd  Nd4  1  0.416893  0.069335  0.000000  1
  Nd  Nd5  1  0.583107  0.930665  0.000000  1
  Nd  Nd6  1  0.069340  0.416922  0.000000  1
  Nd  Nd7  1  0.930660  0.583078  0.000000  1
  Nd  Nd8  1  0.159133  0.840885  0.000000  1
  Nd  Nd9  1  0.840867  0.159115  0.000000  1
  Nd  Nd10  1  0.000000  0.000000  0.000000  1
  In  In11  1  0.367736  0.836104  0.500000  1
  In  In12  1  0.632264  0.163896  0.500000  1
  In  In13  1  0.835917  0.367591  0.500000  1
  In  In14  1  0.164083  0.632409  0.500000  1
  In  In15  1  0.220284  0.080039  0.500000  1
  In  In16  1  0.779716  0.919961  0.500000  1
  In  In17  1  0.080038  0.220286  0.500000  1
  In  In18  1  0.919962  0.779714  0.500000  1
  In  In19  1  0.500000  0.500000  0.500000  1
  Pd  Pd20  1  0.451043  0.253336  0.500000  1
  Pd  Pd21  1  0.548957  0.746664  0.500000  1
  Pd  Pd22  1  0.253335  0.451047  0.500000  1
  Pd  Pd23  1  0.746665  0.548953  0.500000  1
