# generated using pymatgen
data_LiTb2YbPd2Pb3
_symmetry_space_group_name_H-M   'P 1'
_cell_length_a   8.00434855
_cell_length_b   7.98801222
_cell_length_c   3.79514100
_cell_angle_alpha   90.00000000
_cell_angle_beta   90.00000000
_cell_angle_gamma   119.93251378
_symmetry_Int_Tables_number   1
_chemical_formula_structural   LiTb2YbPd2Pb3
_chemical_formula_sum   'Li1 Tb2 Yb1 Pd2 Pb3'
_cell_volume   210.28979353
_cell_formula_units_Z   1
loop_
 _symmetry_equiv_pos_site_id
 _symmetry_equiv_pos_as_xyz
  1  'x, y, z'
loop_
 _atom_site_type_symbol
 _atom_site_label
 _atom_site_symmetry_multiplicity
 _atom_site_fract_x
 _atom_site_fract_y
 _atom_site_fract_z
 _atom_site_occupancy
  Li  Li0  1  0.000000  0.999636  0.500000  1
  Tb  Tb1  1  0.404067  0.405143  0.500000  1
  Tb  Tb2  1  0.595933  0.001076  0.500000  1
  Yb  Yb3  1  0.000000  0.594413  0.500000  1
  Pd  Pd4  1  0.662987  0.330765  0.000000  1
  Pd  Pd5  1  0.337013  0.667778  0.000000  1
  Pb  Pb6  1  0.736579  0.735762  0.000000  1
  Pb  Pb7  1  0.263421  0.999183  0.000000  1
  Pb  Pb8  1  0.000000  0.266244  0.000000  1
