# generated using pymatgen
data_CuIrRhSe8
_symmetry_space_group_name_H-M   'P 1'
_cell_length_a   6.14603661
_cell_length_b   6.04298155
_cell_length_c   6.03538804
_cell_angle_alpha   90.48537701
_cell_angle_beta   91.39767755
_cell_angle_gamma   92.68761301
_symmetry_Int_Tables_number   1
_chemical_formula_structural   CuIrRhSe8
_chemical_formula_sum   'Cu1 Ir1 Rh1 Se8'
_cell_volume   223.83308192
_cell_formula_units_Z   1
loop_
 _symmetry_equiv_pos_site_id
 _symmetry_equiv_pos_as_xyz
  1  'x, y, z'
loop_
 _atom_site_type_symbol
 _atom_site_label
 _atom_site_symmetry_multiplicity
 _atom_site_fract_x
 _atom_site_fract_y
 _atom_site_fract_z
 _atom_site_occupancy
  Cu  Cu0  1  0.000000  0.500000  0.500000  1
  Ir  Ir1  1  0.500000  0.500000  0.000000  1
  Rh  Rh2  1  0.500000  0.000000  0.500000  1
  Se  Se3  1  0.384930  0.876491  0.113082  1
  Se  Se4  1  0.111707  0.384571  0.886636  1
  Se  Se5  1  0.882445  0.106330  0.385108  1
  Se  Se6  1  0.615070  0.123509  0.886918  1
  Se  Se7  1  0.888293  0.615429  0.113364  1
  Se  Se8  1  0.117555  0.893670  0.614892  1
  Se  Se9  1  0.610115  0.625952  0.624552  1
  Se  Se10  1  0.389885  0.374048  0.375448  1
