# generated using pymatgen
data_Th2Al20FeCoTc2
_symmetry_space_group_name_H-M   'P 1'
_cell_length_a   6.87437746
_cell_length_b   6.86593062
_cell_length_c   9.16197893
_cell_angle_alpha   90.15842230
_cell_angle_beta   90.11271921
_cell_angle_gamma   97.25910043
_symmetry_Int_Tables_number   1
_chemical_formula_structural   Th2Al20FeCoTc2
_chemical_formula_sum   'Th2 Al20 Fe1 Co1 Tc2'
_cell_volume   428.96739949
_cell_formula_units_Z   1
loop_
 _symmetry_equiv_pos_site_id
 _symmetry_equiv_pos_as_xyz
  1  'x, y, z'
loop_
 _atom_site_type_symbol
 _atom_site_label
 _atom_site_symmetry_multiplicity
 _atom_site_fract_x
 _atom_site_fract_y
 _atom_site_fract_z
 _atom_site_occupancy
  Th  Th0  1  0.868457  0.119573  0.750607  1
  Th  Th1  1  0.131543  0.880427  0.249393  1
  Al  Al2  1  0.516865  0.775039  0.749357  1
  Al  Al3  1  0.483135  0.224961  0.250643  1
  Al  Al4  1  0.595994  0.862809  0.249842  1
  Al  Al5  1  0.775639  0.767972  0.999402  1
  Al  Al6  1  0.156619  0.834713  0.601255  1
  Al  Al7  1  0.224361  0.232028  0.000598  1
  Al  Al8  1  0.136106  0.412945  0.249543  1
  Al  Al9  1  0.625393  0.379359  0.950794  1
  Al  Al10  1  0.844096  0.166217  0.100505  1
  Al  Al11  1  0.376102  0.621075  0.449758  1
  Al  Al12  1  0.155904  0.833783  0.899495  1
  Al  Al13  1  0.218012  0.480938  0.751204  1
  Al  Al14  1  0.374607  0.620641  0.049206  1
  Al  Al15  1  0.843381  0.165287  0.398745  1
  Al  Al16  1  0.623898  0.378925  0.550242  1
  Al  Al17  1  0.404006  0.137191  0.750158  1
  Al  Al18  1  0.781988  0.519062  0.248796  1
  Al  Al19  1  0.774682  0.768169  0.500460  1
  Al  Al20  1  0.225318  0.231831  0.499540  1
  Al  Al21  1  0.863894  0.587055  0.750457  1
  Fe  Fe22  1  0.000000  0.500000  0.000000  1
  Co  Co23  1  0.000000  0.500000  0.500000  1
  Tc  Tc24  1  0.500000  0.000000  0.000000  1
  Tc  Tc25  1  0.500000  0.000000  0.500000  1
