# generated using pymatgen
data_Dy4Al12Si6Os5Pd
_symmetry_space_group_name_H-M   'P 1'
_cell_length_a   7.50302385
_cell_length_b   7.46929663
_cell_length_c   9.33783800
_cell_angle_alpha   89.98396794
_cell_angle_beta   89.91198330
_cell_angle_gamma   119.93110417
_symmetry_Int_Tables_number   1
_chemical_formula_structural   Dy4Al12Si6Os5Pd
_chemical_formula_sum   'Dy4 Al12 Si6 Os5 Pd1'
_cell_volume   453.51667352
_cell_formula_units_Z   1
loop_
 _symmetry_equiv_pos_site_id
 _symmetry_equiv_pos_as_xyz
  1  'x, y, z'
loop_
 _atom_site_type_symbol
 _atom_site_label
 _atom_site_symmetry_multiplicity
 _atom_site_fract_x
 _atom_site_fract_y
 _atom_site_fract_z
 _atom_site_occupancy
  Dy  Dy0  1  0.997757  0.672929  0.250078  1
  Dy  Dy1  1  0.007097  0.338222  0.754542  1
  Dy  Dy2  1  0.673224  0.999998  0.248608  1
  Dy  Dy3  1  0.315613  0.992990  0.747342  1
  Al  Al4  1  0.007654  0.330866  0.425818  1
  Al  Al5  1  0.669045  0.995123  0.577591  1
  Al  Al6  1  0.661598  0.995592  0.922651  1
  Al  Al7  1  0.341172  0.005665  0.071191  1
  Al  Al8  1  0.331420  0.337757  0.562587  1
  Al  Al9  1  0.660052  0.668840  0.437493  1
  Al  Al10  1  0.661304  0.664568  0.057770  1
  Al  Al11  1  0.339743  0.334123  0.941308  1
  Al  Al12  1  0.333613  0.547610  0.249459  1
  Al  Al13  1  0.669832  0.456318  0.753481  1
  Al  Al14  1  0.544284  0.336292  0.247384  1
  Al  Al15  1  0.454077  0.663031  0.749150  1
  Si  Si16  1  0.128010  0.126069  0.249820  1
  Si  Si17  1  0.870820  0.876262  0.749982  1
  Si  Si18  1  0.003491  0.330846  0.074607  1
  Si  Si19  1  0.996707  0.667033  0.935344  1
  Si  Si20  1  0.997233  0.664089  0.570774  1
  Si  Si21  1  0.334151  0.000734  0.423538  1
  Os  Os22  1  0.689285  0.335756  0.002242  1
  Os  Os23  1  0.311903  0.663258  0.997817  1
  Os  Os24  1  0.320155  0.678876  0.499847  1
  Os  Os25  1  0.001201  0.998570  0.000156  1
  Os  Os26  1  0.007749  0.991040  0.499734  1
  Pd  Pd27  1  0.671810  0.327544  0.499683  1
