# generated using pymatgen
data_TbThN2
_symmetry_space_group_name_H-M   'P 1'
_cell_length_a   5.08304400
_cell_length_b   5.08304400
_cell_length_c   5.04485200
_cell_angle_alpha   90.00000000
_cell_angle_beta   90.00000000
_cell_angle_gamma   90.00000000
_symmetry_Int_Tables_number   1
_chemical_formula_structural   TbThN2
_chemical_formula_sum   'Tb2 Th2 N4'
_cell_volume   130.34553774
_cell_formula_units_Z   2
loop_
 _symmetry_equiv_pos_site_id
 _symmetry_equiv_pos_as_xyz
  1  'x, y, z'
loop_
 _atom_site_type_symbol
 _atom_site_label
 _atom_site_symmetry_multiplicity
 _atom_site_fract_x
 _atom_site_fract_y
 _atom_site_fract_z
 _atom_site_occupancy
  Tb  Tb0  1  0.750001  0.750001  0.000183  1
  Tb  Tb1  1  0.250002  0.250002  0.999819  1
  Th  Th2  1  0.750001  0.250002  0.499999  1
  Th  Th3  1  0.250002  0.750001  0.499999  1
  N  N4  1  0.250002  0.250002  0.499809  1
  N  N5  1  0.750001  0.750001  0.500190  1
  N  N6  1  0.750001  0.250002  0.000000  1
  N  N7  1  0.250002  0.750001  0.000000  1
