# generated using pymatgen
data_Li3Zr(NiAs)4
_symmetry_space_group_name_H-M   'P 1'
_cell_length_a   3.93123700
_cell_length_b   6.36766267
_cell_length_c   6.99229986
_cell_angle_alpha   88.83397648
_cell_angle_beta   90.00000000
_cell_angle_gamma   90.00000000
_symmetry_Int_Tables_number   1
_chemical_formula_structural   Li3Zr(NiAs)4
_chemical_formula_sum   'Li3 Zr1 Ni4 As4'
_cell_volume   175.00053622
_cell_formula_units_Z   1
loop_
 _symmetry_equiv_pos_site_id
 _symmetry_equiv_pos_as_xyz
  1  'x, y, z'
loop_
 _atom_site_type_symbol
 _atom_site_label
 _atom_site_symmetry_multiplicity
 _atom_site_fract_x
 _atom_site_fract_y
 _atom_site_fract_z
 _atom_site_occupancy
  Li  Li0  1  0.250000  0.484810  0.180807  1
  Li  Li1  1  0.750000  0.509276  0.813779  1
  Li  Li2  1  0.750000  0.009959  0.691471  1
  Zr  Zr3  1  0.250000  0.985128  0.317546  1
  Ni  Ni4  1  0.250000  0.844703  0.939518  1
  Ni  Ni5  1  0.750000  0.157506  0.053604  1
  Ni  Ni6  1  0.750000  0.651175  0.438965  1
  Ni  Ni7  1  0.250000  0.359848  0.559697  1
  As  As8  1  0.250000  0.723231  0.627103  1
  As  As9  1  0.750000  0.281497  0.383449  1
  As  As10  1  0.750000  0.774458  0.113112  1
  As  As11  1  0.250000  0.218409  0.880950  1
