# generated using pymatgen
data_Pr18Dy2Si15P
_symmetry_space_group_name_H-M   'P 1'
_cell_length_a   7.85558207
_cell_length_b   7.86604176
_cell_length_c   15.37612700
_cell_angle_alpha   89.91133256
_cell_angle_beta   89.83627217
_cell_angle_gamma   90.16404274
_symmetry_Int_Tables_number   1
_chemical_formula_structural   Pr18Dy2Si15P
_chemical_formula_sum   'Pr18 Dy2 Si15 P1'
_cell_volume   950.11789242
_cell_formula_units_Z   1
loop_
 _symmetry_equiv_pos_site_id
 _symmetry_equiv_pos_as_xyz
  1  'x, y, z'
loop_
 _atom_site_type_symbol
 _atom_site_label
 _atom_site_symmetry_multiplicity
 _atom_site_fract_x
 _atom_site_fract_y
 _atom_site_fract_z
 _atom_site_occupancy
  Pr  Pr0  1  0.805651  0.192983  0.751503  1
  Pr  Pr1  1  0.691555  0.691008  0.498624  1
  Pr  Pr2  1  0.381455  0.008484  0.442181  1
  Pr  Pr3  1  0.487006  0.881257  0.696848  1
  Pr  Pr4  1  0.512848  0.121097  0.194538  1
  Pr  Pr5  1  0.879625  0.485012  0.302426  1
  Pr  Pr6  1  0.122716  0.509947  0.804710  1
  Pr  Pr7  1  0.620132  0.986490  0.946290  1
  Pr  Pr8  1  0.010221  0.378440  0.554930  1
  Pr  Pr9  1  0.987655  0.620096  0.054514  1
  Pr  Pr10  1  0.127301  0.980976  0.877728  1
  Pr  Pr11  1  0.522347  0.626918  0.126081  1
  Pr  Pr12  1  0.473794  0.369896  0.629014  1
  Pr  Pr13  1  0.627520  0.521828  0.873388  1
  Pr  Pr14  1  0.372867  0.476433  0.372154  1
  Pr  Pr15  1  0.875088  0.021511  0.376787  1
  Pr  Pr16  1  0.977996  0.126206  0.122707  1
  Pr  Pr17  1  0.025671  0.881114  0.623410  1
  Dy  Dy18  1  0.310517  0.311603  0.000048  1
  Dy  Dy19  1  0.189542  0.809640  0.249126  1
  Si  Si20  1  0.327888  0.690310  0.956539  1
  Si  Si21  1  0.668993  0.306622  0.455558  1
  Si  Si22  1  0.690492  0.328479  0.043951  1
  Si  Si23  1  0.305373  0.668160  0.544850  1
  Si  Si24  1  0.811041  0.827515  0.206312  1
  Si  Si25  1  0.172237  0.189337  0.291543  1
  Si  Si26  1  0.833090  0.806967  0.794606  1
  Si  Si27  1  0.286038  0.921036  0.062640  1
  Si  Si28  1  0.575330  0.787056  0.308168  1
  Si  Si29  1  0.420103  0.214334  0.816217  1
  Si  Si30  1  0.787840  0.581341  0.688568  1
  Si  Si31  1  0.213561  0.422045  0.186762  1
  Si  Si32  1  0.710186  0.078241  0.560913  1
  Si  Si33  1  0.926565  0.289224  0.941300  1
  Si  Si34  1  0.082375  0.713611  0.436271  1
  P  P35  1  0.187383  0.174782  0.708796  1
