# generated using pymatgen
data_Pr18Nd2Si15Br
_symmetry_space_group_name_H-M   'P 1'
_cell_length_a   7.96070184
_cell_length_b   7.90519123
_cell_length_c   15.35263100
_cell_angle_alpha   89.65902206
_cell_angle_beta   89.12285621
_cell_angle_gamma   90.20895903
_symmetry_Int_Tables_number   1
_chemical_formula_structural   Pr18Nd2Si15Br
_chemical_formula_sum   'Pr18 Nd2 Si15 Br1'
_cell_volume   966.01735896
_cell_formula_units_Z   1
loop_
 _symmetry_equiv_pos_site_id
 _symmetry_equiv_pos_as_xyz
  1  'x, y, z'
loop_
 _atom_site_type_symbol
 _atom_site_label
 _atom_site_symmetry_multiplicity
 _atom_site_fract_x
 _atom_site_fract_y
 _atom_site_fract_z
 _atom_site_occupancy
  Pr  Pr0  1  0.795548  0.189288  0.753317  1
  Pr  Pr1  1  0.687002  0.689211  0.496493  1
  Pr  Pr2  1  0.380564  0.005353  0.442180  1
  Pr  Pr3  1  0.496668  0.868366  0.699425  1
  Pr  Pr4  1  0.511024  0.121315  0.196766  1
  Pr  Pr5  1  0.875514  0.485096  0.299959  1
  Pr  Pr6  1  0.122951  0.517947  0.804694  1
  Pr  Pr7  1  0.631969  0.985522  0.952507  1
  Pr  Pr8  1  0.996265  0.383643  0.545084  1
  Pr  Pr9  1  0.992241  0.623070  0.053278  1
  Pr  Pr10  1  0.139680  0.987873  0.875476  1
  Pr  Pr11  1  0.518843  0.629281  0.126167  1
  Pr  Pr12  1  0.482097  0.371943  0.630731  1
  Pr  Pr13  1  0.634650  0.522264  0.876857  1
  Pr  Pr14  1  0.368520  0.477384  0.374203  1
  Pr  Pr15  1  0.870546  0.020097  0.376094  1
  Pr  Pr16  1  0.982988  0.127123  0.124384  1
  Pr  Pr17  1  0.012925  0.863083  0.620618  1
  Nd  Nd18  1  0.311114  0.310843  0.000356  1
  Nd  Nd19  1  0.186882  0.807999  0.249346  1
  Si  Si20  1  0.331971  0.696685  0.951733  1
  Si  Si21  1  0.661123  0.304389  0.453723  1
  Si  Si22  1  0.701137  0.334743  0.050348  1
  Si  Si23  1  0.304228  0.667450  0.548719  1
  Si  Si24  1  0.804819  0.831230  0.202851  1
  Si  Si25  1  0.168063  0.193107  0.295992  1
  Si  Si26  1  0.843156  0.805161  0.797359  1
  Si  Si27  1  0.288282  0.922825  0.059388  1
  Si  Si28  1  0.574645  0.786163  0.308005  1
  Si  Si29  1  0.449980  0.210811  0.826267  1
  Si  Si30  1  0.790984  0.577193  0.688837  1
  Si  Si31  1  0.211802  0.423712  0.190080  1
  Si  Si32  1  0.703667  0.075570  0.560800  1
  Si  Si33  1  0.928845  0.291135  0.940893  1
  Si  Si34  1  0.077481  0.711500  0.438988  1
  Br  Br35  1  0.161824  0.181624  0.688083  1
