# generated using pymatgen
data_La9Nd(Mg2Ru3)2
_symmetry_space_group_name_H-M   'P 1'
_cell_length_a   8.69865864
_cell_length_b   8.77822213
_cell_length_c   8.77822042
_cell_angle_alpha   109.90604343
_cell_angle_beta   109.44008212
_cell_angle_gamma   109.43472572
_symmetry_Int_Tables_number   1
_chemical_formula_structural   La9Nd(Mg2Ru3)2
_chemical_formula_sum   'La9 Nd1 Mg4 Ru6'
_cell_volume   513.63239614
_cell_formula_units_Z   1
loop_
 _symmetry_equiv_pos_site_id
 _symmetry_equiv_pos_as_xyz
  1  'x, y, z'
loop_
 _atom_site_type_symbol
 _atom_site_label
 _atom_site_symmetry_multiplicity
 _atom_site_fract_x
 _atom_site_fract_y
 _atom_site_fract_z
 _atom_site_occupancy
  La  La0  1  0.750000  0.816006  0.066006  1
  La  La1  1  0.434207  0.249173  0.683462  1
  La  La2  1  0.685334  0.432930  0.249929  1
  La  La3  1  0.065794  0.749255  0.814967  1
  La  La4  1  0.814666  0.064595  0.747595  1
  La  La5  1  0.209075  0.209663  0.208351  1
  La  La6  1  0.498321  0.999774  0.289666  1
  La  La7  1  0.290925  0.499277  0.000589  1
  La  La8  1  0.001680  0.291346  0.501455  1
  Nd  Nd9  1  0.250000  0.679323  0.429324  1
  Mg  Mg10  1  0.499227  0.998274  0.908266  1
  Mg  Mg11  1  0.586755  0.588349  0.588884  1
  Mg  Mg12  1  0.913245  0.502130  0.001594  1
  Mg  Mg13  1  0.000774  0.909040  0.499050  1
  Ru  Ru14  1  0.250001  0.131908  0.881908  1
  Ru  Ru15  1  0.750000  0.367964  0.617964  1
  Ru  Ru16  1  0.884949  0.255633  0.134938  1
  Ru  Ru17  1  0.127355  0.886593  0.246133  1
  Ru  Ru18  1  0.615050  0.749989  0.370682  1
  Ru  Ru19  1  0.372644  0.618776  0.759237  1
