# generated using pymatgen
data_Nd7Tm13Ga15Si
_symmetry_space_group_name_H-M   'P 1'
_cell_length_a   7.92204753
_cell_length_b   7.96339981
_cell_length_c   14.64671100
_cell_angle_alpha   90.27182393
_cell_angle_beta   90.06771741
_cell_angle_gamma   90.01230576
_symmetry_Int_Tables_number   1
_chemical_formula_structural   Nd7Tm13Ga15Si
_chemical_formula_sum   'Nd7 Tm13 Ga15 Si1'
_cell_volume   923.99766870
_cell_formula_units_Z   1
loop_
 _symmetry_equiv_pos_site_id
 _symmetry_equiv_pos_as_xyz
  1  'x, y, z'
loop_
 _atom_site_type_symbol
 _atom_site_label
 _atom_site_symmetry_multiplicity
 _atom_site_fract_x
 _atom_site_fract_y
 _atom_site_fract_z
 _atom_site_occupancy
  Nd  Nd0  1  0.011140  0.354955  0.540544  1
  Nd  Nd1  1  0.644896  0.989074  0.961736  1
  Nd  Nd2  1  0.141651  0.504586  0.789716  1
  Nd  Nd3  1  0.855401  0.493721  0.288872  1
  Nd  Nd4  1  0.507260  0.140169  0.208531  1
  Nd  Nd5  1  0.490549  0.859738  0.710445  1
  Nd  Nd6  1  0.356541  0.006921  0.459683  1
  Tm  Tm7  1  0.355892  0.494448  0.375374  1
  Tm  Tm8  1  0.852279  0.001715  0.372868  1
  Tm  Tm9  1  0.996900  0.145015  0.125419  1
  Tm  Tm10  1  0.009114  0.857582  0.627864  1
  Tm  Tm11  1  0.645295  0.508912  0.876948  1
  Tm  Tm12  1  0.492164  0.354697  0.624695  1
  Tm  Tm13  1  0.504786  0.645610  0.123494  1
  Tm  Tm14  1  0.144617  0.996057  0.874782  1
  Tm  Tm15  1  0.996448  0.637929  0.040686  1
  Tm  Tm16  1  0.680478  0.679998  0.500958  1
  Tm  Tm17  1  0.823075  0.181729  0.750188  1
  Tm  Tm18  1  0.176841  0.817346  0.248701  1
  Tm  Tm19  1  0.318907  0.324232  0.000209  1
  Ga  Ga20  1  0.060255  0.712979  0.437643  1
  Ga  Ga21  1  0.941326  0.294560  0.937912  1
  Ga  Ga22  1  0.713504  0.060711  0.563156  1
  Ga  Ga23  1  0.209935  0.440551  0.186960  1
  Ga  Ga24  1  0.787913  0.561032  0.688219  1
  Ga  Ga25  1  0.437284  0.213228  0.812391  1
  Ga  Ga26  1  0.561216  0.786874  0.311324  1
  Ga  Ga27  1  0.283941  0.936795  0.062202  1
  Ga  Ga28  1  0.853229  0.796240  0.814398  1
  Ga  Ga29  1  0.145706  0.204892  0.313667  1
  Ga  Ga30  1  0.799230  0.847362  0.180809  1
  Ga  Ga31  1  0.295928  0.647762  0.562828  1
  Ga  Ga32  1  0.707688  0.355678  0.063193  1
  Ga  Ga33  1  0.647860  0.294922  0.437058  1
  Ga  Ga34  1  0.345731  0.702292  0.937150  1
  Si  Si35  1  0.205018  0.149691  0.689381  1
