# generated using pymatgen
data_ErHg4S2Cl5
_symmetry_space_group_name_H-M   'P 1'
_cell_length_a   8.26124530
_cell_length_b   10.41988700
_cell_length_c   9.02589351
_cell_angle_alpha   90.00000000
_cell_angle_beta   112.94548717
_cell_angle_gamma   90.00000000
_symmetry_Int_Tables_number   1
_chemical_formula_structural   ErHg4S2Cl5
_chemical_formula_sum   'Er2 Hg8 S4 Cl10'
_cell_volume   715.48408217
_cell_formula_units_Z   2
loop_
 _symmetry_equiv_pos_site_id
 _symmetry_equiv_pos_as_xyz
  1  'x, y, z'
loop_
 _atom_site_type_symbol
 _atom_site_label
 _atom_site_symmetry_multiplicity
 _atom_site_fract_x
 _atom_site_fract_y
 _atom_site_fract_z
 _atom_site_occupancy
  Er  Er0  1  0.501175  0.431766  0.505536  1
  Er  Er1  1  0.498825  0.931766  0.494464  1
  Hg  Hg2  1  0.926585  0.182938  0.329347  1
  Hg  Hg3  1  0.073415  0.682938  0.670653  1
  Hg  Hg4  1  0.950812  0.667755  0.356094  1
  Hg  Hg5  1  0.049188  0.167755  0.643906  1
  Hg  Hg6  1  0.497096  0.181458  0.985277  1
  Hg  Hg7  1  0.502904  0.681458  0.014723  1
  Hg  Hg8  1  0.808171  0.432172  0.017479  1
  Hg  Hg9  1  0.191829  0.932172  0.982521  1
  S  S10  1  0.802304  0.199221  0.027311  1
  S  S11  1  0.197696  0.699221  0.972689  1
  S  S12  1  0.192893  0.163012  0.945240  1
  S  S13  1  0.807107  0.663012  0.054760  1
  Cl  Cl14  1  0.830637  0.924697  0.681926  1
  Cl  Cl15  1  0.169363  0.424697  0.318074  1
  Cl  Cl16  1  0.836379  0.438044  0.700856  1
  Cl  Cl17  1  0.163621  0.938044  0.299144  1
  Cl  Cl18  1  0.409347  0.455565  0.754714  1
  Cl  Cl19  1  0.590653  0.955565  0.245286  1
  Cl  Cl20  1  0.592888  0.396534  0.264101  1
  Cl  Cl21  1  0.407112  0.896534  0.735899  1
  Cl  Cl22  1  0.497637  0.180438  0.554082  1
  Cl  Cl23  1  0.502363  0.680438  0.445918  1
