# generated using pymatgen
data_Y(PPt4)2
_symmetry_space_group_name_H-M   'P 1'
_cell_length_a   6.34295514
_cell_length_b   6.34295471
_cell_length_c   9.41661400
_cell_angle_alpha   54.81896804
_cell_angle_beta   54.81897179
_cell_angle_gamma   37.31641421
_symmetry_Int_Tables_number   1
_chemical_formula_structural   Y(PPt4)2
_chemical_formula_sum   'Y1 P2 Pt8'
_cell_volume   182.32256552
_cell_formula_units_Z   1
loop_
 _symmetry_equiv_pos_site_id
 _symmetry_equiv_pos_as_xyz
  1  'x, y, z'
loop_
 _atom_site_type_symbol
 _atom_site_label
 _atom_site_symmetry_multiplicity
 _atom_site_fract_x
 _atom_site_fract_y
 _atom_site_fract_z
 _atom_site_occupancy
  Y  Y0  1  0.500000  0.500000  0.500000  1
  P  P1  1  0.058620  0.058620  0.709458  1
  P  P2  1  0.941380  0.941380  0.290542  1
  Pt  Pt3  1  0.224083  0.224083  0.413624  1
  Pt  Pt4  1  0.823103  0.823103  0.843643  1
  Pt  Pt5  1  0.176897  0.176897  0.156357  1
  Pt  Pt6  1  0.166144  0.166144  0.848231  1
  Pt  Pt7  1  0.474959  0.474959  0.869259  1
  Pt  Pt8  1  0.525041  0.525041  0.130741  1
  Pt  Pt9  1  0.775917  0.775917  0.586376  1
  Pt  Pt10  1  0.833856  0.833856  0.151769  1
