# generated using pymatgen
data_Ho6ErLu3(In2Pt)4
_symmetry_space_group_name_H-M   'P 1'
_cell_length_a   3.59413000
_cell_length_b   8.13144800
_cell_length_c   18.12757701
_cell_angle_alpha   90.00276544
_cell_angle_beta   90.00000000
_cell_angle_gamma   90.00000000
_symmetry_Int_Tables_number   1
_chemical_formula_structural   Ho6ErLu3(In2Pt)4
_chemical_formula_sum   'Ho6 Er1 Lu3 In8 Pt4'
_cell_volume   529.78716051
_cell_formula_units_Z   1
loop_
 _symmetry_equiv_pos_site_id
 _symmetry_equiv_pos_as_xyz
  1  'x, y, z'
loop_
 _atom_site_type_symbol
 _atom_site_label
 _atom_site_symmetry_multiplicity
 _atom_site_fract_x
 _atom_site_fract_y
 _atom_site_fract_z
 _atom_site_occupancy
  Ho  Ho0  1  0.000000  0.242740  0.220185  1
  Ho  Ho1  1  0.000000  0.757190  0.779916  1
  Ho  Ho2  1  0.000000  0.257169  0.720113  1
  Ho  Ho3  1  0.000000  0.742902  0.279988  1
  Ho  Ho4  1  0.000000  0.000115  0.999952  1
  Ho  Ho5  1  0.000000  0.500030  0.500012  1
  Er  Er6  1  0.000000  0.617026  0.085162  1
  Lu  Lu7  1  0.000000  0.116624  0.414126  1
  Lu  Lu8  1  0.000000  0.883400  0.585875  1
  Lu  Lu9  1  0.000000  0.383410  0.914062  1
  In  In10  1  0.500000  0.421960  0.351340  1
  In  In11  1  0.500000  0.578006  0.648746  1
  In  In12  1  0.500000  0.077946  0.851274  1
  In  In13  1  0.500000  0.922916  0.148976  1
  In  In14  1  0.500000  0.293124  0.065818  1
  In  In15  1  0.500000  0.706030  0.933673  1
  In  In16  1  0.500000  0.205828  0.565914  1
  In  In17  1  0.500000  0.794180  0.434104  1
  Pt  Pt18  1  0.500000  0.025607  0.304535  1
  Pt  Pt19  1  0.500000  0.974482  0.695503  1
  Pt  Pt20  1  0.500000  0.474384  0.804392  1
  Pt  Pt21  1  0.500000  0.524929  0.196332  1
