# generated using pymatgen
data_Er3Pa(Ni2Pb)2
_symmetry_space_group_name_H-M   'P 1'
_cell_length_a   7.56305556
_cell_length_b   7.56305537
_cell_length_c   3.51165800
_cell_angle_alpha   90.00000000
_cell_angle_beta   90.00000000
_cell_angle_gamma   92.34552596
_symmetry_Int_Tables_number   1
_chemical_formula_structural   Er3Pa(Ni2Pb)2
_chemical_formula_sum   'Er3 Pa1 Ni4 Pb2'
_cell_volume   200.69787610
_cell_formula_units_Z   1
loop_
 _symmetry_equiv_pos_site_id
 _symmetry_equiv_pos_as_xyz
  1  'x, y, z'
loop_
 _atom_site_type_symbol
 _atom_site_label
 _atom_site_symmetry_multiplicity
 _atom_site_fract_x
 _atom_site_fract_y
 _atom_site_fract_z
 _atom_site_occupancy
  Er  Er0  1  0.327336  0.827336  0.500000  1
  Er  Er1  1  0.167589  0.331849  0.500000  1
  Er  Er2  1  0.831849  0.667589  0.500000  1
  Pa  Pa3  1  0.669512  0.169512  0.500000  1
  Ni  Ni4  1  0.112918  0.612918  0.000000  1
  Ni  Ni5  1  0.864261  0.364261  0.000000  1
  Ni  Ni6  1  0.628593  0.896092  0.000000  1
  Ni  Ni7  1  0.396092  0.128593  0.000000  1
  Pb  Pb8  1  0.008544  0.993307  0.000000  1
  Pb  Pb9  1  0.493307  0.508544  0.000000  1
