# generated using pymatgen
data_Pa2(PdPt)3
_symmetry_space_group_name_H-M   'P 1'
_cell_length_a   5.74967600
_cell_length_b   5.74967508
_cell_length_c   5.07846000
_cell_angle_alpha   90.00000000
_cell_angle_beta   90.00000000
_cell_angle_gamma   119.99999376
_symmetry_Int_Tables_number   1
_chemical_formula_structural   Pa2(PdPt)3
_chemical_formula_sum   'Pa2 Pd3 Pt3'
_cell_volume   145.39496622
_cell_formula_units_Z   1
loop_
 _symmetry_equiv_pos_site_id
 _symmetry_equiv_pos_as_xyz
  1  'x, y, z'
loop_
 _atom_site_type_symbol
 _atom_site_label
 _atom_site_symmetry_multiplicity
 _atom_site_fract_x
 _atom_site_fract_y
 _atom_site_fract_z
 _atom_site_occupancy
  Pa  Pa0  1  0.666667  0.333333  0.250000  1
  Pa  Pa1  1  0.333333  0.666667  0.750000  1
  Pd  Pd2  1  0.165970  0.834030  0.250000  1
  Pd  Pd3  1  0.668061  0.834030  0.250000  1
  Pd  Pd4  1  0.165970  0.331939  0.250000  1
  Pt  Pt5  1  0.835918  0.164082  0.750000  1
  Pt  Pt6  1  0.328164  0.164082  0.750000  1
  Pt  Pt7  1  0.835918  0.671836  0.750000  1
