# generated using pymatgen
data_Hf4V6Si5Ge3
_symmetry_space_group_name_H-M   'P 1'
_cell_length_a   6.51021235
_cell_length_b   6.64493533
_cell_length_c   12.65873938
_cell_angle_alpha   89.90557728
_cell_angle_beta   89.85458471
_cell_angle_gamma   90.01505238
_symmetry_Int_Tables_number   1
_chemical_formula_structural   Hf4V6Si5Ge3
_chemical_formula_sum   'Hf8 V12 Si10 Ge6'
_cell_volume   547.61377911
_cell_formula_units_Z   2
loop_
 _symmetry_equiv_pos_site_id
 _symmetry_equiv_pos_as_xyz
  1  'x, y, z'
loop_
 _atom_site_type_symbol
 _atom_site_label
 _atom_site_symmetry_multiplicity
 _atom_site_fract_x
 _atom_site_fract_y
 _atom_site_fract_z
 _atom_site_occupancy
  Hf  Hf0  1  0.992897  0.167321  0.093867  1
  Hf  Hf1  1  0.007103  0.832679  0.906133  1
  Hf  Hf2  1  0.508115  0.675753  0.904174  1
  Hf  Hf3  1  0.009651  0.827091  0.597444  1
  Hf  Hf4  1  0.491885  0.324247  0.095826  1
  Hf  Hf5  1  0.990349  0.172909  0.402556  1
  Hf  Hf6  1  0.490435  0.327386  0.402076  1
  Hf  Hf7  1  0.509565  0.672614  0.597924  1
  V  V8  1  0.165210  0.495379  0.750108  1
  V  V9  1  0.834790  0.504621  0.249892  1
  V  V10  1  0.334901  0.994872  0.247734  1
  V  V11  1  0.665099  0.005128  0.752266  1
  V  V12  1  0.338723  0.161701  0.628728  1
  V  V13  1  0.661277  0.838299  0.371272  1
  V  V14  1  0.162051  0.662942  0.371336  1
  V  V15  1  0.661217  0.840757  0.125430  1
  V  V16  1  0.837949  0.337058  0.628664  1
  V  V17  1  0.338783  0.159243  0.874570  1
  V  V18  1  0.834753  0.330365  0.874584  1
  V  V19  1  0.165247  0.669635  0.125416  1
  Si  Si20  1  0.037181  0.126284  0.750698  1
  Si  Si21  1  0.962819  0.873716  0.249302  1
  Si  Si22  1  0.464021  0.625625  0.248975  1
  Si  Si23  1  0.535979  0.374375  0.751025  1
  Si  Si24  1  0.303210  0.865243  0.750734  1
  Si  Si25  1  0.696790  0.134757  0.249266  1
  Si  Si26  1  0.194790  0.366230  0.248095  1
  Si  Si27  1  0.805210  0.633770  0.751905  1
  Si  Si28  1  0.669150  0.043880  0.959744  1
  Si  Si29  1  0.330850  0.956120  0.040256  1
  Ge  Ge30  1  0.178471  0.453871  0.541616  1
  Ge  Ge31  1  0.821529  0.546129  0.458384  1
  Ge  Ge32  1  0.321683  0.954180  0.458179  1
  Ge  Ge33  1  0.822538  0.544721  0.042295  1
  Ge  Ge34  1  0.678317  0.045820  0.541821  1
  Ge  Ge35  1  0.177462  0.455279  0.957705  1
