# generated using pymatgen
data_Nb2Ir
_symmetry_space_group_name_H-M   'P 1'
_cell_length_a   9.97541800
_cell_length_b   9.97541800
_cell_length_c   5.13214400
_cell_angle_alpha   90.00000000
_cell_angle_beta   90.00000000
_cell_angle_gamma   90.00000000
_symmetry_Int_Tables_number   1
_chemical_formula_structural   Nb2Ir
_chemical_formula_sum   'Nb20 Ir10'
_cell_volume   510.69433395
_cell_formula_units_Z   10
loop_
 _symmetry_equiv_pos_site_id
 _symmetry_equiv_pos_as_xyz
  1  'x, y, z'
loop_
 _atom_site_type_symbol
 _atom_site_label
 _atom_site_symmetry_multiplicity
 _atom_site_fract_x
 _atom_site_fract_y
 _atom_site_fract_z
 _atom_site_occupancy
  Nb  Nb0  1  0.393863  0.393863  0.000000  1
  Nb  Nb1  1  0.893863  0.106137  0.500000  1
  Nb  Nb2  1  0.106137  0.893863  0.500000  1
  Nb  Nb3  1  0.606137  0.606137  0.000000  1
  Nb  Nb4  1  0.127957  0.463236  0.000000  1
  Nb  Nb5  1  0.963236  0.372043  0.500000  1
  Nb  Nb6  1  0.036764  0.627957  0.500000  1
  Nb  Nb7  1  0.872043  0.536764  0.000000  1
  Nb  Nb8  1  0.372043  0.963236  0.500000  1
  Nb  Nb9  1  0.627957  0.036764  0.500000  1
  Nb  Nb10  1  0.463236  0.127957  0.000000  1
  Nb  Nb11  1  0.536764  0.872043  0.000000  1
  Nb  Nb12  1  0.178984  0.178984  0.251026  1
  Nb  Nb13  1  0.678984  0.321016  0.751026  1
  Nb  Nb14  1  0.321016  0.678984  0.751026  1
  Nb  Nb15  1  0.821016  0.821016  0.251026  1
  Nb  Nb16  1  0.321016  0.678984  0.248974  1
  Nb  Nb17  1  0.678984  0.321016  0.248974  1
  Nb  Nb18  1  0.178984  0.178984  0.748974  1
  Nb  Nb19  1  0.821016  0.821016  0.748974  1
  Ir  Ir20  1  0.000000  0.000000  0.000000  1
  Ir  Ir21  1  0.500000  0.500000  0.500000  1
  Ir  Ir22  1  0.261400  0.930786  0.000000  1
  Ir  Ir23  1  0.430786  0.238600  0.500000  1
  Ir  Ir24  1  0.569214  0.761400  0.500000  1
  Ir  Ir25  1  0.738600  0.069214  0.000000  1
  Ir  Ir26  1  0.238600  0.430786  0.500000  1
  Ir  Ir27  1  0.761400  0.569214  0.500000  1
  Ir  Ir28  1  0.930786  0.261400  0.000000  1
  Ir  Ir29  1  0.069214  0.738600  0.000000  1
