# generated using pymatgen
data_DyMgZr2(Al8Pt3)3
_symmetry_space_group_name_H-M   'P 1'
_cell_length_a   7.48343655
_cell_length_b   7.49869842
_cell_length_c   13.05235343
_cell_angle_alpha   84.63192542
_cell_angle_beta   79.14002346
_cell_angle_gamma   59.94090843
_symmetry_Int_Tables_number   1
_chemical_formula_structural   DyMgZr2(Al8Pt3)3
_chemical_formula_sum   'Dy1 Mg1 Zr2 Al24 Pt9'
_cell_volume   622.58528909
_cell_formula_units_Z   1
loop_
 _symmetry_equiv_pos_site_id
 _symmetry_equiv_pos_as_xyz
  1  'x, y, z'
loop_
 _atom_site_type_symbol
 _atom_site_label
 _atom_site_symmetry_multiplicity
 _atom_site_fract_x
 _atom_site_fract_y
 _atom_site_fract_z
 _atom_site_occupancy
  Dy  Dy0  1  0.266965  0.499119  0.189930  1
  Mg  Mg1  1  0.397485  0.170455  0.793944  1
  Zr  Zr2  1  0.604917  0.835130  0.188800  1
  Zr  Zr3  1  0.733354  0.497459  0.811475  1
  Al  Al4  1  0.677414  0.836618  0.938782  1
  Al  Al5  1  0.317080  0.164043  0.051435  1
  Al  Al6  1  0.146713  0.832064  0.564410  1
  Al  Al7  1  0.852776  0.167641  0.438166  1
  Al  Al8  1  0.480972  0.166263  0.558921  1
  Al  Al9  1  0.520346  0.833376  0.440323  1
  Al  Al10  1  0.220312  0.163219  0.326510  1
  Al  Al11  1  0.778776  0.833680  0.678411  1
  Al  Al12  1  0.438636  0.504714  0.678954  1
  Al  Al13  1  0.563133  0.496175  0.326487  1
  Al  Al14  1  0.106530  0.162592  0.677772  1
  Al  Al15  1  0.889342  0.839382  0.327618  1
  Al  Al16  1  0.357708  0.492438  0.938241  1
  Al  Al17  1  0.647686  0.502142  0.056157  1
  Al  Al18  1  0.020736  0.171208  0.945542  1
  Al  Al19  1  0.981882  0.833328  0.046841  1
  Al  Al20  1  0.186458  0.499606  0.441633  1
  Al  Al21  1  0.812223  0.500779  0.562016  1
  Al  Al22  1  0.736371  0.158422  0.183338  1
  Al  Al23  1  0.275581  0.830128  0.818152  1
  Al  Al24  1  0.054643  0.629225  0.817149  1
  Al  Al25  1  0.933663  0.374066  0.185328  1
  Al  Al26  1  0.852602  0.049298  0.817411  1
  Al  Al27  1  0.150246  0.958333  0.184989  1
  Pt  Pt28  1  0.121907  0.489861  0.640057  1
  Pt  Pt29  1  0.879316  0.508761  0.362443  1
  Pt  Pt30  1  0.657075  0.171382  0.001352  1
  Pt  Pt31  1  0.341612  0.824312  0.003085  1
  Pt  Pt32  1  0.536914  0.166947  0.360363  1
  Pt  Pt33  1  0.462262  0.835454  0.639643  1
  Pt  Pt34  1  0.779088  0.175026  0.637779  1
  Pt  Pt35  1  0.220911  0.824106  0.364253  1
  Pt  Pt36  1  0.996366  0.503245  0.002285  1
