# generated using pymatgen
data_Hf11Zr5Pt7RhN4
_symmetry_space_group_name_H-M   'P 1'
_cell_length_a   8.79633041
_cell_length_b   8.79633039
_cell_length_c   8.79926259
_cell_angle_alpha   60.02318685
_cell_angle_beta   60.02318884
_cell_angle_gamma   59.90525311
_symmetry_Int_Tables_number   1
_chemical_formula_structural   Hf11Zr5Pt7RhN4
_chemical_formula_sum   'Hf11 Zr5 Pt7 Rh1 N4'
_cell_volume   481.25395676
_cell_formula_units_Z   1
loop_
 _symmetry_equiv_pos_site_id
 _symmetry_equiv_pos_as_xyz
  1  'x, y, z'
loop_
 _atom_site_type_symbol
 _atom_site_label
 _atom_site_symmetry_multiplicity
 _atom_site_fract_x
 _atom_site_fract_y
 _atom_site_fract_z
 _atom_site_occupancy
  Hf  Hf0  1  0.120374  0.626754  0.628218  1
  Hf  Hf1  1  0.626754  0.120374  0.628218  1
  Hf  Hf2  1  0.628163  0.628163  0.119503  1
  Hf  Hf3  1  0.626079  0.626079  0.625770  1
  Hf  Hf4  1  0.819296  0.819296  0.177693  1
  Hf  Hf5  1  0.181059  0.181059  0.818735  1
  Hf  Hf6  1  0.818034  0.179109  0.818156  1
  Hf  Hf7  1  0.182138  0.817822  0.181640  1
  Hf  Hf8  1  0.179109  0.818034  0.818156  1
  Hf  Hf9  1  0.817822  0.182138  0.181640  1
  Hf  Hf10  1  0.433462  0.433462  0.067040  1
  Zr  Zr11  1  0.066784  0.066784  0.433489  1
  Zr  Zr12  1  0.432996  0.067341  0.433103  1
  Zr  Zr13  1  0.067508  0.432522  0.067761  1
  Zr  Zr14  1  0.067341  0.432996  0.433103  1
  Zr  Zr15  1  0.432522  0.067508  0.067761  1
  Pt  Pt16  1  0.772458  0.409010  0.409213  1
  Pt  Pt17  1  0.409010  0.772458  0.409213  1
  Pt  Pt18  1  0.409389  0.409389  0.776415  1
  Pt  Pt19  1  0.409849  0.409849  0.405066  1
  Pt  Pt20  1  0.467465  0.843530  0.844727  1
  Pt  Pt21  1  0.843530  0.467465  0.844727  1
  Pt  Pt22  1  0.844520  0.844520  0.467142  1
  Rh  Rh23  1  0.844177  0.844177  0.843675  1
  N  N24  1  0.629557  0.126364  0.122118  1
  N  N25  1  0.126364  0.629557  0.122118  1
  N  N26  1  0.122199  0.122199  0.632724  1
  N  N27  1  0.122039  0.122039  0.122878  1
