# generated using pymatgen
data_DyY2In3Cu2Rh
_symmetry_space_group_name_H-M   'P 1'
_cell_length_a   7.53261594
_cell_length_b   7.53616628
_cell_length_c   3.90613800
_cell_angle_alpha   90.00000000
_cell_angle_beta   90.00000000
_cell_angle_gamma   119.86719714
_symmetry_Int_Tables_number   1
_chemical_formula_structural   DyY2In3Cu2Rh
_chemical_formula_sum   'Dy1 Y2 In3 Cu2 Rh1'
_cell_volume   192.28886439
_cell_formula_units_Z   1
loop_
 _symmetry_equiv_pos_site_id
 _symmetry_equiv_pos_as_xyz
  1  'x, y, z'
loop_
 _atom_site_type_symbol
 _atom_site_label
 _atom_site_symmetry_multiplicity
 _atom_site_fract_x
 _atom_site_fract_y
 _atom_site_fract_z
 _atom_site_occupancy
  Dy  Dy0  1  0.582214  0.596283  0.500000  1
  Y  Y1  1  0.403747  0.986766  0.500000  1
  Y  Y2  1  0.013274  0.417080  0.500000  1
  In  In3  1  0.750273  0.004821  0.000000  1
  In  In4  1  0.994982  0.745333  0.000000  1
  In  In5  1  0.254670  0.249740  0.000000  1
  Cu  Cu6  1  0.999721  0.999715  0.500000  1
  Cu  Cu7  1  0.666522  0.333865  0.000000  1
  Rh  Rh8  1  0.334597  0.666397  0.000000  1
