# generated using pymatgen
data_HoU3(ZnIr)4
_symmetry_space_group_name_H-M   'P 1'
_cell_length_a   3.91390300
_cell_length_b   6.99042374
_cell_length_c   8.30707100
_cell_angle_alpha   90.78155683
_cell_angle_beta   90.00000000
_cell_angle_gamma   90.00000000
_symmetry_Int_Tables_number   1
_chemical_formula_structural   HoU3(ZnIr)4
_chemical_formula_sum   'Ho1 U3 Zn4 Ir4'
_cell_volume   227.25899233
_cell_formula_units_Z   1
loop_
 _symmetry_equiv_pos_site_id
 _symmetry_equiv_pos_as_xyz
  1  'x, y, z'
loop_
 _atom_site_type_symbol
 _atom_site_label
 _atom_site_symmetry_multiplicity
 _atom_site_fract_x
 _atom_site_fract_y
 _atom_site_fract_z
 _atom_site_occupancy
  Ho  Ho0  1  0.750000  0.951294  0.687184  1
  U  U1  1  0.250000  0.542275  0.186896  1
  U  U2  1  0.750000  0.452233  0.810087  1
  U  U3  1  0.250000  0.046711  0.313796  1
  Zn  Zn4  1  0.250000  0.120653  0.936227  1
  Zn  Zn5  1  0.750000  0.871696  0.056662  1
  Zn  Zn6  1  0.250000  0.640240  0.559679  1
  Zn  Zn7  1  0.750000  0.373757  0.441012  1
  Ir  Ir8  1  0.750000  0.762110  0.360830  1
  Ir  Ir9  1  0.250000  0.259180  0.636717  1
  Ir  Ir10  1  0.750000  0.261980  0.130468  1
  Ir  Ir11  1  0.250000  0.717871  0.880442  1
