# generated using pymatgen
data_Dy12CdCo4Ir
_symmetry_space_group_name_H-M   'P 1'
_cell_length_a   8.29979473
_cell_length_b   8.29975910
_cell_length_c   8.29979631
_cell_angle_alpha   111.28354769
_cell_angle_beta   109.91249290
_cell_angle_gamma   107.24358397
_symmetry_Int_Tables_number   1
_chemical_formula_structural   Dy12CdCo4Ir
_chemical_formula_sum   'Dy12 Cd1 Co4 Ir1'
_cell_volume   439.56421743
_cell_formula_units_Z   1
loop_
 _symmetry_equiv_pos_site_id
 _symmetry_equiv_pos_as_xyz
  1  'x, y, z'
loop_
 _atom_site_type_symbol
 _atom_site_label
 _atom_site_symmetry_multiplicity
 _atom_site_fract_x
 _atom_site_fract_y
 _atom_site_fract_z
 _atom_site_occupancy
  Dy  Dy0  1  0.410126  0.215142  0.194969  1
  Dy  Dy1  1  0.589874  0.784858  0.805031  1
  Dy  Dy2  1  0.020172  0.215142  0.805015  1
  Dy  Dy3  1  0.979828  0.784858  0.194985  1
  Dy  Dy4  1  0.181122  0.286375  0.467488  1
  Dy  Dy5  1  0.818878  0.713625  0.532512  1
  Dy  Dy6  1  0.181113  0.713625  0.894747  1
  Dy  Dy7  1  0.818887  0.286375  0.105253  1
  Dy  Dy8  1  0.317021  0.622598  0.305579  1
  Dy  Dy9  1  0.682979  0.377402  0.694421  1
  Dy  Dy10  1  0.316995  0.011418  0.694423  1
  Dy  Dy11  1  0.683005  0.988582  0.305577  1
  Cd  Cd12  1  0.500000  0.500000  0.000000  1
  Co  Co13  1  0.376333  0.000000  0.376333  1
  Co  Co14  1  0.623667  0.000000  0.623667  1
  Co  Co15  1  0.112581  0.612601  0.500021  1
  Co  Co16  1  0.887419  0.387399  0.499979  1
  Ir  Ir17  1  0.000000  0.000000  0.000000  1
