# generated using pymatgen
data_Ti8Al14POs7
_symmetry_space_group_name_H-M   'P 1'
_cell_length_a   8.63806772
_cell_length_b   8.63795459
_cell_length_c   8.63793800
_cell_angle_alpha   120.08862317
_cell_angle_beta   120.07875981
_cell_angle_gamma   89.85468751
_symmetry_Int_Tables_number   1
_chemical_formula_structural   Ti8Al14POs7
_chemical_formula_sum   'Ti8 Al14 P1 Os7'
_cell_volume   455.16927702
_cell_formula_units_Z   1
loop_
 _symmetry_equiv_pos_site_id
 _symmetry_equiv_pos_as_xyz
  1  'x, y, z'
loop_
 _atom_site_type_symbol
 _atom_site_label
 _atom_site_symmetry_multiplicity
 _atom_site_fract_x
 _atom_site_fract_y
 _atom_site_fract_z
 _atom_site_occupancy
  Ti  Ti0  1  0.801081  0.297699  0.092916  1
  Ti  Ti1  1  0.204735  0.297656  0.496553  1
  Ti  Ti2  1  0.200865  0.700895  0.499966  1
  Ti  Ti3  1  0.204726  0.708165  0.907045  1
  Ti  Ti4  1  0.801087  0.708153  0.503384  1
  Ti  Ti5  1  0.792686  0.292712  0.499977  1
  Ti  Ti6  1  0.378658  0.118423  0.739823  1
  Ti  Ti7  1  0.378649  0.638819  0.260226  1
  Al  Al8  1  0.159910  0.339502  0.179587  1
  Al  Al9  1  0.159904  0.980322  0.820400  1
  Al  Al10  1  0.157422  0.341527  0.815882  1
  Al  Al11  1  0.525723  0.341567  0.184154  1
  Al  Al12  1  0.841629  0.658934  0.817283  1
  Al  Al13  1  0.841634  0.024362  0.182707  1
  Al  Al14  1  0.839788  0.659115  0.180680  1
  Al  Al15  1  0.478499  0.659137  0.819346  1
  Al  Al16  1  0.379678  0.120139  0.259539  1
  Al  Al17  1  0.860557  0.120121  0.740465  1
  Al  Al18  1  0.619574  0.877314  0.257809  1
  Al  Al19  1  0.619573  0.361754  0.742271  1
  Al  Al20  1  0.620362  0.879455  0.740931  1
  Al  Al21  1  0.138510  0.879417  0.259097  1
  P  P22  1  0.997590  0.497598  0.500070  1
  Os  Os23  1  0.999786  0.999509  0.500084  1
  Os  Os24  1  0.499357  0.999535  0.999740  1
  Os  Os25  1  0.498842  0.498874  0.999990  1
  Os  Os26  1  0.499355  0.499619  0.499802  1
  Os  Os27  1  0.999801  0.499697  0.000271  1
  Os  Os28  1  0.000356  0.000317  0.000021  1
  Os  Os29  1  0.499657  0.999659  0.499981  1
