# generated using pymatgen
data_Er2TmZr7Pb6
_symmetry_space_group_name_H-M   'P 1'
_cell_length_a   8.79168900
_cell_length_b   8.77640400
_cell_length_c   6.00406500
_cell_angle_alpha   90.00000000
_cell_angle_beta   90.00000000
_cell_angle_gamma   120.05763224
_symmetry_Int_Tables_number   1
_chemical_formula_structural   Er2TmZr7Pb6
_chemical_formula_sum   'Er2 Tm1 Zr7 Pb6'
_cell_volume   400.97051174
_cell_formula_units_Z   1
loop_
 _symmetry_equiv_pos_site_id
 _symmetry_equiv_pos_as_xyz
  1  'x, y, z'
loop_
 _atom_site_type_symbol
 _atom_site_label
 _atom_site_symmetry_multiplicity
 _atom_site_fract_x
 _atom_site_fract_y
 _atom_site_fract_z
 _atom_site_occupancy
  Er  Er0  1  0.762388  0.759186  0.250000  1
  Er  Er1  1  0.003202  0.240814  0.250000  1
  Tm  Tm2  1  0.759594  0.000000  0.750000  1
  Zr  Zr3  1  0.330468  0.666762  0.501479  1
  Zr  Zr4  1  0.244884  0.000000  0.250000  1
  Zr  Zr5  1  0.663708  0.333238  0.501479  1
  Zr  Zr6  1  0.002058  0.756456  0.750000  1
  Zr  Zr7  1  0.330468  0.666762  0.998521  1
  Zr  Zr8  1  0.245602  0.243544  0.750000  1
  Zr  Zr9  1  0.663708  0.333238  0.998521  1
  Pb  Pb10  1  0.606568  0.605942  0.750000  1
  Pb  Pb11  1  0.388852  0.000000  0.750000  1
  Pb  Pb12  1  0.601793  0.000000  0.250000  1
  Pb  Pb13  1  0.000626  0.394058  0.750000  1
  Pb  Pb14  1  0.394559  0.393035  0.250000  1
  Pb  Pb15  1  0.001523  0.606965  0.250000  1
