# generated using pymatgen
data_Y5MgIO12
_symmetry_space_group_name_H-M   'P 1'
_cell_length_a   6.52065612
_cell_length_b   6.34419294
_cell_length_c   6.54895448
_cell_angle_alpha   99.21459079
_cell_angle_beta   99.13504583
_cell_angle_gamma   97.05712226
_symmetry_Int_Tables_number   1
_chemical_formula_structural   Y5MgIO12
_chemical_formula_sum   'Y5 Mg1 I1 O12'
_cell_volume   260.95727936
_cell_formula_units_Z   1
loop_
 _symmetry_equiv_pos_site_id
 _symmetry_equiv_pos_as_xyz
  1  'x, y, z'
loop_
 _atom_site_type_symbol
 _atom_site_label
 _atom_site_symmetry_multiplicity
 _atom_site_fract_x
 _atom_site_fract_y
 _atom_site_fract_z
 _atom_site_occupancy
  Y  Y0  1  0.389307  0.683190  0.848962  1
  Y  Y1  1  0.860087  0.381857  0.677663  1
  Y  Y2  1  0.672108  0.852431  0.395697  1
  Y  Y3  1  0.606321  0.312835  0.137006  1
  Y  Y4  1  0.149010  0.612626  0.328684  1
  Mg  Mg5  1  0.357091  0.169820  0.591833  1
  I  I6  1  0.997745  0.996868  0.004089  1
  O  O7  1  0.188177  0.419681  0.593644  1
  O  O8  1  0.598463  0.183152  0.427452  1
  O  O9  1  0.428432  0.597330  0.176443  1
  O  O10  1  0.826057  0.564220  0.402136  1
  O  O11  1  0.396333  0.845534  0.572949  1
  O  O12  1  0.575345  0.405897  0.820165  1
  O  O13  1  0.906402  0.018201  0.717109  1
  O  O14  1  0.966732  0.294991  0.070711  1
  O  O15  1  0.283742  0.063979  0.979036  1
  O  O16  1  0.064902  0.968924  0.292324  1
  O  O17  1  0.028477  0.698594  0.927990  1
  O  O18  1  0.705268  0.929871  0.036107  1
