# generated using pymatgen
data_La4Tb5SmRu4
_symmetry_space_group_name_H-M   'P 1'
_cell_length_a   8.87419744
_cell_length_b   8.87419777
_cell_length_c   7.32679500
_cell_angle_alpha   83.82930623
_cell_angle_beta   83.82930600
_cell_angle_gamma   43.43681892
_symmetry_Int_Tables_number   1
_chemical_formula_structural   La4Tb5SmRu4
_chemical_formula_sum   'La4 Tb5 Sm1 Ru4'
_cell_volume   394.05108627
_cell_formula_units_Z   1
loop_
 _symmetry_equiv_pos_site_id
 _symmetry_equiv_pos_as_xyz
  1  'x, y, z'
loop_
 _atom_site_type_symbol
 _atom_site_label
 _atom_site_symmetry_multiplicity
 _atom_site_fract_x
 _atom_site_fract_y
 _atom_site_fract_z
 _atom_site_occupancy
  La  La0  1  0.014507  0.792161  0.907272  1
  La  La1  1  0.207839  0.985493  0.592728  1
  La  La2  1  0.984069  0.209816  0.091307  1
  La  La3  1  0.790184  0.015931  0.408693  1
  Tb  Tb4  1  0.363521  0.207349  0.816947  1
  Tb  Tb5  1  0.792651  0.636479  0.683053  1
  Tb  Tb6  1  0.638477  0.792520  0.182579  1
  Tb  Tb7  1  0.207480  0.361523  0.317421  1
  Tb  Tb8  1  0.572247  0.427753  0.750000  1
  Sm  Sm9  1  0.425122  0.574878  0.250000  1
  Ru  Ru10  1  0.167957  0.604291  0.585378  1
  Ru  Ru11  1  0.395709  0.832043  0.914622  1
  Ru  Ru12  1  0.833816  0.393581  0.417508  1
  Ru  Ru13  1  0.606419  0.166184  0.082492  1
