# generated using pymatgen
data_La4ScAlSn2
_symmetry_space_group_name_H-M   'P 1'
_cell_length_a   9.30493462
_cell_length_b   9.30493483
_cell_length_c   9.30493563
_cell_angle_alpha   96.32039697
_cell_angle_beta   96.32040140
_cell_angle_gamma   141.24443421
_symmetry_Int_Tables_number   1
_chemical_formula_structural   La4ScAlSn2
_chemical_formula_sum   'La8 Sc2 Al2 Sn4'
_cell_volume   475.75932837
_cell_formula_units_Z   2
loop_
 _symmetry_equiv_pos_site_id
 _symmetry_equiv_pos_as_xyz
  1  'x, y, z'
loop_
 _atom_site_type_symbol
 _atom_site_label
 _atom_site_symmetry_multiplicity
 _atom_site_fract_x
 _atom_site_fract_y
 _atom_site_fract_z
 _atom_site_occupancy
  La  La0  1  0.910364  0.221827  0.132191  1
  La  La1  1  0.221827  0.089636  0.311464  1
  La  La2  1  0.778173  0.910364  0.688536  1
  La  La3  1  0.089636  0.778173  0.867809  1
  La  La4  1  0.721827  0.410364  0.132191  1
  La  La5  1  0.278173  0.589636  0.867809  1
  La  La6  1  0.589636  0.721827  0.311464  1
  La  La7  1  0.410364  0.278173  0.688536  1
  Sc  Sc8  1  0.750000  0.250000  0.500000  1
  Sc  Sc9  1  0.250000  0.750000  0.500000  1
  Al  Al10  1  0.750000  0.750000  0.000000  1
  Al  Al11  1  0.250000  0.250000  0.000000  1
  Sn  Sn12  1  0.851149  0.648851  0.500000  1
  Sn  Sn13  1  0.648851  0.148851  0.797703  1
  Sn  Sn14  1  0.351149  0.851149  0.202297  1
  Sn  Sn15  1  0.148851  0.351149  0.500000  1
