# generated using pymatgen
data_AcLa(Cd2Pt)2
_symmetry_space_group_name_H-M   'P 1'
_cell_length_a   5.65254500
_cell_length_b   5.65254519
_cell_length_c   8.56067300
_cell_angle_alpha   90.00000000
_cell_angle_beta   90.00000000
_cell_angle_gamma   134.03445101
_symmetry_Int_Tables_number   1
_chemical_formula_structural   AcLa(Cd2Pt)2
_chemical_formula_sum   'Ac1 La1 Cd4 Pt2'
_cell_volume   196.64266149
_cell_formula_units_Z   1
loop_
 _symmetry_equiv_pos_site_id
 _symmetry_equiv_pos_as_xyz
  1  'x, y, z'
loop_
 _atom_site_type_symbol
 _atom_site_label
 _atom_site_symmetry_multiplicity
 _atom_site_fract_x
 _atom_site_fract_y
 _atom_site_fract_z
 _atom_site_occupancy
  Ac  Ac0  1  0.064834  0.935166  0.250000  1
  La  La1  1  0.935536  0.064464  0.750000  1
  Cd  Cd2  1  0.645349  0.354651  0.554199  1
  Cd  Cd3  1  0.354834  0.645166  0.453413  1
  Cd  Cd4  1  0.645349  0.354651  0.945801  1
  Cd  Cd5  1  0.354834  0.645166  0.046587  1
  Pt  Pt6  1  0.223947  0.776053  0.750000  1
  Pt  Pt7  1  0.775316  0.224684  0.250000  1
