# generated using pymatgen
data_Ho8Ga12CoNi3
_symmetry_space_group_name_H-M   'P 1'
_cell_length_a   6.99005800
_cell_length_b   8.73458158
_cell_length_c   8.73458200
_cell_angle_alpha   119.99999400
_cell_angle_beta   90.00000000
_cell_angle_gamma   90.00000000
_symmetry_Int_Tables_number   1
_chemical_formula_structural   Ho8Ga12CoNi3
_chemical_formula_sum   'Ho8 Ga12 Co1 Ni3'
_cell_volume   461.84438636
_cell_formula_units_Z   1
loop_
 _symmetry_equiv_pos_site_id
 _symmetry_equiv_pos_as_xyz
  1  'x, y, z'
loop_
 _atom_site_type_symbol
 _atom_site_label
 _atom_site_symmetry_multiplicity
 _atom_site_fract_x
 _atom_site_fract_y
 _atom_site_fract_z
 _atom_site_occupancy
  Ho  Ho0  1  0.748257  0.000000  0.000000  1
  Ho  Ho1  1  0.249859  0.000000  0.000000  1
  Ho  Ho2  1  0.750257  0.478229  0.521771  1
  Ho  Ho3  1  0.252973  0.524979  0.475021  1
  Ho  Ho4  1  0.750257  0.043543  0.521771  1
  Ho  Ho5  1  0.252973  0.950042  0.475021  1
  Ho  Ho6  1  0.750257  0.478229  0.956457  1
  Ho  Ho7  1  0.252973  0.524979  0.049958  1
  Ga  Ga8  1  0.954459  0.828883  0.171117  1
  Ga  Ga9  1  0.047151  0.171707  0.828293  1
  Ga  Ga10  1  0.954459  0.342234  0.171117  1
  Ga  Ga11  1  0.454423  0.171294  0.828706  1
  Ga  Ga12  1  0.047151  0.656585  0.828293  1
  Ga  Ga13  1  0.545540  0.827434  0.172566  1
  Ga  Ga14  1  0.954459  0.828883  0.657766  1
  Ga  Ga15  1  0.454423  0.657411  0.828706  1
  Ga  Ga16  1  0.047151  0.171707  0.343415  1
  Ga  Ga17  1  0.545540  0.345134  0.172566  1
  Ga  Ga18  1  0.454423  0.171294  0.342589  1
  Ga  Ga19  1  0.545540  0.827434  0.654866  1
  Co  Co20  1  0.517085  0.666667  0.333333  1
  Ni  Ni21  1  0.969504  0.666667  0.333333  1
  Ni  Ni22  1  0.028578  0.333333  0.666667  1
  Ni  Ni23  1  0.472306  0.333333  0.666667  1
