# generated using pymatgen
data_Sm3Th(SiPd14)2
_symmetry_space_group_name_H-M   'P 1'
_cell_length_a   8.97499700
_cell_length_b   8.97499700
_cell_length_c   7.13486300
_cell_angle_alpha   90.00000000
_cell_angle_beta   90.00000000
_cell_angle_gamma   90.00000000
_symmetry_Int_Tables_number   1
_chemical_formula_structural   Sm3Th(SiPd14)2
_chemical_formula_sum   'Sm3 Th1 Si2 Pd28'
_cell_volume   574.71728973
_cell_formula_units_Z   1
loop_
 _symmetry_equiv_pos_site_id
 _symmetry_equiv_pos_as_xyz
  1  'x, y, z'
loop_
 _atom_site_type_symbol
 _atom_site_label
 _atom_site_symmetry_multiplicity
 _atom_site_fract_x
 _atom_site_fract_y
 _atom_site_fract_z
 _atom_site_occupancy
  Sm  Sm0  1  0.500000  0.000000  0.935102  1
  Sm  Sm1  1  0.000000  0.500000  0.064898  1
  Sm  Sm2  1  0.500000  0.500000  0.500000  1
  Th  Th3  1  0.000000  0.000000  0.500000  1
  Si  Si4  1  0.500000  0.000000  0.449262  1
  Si  Si5  1  0.000000  0.500000  0.550738  1
  Pd  Pd6  1  0.334640  0.834650  0.615370  1
  Pd  Pd7  1  0.334640  0.165350  0.615370  1
  Pd  Pd8  1  0.665360  0.834650  0.615370  1
  Pd  Pd9  1  0.665360  0.165350  0.615370  1
  Pd  Pd10  1  0.165350  0.665360  0.384630  1
  Pd  Pd11  1  0.165350  0.334640  0.384630  1
  Pd  Pd12  1  0.834650  0.665360  0.384630  1
  Pd  Pd13  1  0.834650  0.334640  0.384630  1
  Pd  Pd14  1  0.500000  0.770497  0.257055  1
  Pd  Pd15  1  0.500000  0.229503  0.257055  1
  Pd  Pd16  1  0.269821  0.000000  0.257851  1
  Pd  Pd17  1  0.730179  0.000000  0.257851  1
  Pd  Pd18  1  0.000000  0.730179  0.742149  1
  Pd  Pd19  1  0.000000  0.269821  0.742149  1
  Pd  Pd20  1  0.229503  0.500000  0.742945  1
  Pd  Pd21  1  0.770497  0.500000  0.742945  1
  Pd  Pd22  1  0.500000  0.348855  0.854750  1
  Pd  Pd23  1  0.500000  0.651145  0.854750  1
  Pd  Pd24  1  0.849310  0.000000  0.852721  1
  Pd  Pd25  1  0.150690  0.000000  0.852721  1
  Pd  Pd26  1  0.000000  0.150690  0.147279  1
  Pd  Pd27  1  0.000000  0.849310  0.147279  1
  Pd  Pd28  1  0.651145  0.500000  0.145250  1
  Pd  Pd29  1  0.348855  0.500000  0.145250  1
  Pd  Pd30  1  0.250190  0.749810  0.000000  1
  Pd  Pd31  1  0.250190  0.250190  0.000000  1
  Pd  Pd32  1  0.749810  0.749810  0.000000  1
  Pd  Pd33  1  0.749810  0.250190  0.000000  1
