# generated using pymatgen
data_Dy4ErCo9(P6Ru5)2
_symmetry_space_group_name_H-M   'P 1'
_cell_length_a   12.33540213
_cell_length_b   12.29609476
_cell_length_c   3.76735000
_cell_angle_alpha   90.00000000
_cell_angle_beta   90.00000000
_cell_angle_gamma   119.76345343
_symmetry_Int_Tables_number   1
_chemical_formula_structural   Dy4ErCo9(P6Ru5)2
_chemical_formula_sum   'Dy4 Er1 Co9 P12 Ru10'
_cell_volume   496.04076860
_cell_formula_units_Z   1
loop_
 _symmetry_equiv_pos_site_id
 _symmetry_equiv_pos_as_xyz
  1  'x, y, z'
loop_
 _atom_site_type_symbol
 _atom_site_label
 _atom_site_symmetry_multiplicity
 _atom_site_fract_x
 _atom_site_fract_y
 _atom_site_fract_z
 _atom_site_occupancy
  Dy  Dy0  1  0.663398  0.333327  0.000000  1
  Dy  Dy1  1  0.332943  0.666855  0.000000  1
  Dy  Dy2  1  0.818828  0.998478  0.500000  1
  Dy  Dy3  1  0.999613  0.819091  0.500000  1
  Er  Er4  1  0.183253  0.181942  0.500000  1
  Co  Co5  1  0.802449  0.630241  0.000000  1
  Co  Co6  1  0.367674  0.171090  0.000000  1
  Co  Co7  1  0.195620  0.828577  0.000000  1
  Co  Co8  1  0.629271  0.800448  0.000000  1
  Co  Co9  1  0.176621  0.369778  0.000000  1
  Co  Co10  1  0.718671  0.718448  0.500000  1
  Co  Co11  1  0.279263  0.000025  0.500000  1
  Co  Co12  1  0.007466  0.284893  0.500000  1
  Co  Co13  1  0.999873  0.999558  0.000000  1
  P  P14  1  0.362575  0.362321  0.000000  1
  P  P15  1  0.633371  0.996892  0.000000  1
  P  P16  1  0.000496  0.637886  0.000000  1
  P  P17  1  0.838285  0.315854  0.500000  1
  P  P18  1  0.684666  0.523678  0.500000  1
  P  P19  1  0.473313  0.159456  0.500000  1
  P  P20  1  0.315734  0.840733  0.500000  1
  P  P21  1  0.524051  0.683303  0.500000  1
  P  P22  1  0.162204  0.478375  0.500000  1
  P  P23  1  0.820366  0.820653  0.000000  1
  P  P24  1  0.177959  0.000537  0.000000  1
  P  P25  1  0.006366  0.181069  0.000000  1
  Ru  Ru26  1  0.555174  0.553645  0.000000  1
  Ru  Ru27  1  0.440250  0.995617  0.000000  1
  Ru  Ru28  1  0.008923  0.450679  0.000000  1
  Ru  Ru29  1  0.827462  0.198112  0.000000  1
  Ru  Ru30  1  0.640090  0.125289  0.500000  1
  Ru  Ru31  1  0.872662  0.519301  0.500000  1
  Ru  Ru32  1  0.480129  0.352058  0.500000  1
  Ru  Ru33  1  0.129910  0.650410  0.500000  1
  Ru  Ru34  1  0.518000  0.869771  0.500000  1
  Ru  Ru35  1  0.353067  0.481611  0.500000  1
