# generated using pymatgen
data_Lu4Al17SiRh6
_symmetry_space_group_name_H-M   'P 1'
_cell_length_a   7.51414598
_cell_length_b   7.49735815
_cell_length_c   9.38188177
_cell_angle_alpha   89.98868015
_cell_angle_beta   89.94517082
_cell_angle_gamma   119.61680096
_symmetry_Int_Tables_number   1
_chemical_formula_structural   Lu4Al17SiRh6
_chemical_formula_sum   'Lu4 Al17 Si1 Rh6'
_cell_volume   459.48591006
_cell_formula_units_Z   1
loop_
 _symmetry_equiv_pos_site_id
 _symmetry_equiv_pos_as_xyz
  1  'x, y, z'
loop_
 _atom_site_type_symbol
 _atom_site_label
 _atom_site_symmetry_multiplicity
 _atom_site_fract_x
 _atom_site_fract_y
 _atom_site_fract_z
 _atom_site_occupancy
  Lu  Lu0  1  0.994762  0.665073  0.247389  1
  Lu  Lu1  1  0.004874  0.329399  0.753955  1
  Lu  Lu2  1  0.675447  0.001063  0.247198  1
  Lu  Lu3  1  0.328948  0.004939  0.750394  1
  Al  Al4  1  0.126778  0.126564  0.249487  1
  Al  Al5  1  0.873012  0.874361  0.749737  1
  Al  Al6  1  0.999519  0.668295  0.922921  1
  Al  Al7  1  0.000274  0.665587  0.575316  1
  Al  Al8  1  0.334388  0.998887  0.424028  1
  Al  Al9  1  0.000509  0.334834  0.427855  1
  Al  Al10  1  0.664610  0.999915  0.575280  1
  Al  Al11  1  0.661260  0.996358  0.922686  1
  Al  Al12  1  0.334467  0.999202  0.076478  1
  Al  Al13  1  0.333106  0.332588  0.554613  1
  Al  Al14  1  0.667855  0.668254  0.445806  1
  Al  Al15  1  0.667342  0.667728  0.055164  1
  Al  Al16  1  0.335095  0.333014  0.945807  1
  Al  Al17  1  0.339622  0.550012  0.250110  1
  Al  Al18  1  0.661476  0.450081  0.750282  1
  Al  Al19  1  0.547482  0.339052  0.249805  1
  Al  Al20  1  0.449439  0.659481  0.749620  1
  Si  Si21  1  0.000696  0.334903  0.076181  1
  Rh  Rh22  1  0.680004  0.328321  0.001752  1
  Rh  Rh23  1  0.320546  0.665357  0.000408  1
  Rh  Rh24  1  0.327026  0.671741  0.499334  1
  Rh  Rh25  1  0.672707  0.327850  0.498991  1
  Rh  Rh26  1  0.998928  0.006352  0.000208  1
  Rh  Rh27  1  0.999829  0.000788  0.499200  1
