# generated using pymatgen
data_VPbI18
_symmetry_space_group_name_H-M   'P 1'
_cell_length_a   10.40590944
_cell_length_b   10.40590977
_cell_length_c   10.40590738
_cell_angle_alpha   93.71921073
_cell_angle_beta   93.71921471
_cell_angle_gamma   93.71919223
_symmetry_Int_Tables_number   1
_chemical_formula_structural   VPbI18
_chemical_formula_sum   'V1 Pb1 I18'
_cell_volume   1119.33851639
_cell_formula_units_Z   1
loop_
 _symmetry_equiv_pos_site_id
 _symmetry_equiv_pos_as_xyz
  1  'x, y, z'
loop_
 _atom_site_type_symbol
 _atom_site_label
 _atom_site_symmetry_multiplicity
 _atom_site_fract_x
 _atom_site_fract_y
 _atom_site_fract_z
 _atom_site_occupancy
  V  V0  1  0.000000  0.000000  0.000000  1
  Pb  Pb1  1  0.500000  0.500000  0.500000  1
  I  I2  1  0.996182  0.737750  0.976036  1
  I  I3  1  0.976036  0.996182  0.737750  1
  I  I4  1  0.737750  0.976036  0.996182  1
  I  I5  1  0.003818  0.262250  0.023964  1
  I  I6  1  0.023964  0.003818  0.262250  1
  I  I7  1  0.262250  0.023964  0.003818  1
  I  I8  1  0.475316  0.809405  0.533791  1
  I  I9  1  0.533791  0.475316  0.809405  1
  I  I10  1  0.809405  0.533791  0.475316  1
  I  I11  1  0.524684  0.190595  0.466209  1
  I  I12  1  0.466209  0.524684  0.190595  1
  I  I13  1  0.190595  0.466209  0.524684  1
  I  I14  1  0.635119  0.097438  0.234319  1
  I  I15  1  0.234319  0.635119  0.097438  1
  I  I16  1  0.097438  0.234319  0.635119  1
  I  I17  1  0.364881  0.902562  0.765681  1
  I  I18  1  0.765681  0.364881  0.902562  1
  I  I19  1  0.902562  0.765681  0.364881  1
