# generated using pymatgen
data_Y4Lu(InSb)2
_symmetry_space_group_name_H-M   'P 1'
_cell_length_a   8.80154387
_cell_length_b   8.80154294
_cell_length_c   8.09201400
_cell_angle_alpha   90.00000000
_cell_angle_beta   90.00000000
_cell_angle_gamma   125.20027114
_symmetry_Int_Tables_number   1
_chemical_formula_structural   Y4Lu(InSb)2
_chemical_formula_sum   'Y8 Lu2 In4 Sb4'
_cell_volume   512.23814864
_cell_formula_units_Z   2
loop_
 _symmetry_equiv_pos_site_id
 _symmetry_equiv_pos_as_xyz
  1  'x, y, z'
loop_
 _atom_site_type_symbol
 _atom_site_label
 _atom_site_symmetry_multiplicity
 _atom_site_fract_x
 _atom_site_fract_y
 _atom_site_fract_z
 _atom_site_occupancy
  Y  Y0  1  0.031880  0.307160  0.334045  1
  Y  Y1  1  0.968120  0.692840  0.665955  1
  Y  Y2  1  0.468120  0.192840  0.834045  1
  Y  Y3  1  0.807160  0.531880  0.165955  1
  Y  Y4  1  0.531880  0.807160  0.165955  1
  Y  Y5  1  0.192840  0.468120  0.834045  1
  Y  Y6  1  0.692840  0.968120  0.665955  1
  Y  Y7  1  0.307160  0.031880  0.334045  1
  Lu  Lu8  1  0.000000  0.000000  0.000000  1
  Lu  Lu9  1  0.500000  0.500000  0.500000  1
  In  In10  1  0.369789  0.369789  0.128963  1
  In  In11  1  0.630211  0.630211  0.871037  1
  In  In12  1  0.130211  0.130211  0.628963  1
  In  In13  1  0.869789  0.869789  0.371037  1
  Sb  Sb14  1  0.797754  0.202246  0.000000  1
  Sb  Sb15  1  0.202246  0.797754  0.000000  1
  Sb  Sb16  1  0.702246  0.297754  0.500000  1
  Sb  Sb17  1  0.297754  0.702246  0.500000  1
