# generated using pymatgen
data_Ca3Ho(Zn14Cu3)2
_symmetry_space_group_name_H-M   'P 1'
_cell_length_a   8.92461900
_cell_length_b   8.92461868
_cell_length_c   8.76013500
_cell_angle_alpha   90.00000000
_cell_angle_beta   90.00000000
_cell_angle_gamma   119.99837565
_symmetry_Int_Tables_number   1
_chemical_formula_structural   Ca3Ho(Zn14Cu3)2
_chemical_formula_sum   'Ca3 Ho1 Zn28 Cu6'
_cell_volume   604.26563016
_cell_formula_units_Z   1
loop_
 _symmetry_equiv_pos_site_id
 _symmetry_equiv_pos_as_xyz
  1  'x, y, z'
loop_
 _atom_site_type_symbol
 _atom_site_label
 _atom_site_symmetry_multiplicity
 _atom_site_fract_x
 _atom_site_fract_y
 _atom_site_fract_z
 _atom_site_occupancy
  Ca  Ca0  1  0.999993  0.000007  0.750000  1
  Ca  Ca1  1  0.000004  0.999996  0.250000  1
  Ca  Ca2  1  0.666672  0.333328  0.250000  1
  Ho  Ho3  1  0.333355  0.666645  0.750000  1
  Zn  Zn4  1  0.666671  0.333329  0.598856  1
  Zn  Zn5  1  0.333327  0.666673  0.403488  1
  Zn  Zn6  1  0.333327  0.666673  0.096512  1
  Zn  Zn7  1  0.666671  0.333329  0.901144  1
  Zn  Zn8  1  0.665592  0.035752  0.750000  1
  Zn  Zn9  1  0.370157  0.334400  0.750000  1
  Zn  Zn10  1  0.964267  0.629883  0.750000  1
  Zn  Zn11  1  0.370117  0.035733  0.750000  1
  Zn  Zn12  1  0.964248  0.334408  0.750000  1
  Zn  Zn13  1  0.665600  0.629843  0.750000  1
  Zn  Zn14  1  0.333652  0.964102  0.250000  1
  Zn  Zn15  1  0.630444  0.666356  0.250000  1
  Zn  Zn16  1  0.035884  0.369518  0.250000  1
  Zn  Zn17  1  0.630482  0.964116  0.250000  1
  Zn  Zn18  1  0.035898  0.666348  0.250000  1
  Zn  Zn19  1  0.333644  0.369556  0.250000  1
  Zn  Zn20  1  0.832412  0.664842  0.479244  1
  Zn  Zn21  1  0.832438  0.167562  0.479265  1
  Zn  Zn22  1  0.335158  0.167588  0.479244  1
  Zn  Zn23  1  0.168546  0.337087  0.519826  1
  Zn  Zn24  1  0.168522  0.831478  0.519809  1
  Zn  Zn25  1  0.662913  0.831454  0.519826  1
  Zn  Zn26  1  0.168546  0.337087  0.980174  1
  Zn  Zn27  1  0.168522  0.831478  0.980191  1
  Zn  Zn28  1  0.662913  0.831454  0.980174  1
  Zn  Zn29  1  0.832412  0.664842  0.020756  1
  Zn  Zn30  1  0.832438  0.167562  0.020735  1
  Zn  Zn31  1  0.335158  0.167588  0.020756  1
  Cu  Cu32  1  0.499516  0.999033  0.500570  1
  Cu  Cu33  1  0.499525  0.500475  0.500538  1
  Cu  Cu34  1  0.000967  0.500484  0.500570  1
  Cu  Cu35  1  0.499516  0.999033  0.999430  1
  Cu  Cu36  1  0.499525  0.500475  0.999462  1
  Cu  Cu37  1  0.000967  0.500484  0.999430  1
