# generated using pymatgen
data_Tb9TmSi5Hg
_symmetry_space_group_name_H-M   'P 1'
_cell_length_a   7.55586626
_cell_length_b   7.60286455
_cell_length_c   8.86981200
_cell_angle_alpha   115.35098340
_cell_angle_beta   114.96866119
_cell_angle_gamma   90.21532980
_symmetry_Int_Tables_number   1
_chemical_formula_structural   Tb9TmSi5Hg
_chemical_formula_sum   'Tb9 Tm1 Si5 Hg1'
_cell_volume   406.71068110
_cell_formula_units_Z   1
loop_
 _symmetry_equiv_pos_site_id
 _symmetry_equiv_pos_as_xyz
  1  'x, y, z'
loop_
 _atom_site_type_symbol
 _atom_site_label
 _atom_site_symmetry_multiplicity
 _atom_site_fract_x
 _atom_site_fract_y
 _atom_site_fract_z
 _atom_site_occupancy
  Tb  Tb0  1  0.512178  0.512737  0.024576  1
  Tb  Tb1  1  0.987500  0.987519  0.975478  1
  Tb  Tb2  1  0.976201  0.821877  0.283007  1
  Tb  Tb3  1  0.305776  0.461576  0.282468  1
  Tb  Tb4  1  0.821747  0.307628  0.283905  1
  Tb  Tb5  1  0.462015  0.976835  0.284140  1
  Tb  Tb6  1  0.039653  0.192259  0.716508  1
  Tb  Tb7  1  0.677797  0.522522  0.715787  1
  Tb  Tb8  1  0.193525  0.677439  0.716009  1
  Tm  Tm9  1  0.524331  0.038786  0.718997  1
  Si  Si10  1  0.251781  0.248861  0.499976  1
  Si  Si11  1  0.622394  0.878834  0.999666  1
  Si  Si12  1  0.378469  0.122228  0.999440  1
  Si  Si13  1  0.876666  0.376979  0.998768  1
  Si  Si14  1  0.121061  0.621233  0.998972  1
  Hg  Hg15  1  0.748905  0.752688  0.502302  1
