# generated using pymatgen
data_Ba6Eu3I19
_symmetry_space_group_name_H-M   'P 1'
_cell_length_a   10.30353358
_cell_length_b   10.30353351
_cell_length_c   22.94449800
_cell_angle_alpha   93.93017193
_cell_angle_beta   93.93017190
_cell_angle_gamma   76.12521924
_symmetry_Int_Tables_number   1
_chemical_formula_structural   Ba6Eu3I19
_chemical_formula_sum   'Ba12 Eu6 I38'
_cell_volume   2355.80163736
_cell_formula_units_Z   2
loop_
 _symmetry_equiv_pos_site_id
 _symmetry_equiv_pos_as_xyz
  1  'x, y, z'
loop_
 _atom_site_type_symbol
 _atom_site_label
 _atom_site_symmetry_multiplicity
 _atom_site_fract_x
 _atom_site_fract_y
 _atom_site_fract_z
 _atom_site_occupancy
  Ba  Ba0  1  0.415346  0.264363  0.038958  1
  Ba  Ba1  1  0.086475  0.856959  0.107014  1
  Ba  Ba2  1  0.581509  0.782922  0.216362  1
  Ba  Ba3  1  0.217078  0.418491  0.283637  1
  Ba  Ba4  1  0.143041  0.913525  0.392986  1
  Ba  Ba5  1  0.735638  0.584654  0.461042  1
  Ba  Ba6  1  0.264363  0.415346  0.538958  1
  Ba  Ba7  1  0.856959  0.086475  0.607014  1
  Ba  Ba8  1  0.782922  0.581509  0.716363  1
  Ba  Ba9  1  0.418491  0.217078  0.783637  1
  Ba  Ba10  1  0.913525  0.143041  0.892986  1
  Ba  Ba11  1  0.584654  0.735638  0.961042  1
  Eu  Eu12  1  0.882176  0.373033  0.113806  1
  Eu  Eu13  1  0.755367  0.244633  0.250000  1
  Eu  Eu14  1  0.626967  0.117824  0.386194  1
  Eu  Eu15  1  0.373033  0.882176  0.613806  1
  Eu  Eu16  1  0.244633  0.755367  0.750000  1
  Eu  Eu17  1  0.117824  0.626967  0.886194  1
  I  I18  1  0.304990  0.614954  0.006984  1
  I  I19  1  0.078886  0.156696  0.032299  1
  I  I20  1  0.418464  0.930029  0.086569  1
  I  I21  1  0.798072  0.694013  0.097867  1
  I  I22  1  0.758424  0.099673  0.116444  1
  I  I23  1  0.164923  0.463533  0.132775  1
  I  I24  1  0.559603  0.457064  0.158051  1
  I  I25  1  0.068555  0.157095  0.212962  1
  I  I26  1  0.479610  0.135217  0.245567  1
  I  I27  1  0.244322  0.755678  0.250000  1
  I  I28  1  0.864783  0.520391  0.254433  1
  I  I29  1  0.842905  0.931446  0.287038  1
  I  I30  1  0.542936  0.440397  0.341949  1
  I  I31  1  0.536467  0.835077  0.367225  1
  I  I32  1  0.900326  0.241576  0.383556  1
  I  I33  1  0.305987  0.201928  0.402133  1
  I  I34  1  0.069971  0.581536  0.413431  1
  I  I35  1  0.843304  0.921114  0.467702  1
  I  I36  1  0.385046  0.695010  0.493016  1
  I  I37  1  0.614954  0.304990  0.506984  1
  I  I38  1  0.156696  0.078886  0.532298  1
  I  I39  1  0.930029  0.418464  0.586569  1
  I  I40  1  0.694013  0.798072  0.597867  1
  I  I41  1  0.099673  0.758424  0.616444  1
  I  I42  1  0.463533  0.164923  0.632775  1
  I  I43  1  0.457064  0.559603  0.658051  1
  I  I44  1  0.157095  0.068555  0.712962  1
  I  I45  1  0.135217  0.479610  0.745567  1
  I  I46  1  0.755678  0.244322  0.750000  1
  I  I47  1  0.520391  0.864783  0.754433  1
  I  I48  1  0.931446  0.842905  0.787038  1
  I  I49  1  0.440397  0.542936  0.841949  1
  I  I50  1  0.835077  0.536467  0.867225  1
  I  I51  1  0.241576  0.900326  0.883556  1
  I  I52  1  0.201928  0.305987  0.902133  1
  I  I53  1  0.581536  0.069971  0.913432  1
  I  I54  1  0.921114  0.843304  0.967702  1
  I  I55  1  0.695010  0.385046  0.993016  1
