# generated using pymatgen
data_EuRu2F12
_symmetry_space_group_name_H-M   'P 1'
_cell_length_a   5.39123398
_cell_length_b   5.90486891
_cell_length_c   9.29030000
_cell_angle_alpha   104.69200106
_cell_angle_beta   90.57764010
_cell_angle_gamma   118.11349941
_symmetry_Int_Tables_number   1
_chemical_formula_structural   EuRu2F12
_chemical_formula_sum   'Eu1 Ru2 F12'
_cell_volume   249.40113005
_cell_formula_units_Z   1
loop_
 _symmetry_equiv_pos_site_id
 _symmetry_equiv_pos_as_xyz
  1  'x, y, z'
loop_
 _atom_site_type_symbol
 _atom_site_label
 _atom_site_symmetry_multiplicity
 _atom_site_fract_x
 _atom_site_fract_y
 _atom_site_fract_z
 _atom_site_occupancy
  Eu  Eu0  1  0.000000  0.000000  0.000000  1
  Ru  Ru1  1  0.771388  0.509632  0.267181  1
  Ru  Ru2  1  0.228612  0.490368  0.732819  1
  F  F3  1  0.835080  0.270222  0.705183  1
  F  F4  1  0.164920  0.729778  0.294817  1
  F  F5  1  0.201860  0.725315  0.920664  1
  F  F6  1  0.724532  0.724906  0.435134  1
  F  F7  1  0.275468  0.275094  0.564866  1
  F  F8  1  0.795067  0.286840  0.369940  1
  F  F9  1  0.204933  0.713160  0.630060  1
  F  F10  1  0.357422  0.272233  0.209276  1
  F  F11  1  0.642578  0.727767  0.790724  1
  F  F12  1  0.735078  0.719375  0.140994  1
  F  F13  1  0.264922  0.280625  0.859006  1
  F  F14  1  0.798140  0.274685  0.079336  1
