# generated using pymatgen
data_Tm2Lu8InSb5
_symmetry_space_group_name_H-M   'P 1'
_cell_length_a   8.79281700
_cell_length_b   8.79135936
_cell_length_c   6.25948800
_cell_angle_alpha   90.00000000
_cell_angle_beta   90.00000000
_cell_angle_gamma   120.00548112
_symmetry_Int_Tables_number   1
_chemical_formula_structural   Tm2Lu8InSb5
_chemical_formula_sum   'Tm2 Lu8 In1 Sb5'
_cell_volume   419.01495253
_cell_formula_units_Z   1
loop_
 _symmetry_equiv_pos_site_id
 _symmetry_equiv_pos_as_xyz
  1  'x, y, z'
loop_
 _atom_site_type_symbol
 _atom_site_label
 _atom_site_symmetry_multiplicity
 _atom_site_fract_x
 _atom_site_fract_y
 _atom_site_fract_z
 _atom_site_occupancy
  Tm  Tm0  1  0.244134  0.242295  0.750000  1
  Tm  Tm1  1  0.001840  0.757705  0.750000  1
  Lu  Lu2  1  0.335260  0.669037  0.000046  1
  Lu  Lu3  1  0.666223  0.330963  0.499954  1
  Lu  Lu4  1  0.666223  0.330963  0.000046  1
  Lu  Lu5  1  0.335260  0.669037  0.499954  1
  Lu  Lu6  1  0.241709  0.000000  0.250000  1
  Lu  Lu7  1  0.758649  0.000000  0.750000  1
  Lu  Lu8  1  0.995807  0.239065  0.250000  1
  Lu  Lu9  1  0.756742  0.760935  0.250000  1
  In  In10  1  0.604118  0.000000  0.250000  1
  Sb  Sb11  1  0.393200  0.000000  0.750000  1
  Sb  Sb12  1  0.999158  0.609001  0.250000  1
  Sb  Sb13  1  0.390157  0.390999  0.250000  1
  Sb  Sb14  1  0.610055  0.608590  0.750000  1
  Sb  Sb15  1  0.001465  0.391410  0.750000  1
