# generated using pymatgen
data_LiErCoH6
_symmetry_space_group_name_H-M   'P 1'
_cell_length_a   4.65881275
_cell_length_b   4.65884841
_cell_length_c   4.65879900
_cell_angle_alpha   59.99974964
_cell_angle_beta   60.00068392
_cell_angle_gamma   59.99981297
_symmetry_Int_Tables_number   1
_chemical_formula_structural   LiErCoH6
_chemical_formula_sum   'Li1 Er1 Co1 H6'
_cell_volume   71.50124758
_cell_formula_units_Z   1
loop_
 _symmetry_equiv_pos_site_id
 _symmetry_equiv_pos_as_xyz
  1  'x, y, z'
loop_
 _atom_site_type_symbol
 _atom_site_label
 _atom_site_symmetry_multiplicity
 _atom_site_fract_x
 _atom_site_fract_y
 _atom_site_fract_z
 _atom_site_occupancy
  Li  Li0  1  0.750007  0.749990  0.749997  1
  Er  Er1  1  0.249994  0.249984  0.250021  1
  Co  Co2  1  0.999994  0.000017  0.999994  1
  H  H3  1  0.759415  0.759412  0.240584  1
  H  H4  1  0.759417  0.240586  0.240582  1
  H  H5  1  0.240585  0.759419  0.240579  1
  H  H6  1  0.240584  0.759417  0.759412  1
  H  H7  1  0.759418  0.240586  0.759414  1
  H  H8  1  0.240586  0.240589  0.759413  1
