# generated using pymatgen
data_Nb6Ga2Cu4S
_symmetry_space_group_name_H-M   'P 1'
_cell_length_a   8.29038387
_cell_length_b   8.29038364
_cell_length_c   8.29038500
_cell_angle_alpha   59.99999855
_cell_angle_beta   59.99999948
_cell_angle_gamma   60.00000333
_symmetry_Int_Tables_number   1
_chemical_formula_structural   Nb6Ga2Cu4S
_chemical_formula_sum   'Nb12 Ga4 Cu8 S2'
_cell_volume   402.91086063
_cell_formula_units_Z   2
loop_
 _symmetry_equiv_pos_site_id
 _symmetry_equiv_pos_as_xyz
  1  'x, y, z'
loop_
 _atom_site_type_symbol
 _atom_site_label
 _atom_site_symmetry_multiplicity
 _atom_site_fract_x
 _atom_site_fract_y
 _atom_site_fract_z
 _atom_site_occupancy
  Nb  Nb0  1  0.044253  0.044253  0.455747  1
  Nb  Nb1  1  0.455747  0.044253  0.455747  1
  Nb  Nb2  1  0.044253  0.455747  0.455747  1
  Nb  Nb3  1  0.455747  0.455747  0.044253  1
  Nb  Nb4  1  0.044253  0.455747  0.044253  1
  Nb  Nb5  1  0.455747  0.044253  0.044253  1
  Nb  Nb6  1  0.205747  0.205747  0.794253  1
  Nb  Nb7  1  0.794253  0.205747  0.794253  1
  Nb  Nb8  1  0.205747  0.794253  0.794253  1
  Nb  Nb9  1  0.794253  0.794253  0.205747  1
  Nb  Nb10  1  0.205747  0.794253  0.205747  1
  Nb  Nb11  1  0.794253  0.205747  0.205747  1
  Ga  Ga12  1  0.625000  0.625000  0.125000  1
  Ga  Ga13  1  0.625000  0.125000  0.625000  1
  Ga  Ga14  1  0.125000  0.625000  0.625000  1
  Ga  Ga15  1  0.625000  0.625000  0.625000  1
  Cu  Cu16  1  0.417657  0.417657  0.747028  1
  Cu  Cu17  1  0.417657  0.747028  0.417657  1
  Cu  Cu18  1  0.747028  0.417657  0.417657  1
  Cu  Cu19  1  0.417657  0.417657  0.417657  1
  Cu  Cu20  1  0.832343  0.832343  0.502972  1
  Cu  Cu21  1  0.832343  0.502972  0.832343  1
  Cu  Cu22  1  0.502972  0.832343  0.832343  1
  Cu  Cu23  1  0.832343  0.832343  0.832343  1
  S  S24  1  0.250000  0.250000  0.250000  1
  S  S25  1  0.000000  0.000000  0.000000  1
