# generated using pymatgen
data_Tb2Er2MnOs7
_symmetry_space_group_name_H-M   'P 1'
_cell_length_a   5.33857100
_cell_length_b   5.33857066
_cell_length_c   8.75016800
_cell_angle_alpha   90.00000000
_cell_angle_beta   90.00000000
_cell_angle_gamma   119.99999592
_symmetry_Int_Tables_number   1
_chemical_formula_structural   Tb2Er2MnOs7
_chemical_formula_sum   'Tb2 Er2 Mn1 Os7'
_cell_volume   215.97180557
_cell_formula_units_Z   1
loop_
 _symmetry_equiv_pos_site_id
 _symmetry_equiv_pos_as_xyz
  1  'x, y, z'
loop_
 _atom_site_type_symbol
 _atom_site_label
 _atom_site_symmetry_multiplicity
 _atom_site_fract_x
 _atom_site_fract_y
 _atom_site_fract_z
 _atom_site_occupancy
  Tb  Tb0  1  0.666667  0.333333  0.935395  1
  Tb  Tb1  1  0.333333  0.666667  0.064605  1
  Er  Er2  1  0.333333  0.666667  0.431488  1
  Er  Er3  1  0.666667  0.333333  0.568512  1
  Mn  Mn4  1  0.000000  0.000000  0.500000  1
  Os  Os5  1  0.000000  0.000000  0.000000  1
  Os  Os6  1  0.829194  0.170806  0.254556  1
  Os  Os7  1  0.829194  0.658389  0.254556  1
  Os  Os8  1  0.341611  0.170806  0.254556  1
  Os  Os9  1  0.170806  0.829194  0.745444  1
  Os  Os10  1  0.170806  0.341611  0.745444  1
  Os  Os11  1  0.658389  0.829194  0.745444  1
