# generated using pymatgen
data_Pr3Nd(NbN2)4
_symmetry_space_group_name_H-M   'P 1'
_cell_length_a   3.42315600
_cell_length_b   5.85158620
_cell_length_c   11.12883138
_cell_angle_alpha   89.97023701
_cell_angle_beta   90.00000000
_cell_angle_gamma   90.00000000
_symmetry_Int_Tables_number   1
_chemical_formula_structural   Pr3Nd(NbN2)4
_chemical_formula_sum   'Pr3 Nd1 Nb4 N8'
_cell_volume   222.92039375
_cell_formula_units_Z   1
loop_
 _symmetry_equiv_pos_site_id
 _symmetry_equiv_pos_as_xyz
  1  'x, y, z'
loop_
 _atom_site_type_symbol
 _atom_site_label
 _atom_site_symmetry_multiplicity
 _atom_site_fract_x
 _atom_site_fract_y
 _atom_site_fract_z
 _atom_site_occupancy
  Pr  Pr0  1  0.250000  0.585522  0.860922  1
  Pr  Pr1  1  0.750000  0.414482  0.138941  1
  Pr  Pr2  1  0.750000  0.914531  0.361302  1
  Nd  Nd3  1  0.250000  0.085288  0.639163  1
  Nb  Nb4  1  0.250000  0.918223  0.107814  1
  Nb  Nb5  1  0.750000  0.081927  0.891834  1
  Nb  Nb6  1  0.750000  0.581927  0.607805  1
  Nb  Nb7  1  0.250000  0.417977  0.392465  1
  N  N8  1  0.250000  0.662215  0.247294  1
  N  N9  1  0.750000  0.336564  0.752027  1
  N  N10  1  0.750000  0.839238  0.746368  1
  N  N11  1  0.250000  0.162335  0.252856  1
  N  N12  1  0.250000  0.726133  0.514060  1
  N  N13  1  0.750000  0.273739  0.487431  1
  N  N14  1  0.750000  0.775186  0.013364  1
  N  N15  1  0.250000  0.224712  0.986353  1
