# generated using pymatgen
data_LiLa8(IrRh2)2
_symmetry_space_group_name_H-M   'P 1'
_cell_length_a   7.73773953
_cell_length_b   7.75061646
_cell_length_c   7.72138231
_cell_angle_alpha   70.16508609
_cell_angle_beta   69.94550306
_cell_angle_gamma   69.94017432
_symmetry_Int_Tables_number   1
_chemical_formula_structural   LiLa8(IrRh2)2
_chemical_formula_sum   'Li1 La8 Ir2 Rh4'
_cell_volume   395.49636105
_cell_formula_units_Z   1
loop_
 _symmetry_equiv_pos_site_id
 _symmetry_equiv_pos_as_xyz
  1  'x, y, z'
loop_
 _atom_site_type_symbol
 _atom_site_label
 _atom_site_symmetry_multiplicity
 _atom_site_fract_x
 _atom_site_fract_y
 _atom_site_fract_z
 _atom_site_occupancy
  Li  Li0  1  0.000386  0.000623  0.999824  1
  La  La1  1  0.813007  0.812394  0.812298  1
  La  La2  1  0.186319  0.186436  0.185070  1
  La  La3  1  0.139786  0.379836  0.684771  1
  La  La4  1  0.682400  0.140762  0.382242  1
  La  La5  1  0.382893  0.683910  0.139014  1
  La  La6  1  0.858018  0.618948  0.315667  1
  La  La7  1  0.317074  0.859341  0.619979  1
  La  La8  1  0.620230  0.316719  0.858164  1
  Ir  Ir9  1  0.425934  0.052100  0.815189  1
  Ir  Ir10  1  0.813856  0.426812  0.053658  1
  Rh  Rh11  1  0.948757  0.185878  0.572537  1
  Rh  Rh12  1  0.572657  0.947974  0.187195  1
  Rh  Rh13  1  0.186612  0.573820  0.947811  1
  Rh  Rh14  1  0.052071  0.814447  0.426580  1
