# generated using pymatgen
data_Yb3ErAs6Rh7
_symmetry_space_group_name_H-M   'P 1'
_cell_length_a   7.22660797
_cell_length_b   7.22660798
_cell_length_c   7.22660645
_cell_angle_alpha   109.45093975
_cell_angle_beta   109.45093778
_cell_angle_gamma   109.45092831
_symmetry_Int_Tables_number   1
_chemical_formula_structural   Yb3ErAs6Rh7
_chemical_formula_sum   'Yb3 Er1 As6 Rh7'
_cell_volume   290.74165127
_cell_formula_units_Z   1
loop_
 _symmetry_equiv_pos_site_id
 _symmetry_equiv_pos_as_xyz
  1  'x, y, z'
loop_
 _atom_site_type_symbol
 _atom_site_label
 _atom_site_symmetry_multiplicity
 _atom_site_fract_x
 _atom_site_fract_y
 _atom_site_fract_z
 _atom_site_occupancy
  Yb  Yb0  1  0.000000  0.500000  0.000000  1
  Yb  Yb1  1  0.500000  0.000000  0.000000  1
  Yb  Yb2  1  0.000000  0.000000  0.500000  1
  Er  Er3  1  0.500000  0.500000  0.500000  1
  As  As4  1  0.681260  0.002499  0.681260  1
  As  As5  1  0.681260  0.681260  0.002499  1
  As  As6  1  0.318740  0.318740  0.997501  1
  As  As7  1  0.002499  0.681260  0.681260  1
  As  As8  1  0.997501  0.318740  0.318740  1
  As  As9  1  0.318740  0.997501  0.318740  1
  Rh  Rh10  1  0.500000  0.749451  0.250549  1
  Rh  Rh11  1  0.749451  0.250549  0.500000  1
  Rh  Rh12  1  0.250549  0.749451  0.500000  1
  Rh  Rh13  1  0.250549  0.500000  0.749451  1
  Rh  Rh14  1  0.000000  0.000000  0.000000  1
  Rh  Rh15  1  0.500000  0.250549  0.749451  1
  Rh  Rh16  1  0.749451  0.500000  0.250549  1
