# generated using pymatgen
data_La4DyRu2
_symmetry_space_group_name_H-M   'P 1'
_cell_length_a   9.04469628
_cell_length_b   9.04469729
_cell_length_c   7.25074145
_cell_angle_alpha   85.40451608
_cell_angle_beta   85.40451398
_cell_angle_gamma   43.26656476
_symmetry_Int_Tables_number   1
_chemical_formula_structural   La4DyRu2
_chemical_formula_sum   'La8 Dy2 Ru4'
_cell_volume   405.03378193
_cell_formula_units_Z   2
loop_
 _symmetry_equiv_pos_site_id
 _symmetry_equiv_pos_as_xyz
  1  'x, y, z'
loop_
 _atom_site_type_symbol
 _atom_site_label
 _atom_site_symmetry_multiplicity
 _atom_site_fract_x
 _atom_site_fract_y
 _atom_site_fract_z
 _atom_site_occupancy
  La  La0  1  0.203861  0.977484  0.590874  1
  La  La1  1  0.022516  0.796139  0.909126  1
  La  La2  1  0.209776  0.362980  0.314518  1
  La  La3  1  0.637020  0.790224  0.185482  1
  La  La4  1  0.790224  0.637020  0.685482  1
  La  La5  1  0.362980  0.209776  0.814518  1
  La  La6  1  0.977484  0.203861  0.090874  1
  La  La7  1  0.796139  0.022516  0.409126  1
  Dy  Dy8  1  0.571321  0.428679  0.750000  1
  Dy  Dy9  1  0.428679  0.571321  0.250000  1
  Ru  Ru10  1  0.178584  0.601728  0.579417  1
  Ru  Ru11  1  0.398272  0.821416  0.920583  1
  Ru  Ru12  1  0.821416  0.398272  0.420583  1
  Ru  Ru13  1  0.601728  0.178584  0.079417  1
