# generated using pymatgen
data_YbGd(B3W)2
_symmetry_space_group_name_H-M   'P 1'
_cell_length_a   6.92139487
_cell_length_b   3.12516400
_cell_length_c   5.49248120
_cell_angle_alpha   90.00000000
_cell_angle_beta   102.80377831
_cell_angle_gamma   90.00000000
_symmetry_Int_Tables_number   1
_chemical_formula_structural   YbGd(B3W)2
_chemical_formula_sum   'Yb1 Gd1 B6 W2'
_cell_volume   115.85096301
_cell_formula_units_Z   1
loop_
 _symmetry_equiv_pos_site_id
 _symmetry_equiv_pos_as_xyz
  1  'x, y, z'
loop_
 _atom_site_type_symbol
 _atom_site_label
 _atom_site_symmetry_multiplicity
 _atom_site_fract_x
 _atom_site_fract_y
 _atom_site_fract_z
 _atom_site_occupancy
  Yb  Yb0  1  0.294207  0.250001  0.830100  1
  Gd  Gd1  1  0.709804  0.750001  0.170638  1
  B  B2  1  0.993328  0.250001  0.081250  1
  B  B3  1  0.993541  0.250001  0.413475  1
  B  B4  1  0.469127  0.250001  0.425503  1
  B  B5  1  0.526958  0.750001  0.575424  1
  B  B6  1  0.008842  0.750001  0.589314  1
  B  B7  1  0.009166  0.750001  0.914940  1
  W  W8  1  0.215913  0.750001  0.314115  1
  W  W9  1  0.779116  0.250001  0.685239  1
