# generated using pymatgen
data_Tm5Lu3Re(B8Ir)3
_symmetry_space_group_name_H-M   'P 1'
_cell_length_a   3.61479900
_cell_length_b   9.08658436
_cell_length_c   11.42497801
_cell_angle_alpha   90.14842499
_cell_angle_beta   90.00000000
_cell_angle_gamma   90.00000000
_symmetry_Int_Tables_number   1
_chemical_formula_structural   Tm5Lu3Re(B8Ir)3
_chemical_formula_sum   'Tm5 Lu3 Re1 B24 Ir3'
_cell_volume   375.26558013
_cell_formula_units_Z   1
loop_
 _symmetry_equiv_pos_site_id
 _symmetry_equiv_pos_as_xyz
  1  'x, y, z'
loop_
 _atom_site_type_symbol
 _atom_site_label
 _atom_site_symmetry_multiplicity
 _atom_site_fract_x
 _atom_site_fract_y
 _atom_site_fract_z
 _atom_site_occupancy
  Tm  Tm0  1  0.000000  0.320059  0.413919  1
  Tm  Tm1  1  0.000000  0.684094  0.590593  1
  Tm  Tm2  1  0.000000  0.819743  0.082331  1
  Tm  Tm3  1  0.000000  0.176508  0.912391  1
  Tm  Tm4  1  0.000000  0.943779  0.373328  1
  Lu  Lu5  1  0.000000  0.053421  0.626704  1
  Lu  Lu6  1  0.000000  0.443763  0.125862  1
  Lu  Lu7  1  0.000000  0.557281  0.874832  1
  Re  Re8  1  0.000000  0.862470  0.821227  1
  B  B9  1  0.500000  0.553819  0.434767  1
  B  B10  1  0.500000  0.447256  0.566149  1
  B  B11  1  0.500000  0.053752  0.065900  1
  B  B12  1  0.500000  0.946675  0.933631  1
  B  B13  1  0.500000  0.750593  0.421000  1
  B  B14  1  0.500000  0.249435  0.579010  1
  B  B15  1  0.500000  0.250253  0.078746  1
  B  B16  1  0.500000  0.750485  0.920030  1
  B  B17  1  0.500000  0.792578  0.263991  1
  B  B18  1  0.500000  0.207026  0.734184  1
  B  B19  1  0.500000  0.294114  0.235518  1
  B  B20  1  0.500000  0.707075  0.765661  1
  B  B21  1  0.500000  0.630697  0.183411  1
  B  B22  1  0.500000  0.368647  0.816504  1
  B  B23  1  0.500000  0.132009  0.316146  1
  B  B24  1  0.500000  0.869332  0.684882  1
  B  B25  1  0.500000  0.981219  0.212813  1
  B  B26  1  0.500000  0.018097  0.786439  1
  B  B27  1  0.500000  0.480575  0.287072  1
  B  B28  1  0.500000  0.518601  0.713990  1
  B  B29  1  0.500000  0.605308  0.029994  1
  B  B30  1  0.500000  0.392333  0.970987  1
  B  B31  1  0.500000  0.107604  0.470513  1
  B  B32  1  0.500000  0.893660  0.528538  1
  Ir  Ir33  1  0.000000  0.637022  0.321747  1
  Ir  Ir34  1  0.000000  0.362372  0.678567  1
  Ir  Ir35  1  0.000000  0.138340  0.178622  1
