# generated using pymatgen
data_Pr2Dy6Si12IrRh3
_symmetry_space_group_name_H-M   'P 1'
_cell_length_a   8.21567400
_cell_length_b   8.21567539
_cell_length_c   8.06889300
_cell_angle_alpha   90.00000000
_cell_angle_beta   90.00000000
_cell_angle_gamma   119.99999440
_symmetry_Int_Tables_number   1
_chemical_formula_structural   Pr2Dy6Si12IrRh3
_chemical_formula_sum   'Pr2 Dy6 Si12 Ir1 Rh3'
_cell_volume   471.66221070
_cell_formula_units_Z   1
loop_
 _symmetry_equiv_pos_site_id
 _symmetry_equiv_pos_as_xyz
  1  'x, y, z'
loop_
 _atom_site_type_symbol
 _atom_site_label
 _atom_site_symmetry_multiplicity
 _atom_site_fract_x
 _atom_site_fract_y
 _atom_site_fract_z
 _atom_site_occupancy
  Pr  Pr0  1  0.000000  0.000000  0.249057  1
  Pr  Pr1  1  0.000000  0.000000  0.750084  1
  Dy  Dy2  1  0.508396  0.491604  0.250251  1
  Dy  Dy3  1  0.508396  0.016793  0.250251  1
  Dy  Dy4  1  0.983207  0.491604  0.250251  1
  Dy  Dy5  1  0.490905  0.509095  0.749804  1
  Dy  Dy6  1  0.490905  0.981809  0.749804  1
  Dy  Dy7  1  0.018191  0.509095  0.749804  1
  Si  Si8  1  0.168038  0.831962  0.499967  1
  Si  Si9  1  0.168038  0.336077  0.499967  1
  Si  Si10  1  0.663923  0.831962  0.499967  1
  Si  Si11  1  0.831285  0.168715  0.499450  1
  Si  Si12  1  0.831285  0.662570  0.499450  1
  Si  Si13  1  0.337430  0.168715  0.499450  1
  Si  Si14  1  0.831436  0.168564  0.000439  1
  Si  Si15  1  0.831436  0.662870  0.000439  1
  Si  Si16  1  0.337130  0.168564  0.000439  1
  Si  Si17  1  0.168494  0.831506  0.999007  1
  Si  Si18  1  0.168494  0.336990  0.999007  1
  Si  Si19  1  0.663010  0.831506  0.999007  1
  Ir  Ir20  1  0.333333  0.666667  0.468722  1
  Rh  Rh21  1  0.666667  0.333333  0.533586  1
  Rh  Rh22  1  0.666667  0.333333  0.965598  1
  Rh  Rh23  1  0.333333  0.666667  0.036196  1
