# generated using pymatgen
data_Sc6Fe4Si5P
_symmetry_space_group_name_H-M   'P 1'
_cell_length_a   5.33181484
_cell_length_b   5.33181471
_cell_length_c   12.78953800
_cell_angle_alpha   90.00000000
_cell_angle_beta   90.00000000
_cell_angle_gamma   136.75396205
_symmetry_Int_Tables_number   1
_chemical_formula_structural   Sc6Fe4Si5P
_chemical_formula_sum   'Sc6 Fe4 Si5 P1'
_cell_volume   249.10337411
_cell_formula_units_Z   1
loop_
 _symmetry_equiv_pos_site_id
 _symmetry_equiv_pos_as_xyz
  1  'x, y, z'
loop_
 _atom_site_type_symbol
 _atom_site_label
 _atom_site_symmetry_multiplicity
 _atom_site_fract_x
 _atom_site_fract_y
 _atom_site_fract_z
 _atom_site_occupancy
  Sc  Sc0  1  0.639209  0.360791  0.750000  1
  Sc  Sc1  1  0.919862  0.080138  0.612254  1
  Sc  Sc2  1  0.919862  0.080138  0.887746  1
  Sc  Sc3  1  0.079685  0.920315  0.115630  1
  Sc  Sc4  1  0.357700  0.642300  0.250000  1
  Sc  Sc5  1  0.079685  0.920315  0.384370  1
  Fe  Fe6  1  0.786702  0.213298  0.086107  1
  Fe  Fe7  1  0.214011  0.785989  0.580170  1
  Fe  Fe8  1  0.786702  0.213298  0.413893  1
  Fe  Fe9  1  0.214011  0.785989  0.919830  1
  Si  Si10  1  0.384400  0.615600  0.458810  1
  Si  Si11  1  0.384400  0.615600  0.041190  1
  Si  Si12  1  0.616927  0.383073  0.538679  1
  Si  Si13  1  0.329523  0.670477  0.750000  1
  Si  Si14  1  0.616927  0.383073  0.961321  1
  P  P15  1  0.670393  0.329607  0.250000  1
