# generated using pymatgen
data_Ta5TiAl4(AuC)2
_symmetry_space_group_name_H-M   'P 1'
_cell_length_a   8.40416066
_cell_length_b   8.40438167
_cell_length_c   8.40143501
_cell_angle_alpha   60.01026790
_cell_angle_beta   60.00961935
_cell_angle_gamma   59.97377938
_symmetry_Int_Tables_number   1
_chemical_formula_structural   Ta5TiAl4(AuC)2
_chemical_formula_sum   'Ta10 Ti2 Al8 Au4 C4'
_cell_volume   419.58280698
_cell_formula_units_Z   2
loop_
 _symmetry_equiv_pos_site_id
 _symmetry_equiv_pos_as_xyz
  1  'x, y, z'
loop_
 _atom_site_type_symbol
 _atom_site_label
 _atom_site_symmetry_multiplicity
 _atom_site_fract_x
 _atom_site_fract_y
 _atom_site_fract_z
 _atom_site_occupancy
  Ta  Ta0  1  0.928354  0.928382  0.571642  1
  Ta  Ta1  1  0.680523  0.319869  0.320649  1
  Ta  Ta2  1  0.319894  0.680533  0.678937  1
  Ta  Ta3  1  0.678282  0.678308  0.321723  1
  Ta  Ta4  1  0.680518  0.319886  0.678936  1
  Ta  Ta5  1  0.319891  0.680518  0.320659  1
  Ta  Ta6  1  0.570975  0.929461  0.569509  1
  Ta  Ta7  1  0.570977  0.929492  0.930035  1
  Ta  Ta8  1  0.929479  0.570955  0.569501  1
  Ta  Ta9  1  0.929473  0.570979  0.930039  1
  Ti  Ti10  1  0.321947  0.321934  0.678064  1
  Ti  Ti11  1  0.571906  0.571913  0.928087  1
  Al  Al12  1  0.911745  0.260203  0.914024  1
  Al  Al13  1  0.335951  0.335953  0.989747  1
  Al  Al14  1  0.992484  0.336043  0.335739  1
  Al  Al15  1  0.335953  0.335948  0.338349  1
  Al  Al16  1  0.260201  0.911747  0.914024  1
  Al  Al17  1  0.914277  0.914287  0.913955  1
  Al  Al18  1  0.914275  0.914279  0.257488  1
  Al  Al19  1  0.336042  0.992489  0.335742  1
  Au  Au20  1  0.126932  0.624298  0.124384  1
  Au  Au21  1  0.125650  0.125656  0.625705  1
  Au  Au22  1  0.624295  0.126933  0.124389  1
  Au  Au23  1  0.125651  0.125655  0.122993  1
  C  C24  1  0.619542  0.127611  0.626421  1
  C  C25  1  0.623572  0.623579  0.122474  1
  C  C26  1  0.127632  0.619510  0.626435  1
  C  C27  1  0.623583  0.623580  0.630349  1
