# generated using pymatgen
data_Tb7Dy(Er3Pb4)4
_symmetry_space_group_name_H-M   'P 1'
_cell_length_a   8.18492204
_cell_length_b   8.26015002
_cell_length_c   15.59246509
_cell_angle_alpha   89.99373015
_cell_angle_beta   90.01084191
_cell_angle_gamma   90.00376311
_symmetry_Int_Tables_number   1
_chemical_formula_structural   Tb7Dy(Er3Pb4)4
_chemical_formula_sum   'Tb7 Dy1 Er12 Pb16'
_cell_volume   1054.18601679
_cell_formula_units_Z   1
loop_
 _symmetry_equiv_pos_site_id
 _symmetry_equiv_pos_as_xyz
  1  'x, y, z'
loop_
 _atom_site_type_symbol
 _atom_site_label
 _atom_site_symmetry_multiplicity
 _atom_site_fract_x
 _atom_site_fract_y
 _atom_site_fract_z
 _atom_site_occupancy
  Tb  Tb0  1  0.536440  0.323182  0.899964  1
  Tb  Tb1  1  0.036427  0.176785  0.600016  1
  Tb  Tb2  1  0.463574  0.676805  0.399959  1
  Tb  Tb3  1  0.963569  0.823217  0.100022  1
  Tb  Tb4  1  0.463565  0.676778  0.100040  1
  Tb  Tb5  1  0.963582  0.823196  0.399962  1
  Tb  Tb6  1  0.536422  0.323192  0.600045  1
  Dy  Dy7  1  0.036489  0.176774  0.899936  1
  Er  Er8  1  0.376410  0.841263  0.879039  1
  Er  Er9  1  0.876447  0.658778  0.620949  1
  Er  Er10  1  0.623571  0.158769  0.379050  1
  Er  Er11  1  0.123526  0.341188  0.120941  1
  Er  Er12  1  0.623546  0.158791  0.120977  1
  Er  Er13  1  0.123564  0.341233  0.379055  1
  Er  Er14  1  0.376447  0.841243  0.620940  1
  Er  Er15  1  0.876452  0.658763  0.879042  1
  Er  Er16  1  0.208132  0.504621  0.749991  1
  Er  Er17  1  0.708207  0.995400  0.750000  1
  Er  Er18  1  0.791832  0.495340  0.250018  1
  Er  Er19  1  0.291826  0.004669  0.250027  1
  Pb  Pb20  1  0.281706  0.033457  0.042801  1
  Pb  Pb21  1  0.781787  0.466640  0.457132  1
  Pb  Pb22  1  0.718192  0.966615  0.542874  1
  Pb  Pb23  1  0.218132  0.533281  0.957113  1
  Pb  Pb24  1  0.718328  0.966728  0.957103  1
  Pb  Pb25  1  0.218187  0.533372  0.542870  1
  Pb  Pb26  1  0.281798  0.033374  0.457124  1
  Pb  Pb27  1  0.781796  0.466628  0.042887  1
  Pb  Pb28  1  0.571224  0.627185  0.750007  1
  Pb  Pb29  1  0.071212  0.872864  0.750009  1
  Pb  Pb30  1  0.428776  0.372815  0.250011  1
  Pb  Pb31  1  0.928784  0.127172  0.249993  1
  Pb  Pb32  1  0.347242  0.153218  0.750031  1
  Pb  Pb33  1  0.847398  0.346664  0.750084  1
  Pb  Pb34  1  0.652706  0.846782  0.249993  1
  Pb  Pb35  1  0.152705  0.653218  0.249992  1
