# generated using pymatgen
data_TbScGaNi7B2
_symmetry_space_group_name_H-M   'P 1'
_cell_length_a   4.99171700
_cell_length_b   4.99171712
_cell_length_c   6.87378800
_cell_angle_alpha   90.00000000
_cell_angle_beta   90.00000000
_cell_angle_gamma   120.00001910
_symmetry_Int_Tables_number   1
_chemical_formula_structural   TbScGaNi7B2
_chemical_formula_sum   'Tb1 Sc1 Ga1 Ni7 B2'
_cell_volume   148.32918242
_cell_formula_units_Z   1
loop_
 _symmetry_equiv_pos_site_id
 _symmetry_equiv_pos_as_xyz
  1  'x, y, z'
loop_
 _atom_site_type_symbol
 _atom_site_label
 _atom_site_symmetry_multiplicity
 _atom_site_fract_x
 _atom_site_fract_y
 _atom_site_fract_z
 _atom_site_occupancy
  Tb  Tb0  1  0.000000  0.000000  0.000000  1
  Sc  Sc1  1  0.000000  0.000000  0.500000  1
  Ga  Ga2  1  0.666667  0.333333  0.000000  1
  Ni  Ni3  1  0.333333  0.666667  0.000000  1
  Ni  Ni4  1  0.499214  0.500786  0.703436  1
  Ni  Ni5  1  0.499214  0.998427  0.703436  1
  Ni  Ni6  1  0.001573  0.500786  0.703436  1
  Ni  Ni7  1  0.499214  0.500786  0.296564  1
  Ni  Ni8  1  0.499214  0.998427  0.296564  1
  Ni  Ni9  1  0.001573  0.500786  0.296564  1
  B  B10  1  0.666667  0.333333  0.500000  1
  B  B11  1  0.333333  0.666667  0.500000  1
