# generated using pymatgen
data_Pr2InSn7Rh4
_symmetry_space_group_name_H-M   'P 1'
_cell_length_a   4.56111900
_cell_length_b   7.19454500
_cell_length_c   18.71941900
_cell_angle_alpha   90.00000000
_cell_angle_beta   90.00000000
_cell_angle_gamma   90.00000000
_symmetry_Int_Tables_number   1
_chemical_formula_structural   Pr2InSn7Rh4
_chemical_formula_sum   'Pr4 In2 Sn14 Rh8'
_cell_volume   614.28102715
_cell_formula_units_Z   2
loop_
 _symmetry_equiv_pos_site_id
 _symmetry_equiv_pos_as_xyz
  1  'x, y, z'
loop_
 _atom_site_type_symbol
 _atom_site_label
 _atom_site_symmetry_multiplicity
 _atom_site_fract_x
 _atom_site_fract_y
 _atom_site_fract_z
 _atom_site_occupancy
  Pr  Pr0  1  0.250000  0.999518  0.858374  1
  Pr  Pr1  1  0.250000  0.500482  0.358374  1
  Pr  Pr2  1  0.750000  0.000039  0.141476  1
  Pr  Pr3  1  0.750000  0.499961  0.641476  1
  In  In4  1  0.250000  0.302625  0.181779  1
  In  In5  1  0.250000  0.197375  0.681779  1
  Sn  Sn6  1  0.750000  0.696782  0.818175  1
  Sn  Sn7  1  0.750000  0.803218  0.318175  1
  Sn  Sn8  1  0.250000  0.720583  0.194780  1
  Sn  Sn9  1  0.250000  0.779417  0.694780  1
  Sn  Sn10  1  0.750000  0.277886  0.803234  1
  Sn  Sn11  1  0.750000  0.222114  0.303234  1
  Sn  Sn12  1  0.250000  0.864935  0.031506  1
  Sn  Sn13  1  0.250000  0.635065  0.531506  1
  Sn  Sn14  1  0.750000  0.134956  0.968559  1
  Sn  Sn15  1  0.750000  0.365044  0.468559  1
  Sn  Sn16  1  0.250000  0.518397  0.931721  1
  Sn  Sn17  1  0.250000  0.981603  0.431721  1
  Sn  Sn18  1  0.750000  0.479961  0.069528  1
  Sn  Sn19  1  0.750000  0.020039  0.569528  1
  Rh  Rh20  1  0.250000  0.251374  0.033719  1
  Rh  Rh21  1  0.250000  0.248626  0.533719  1
  Rh  Rh22  1  0.750000  0.747560  0.965659  1
  Rh  Rh23  1  0.750000  0.752440  0.465659  1
  Rh  Rh24  1  0.250000  0.015300  0.287026  1
  Rh  Rh25  1  0.250000  0.484700  0.787026  1
  Rh  Rh26  1  0.750000  0.976801  0.714463  1
  Rh  Rh27  1  0.750000  0.523199  0.214463  1
