# generated using pymatgen
data_TmMg3Ge3P3Ir7
_symmetry_space_group_name_H-M   'P 1'
_cell_length_a   7.03259047
_cell_length_b   7.03258938
_cell_length_c   6.96341900
_cell_angle_alpha   109.27209406
_cell_angle_beta   109.27209096
_cell_angle_gamma   109.66961325
_symmetry_Int_Tables_number   1
_chemical_formula_structural   TmMg3Ge3P3Ir7
_chemical_formula_sum   'Tm1 Mg3 Ge3 P3 Ir7'
_cell_volume   265.76183120
_cell_formula_units_Z   1
loop_
 _symmetry_equiv_pos_site_id
 _symmetry_equiv_pos_as_xyz
  1  'x, y, z'
loop_
 _atom_site_type_symbol
 _atom_site_label
 _atom_site_symmetry_multiplicity
 _atom_site_fract_x
 _atom_site_fract_y
 _atom_site_fract_z
 _atom_site_occupancy
  Tm  Tm0  1  0.000000  0.000000  0.468035  1
  Mg  Mg1  1  0.000000  0.505713  0.999052  1
  Mg  Mg2  1  0.505713  0.000000  0.999052  1
  Mg  Mg3  1  0.494287  0.494287  0.493339  1
  Ge  Ge4  1  0.303496  0.303496  0.001573  1
  Ge  Ge5  1  0.696504  0.000000  0.698078  1
  Ge  Ge6  1  0.000000  0.696504  0.698078  1
  P  P7  1  0.668104  0.668104  0.993020  1
  P  P8  1  0.331896  0.000000  0.324917  1
  P  P9  1  0.000000  0.331896  0.324917  1
  Ir  Ir10  1  0.746336  0.251804  0.494827  1
  Ir  Ir11  1  0.748196  0.494533  0.243023  1
  Ir  Ir12  1  0.505467  0.253664  0.748491  1
  Ir  Ir13  1  0.253664  0.505467  0.748491  1
  Ir  Ir14  1  0.251804  0.746336  0.494827  1
  Ir  Ir15  1  0.494533  0.748196  0.243023  1
  Ir  Ir16  1  0.000000  0.000000  0.027258  1
