# generated using pymatgen
data_Ba8TmUSe12
_symmetry_space_group_name_H-M   'P 1'
_cell_length_a   9.05778802
_cell_length_b   9.05778836
_cell_length_c   9.05778832
_cell_angle_alpha   89.49560612
_cell_angle_beta   89.49560263
_cell_angle_gamma   89.49560452
_symmetry_Int_Tables_number   1
_chemical_formula_structural   Ba8TmUSe12
_chemical_formula_sum   'Ba8 Tm1 U1 Se12'
_cell_volume   743.04701631
_cell_formula_units_Z   1
loop_
 _symmetry_equiv_pos_site_id
 _symmetry_equiv_pos_as_xyz
  1  'x, y, z'
loop_
 _atom_site_type_symbol
 _atom_site_label
 _atom_site_symmetry_multiplicity
 _atom_site_fract_x
 _atom_site_fract_y
 _atom_site_fract_z
 _atom_site_occupancy
  Ba  Ba0  1  0.870756  0.621646  0.257442  1
  Ba  Ba1  1  0.257442  0.870756  0.621646  1
  Ba  Ba2  1  0.621646  0.257442  0.870756  1
  Ba  Ba3  1  0.742558  0.129244  0.378354  1
  Ba  Ba4  1  0.378354  0.742558  0.129244  1
  Ba  Ba5  1  0.129244  0.378354  0.742558  1
  Ba  Ba6  1  0.255488  0.255488  0.255488  1
  Ba  Ba7  1  0.744512  0.744512  0.744512  1
  Tm  Tm8  1  0.500000  0.500000  0.500000  1
  U  U9  1  0.000000  0.000000  0.000000  1
  Se  Se10  1  0.200660  0.564078  0.421608  1
  Se  Se11  1  0.421608  0.200660  0.564078  1
  Se  Se12  1  0.564078  0.421608  0.200660  1
  Se  Se13  1  0.927025  0.058837  0.708048  1
  Se  Se14  1  0.708048  0.927025  0.058837  1
  Se  Se15  1  0.058837  0.708048  0.927025  1
  Se  Se16  1  0.799340  0.435922  0.578392  1
  Se  Se17  1  0.578392  0.799340  0.435922  1
  Se  Se18  1  0.435922  0.578392  0.799340  1
  Se  Se19  1  0.072975  0.941163  0.291952  1
  Se  Se20  1  0.291952  0.072975  0.941163  1
  Se  Se21  1  0.941163  0.291952  0.072975  1
