# generated using pymatgen
data_Ho2V2Fe10P7
_symmetry_space_group_name_H-M   'P 1'
_cell_length_a   9.11791102
_cell_length_b   9.05213183
_cell_length_c   3.62310400
_cell_angle_alpha   90.00000000
_cell_angle_beta   90.00000000
_cell_angle_gamma   120.58680461
_symmetry_Int_Tables_number   1
_chemical_formula_structural   Ho2V2Fe10P7
_chemical_formula_sum   'Ho2 V2 Fe10 P7'
_cell_volume   257.43000467
_cell_formula_units_Z   1
loop_
 _symmetry_equiv_pos_site_id
 _symmetry_equiv_pos_as_xyz
  1  'x, y, z'
loop_
 _atom_site_type_symbol
 _atom_site_label
 _atom_site_symmetry_multiplicity
 _atom_site_fract_x
 _atom_site_fract_y
 _atom_site_fract_z
 _atom_site_occupancy
  Ho  Ho0  1  0.671963  0.333859  0.000000  1
  Ho  Ho1  1  0.328472  0.666465  0.500000  1
  V  V2  1  0.780939  0.887152  0.500000  1
  V  V3  1  0.116195  0.897695  0.500000  1
  Fe  Fe4  1  0.053159  0.423806  0.000000  1
  Fe  Fe5  1  0.566921  0.619556  0.000000  1
  Fe  Fe6  1  0.375111  0.946600  0.000000  1
  Fe  Fe7  1  0.279403  0.162201  0.000000  1
  Fe  Fe8  1  0.845803  0.118898  0.000000  1
  Fe  Fe9  1  0.882395  0.728188  0.000000  1
  Fe  Fe10  1  0.435269  0.390765  0.500000  1
  Fe  Fe11  1  0.614836  0.047871  0.500000  1
  Fe  Fe12  1  0.952712  0.564509  0.500000  1
  Fe  Fe13  1  0.094717  0.214477  0.500000  1
  P  P14  1  0.283045  0.405011  0.000000  1
  P  P15  1  0.586136  0.887821  0.000000  1
  P  P16  1  0.109698  0.697453  0.000000  1
  P  P17  1  0.409737  0.119220  0.500000  1
  P  P18  1  0.887464  0.286767  0.500000  1
  P  P19  1  0.722342  0.595366  0.500000  1
  P  P20  1  0.003679  0.006315  0.000000  1
