# generated using pymatgen
data_Lu2BIrPd5
_symmetry_space_group_name_H-M   'P 1'
_cell_length_a   5.89127219
_cell_length_b   5.87405945
_cell_length_c   5.87405800
_cell_angle_alpha   60.19398164
_cell_angle_beta   59.90301557
_cell_angle_gamma   59.90301921
_symmetry_Int_Tables_number   1
_chemical_formula_structural   Lu2BIrPd5
_chemical_formula_sum   'Lu2 B1 Ir1 Pd5'
_cell_volume   143.73523110
_cell_formula_units_Z   1
loop_
 _symmetry_equiv_pos_site_id
 _symmetry_equiv_pos_as_xyz
  1  'x, y, z'
loop_
 _atom_site_type_symbol
 _atom_site_label
 _atom_site_symmetry_multiplicity
 _atom_site_fract_x
 _atom_site_fract_y
 _atom_site_fract_z
 _atom_site_occupancy
  Lu  Lu0  1  0.748439  0.751561  0.751561  1
  Lu  Lu1  1  0.248439  0.251561  0.251561  1
  B  B2  1  0.008246  0.991754  0.991754  1
  Ir  Ir3  1  0.254148  0.745852  0.745852  1
  Pd  Pd4  1  0.741093  0.744291  0.258907  1
  Pd  Pd5  1  0.255709  0.744291  0.258907  1
  Pd  Pd6  1  0.747125  0.252875  0.252875  1
  Pd  Pd7  1  0.255709  0.258907  0.744291  1
  Pd  Pd8  1  0.741093  0.258907  0.744291  1
