# generated using pymatgen
data_Ca20Cd3Ga4Ag5
_symmetry_space_group_name_H-M   'P 1'
_cell_length_a   8.07589897
_cell_length_b   8.09757110
_cell_length_c   14.89691443
_cell_angle_alpha   90.04418807
_cell_angle_beta   90.04840125
_cell_angle_gamma   89.31169034
_symmetry_Int_Tables_number   1
_chemical_formula_structural   Ca20Cd3Ga4Ag5
_chemical_formula_sum   'Ca20 Cd3 Ga4 Ag5'
_cell_volume   974.11526784
_cell_formula_units_Z   1
loop_
 _symmetry_equiv_pos_site_id
 _symmetry_equiv_pos_as_xyz
  1  'x, y, z'
loop_
 _atom_site_type_symbol
 _atom_site_label
 _atom_site_symmetry_multiplicity
 _atom_site_fract_x
 _atom_site_fract_y
 _atom_site_fract_z
 _atom_site_occupancy
  Ca  Ca0  1  0.673128  0.161456  0.101953  1
  Ca  Ca1  1  0.168314  0.666698  0.607498  1
  Ca  Ca2  1  0.325491  0.839832  0.101860  1
  Ca  Ca3  1  0.834087  0.331489  0.607285  1
  Ca  Ca4  1  0.833158  0.680372  0.104503  1
  Ca  Ca5  1  0.329080  0.170698  0.608428  1
  Ca  Ca6  1  0.166468  0.319565  0.103857  1
  Ca  Ca7  1  0.670205  0.830909  0.608298  1
  Ca  Ca8  1  0.839778  0.324438  0.896552  1
  Ca  Ca9  1  0.333396  0.834600  0.394334  1
  Ca  Ca10  1  0.162245  0.674026  0.896489  1
  Ca  Ca11  1  0.665427  0.166244  0.394215  1
  Ca  Ca12  1  0.677466  0.835713  0.895456  1
  Ca  Ca13  1  0.172424  0.326449  0.391737  1
  Ca  Ca14  1  0.321475  0.165497  0.895328  1
  Ca  Ca15  1  0.827494  0.673256  0.391197  1
  Ca  Ca16  1  0.496888  0.500647  0.754984  1
  Ca  Ca17  1  0.000372  0.000374  0.247960  1
  Ca  Ca18  1  0.999686  0.003011  0.751762  1
  Ca  Ca19  1  0.499837  0.499758  0.245188  1
  Cd  Cd20  1  0.502209  0.500206  0.500727  1
  Cd  Cd21  1  0.502156  0.499907  0.999858  1
  Cd  Cd22  1  0.999703  0.996897  0.500744  1
  Ga  Ga23  1  0.381742  0.118476  0.248713  1
  Ga  Ga24  1  0.124219  0.376985  0.751191  1
  Ga  Ga25  1  0.616957  0.881743  0.248502  1
  Ga  Ga26  1  0.000387  0.996704  0.999384  1
  Ag  Ag27  1  0.623151  0.128844  0.751287  1
  Ag  Ag28  1  0.126479  0.623927  0.248983  1
  Ag  Ag29  1  0.873799  0.375743  0.248825  1
  Ag  Ag30  1  0.374502  0.874639  0.751425  1
  Ag  Ag31  1  0.878276  0.620898  0.751479  1
