# generated using pymatgen
data_SrPr6CoI12
_symmetry_space_group_name_H-M   'P 1'
_cell_length_a   10.08064681
_cell_length_b   10.08064623
_cell_length_c   10.08064757
_cell_angle_alpha   106.47654778
_cell_angle_beta   106.47654409
_cell_angle_gamma   106.47654625
_symmetry_Int_Tables_number   1
_chemical_formula_structural   SrPr6CoI12
_chemical_formula_sum   'Sr1 Pr6 Co1 I12'
_cell_volume   865.01443308
_cell_formula_units_Z   1
loop_
 _symmetry_equiv_pos_site_id
 _symmetry_equiv_pos_as_xyz
  1  'x, y, z'
loop_
 _atom_site_type_symbol
 _atom_site_label
 _atom_site_symmetry_multiplicity
 _atom_site_fract_x
 _atom_site_fract_y
 _atom_site_fract_z
 _atom_site_occupancy
  Sr  Sr0  1  0.500000  0.500000  0.500000  1
  Pr  Pr1  1  0.980509  0.905889  0.703958  1
  Pr  Pr2  1  0.019491  0.094111  0.296042  1
  Pr  Pr3  1  0.094111  0.296042  0.019491  1
  Pr  Pr4  1  0.296042  0.019491  0.094111  1
  Pr  Pr5  1  0.905889  0.703958  0.980509  1
  Pr  Pr6  1  0.703958  0.980509  0.905889  1
  Co  Co7  1  0.000000  0.000000  0.000000  1
  I  I8  1  0.547774  0.629030  0.857168  1
  I  I9  1  0.452226  0.370970  0.142832  1
  I  I10  1  0.321956  0.926047  0.773645  1
  I  I11  1  0.370970  0.142832  0.452226  1
  I  I12  1  0.926047  0.773645  0.321956  1
  I  I13  1  0.678044  0.073953  0.226355  1
  I  I14  1  0.073953  0.226355  0.678044  1
  I  I15  1  0.773645  0.321956  0.926047  1
  I  I16  1  0.226355  0.678044  0.073953  1
  I  I17  1  0.857168  0.547774  0.629030  1
  I  I18  1  0.142832  0.452226  0.370970  1
  I  I19  1  0.629030  0.857168  0.547774  1
