# generated using pymatgen
data_Ca3Yb(ErHg2)4
_symmetry_space_group_name_H-M   'P 1'
_cell_length_a   7.51372701
_cell_length_b   7.51855500
_cell_length_c   7.45686400
_cell_angle_alpha   90.00000000
_cell_angle_beta   89.99666004
_cell_angle_gamma   90.00000000
_symmetry_Int_Tables_number   1
_chemical_formula_structural   Ca3Yb(ErHg2)4
_chemical_formula_sum   'Ca3 Yb1 Er4 Hg8'
_cell_volume   421.25591792
_cell_formula_units_Z   1
loop_
 _symmetry_equiv_pos_site_id
 _symmetry_equiv_pos_as_xyz
  1  'x, y, z'
loop_
 _atom_site_type_symbol
 _atom_site_label
 _atom_site_symmetry_multiplicity
 _atom_site_fract_x
 _atom_site_fract_y
 _atom_site_fract_z
 _atom_site_occupancy
  Ca  Ca0  1  0.249234  0.750000  0.499673  1
  Ca  Ca1  1  0.750537  0.250000  0.500291  1
  Ca  Ca2  1  0.250542  0.750000  0.999871  1
  Yb  Yb3  1  0.749492  0.250000  0.000079  1
  Er  Er4  1  0.250578  0.250000  0.999995  1
  Er  Er5  1  0.749496  0.750000  0.000030  1
  Er  Er6  1  0.750496  0.750000  0.499983  1
  Er  Er7  1  0.249491  0.250000  0.500016  1
  Hg  Hg8  1  0.999035  0.498876  0.247651  1
  Hg  Hg9  1  0.999035  0.001126  0.247651  1
  Hg  Hg10  1  0.501311  0.001258  0.250111  1
  Hg  Hg11  1  0.501311  0.498742  0.250111  1
  Hg  Hg12  1  0.501005  0.498970  0.749899  1
  Hg  Hg13  1  0.501005  0.001032  0.749899  1
  Hg  Hg14  1  0.998714  0.001299  0.752370  1
  Hg  Hg15  1  0.998714  0.498701  0.752370  1
