# generated using pymatgen
data_TbDy(YIr)3
_symmetry_space_group_name_H-M   'P 1'
_cell_length_a   10.94335600
_cell_length_b   10.94223100
_cell_length_c   6.39344700
_cell_angle_alpha   90.00000000
_cell_angle_beta   90.00000000
_cell_angle_gamma   90.00000000
_symmetry_Int_Tables_number   1
_chemical_formula_structural   TbDy(YIr)3
_chemical_formula_sum   'Tb4 Dy4 Y12 Ir12'
_cell_volume   765.58158010
_cell_formula_units_Z   4
loop_
 _symmetry_equiv_pos_site_id
 _symmetry_equiv_pos_as_xyz
  1  'x, y, z'
loop_
 _atom_site_type_symbol
 _atom_site_label
 _atom_site_symmetry_multiplicity
 _atom_site_fract_x
 _atom_site_fract_y
 _atom_site_fract_z
 _atom_site_occupancy
  Tb  Tb0  1  0.291301  0.088490  0.378451  1
  Tb  Tb1  1  0.291301  0.911510  0.878451  1
  Tb  Tb2  1  0.708699  0.088490  0.878451  1
  Tb  Tb3  1  0.708699  0.911510  0.378451  1
  Dy  Dy4  1  0.000000  0.000000  0.500094  1
  Dy  Dy5  1  0.000000  0.000000  0.000094  1
  Dy  Dy6  1  0.500000  0.500000  0.000190  1
  Dy  Dy7  1  0.500000  0.500000  0.500190  1
  Y  Y8  1  0.588412  0.791136  0.878380  1
  Y  Y9  1  0.588412  0.208864  0.378380  1
  Y  Y10  1  0.411588  0.791136  0.378380  1
  Y  Y11  1  0.411588  0.208864  0.878380  1
  Y  Y12  1  0.208647  0.411668  0.621668  1
  Y  Y13  1  0.208647  0.588332  0.121668  1
  Y  Y14  1  0.791353  0.411668  0.121668  1
  Y  Y15  1  0.791353  0.588332  0.621668  1
  Y  Y16  1  0.911669  0.708664  0.121460  1
  Y  Y17  1  0.911669  0.291336  0.621460  1
  Y  Y18  1  0.088331  0.708664  0.621460  1
  Y  Y19  1  0.088331  0.291336  0.121460  1
  Ir  Ir20  1  0.847022  0.152737  0.249786  1
  Ir  Ir21  1  0.847022  0.847263  0.749786  1
  Ir  Ir22  1  0.152978  0.152737  0.749786  1
  Ir  Ir23  1  0.152978  0.847263  0.249786  1
  Ir  Ir24  1  0.652796  0.347040  0.750061  1
  Ir  Ir25  1  0.652796  0.652960  0.250061  1
  Ir  Ir26  1  0.347204  0.347040  0.250061  1
  Ir  Ir27  1  0.347204  0.652960  0.750061  1
  Ir  Ir28  1  0.500000  0.000000  0.124432  1
  Ir  Ir29  1  0.500000  0.000000  0.624432  1
  Ir  Ir30  1  0.000000  0.500000  0.875672  1
  Ir  Ir31  1  0.000000  0.500000  0.375672  1
