# generated using pymatgen
data_Gd9TmIr4
_symmetry_space_group_name_H-M   'P 1'
_cell_length_a   8.52422377
_cell_length_b   8.52422361
_cell_length_c   7.25895100
_cell_angle_alpha   83.37195243
_cell_angle_beta   83.37194578
_cell_angle_gamma   43.95854113
_symmetry_Int_Tables_number   1
_chemical_formula_structural   Gd9TmIr4
_chemical_formula_sum   'Gd9 Tm1 Ir4'
_cell_volume   363.27759190
_cell_formula_units_Z   1
loop_
 _symmetry_equiv_pos_site_id
 _symmetry_equiv_pos_as_xyz
  1  'x, y, z'
loop_
 _atom_site_type_symbol
 _atom_site_label
 _atom_site_symmetry_multiplicity
 _atom_site_fract_x
 _atom_site_fract_y
 _atom_site_fract_z
 _atom_site_occupancy
  Gd  Gd0  1  0.209369  0.974282  0.580260  1
  Gd  Gd1  1  0.025718  0.790631  0.919740  1
  Gd  Gd2  1  0.206607  0.355599  0.312943  1
  Gd  Gd3  1  0.644401  0.793393  0.187057  1
  Gd  Gd4  1  0.791750  0.648162  0.686943  1
  Gd  Gd5  1  0.351838  0.208250  0.813057  1
  Gd  Gd6  1  0.976306  0.207732  0.082426  1
  Gd  Gd7  1  0.792268  0.023694  0.417574  1
  Gd  Gd8  1  0.577662  0.422338  0.750000  1
  Tm  Tm9  1  0.426445  0.573555  0.250000  1
  Ir  Ir10  1  0.182533  0.599313  0.573442  1
  Ir  Ir11  1  0.400687  0.817467  0.926558  1
  Ir  Ir12  1  0.817081  0.402665  0.424273  1
  Ir  Ir13  1  0.597335  0.182919  0.075727  1
