# generated using pymatgen
data_Lu2Hf2(Al8Pt3)3
_symmetry_space_group_name_H-M   'P 1'
_cell_length_a   7.48953539
_cell_length_b   7.49198437
_cell_length_c   12.99900408
_cell_angle_alpha   84.41933613
_cell_angle_beta   101.04591175
_cell_angle_gamma   119.92543160
_symmetry_Int_Tables_number   1
_chemical_formula_structural   Lu2Hf2(Al8Pt3)3
_chemical_formula_sum   'Lu2 Hf2 Al24 Pt9'
_cell_volume   620.43493678
_cell_formula_units_Z   1
loop_
 _symmetry_equiv_pos_site_id
 _symmetry_equiv_pos_as_xyz
  1  'x, y, z'
loop_
 _atom_site_type_symbol
 _atom_site_label
 _atom_site_symmetry_multiplicity
 _atom_site_fract_x
 _atom_site_fract_y
 _atom_site_fract_z
 _atom_site_occupancy
  Lu  Lu0  1  0.062191  0.668145  0.192256  1
  Lu  Lu1  1  0.937809  0.331855  0.807744  1
  Hf  Hf2  1  0.732344  0.999983  0.191648  1
  Hf  Hf3  1  0.267656  0.000017  0.808352  1
  Al  Al4  1  0.812304  0.869447  0.815498  1
  Al  Al5  1  0.187696  0.130553  0.184502  1
  Al  Al6  1  0.984069  0.668673  0.941622  1
  Al  Al7  1  0.015931  0.331327  0.058378  1
  Al  Al8  1  0.398491  0.669199  0.816730  1
  Al  Al9  1  0.601509  0.330801  0.183270  1
  Al  Al10  1  0.885333  0.666571  0.674089  1
  Al  Al11  1  0.114667  0.333429  0.325911  1
  Al  Al12  1  0.597461  0.452421  0.815944  1
  Al  Al13  1  0.402539  0.547579  0.184056  1
  Al  Al14  1  0.230340  0.338024  0.672635  1
  Al  Al15  1  0.769660  0.661976  0.327365  1
  Al  Al16  1  0.852739  0.333041  0.559608  1
  Al  Al17  1  0.186668  0.999636  0.560543  1
  Al  Al18  1  0.813332  0.000364  0.439457  1
  Al  Al19  1  0.354703  0.997939  0.057207  1
  Al  Al20  1  0.645297  0.002061  0.942793  1
  Al  Al21  1  0.555591  0.993834  0.674234  1
  Al  Al22  1  0.444409  0.006166  0.325766  1
  Al  Al23  1  0.521455  0.667293  0.563180  1
  Al  Al24  1  0.478545  0.332707  0.436820  1
  Al  Al25  1  0.684853  0.670693  0.049873  1
  Al  Al26  1  0.315147  0.329307  0.950127  1
  Al  Al27  1  0.147261  0.666959  0.440392  1
  Pt  Pt28  1  0.327095  0.670931  0.000115  1
  Pt  Pt29  1  0.545391  0.323038  0.637964  1
  Pt  Pt30  1  0.454609  0.676962  0.362036  1
  Pt  Pt31  1  0.889650  0.009729  0.639608  1
  Pt  Pt32  1  0.110350  0.990271  0.360392  1
  Pt  Pt33  1  0.672905  0.329069  0.999885  1
  Pt  Pt34  1  0.202793  0.666755  0.639893  1
  Pt  Pt35  1  0.797207  0.333245  0.360107  1
  Pt  Pt36  1  0.000000  0.000000  0.000000  1
