# generated using pymatgen
data_CaNdU2(NiAs)4
_symmetry_space_group_name_H-M   'P 1'
_cell_length_a   4.08908800
_cell_length_b   4.08908793
_cell_length_c   15.61012500
_cell_angle_alpha   90.00000000
_cell_angle_beta   90.00000000
_cell_angle_gamma   120.00000060
_symmetry_Int_Tables_number   1
_chemical_formula_structural   CaNdU2(NiAs)4
_chemical_formula_sum   'Ca1 Nd1 U2 Ni4 As4'
_cell_volume   226.04240314
_cell_formula_units_Z   1
loop_
 _symmetry_equiv_pos_site_id
 _symmetry_equiv_pos_as_xyz
  1  'x, y, z'
loop_
 _atom_site_type_symbol
 _atom_site_label
 _atom_site_symmetry_multiplicity
 _atom_site_fract_x
 _atom_site_fract_y
 _atom_site_fract_z
 _atom_site_occupancy
  Ca  Ca0  1  0.000000  0.000000  0.000000  1
  Nd  Nd1  1  0.000000  0.000000  0.500000  1
  U  U2  1  0.000000  0.000000  0.246816  1
  U  U3  1  0.000000  0.000000  0.753184  1
  Ni  Ni4  1  0.333333  0.666667  0.153129  1
  Ni  Ni5  1  0.666667  0.333333  0.846871  1
  Ni  Ni6  1  0.666667  0.333333  0.657518  1
  Ni  Ni7  1  0.333333  0.666667  0.342482  1
  As  As8  1  0.333333  0.666667  0.624508  1
  As  As9  1  0.666667  0.333333  0.375492  1
  As  As10  1  0.666667  0.333333  0.122371  1
  As  As11  1  0.333333  0.666667  0.877629  1
