# generated using pymatgen
data_TbNdYRh9
_symmetry_space_group_name_H-M   'P 1'
_cell_length_a   5.30632000
_cell_length_b   5.30632007
_cell_length_c   17.53249700
_cell_angle_alpha   90.00000000
_cell_angle_beta   90.00000000
_cell_angle_gamma   119.99999957
_symmetry_Int_Tables_number   1
_chemical_formula_structural   TbNdYRh9
_chemical_formula_sum   'Tb2 Nd2 Y2 Rh18'
_cell_volume   427.52477390
_cell_formula_units_Z   2
loop_
 _symmetry_equiv_pos_site_id
 _symmetry_equiv_pos_as_xyz
  1  'x, y, z'
loop_
 _atom_site_type_symbol
 _atom_site_label
 _atom_site_symmetry_multiplicity
 _atom_site_fract_x
 _atom_site_fract_y
 _atom_site_fract_z
 _atom_site_occupancy
  Tb  Tb0  1  0.666667  0.333333  0.458225  1
  Tb  Tb1  1  0.333333  0.666667  0.958225  1
  Nd  Nd2  1  0.333333  0.666667  0.749987  1
  Nd  Nd3  1  0.666667  0.333333  0.249987  1
  Y  Y4  1  0.333333  0.666667  0.541749  1
  Y  Y5  1  0.666667  0.333333  0.041749  1
  Rh  Rh6  1  0.167464  0.334926  0.125287  1
  Rh  Rh7  1  0.832536  0.665074  0.625287  1
  Rh  Rh8  1  0.665074  0.832536  0.125287  1
  Rh  Rh9  1  0.167464  0.832536  0.125287  1
  Rh  Rh10  1  0.832536  0.167464  0.625287  1
  Rh  Rh11  1  0.334926  0.167464  0.625287  1
  Rh  Rh12  1  0.832519  0.665038  0.874721  1
  Rh  Rh13  1  0.832519  0.167481  0.874721  1
  Rh  Rh14  1  0.334962  0.167481  0.874721  1
  Rh  Rh15  1  0.665038  0.832519  0.374721  1
  Rh  Rh16  1  0.167481  0.832519  0.374721  1
  Rh  Rh17  1  0.167481  0.334962  0.374721  1
  Rh  Rh18  1  0.000000  0.000000  0.249984  1
  Rh  Rh19  1  0.000000  0.000000  0.749984  1
  Rh  Rh20  1  0.333333  0.666667  0.249984  1
  Rh  Rh21  1  0.666667  0.333333  0.749984  1
  Rh  Rh22  1  0.000000  0.000000  0.000045  1
  Rh  Rh23  1  0.000000  0.000000  0.500045  1
