# generated using pymatgen
data_Nd2Al2Ag5
_symmetry_space_group_name_H-M   'P 1'
_cell_length_a   5.57408988
_cell_length_b   5.47671089
_cell_length_c   14.17604500
_cell_angle_alpha   90.00000000
_cell_angle_beta   90.00000000
_cell_angle_gamma   120.14039471
_symmetry_Int_Tables_number   1
_chemical_formula_structural   Nd2Al2Ag5
_chemical_formula_sum   'Nd4 Al4 Ag10'
_cell_volume   374.25133356
_cell_formula_units_Z   2
loop_
 _symmetry_equiv_pos_site_id
 _symmetry_equiv_pos_as_xyz
  1  'x, y, z'
loop_
 _atom_site_type_symbol
 _atom_site_label
 _atom_site_symmetry_multiplicity
 _atom_site_fract_x
 _atom_site_fract_y
 _atom_site_fract_z
 _atom_site_occupancy
  Nd  Nd0  1  0.823197  0.824353  0.113498  1
  Nd  Nd1  1  0.175056  0.173423  0.880479  1
  Nd  Nd2  1  0.823197  0.824353  0.386502  1
  Nd  Nd3  1  0.175056  0.173423  0.619521  1
  Al  Al4  1  0.169814  0.671805  0.750000  1
  Al  Al5  1  0.674099  0.171055  0.750000  1
  Al  Al6  1  0.673460  0.670781  0.750000  1
  Al  Al7  1  0.326814  0.833865  0.250000  1
  Ag  Ag8  1  0.168715  0.507236  0.074503  1
  Ag  Ag9  1  0.510478  0.837189  0.913891  1
  Ag  Ag10  1  0.488026  0.153057  0.075551  1
  Ag  Ag11  1  0.830800  0.500215  0.583262  1
  Ag  Ag12  1  0.488026  0.153057  0.424449  1
  Ag  Ag13  1  0.830800  0.500215  0.916738  1
  Ag  Ag14  1  0.832084  0.329384  0.250000  1
  Ag  Ag15  1  0.510478  0.837189  0.586109  1
  Ag  Ag16  1  0.168715  0.507236  0.425497  1
  Ag  Ag17  1  0.331186  0.332162  0.250000  1
