# generated using pymatgen
data_Pr7Er(Tm3Pt4)4
_symmetry_space_group_name_H-M   'P 1'
_cell_length_a   7.57559193
_cell_length_b   7.64511310
_cell_length_c   14.66334600
_cell_angle_alpha   90.00453413
_cell_angle_beta   89.95907548
_cell_angle_gamma   90.05138506
_symmetry_Int_Tables_number   1
_chemical_formula_structural   Pr7Er(Tm3Pt4)4
_chemical_formula_sum   'Pr7 Er1 Tm12 Pt16'
_cell_volume   849.24555623
_cell_formula_units_Z   1
loop_
 _symmetry_equiv_pos_site_id
 _symmetry_equiv_pos_as_xyz
  1  'x, y, z'
loop_
 _atom_site_type_symbol
 _atom_site_label
 _atom_site_symmetry_multiplicity
 _atom_site_fract_x
 _atom_site_fract_y
 _atom_site_fract_z
 _atom_site_occupancy
  Pr  Pr0  1  0.501348  0.677705  0.593922  1
  Pr  Pr1  1  0.000476  0.823905  0.905028  1
  Pr  Pr2  1  0.498650  0.324388  0.094964  1
  Pr  Pr3  1  0.999213  0.173186  0.407165  1
  Pr  Pr4  1  0.498490  0.324330  0.405276  1
  Pr  Pr5  1  0.999008  0.176463  0.094370  1
  Pr  Pr6  1  0.501341  0.676062  0.904260  1
  Er  Er7  1  0.003147  0.820733  0.596703  1
  Tm  Tm8  1  0.660313  0.165102  0.622173  1
  Tm  Tm9  1  0.157102  0.332394  0.875311  1
  Tm  Tm10  1  0.342666  0.832988  0.123462  1
  Tm  Tm11  1  0.844593  0.668577  0.378347  1
  Tm  Tm12  1  0.341793  0.833903  0.377181  1
  Tm  Tm13  1  0.842260  0.666211  0.123915  1
  Tm  Tm14  1  0.657885  0.166516  0.875422  1
  Tm  Tm15  1  0.157730  0.333135  0.623117  1
  Tm  Tm16  1  0.821113  0.507837  0.748429  1
  Tm  Tm17  1  0.320197  0.992878  0.748133  1
  Tm  Tm18  1  0.178222  0.493093  0.250736  1
  Tm  Tm19  1  0.679104  0.007078  0.250541  1
  Pt  Pt20  1  0.677374  0.960028  0.458501  1
  Pt  Pt21  1  0.176696  0.537634  0.043617  1
  Pt  Pt22  1  0.324077  0.038321  0.956124  1
  Pt  Pt23  1  0.826899  0.468908  0.546162  1
  Pt  Pt24  1  0.314082  0.032186  0.545093  1
  Pt  Pt25  1  0.823962  0.461707  0.956049  1
  Pt  Pt26  1  0.676543  0.961884  0.043546  1
  Pt  Pt27  1  0.175873  0.542232  0.458563  1
  Pt  Pt28  1  0.453472  0.374517  0.749137  1
  Pt  Pt29  1  0.955851  0.122472  0.747926  1
  Pt  Pt30  1  0.545890  0.626747  0.250808  1
  Pt  Pt31  1  0.045860  0.873719  0.250269  1
  Pt  Pt32  1  0.690057  0.863496  0.747962  1
  Pt  Pt33  1  0.183027  0.639294  0.746424  1
  Pt  Pt34  1  0.312596  0.136136  0.250493  1
  Pt  Pt35  1  0.813084  0.364234  0.250872  1
