# generated using pymatgen
data_ErTm7(Sc3Sn4)4
_symmetry_space_group_name_H-M   'P 1'
_cell_length_a   7.64844600
_cell_length_b   7.92685700
_cell_length_c   14.77954601
_cell_angle_alpha   90.00203488
_cell_angle_beta   89.99636146
_cell_angle_gamma   90.00196439
_symmetry_Int_Tables_number   1
_chemical_formula_structural   ErTm7(Sc3Sn4)4
_chemical_formula_sum   'Er1 Tm7 Sc12 Sn16'
_cell_volume   896.05634879
_cell_formula_units_Z   1
loop_
 _symmetry_equiv_pos_site_id
 _symmetry_equiv_pos_as_xyz
  1  'x, y, z'
loop_
 _atom_site_type_symbol
 _atom_site_label
 _atom_site_symmetry_multiplicity
 _atom_site_fract_x
 _atom_site_fract_y
 _atom_site_fract_z
 _atom_site_occupancy
  Er  Er0  1  0.994260  0.178135  0.093599  1
  Tm  Tm1  1  0.005746  0.821688  0.906273  1
  Tm  Tm2  1  0.505784  0.678307  0.906288  1
  Tm  Tm3  1  0.005786  0.821713  0.593715  1
  Tm  Tm4  1  0.494220  0.321729  0.093707  1
  Tm  Tm5  1  0.994217  0.178285  0.406253  1
  Tm  Tm6  1  0.494227  0.321712  0.406310  1
  Tm  Tm7  1  0.505764  0.678303  0.593710  1
  Sc  Sc8  1  0.164519  0.496681  0.750001  1
  Sc  Sc9  1  0.835450  0.503342  0.250022  1
  Sc  Sc10  1  0.335515  0.996677  0.250016  1
  Sc  Sc11  1  0.664499  0.003307  0.750009  1
  Sc  Sc12  1  0.336260  0.161104  0.627365  1
  Sc  Sc13  1  0.663745  0.838906  0.372657  1
  Sc  Sc14  1  0.163738  0.661125  0.372655  1
  Sc  Sc15  1  0.663703  0.838844  0.127354  1
  Sc  Sc16  1  0.836262  0.338874  0.627364  1
  Sc  Sc17  1  0.336283  0.161099  0.872637  1
  Sc  Sc18  1  0.836213  0.338926  0.872632  1
  Sc  Sc19  1  0.163737  0.661133  0.127352  1
  Sn  Sn20  1  0.026872  0.122826  0.749990  1
  Sn  Sn21  1  0.973107  0.877112  0.250027  1
  Sn  Sn22  1  0.473114  0.622787  0.250008  1
  Sn  Sn23  1  0.526872  0.377171  0.749992  1
  Sn  Sn24  1  0.307184  0.848010  0.750003  1
  Sn  Sn25  1  0.692725  0.151996  0.250067  1
  Sn  Sn26  1  0.192994  0.348151  0.250102  1
  Sn  Sn27  1  0.807152  0.652027  0.750011  1
  Sn  Sn28  1  0.182548  0.458379  0.542256  1
  Sn  Sn29  1  0.817465  0.541606  0.457751  1
  Sn  Sn30  1  0.317419  0.958406  0.457726  1
  Sn  Sn31  1  0.817383  0.541721  0.042235  1
  Sn  Sn32  1  0.682550  0.041595  0.542287  1
  Sn  Sn33  1  0.182604  0.458498  0.957711  1
  Sn  Sn34  1  0.682390  0.041559  0.957664  1
  Sn  Sn35  1  0.317695  0.958267  0.042247  1
