# generated using pymatgen
data_Yb7Dy(Sc3Pt4)4
_symmetry_space_group_name_H-M   'P 1'
_cell_length_a   7.28827122
_cell_length_b   7.34296389
_cell_length_c   14.00954237
_cell_angle_alpha   89.92160156
_cell_angle_beta   89.98659299
_cell_angle_gamma   90.02474437
_symmetry_Int_Tables_number   1
_chemical_formula_structural   Yb7Dy(Sc3Pt4)4
_chemical_formula_sum   'Yb7 Dy1 Sc12 Pt16'
_cell_volume   749.75506516
_cell_formula_units_Z   1
loop_
 _symmetry_equiv_pos_site_id
 _symmetry_equiv_pos_as_xyz
  1  'x, y, z'
loop_
 _atom_site_type_symbol
 _atom_site_label
 _atom_site_symmetry_multiplicity
 _atom_site_fract_x
 _atom_site_fract_y
 _atom_site_fract_z
 _atom_site_occupancy
  Yb  Yb0  1  0.988898  0.824867  0.907236  1
  Yb  Yb1  1  0.512112  0.325165  0.093317  1
  Yb  Yb2  1  0.012392  0.175046  0.406256  1
  Yb  Yb3  1  0.512008  0.324499  0.406099  1
  Yb  Yb4  1  0.011735  0.175239  0.093326  1
  Yb  Yb5  1  0.487856  0.675018  0.906236  1
  Yb  Yb6  1  0.988318  0.825089  0.593316  1
  Dy  Dy7  1  0.488849  0.675825  0.594415  1
  Sc  Sc8  1  0.648432  0.167432  0.624166  1
  Sc  Sc9  1  0.148086  0.334295  0.875300  1
  Sc  Sc10  1  0.351459  0.833973  0.124199  1
  Sc  Sc11  1  0.851867  0.665406  0.375570  1
  Sc  Sc12  1  0.351221  0.834567  0.374318  1
  Sc  Sc13  1  0.851515  0.665514  0.124691  1
  Sc  Sc14  1  0.648793  0.166733  0.876060  1
  Sc  Sc15  1  0.147103  0.333689  0.625045  1
  Sc  Sc16  1  0.811692  0.505198  0.750625  1
  Sc  Sc17  1  0.310062  0.995808  0.750630  1
  Sc  Sc18  1  0.189477  0.494614  0.249981  1
  Sc  Sc19  1  0.689204  0.004992  0.249534  1
  Pt  Pt20  1  0.674609  0.953599  0.454346  1
  Pt  Pt21  1  0.175692  0.543016  0.047087  1
  Pt  Pt22  1  0.324710  0.043279  0.952799  1
  Pt  Pt23  1  0.819303  0.461679  0.546633  1
  Pt  Pt24  1  0.325401  0.039748  0.547181  1
  Pt  Pt25  1  0.824154  0.457230  0.952866  1
  Pt  Pt26  1  0.675806  0.956926  0.046857  1
  Pt  Pt27  1  0.180298  0.543373  0.456120  1
  Pt  Pt28  1  0.447289  0.371132  0.749202  1
  Pt  Pt29  1  0.945897  0.127759  0.750765  1
  Pt  Pt30  1  0.552630  0.628939  0.249686  1
  Pt  Pt31  1  0.051892  0.870707  0.249650  1
  Pt  Pt32  1  0.670844  0.863579  0.748146  1
  Pt  Pt33  1  0.172463  0.636138  0.748779  1
  Pt  Pt34  1  0.328403  0.134515  0.249448  1
  Pt  Pt35  1  0.829530  0.365412  0.250113  1
