# generated using pymatgen
data_NaSr3(InPt)4
_symmetry_space_group_name_H-M   'P 1'
_cell_length_a   4.53862100
_cell_length_b   7.66340695
_cell_length_c   8.49083787
_cell_angle_alpha   89.41209648
_cell_angle_beta   90.00000000
_cell_angle_gamma   90.00000000
_symmetry_Int_Tables_number   1
_chemical_formula_structural   NaSr3(InPt)4
_chemical_formula_sum   'Na1 Sr3 In4 Pt4'
_cell_volume   295.30683059
_cell_formula_units_Z   1
loop_
 _symmetry_equiv_pos_site_id
 _symmetry_equiv_pos_as_xyz
  1  'x, y, z'
loop_
 _atom_site_type_symbol
 _atom_site_label
 _atom_site_symmetry_multiplicity
 _atom_site_fract_x
 _atom_site_fract_y
 _atom_site_fract_z
 _atom_site_occupancy
  Na  Na0  1  0.750000  0.971334  0.678980  1
  Sr  Sr1  1  0.250000  0.025337  0.332137  1
  Sr  Sr2  1  0.750000  0.472251  0.819931  1
  Sr  Sr3  1  0.250000  0.527889  0.178204  1
  In  In4  1  0.750000  0.349028  0.435179  1
  In  In5  1  0.250000  0.141048  0.924830  1
  In  In6  1  0.250000  0.656081  0.570106  1
  In  In7  1  0.750000  0.854556  0.061443  1
  Pt  Pt8  1  0.250000  0.779446  0.879415  1
  Pt  Pt9  1  0.250000  0.285069  0.618692  1
  Pt  Pt10  1  0.750000  0.718505  0.379004  1
  Pt  Pt11  1  0.750000  0.219457  0.122079  1
