# generated using pymatgen
data_Y10IrRuRh4
_symmetry_space_group_name_H-M   'P 1'
_cell_length_a   10.93335238
_cell_length_b   10.91071100
_cell_length_c   6.43419522
_cell_angle_alpha   90.00000000
_cell_angle_beta   90.03006108
_cell_angle_gamma   90.00000000
_symmetry_Int_Tables_number   1
_chemical_formula_structural   Y10IrRuRh4
_chemical_formula_sum   'Y20 Ir2 Ru2 Rh8'
_cell_volume   767.53921192
_cell_formula_units_Z   2
loop_
 _symmetry_equiv_pos_site_id
 _symmetry_equiv_pos_as_xyz
  1  'x, y, z'
loop_
 _atom_site_type_symbol
 _atom_site_label
 _atom_site_symmetry_multiplicity
 _atom_site_fract_x
 _atom_site_fract_y
 _atom_site_fract_z
 _atom_site_occupancy
  Y  Y0  1  0.294886  0.088319  0.380604  1
  Y  Y1  1  0.294886  0.911681  0.880604  1
  Y  Y2  1  0.704553  0.085973  0.879262  1
  Y  Y3  1  0.704553  0.914027  0.379262  1
  Y  Y4  1  0.584247  0.793720  0.880097  1
  Y  Y5  1  0.584247  0.206280  0.380097  1
  Y  Y6  1  0.412189  0.794557  0.381160  1
  Y  Y7  1  0.412189  0.205443  0.881160  1
  Y  Y8  1  0.210616  0.412818  0.620339  1
  Y  Y9  1  0.210616  0.587182  0.120339  1
  Y  Y10  1  0.791255  0.410113  0.120665  1
  Y  Y11  1  0.791255  0.589887  0.620665  1
  Y  Y12  1  0.911648  0.708990  0.121228  1
  Y  Y13  1  0.911648  0.291010  0.621228  1
  Y  Y14  1  0.091710  0.708517  0.621322  1
  Y  Y15  1  0.091710  0.291483  0.121322  1
  Y  Y16  1  0.999973  0.999494  0.497295  1
  Y  Y17  1  0.999973  0.000506  0.997295  1
  Y  Y18  1  0.500090  0.499666  0.996729  1
  Y  Y19  1  0.500090  0.500334  0.496729  1
  Ir  Ir20  1  0.345784  0.347576  0.249369  1
  Ir  Ir21  1  0.345784  0.652424  0.749369  1
  Ru  Ru22  1  0.500446  0.999979  0.128193  1
  Ru  Ru23  1  0.500446  0.000021  0.628193  1
  Rh  Rh24  1  0.848510  0.154689  0.249609  1
  Rh  Rh25  1  0.848510  0.845311  0.749609  1
  Rh  Rh26  1  0.149779  0.154215  0.748862  1
  Rh  Rh27  1  0.149779  0.845785  0.248862  1
  Rh  Rh28  1  0.655935  0.349419  0.749088  1
  Rh  Rh29  1  0.655935  0.650581  0.249088  1
  Rh  Rh30  1  0.998377  0.499893  0.876182  1
  Rh  Rh31  1  0.998377  0.500107  0.376182  1
