# generated using pymatgen
data_Ho4TcOs7
_symmetry_space_group_name_H-M   'P 1'
_cell_length_a   5.31304648
_cell_length_b   5.31304581
_cell_length_c   8.81267300
_cell_angle_alpha   90.00000000
_cell_angle_beta   90.00000000
_cell_angle_gamma   119.23152100
_symmetry_Int_Tables_number   1
_chemical_formula_structural   Ho4TcOs7
_chemical_formula_sum   'Ho4 Tc1 Os7'
_cell_volume   217.08843701
_cell_formula_units_Z   1
loop_
 _symmetry_equiv_pos_site_id
 _symmetry_equiv_pos_as_xyz
  1  'x, y, z'
loop_
 _atom_site_type_symbol
 _atom_site_label
 _atom_site_symmetry_multiplicity
 _atom_site_fract_x
 _atom_site_fract_y
 _atom_site_fract_z
 _atom_site_occupancy
  Ho  Ho0  1  0.331736  0.668264  0.436174  1
  Ho  Ho1  1  0.666115  0.333885  0.565678  1
  Ho  Ho2  1  0.666115  0.333885  0.934322  1
  Ho  Ho3  1  0.331736  0.668264  0.063826  1
  Tc  Tc4  1  0.830113  0.169887  0.250000  1
  Os  Os5  1  0.996393  0.003607  0.500136  1
  Os  Os6  1  0.996393  0.003607  0.999864  1
  Os  Os7  1  0.826811  0.653013  0.250000  1
  Os  Os8  1  0.346987  0.173189  0.250000  1
  Os  Os9  1  0.176586  0.823414  0.750000  1
  Os  Os10  1  0.171393  0.340378  0.750000  1
  Os  Os11  1  0.659622  0.828607  0.750000  1
