# generated using pymatgen
data_Bi2PtPbO7
_symmetry_space_group_name_H-M   'P 1'
_cell_length_a   7.62464222
_cell_length_b   7.62464277
_cell_length_c   7.68997600
_cell_angle_alpha   59.71614277
_cell_angle_beta   59.71614035
_cell_angle_gamma   59.62076428
_symmetry_Int_Tables_number   1
_chemical_formula_structural   Bi2PtPbO7
_chemical_formula_sum   'Bi4 Pt2 Pb2 O14'
_cell_volume   313.85044401
_cell_formula_units_Z   2
loop_
 _symmetry_equiv_pos_site_id
 _symmetry_equiv_pos_as_xyz
  1  'x, y, z'
loop_
 _atom_site_type_symbol
 _atom_site_label
 _atom_site_symmetry_multiplicity
 _atom_site_fract_x
 _atom_site_fract_y
 _atom_site_fract_z
 _atom_site_occupancy
  Bi  Bi0  1  0.125000  0.125000  0.625000  1
  Bi  Bi1  1  0.125000  0.625000  0.125000  1
  Bi  Bi2  1  0.625000  0.125000  0.125000  1
  Bi  Bi3  1  0.125000  0.125000  0.125000  1
  Pt  Pt4  1  0.625000  0.125000  0.625000  1
  Pt  Pt5  1  0.125000  0.625000  0.625000  1
  Pb  Pb6  1  0.625000  0.625000  0.125000  1
  Pb  Pb7  1  0.625000  0.625000  0.625000  1
  O  O8  1  0.246086  0.246086  0.253914  1
  O  O9  1  0.003914  0.003914  0.996086  1
  O  O10  1  0.530598  0.976463  0.544782  1
  O  O11  1  0.273537  0.719402  0.301843  1
  O  O12  1  0.526090  0.526090  0.973910  1
  O  O13  1  0.976463  0.530598  0.544782  1
  O  O14  1  0.530598  0.976463  0.948157  1
  O  O15  1  0.952192  0.952192  0.547808  1
  O  O16  1  0.976463  0.530598  0.948157  1
  O  O17  1  0.719402  0.273537  0.301843  1
  O  O18  1  0.273537  0.719402  0.705218  1
  O  O19  1  0.719402  0.273537  0.705218  1
  O  O20  1  0.297808  0.297808  0.702192  1
  O  O21  1  0.723910  0.723910  0.276090  1
