# generated using pymatgen
data_Sc12Cd2Fe3
_symmetry_space_group_name_H-M   'P 1'
_cell_length_a   7.79034477
_cell_length_b   7.79034626
_cell_length_c   7.79034455
_cell_angle_alpha   108.05850657
_cell_angle_beta   108.05850730
_cell_angle_gamma   112.33516113
_symmetry_Int_Tables_number   1
_chemical_formula_structural   Sc12Cd2Fe3
_chemical_formula_sum   'Sc12 Cd2 Fe3'
_cell_volume   363.26975045
_cell_formula_units_Z   1
loop_
 _symmetry_equiv_pos_site_id
 _symmetry_equiv_pos_as_xyz
  1  'x, y, z'
loop_
 _atom_site_type_symbol
 _atom_site_label
 _atom_site_symmetry_multiplicity
 _atom_site_fract_x
 _atom_site_fract_y
 _atom_site_fract_z
 _atom_site_occupancy
  Sc  Sc0  1  0.306211  0.306211  0.612420  1
  Sc  Sc1  1  0.693789  0.693789  0.387580  1
  Sc  Sc2  1  0.693789  0.306211  0.000000  1
  Sc  Sc3  1  0.306211  0.693789  0.000000  1
  Sc  Sc4  1  0.190917  0.426183  0.235266  1
  Sc  Sc5  1  0.809083  0.573817  0.764734  1
  Sc  Sc6  1  0.190917  0.955651  0.764734  1
  Sc  Sc7  1  0.955651  0.190917  0.764734  1
  Sc  Sc8  1  0.809083  0.044349  0.235266  1
  Sc  Sc9  1  0.044349  0.809083  0.235266  1
  Sc  Sc10  1  0.426183  0.190917  0.235266  1
  Sc  Sc11  1  0.573817  0.809083  0.764734  1
  Cd  Cd12  1  0.000000  0.500000  0.500000  1
  Cd  Cd13  1  0.500000  0.000000  0.500000  1
  Fe  Fe14  1  0.377345  0.377345  0.000000  1
  Fe  Fe15  1  0.622655  0.622655  0.000000  1
  Fe  Fe16  1  0.000000  0.000000  0.000000  1
