# generated using pymatgen
data_ReIr8
_symmetry_space_group_name_H-M   'P 1'
_cell_length_a   6.12967817
_cell_length_b   6.12967834
_cell_length_c   6.12967728
_cell_angle_alpha   95.75012534
_cell_angle_beta   95.75012816
_cell_angle_gamma   143.09378444
_symmetry_Int_Tables_number   1
_chemical_formula_structural   ReIr8
_chemical_formula_sum   'Re1 Ir8'
_cell_volume   131.19170085
_cell_formula_units_Z   1
loop_
 _symmetry_equiv_pos_site_id
 _symmetry_equiv_pos_as_xyz
  1  'x, y, z'
loop_
 _atom_site_type_symbol
 _atom_site_label
 _atom_site_symmetry_multiplicity
 _atom_site_fract_x
 _atom_site_fract_y
 _atom_site_fract_z
 _atom_site_occupancy
  Re  Re0  1  0.000000  0.000000  0.000000  1
  Ir  Ir1  1  0.663132  0.336867  0.000000  1
  Ir  Ir2  1  0.336867  0.663132  0.000000  1
  Ir  Ir3  1  0.663132  0.663132  0.326265  1
  Ir  Ir4  1  0.330255  0.000000  0.330255  1
  Ir  Ir5  1  0.000000  0.330255  0.330255  1
  Ir  Ir6  1  0.669744  0.000000  0.669744  1
  Ir  Ir7  1  0.000000  0.669744  0.669744  1
  Ir  Ir8  1  0.336868  0.336868  0.673736  1
