# generated using pymatgen
data_Y7P12Pd15Pt2
_symmetry_space_group_name_H-M   'P 1'
_cell_length_a   12.30003517
_cell_length_b   12.30003495
_cell_length_c   13.57400650
_cell_angle_alpha   68.38289490
_cell_angle_beta   68.38289556
_cell_angle_gamma   18.78058270
_symmetry_Int_Tables_number   1
_chemical_formula_structural   Y7P12Pd15Pt2
_chemical_formula_sum   'Y7 P12 Pd15 Pt2'
_cell_volume   613.33093638
_cell_formula_units_Z   1
loop_
 _symmetry_equiv_pos_site_id
 _symmetry_equiv_pos_as_xyz
  1  'x, y, z'
loop_
 _atom_site_type_symbol
 _atom_site_label
 _atom_site_symmetry_multiplicity
 _atom_site_fract_x
 _atom_site_fract_y
 _atom_site_fract_z
 _atom_site_occupancy
  Y  Y0  1  0.500000  0.500000  0.500000  1
  Y  Y1  1  0.365121  0.365121  0.001058  1
  Y  Y2  1  0.634879  0.634879  0.998942  1
  Y  Y3  1  0.234029  0.234029  0.312967  1
  Y  Y4  1  0.765971  0.765971  0.687033  1
  Y  Y5  1  0.418316  0.418316  0.260921  1
  Y  Y6  1  0.581684  0.581684  0.739079  1
  P  P7  1  0.062199  0.062199  0.923461  1
  P  P8  1  0.937801  0.937801  0.076539  1
  P  P9  1  0.886782  0.886782  0.830193  1
  P  P10  1  0.113218  0.113218  0.169807  1
  P  P11  1  0.188591  0.188591  0.622330  1
  P  P12  1  0.811409  0.811409  0.377670  1
  P  P13  1  0.364458  0.364458  0.581905  1
  P  P14  1  0.635542  0.635542  0.418095  1
  P  P15  1  0.012263  0.012263  0.668096  1
  P  P16  1  0.987737  0.987737  0.331904  1
  P  P17  1  0.231418  0.231418  0.882116  1
  P  P18  1  0.768582  0.768582  0.117884  1
  Pd  Pd19  1  0.026442  0.026442  0.124002  1
  Pd  Pd20  1  0.973558  0.973558  0.875998  1
  Pd  Pd21  1  0.888772  0.888772  0.456204  1
  Pd  Pd22  1  0.111228  0.111228  0.543796  1
  Pd  Pd23  1  0.500000  0.500000  0.000000  1
  Pd  Pd24  1  0.545676  0.545676  0.254844  1
  Pd  Pd25  1  0.454324  0.454324  0.745156  1
  Pd  Pd26  1  0.295998  0.295998  0.489746  1
  Pd  Pd27  1  0.704002  0.704002  0.510254  1
  Pd  Pd28  1  0.667747  0.667747  0.224648  1
  Pd  Pd29  1  0.332253  0.332253  0.775352  1
  Pd  Pd30  1  0.909315  0.909315  0.641440  1
  Pd  Pd31  1  0.090685  0.090685  0.358560  1
  Pd  Pd32  1  0.216711  0.216711  0.068491  1
  Pd  Pd33  1  0.783289  0.783289  0.931509  1
  Pt  Pt34  1  0.839243  0.839243  0.194200  1
  Pt  Pt35  1  0.160757  0.160757  0.805800  1
