# generated using pymatgen
data_Sr4HoEr3(BO4)4
_symmetry_space_group_name_H-M   'P 1'
_cell_length_a   3.64665100
_cell_length_b   9.71271847
_cell_length_c   10.96376853
_cell_angle_alpha   89.96447574
_cell_angle_beta   90.00000000
_cell_angle_gamma   90.00000000
_symmetry_Int_Tables_number   1
_chemical_formula_structural   Sr4HoEr3(BO4)4
_chemical_formula_sum   'Sr4 Ho1 Er3 B4 O16'
_cell_volume   388.32448624
_cell_formula_units_Z   1
loop_
 _symmetry_equiv_pos_site_id
 _symmetry_equiv_pos_as_xyz
  1  'x, y, z'
loop_
 _atom_site_type_symbol
 _atom_site_label
 _atom_site_symmetry_multiplicity
 _atom_site_fract_x
 _atom_site_fract_y
 _atom_site_fract_z
 _atom_site_occupancy
  Sr  Sr0  1  0.250000  0.657840  0.084536  1
  Sr  Sr1  1  0.750000  0.342242  0.915292  1
  Sr  Sr2  1  0.750000  0.157955  0.415593  1
  Sr  Sr3  1  0.250000  0.842083  0.584579  1
  Ho  Ho4  1  0.250000  0.079929  0.109843  1
  Er  Er5  1  0.750000  0.920209  0.890134  1
  Er  Er6  1  0.750000  0.579678  0.390329  1
  Er  Er7  1  0.250000  0.420316  0.609684  1
  B  B8  1  0.250000  0.362723  0.204560  1
  B  B9  1  0.750000  0.637430  0.795555  1
  B  B10  1  0.750000  0.862378  0.295690  1
  B  B11  1  0.250000  0.137432  0.704469  1
  O  O12  1  0.250000  0.488022  0.265890  1
  O  O13  1  0.750000  0.512127  0.734092  1
  O  O14  1  0.750000  0.987849  0.234305  1
  O  O15  1  0.250000  0.012103  0.765891  1
  O  O16  1  0.250000  0.238172  0.268034  1
  O  O17  1  0.750000  0.762235  0.732495  1
  O  O18  1  0.750000  0.737753  0.232557  1
  O  O19  1  0.250000  0.262218  0.767436  1
  O  O20  1  0.250000  0.360084  0.076971  1
  O  O21  1  0.750000  0.639797  0.923128  1
  O  O22  1  0.750000  0.860006  0.423235  1
  O  O23  1  0.250000  0.139907  0.576855  1
  O  O24  1  0.250000  0.612801  0.499858  1
  O  O25  1  0.750000  0.387202  0.500136  1
  O  O26  1  0.750000  0.112880  0.999345  1
  O  O27  1  0.250000  0.886629  0.999507  1
