# generated using pymatgen
data_Lu4TcI4
_symmetry_space_group_name_H-M   'P 1'
_cell_length_a   11.46677784
_cell_length_b   11.46677572
_cell_length_c   6.10485710
_cell_angle_alpha   89.28842309
_cell_angle_beta   89.28841901
_cell_angle_gamma   89.70694350
_symmetry_Int_Tables_number   1
_chemical_formula_structural   Lu4TcI4
_chemical_formula_sum   'Lu8 Tc2 I8'
_cell_volume   802.57547814
_cell_formula_units_Z   2
loop_
 _symmetry_equiv_pos_site_id
 _symmetry_equiv_pos_as_xyz
  1  'x, y, z'
loop_
 _atom_site_type_symbol
 _atom_site_label
 _atom_site_symmetry_multiplicity
 _atom_site_fract_x
 _atom_site_fract_y
 _atom_site_fract_z
 _atom_site_occupancy
  Lu  Lu0  1  0.810706  0.078402  0.003132  1
  Lu  Lu1  1  0.078402  0.810706  0.503132  1
  Lu  Lu2  1  0.077471  0.189098  0.990825  1
  Lu  Lu3  1  0.189098  0.077471  0.490825  1
  Lu  Lu4  1  0.922529  0.810902  0.009175  1
  Lu  Lu5  1  0.921598  0.189294  0.496868  1
  Lu  Lu6  1  0.189294  0.921598  0.996868  1
  Lu  Lu7  1  0.810902  0.922529  0.509175  1
  Tc  Tc8  1  0.999898  0.000102  0.250000  1
  Tc  Tc9  1  0.000102  0.999898  0.750000  1
  I  I10  1  0.651174  0.146177  0.498860  1
  I  I11  1  0.854344  0.652699  0.486000  1
  I  I12  1  0.347301  0.145656  0.014000  1
  I  I13  1  0.145656  0.347301  0.514000  1
  I  I14  1  0.652699  0.854344  0.986000  1
  I  I15  1  0.348826  0.853823  0.501140  1
  I  I16  1  0.146177  0.651174  0.998860  1
  I  I17  1  0.853823  0.348826  0.001140  1
