# generated using pymatgen
data_Er2Zn14Ru3
_symmetry_space_group_name_H-M   'P 1'
_cell_length_a   6.81180027
_cell_length_b   6.81180094
_cell_length_c   6.81180092
_cell_angle_alpha   81.72533189
_cell_angle_beta   98.27467117
_cell_angle_gamma   98.27466704
_symmetry_Int_Tables_number   1
_chemical_formula_structural   Er2Zn14Ru3
_chemical_formula_sum   'Er2 Zn14 Ru3'
_cell_volume   307.06571403
_cell_formula_units_Z   1
loop_
 _symmetry_equiv_pos_site_id
 _symmetry_equiv_pos_as_xyz
  1  'x, y, z'
loop_
 _atom_site_type_symbol
 _atom_site_label
 _atom_site_symmetry_multiplicity
 _atom_site_fract_x
 _atom_site_fract_y
 _atom_site_fract_z
 _atom_site_occupancy
  Er  Er0  1  0.681075  0.318924  0.318924  1
  Er  Er1  1  0.318924  0.681076  0.681076  1
  Zn  Zn2  1  0.294062  0.294061  0.000000  1
  Zn  Zn3  1  0.705939  0.705939  0.000000  1
  Zn  Zn4  1  0.899444  0.100556  0.100555  1
  Zn  Zn5  1  0.353035  0.646965  0.159040  1
  Zn  Zn6  1  0.294061  0.000000  0.294061  1
  Zn  Zn7  1  0.000000  0.705939  0.294062  1
  Zn  Zn8  1  0.646965  0.840960  0.353034  1
  Zn  Zn9  1  0.159040  0.353035  0.353035  1
  Zn  Zn10  1  0.353034  0.159040  0.646965  1
  Zn  Zn11  1  0.840960  0.646965  0.646965  1
  Zn  Zn12  1  0.705938  0.000000  0.705938  1
  Zn  Zn13  1  0.000000  0.294061  0.705939  1
  Zn  Zn14  1  0.646965  0.353035  0.840960  1
  Zn  Zn15  1  0.100555  0.899445  0.899444  1
  Ru  Ru16  1  0.000000  0.500000  0.999999  1
  Ru  Ru17  1  0.499999  0.000000  0.000000  1
  Ru  Ru18  1  0.000000  0.000000  0.500000  1
