# generated using pymatgen
data_LiEr2Si(PPd4)5
_symmetry_space_group_name_H-M   'P 1'
_cell_length_a   8.62177942
_cell_length_b   8.63050422
_cell_length_c   8.63050425
_cell_angle_alpha   59.93312160
_cell_angle_beta   60.03343472
_cell_angle_gamma   60.03343631
_symmetry_Int_Tables_number   1
_chemical_formula_structural   LiEr2Si(PPd4)5
_chemical_formula_sum   'Li1 Er2 Si1 P5 Pd20'
_cell_volume   454.10192088
_cell_formula_units_Z   1
loop_
 _symmetry_equiv_pos_site_id
 _symmetry_equiv_pos_as_xyz
  1  'x, y, z'
loop_
 _atom_site_type_symbol
 _atom_site_label
 _atom_site_symmetry_multiplicity
 _atom_site_fract_x
 _atom_site_fract_y
 _atom_site_fract_z
 _atom_site_occupancy
  Li  Li0  1  0.998968  0.001032  0.001032  1
  Er  Er1  1  0.751092  0.748908  0.748908  1
  Er  Er2  1  0.251092  0.248908  0.248908  1
  Si  Si3  1  0.737288  0.262712  0.262712  1
  P  P4  1  0.739739  0.737762  0.260261  1
  P  P5  1  0.739739  0.260261  0.737762  1
  P  P6  1  0.262238  0.737762  0.260261  1
  P  P7  1  0.261716  0.738284  0.738284  1
  P  P8  1  0.262238  0.260261  0.737762  1
  Pd  Pd9  1  0.343242  0.001431  0.001431  1
  Pd  Pd10  1  0.998569  0.656758  0.346105  1
  Pd  Pd11  1  0.345065  0.000179  0.654935  1
  Pd  Pd12  1  0.999821  0.654935  0.000179  1
  Pd  Pd13  1  0.654242  0.345758  0.998061  1
  Pd  Pd14  1  0.615312  0.617687  0.151688  1
  Pd  Pd15  1  0.384559  0.846856  0.384027  1
  Pd  Pd16  1  0.153144  0.615441  0.615441  1
  Pd  Pd17  1  0.654242  0.998061  0.345758  1
  Pd  Pd18  1  0.998569  0.346105  0.656758  1
  Pd  Pd19  1  0.653895  0.001431  0.001431  1
  Pd  Pd20  1  0.001939  0.998061  0.345758  1
  Pd  Pd21  1  0.615312  0.151688  0.617687  1
  Pd  Pd22  1  0.345065  0.654935  0.000179  1
  Pd  Pd23  1  0.382313  0.384688  0.384688  1
  Pd  Pd24  1  0.615973  0.615441  0.615441  1
  Pd  Pd25  1  0.384559  0.384027  0.846856  1
  Pd  Pd26  1  0.999821  0.000179  0.654935  1
  Pd  Pd27  1  0.848312  0.384688  0.384688  1
  Pd  Pd28  1  0.001939  0.345758  0.998061  1
