# generated using pymatgen
data_Ac11Cd9Pt4
_symmetry_space_group_name_H-M   'P 1'
_cell_length_a   14.22466130
_cell_length_b   14.22466293
_cell_length_c   4.02280000
_cell_angle_alpha   90.00000000
_cell_angle_beta   90.00000000
_cell_angle_gamma   112.25780562
_symmetry_Int_Tables_number   1
_chemical_formula_structural   Ac11Cd9Pt4
_chemical_formula_sum   'Ac11 Cd9 Pt4'
_cell_volume   753.32707966
_cell_formula_units_Z   1
loop_
 _symmetry_equiv_pos_site_id
 _symmetry_equiv_pos_as_xyz
  1  'x, y, z'
loop_
 _atom_site_type_symbol
 _atom_site_label
 _atom_site_symmetry_multiplicity
 _atom_site_fract_x
 _atom_site_fract_y
 _atom_site_fract_z
 _atom_site_occupancy
  Ac  Ac0  1  0.419350  0.080356  0.000000  1
  Ac  Ac1  1  0.580650  0.919644  0.000000  1
  Ac  Ac2  1  0.080356  0.419350  0.000000  1
  Ac  Ac3  1  0.919644  0.580650  0.000000  1
  Ac  Ac4  1  0.164815  0.835185  0.000000  1
  Ac  Ac5  1  0.835185  0.164815  0.000000  1
  Ac  Ac6  1  0.373838  0.626162  0.000000  1
  Ac  Ac7  1  0.626162  0.373838  0.000000  1
  Ac  Ac8  1  0.309302  0.309302  0.000000  1
  Ac  Ac9  1  0.690698  0.690698  0.000000  1
  Ac  Ac10  1  0.000000  0.000000  0.000000  1
  Cd  Cd11  1  0.363241  0.838115  0.500000  1
  Cd  Cd12  1  0.636759  0.161885  0.500000  1
  Cd  Cd13  1  0.838115  0.363241  0.500000  1
  Cd  Cd14  1  0.161885  0.636759  0.500000  1
  Cd  Cd15  1  0.212802  0.070385  0.500000  1
  Cd  Cd16  1  0.787198  0.929615  0.500000  1
  Cd  Cd17  1  0.070385  0.212802  0.500000  1
  Cd  Cd18  1  0.929615  0.787198  0.500000  1
  Cd  Cd19  1  0.500000  0.500000  0.500000  1
  Pt  Pt20  1  0.451459  0.252075  0.500000  1
  Pt  Pt21  1  0.548541  0.747925  0.500000  1
  Pt  Pt22  1  0.252075  0.451459  0.500000  1
  Pt  Pt23  1  0.747925  0.548541  0.500000  1
