# generated using pymatgen
data_Y9Th3(Si2Ni)4
_symmetry_space_group_name_H-M   'P 1'
_cell_length_a   4.17937000
_cell_length_b   11.53454706
_cell_length_c   11.31772571
_cell_angle_alpha   89.63407364
_cell_angle_beta   90.00000000
_cell_angle_gamma   90.00000000
_symmetry_Int_Tables_number   1
_chemical_formula_structural   Y9Th3(Si2Ni)4
_chemical_formula_sum   'Y9 Th3 Si8 Ni4'
_cell_volume   545.58406034
_cell_formula_units_Z   1
loop_
 _symmetry_equiv_pos_site_id
 _symmetry_equiv_pos_as_xyz
  1  'x, y, z'
loop_
 _atom_site_type_symbol
 _atom_site_label
 _atom_site_symmetry_multiplicity
 _atom_site_fract_x
 _atom_site_fract_y
 _atom_site_fract_z
 _atom_site_occupancy
  Y  Y0  1  0.750000  0.559426  0.616136  1
  Y  Y1  1  0.250000  0.120686  0.562611  1
  Y  Y2  1  0.250000  0.379415  0.060423  1
  Y  Y3  1  0.750000  0.875076  0.438526  1
  Y  Y4  1  0.750000  0.622129  0.936249  1
  Y  Y5  1  0.250000  0.802295  0.708836  1
  Y  Y6  1  0.250000  0.692424  0.209543  1
  Y  Y7  1  0.750000  0.197065  0.291936  1
  Y  Y8  1  0.750000  0.310855  0.791153  1
  Th  Th9  1  0.250000  0.061190  0.883891  1
  Th  Th10  1  0.250000  0.439400  0.386547  1
  Th  Th11  1  0.750000  0.940034  0.115873  1
  Si  Si12  1  0.250000  0.806398  0.970169  1
  Si  Si13  1  0.250000  0.689409  0.471385  1
  Si  Si14  1  0.750000  0.194432  0.029400  1
  Si  Si15  1  0.750000  0.308615  0.532669  1
  Si  Si16  1  0.250000  0.494307  0.800938  1
  Si  Si17  1  0.250000  0.014164  0.307751  1
  Si  Si18  1  0.750000  0.509143  0.193859  1
  Si  Si19  1  0.750000  0.985055  0.692798  1
  Ni  Ni20  1  0.250000  0.363105  0.629797  1
  Ni  Ni21  1  0.250000  0.135520  0.129370  1
  Ni  Ni22  1  0.750000  0.633025  0.368276  1
  Ni  Ni23  1  0.750000  0.866829  0.871866  1
