# generated using pymatgen
data_YLuBe2Co5
_symmetry_space_group_name_H-M   'P 1'
_cell_length_a   4.93967131
_cell_length_b   4.93967074
_cell_length_c   11.46061156
_cell_angle_alpha   77.55476341
_cell_angle_beta   77.55476490
_cell_angle_gamma   59.99999027
_symmetry_Int_Tables_number   1
_chemical_formula_structural   YLuBe2Co5
_chemical_formula_sum   'Y2 Lu2 Be4 Co10'
_cell_volume   234.55972977
_cell_formula_units_Z   2
loop_
 _symmetry_equiv_pos_site_id
 _symmetry_equiv_pos_as_xyz
  1  'x, y, z'
loop_
 _atom_site_type_symbol
 _atom_site_label
 _atom_site_symmetry_multiplicity
 _atom_site_fract_x
 _atom_site_fract_y
 _atom_site_fract_z
 _atom_site_occupancy
  Y  Y0  1  0.949194  0.949194  0.152416  1
  Y  Y1  1  0.050806  0.050806  0.847584  1
  Lu  Lu2  1  0.851659  0.851659  0.445021  1
  Lu  Lu3  1  0.148341  0.148341  0.554980  1
  Be  Be4  1  0.719031  0.719031  0.842908  1
  Be  Be5  1  0.280969  0.280969  0.157092  1
  Be  Be6  1  0.613785  0.613785  0.158648  1
  Be  Be7  1  0.386215  0.386215  0.841352  1
  Co  Co8  1  0.500000  0.500000  0.500000  1
  Co  Co9  1  0.000000  0.500000  0.000000  1
  Co  Co10  1  0.500000  0.000000  0.000000  1
  Co  Co11  1  0.500000  0.500000  0.000000  1
  Co  Co12  1  0.393398  0.393398  0.318003  1
  Co  Co13  1  0.895201  0.393398  0.318003  1
  Co  Co14  1  0.393398  0.895201  0.318003  1
  Co  Co15  1  0.606602  0.606602  0.681997  1
  Co  Co16  1  0.104799  0.606602  0.681997  1
  Co  Co17  1  0.606602  0.104799  0.681997  1
