# generated using pymatgen
data_Tm8Ta11Si16Os
_symmetry_space_group_name_H-M   'P 1'
_cell_length_a   6.76316353
_cell_length_b   7.00891707
_cell_length_c   13.24717600
_cell_angle_alpha   90.00000000
_cell_angle_beta   90.00000000
_cell_angle_gamma   89.86724515
_symmetry_Int_Tables_number   1
_chemical_formula_structural   Tm8Ta11Si16Os
_chemical_formula_sum   'Tm8 Ta11 Si16 Os1'
_cell_volume   627.94694314
_cell_formula_units_Z   1
loop_
 _symmetry_equiv_pos_site_id
 _symmetry_equiv_pos_as_xyz
  1  'x, y, z'
loop_
 _atom_site_type_symbol
 _atom_site_label
 _atom_site_symmetry_multiplicity
 _atom_site_fract_x
 _atom_site_fract_y
 _atom_site_fract_z
 _atom_site_occupancy
  Tm  Tm0  1  0.004115  0.172709  0.095076  1
  Tm  Tm1  1  0.996619  0.828648  0.905963  1
  Tm  Tm2  1  0.498973  0.672975  0.905657  1
  Tm  Tm3  1  0.996619  0.828648  0.594037  1
  Tm  Tm4  1  0.504013  0.328203  0.094763  1
  Tm  Tm5  1  0.004115  0.172709  0.404924  1
  Tm  Tm6  1  0.504013  0.328203  0.405237  1
  Tm  Tm7  1  0.498973  0.672975  0.594343  1
  Ta  Ta8  1  0.840742  0.509818  0.250000  1
  Ta  Ta9  1  0.341305  0.991553  0.250000  1
  Ta  Ta10  1  0.658439  0.006813  0.750000  1
  Ta  Ta11  1  0.331358  0.169088  0.626672  1
  Ta  Ta12  1  0.666961  0.826732  0.374947  1
  Ta  Ta13  1  0.166219  0.672281  0.376374  1
  Ta  Ta14  1  0.666961  0.826732  0.125053  1
  Ta  Ta15  1  0.831340  0.327840  0.626810  1
  Ta  Ta16  1  0.331358  0.169088  0.873328  1
  Ta  Ta17  1  0.831340  0.327840  0.873190  1
  Ta  Ta18  1  0.166219  0.672281  0.123626  1
  Si  Si19  1  0.037175  0.118765  0.750000  1
  Si  Si20  1  0.965531  0.881580  0.250000  1
  Si  Si21  1  0.463755  0.619218  0.250000  1
  Si  Si22  1  0.526272  0.383330  0.750000  1
  Si  Si23  1  0.291200  0.861291  0.750000  1
  Si  Si24  1  0.708232  0.131633  0.250000  1
  Si  Si25  1  0.208639  0.369340  0.250000  1
  Si  Si26  1  0.800725  0.630182  0.750000  1
  Si  Si27  1  0.164020  0.462161  0.544130  1
  Si  Si28  1  0.835324  0.536486  0.459941  1
  Si  Si29  1  0.335490  0.963561  0.458665  1
  Si  Si30  1  0.835324  0.536486  0.040059  1
  Si  Si31  1  0.663603  0.036547  0.541478  1
  Si  Si32  1  0.164020  0.462161  0.955870  1
  Si  Si33  1  0.663603  0.036547  0.958522  1
  Si  Si34  1  0.335490  0.963561  0.041335  1
  Os  Os35  1  0.161915  0.502020  0.750000  1
