# generated using pymatgen
data_Sc2CrFe11P7
_symmetry_space_group_name_H-M   'P 1'
_cell_length_a   8.90097183
_cell_length_b   8.93176293
_cell_length_c   3.57849900
_cell_angle_alpha   90.00000000
_cell_angle_beta   90.00000000
_cell_angle_gamma   120.36616689
_symmetry_Int_Tables_number   1
_chemical_formula_structural   Sc2CrFe11P7
_chemical_formula_sum   'Sc2 Cr1 Fe11 P7'
_cell_volume   245.46628956
_cell_formula_units_Z   1
loop_
 _symmetry_equiv_pos_site_id
 _symmetry_equiv_pos_as_xyz
  1  'x, y, z'
loop_
 _atom_site_type_symbol
 _atom_site_label
 _atom_site_symmetry_multiplicity
 _atom_site_fract_x
 _atom_site_fract_y
 _atom_site_fract_z
 _atom_site_occupancy
  Sc  Sc0  1  0.002621  0.998842  0.000000  1
  Sc  Sc1  1  0.664993  0.333594  0.500000  1
  Cr  Cr2  1  0.451561  0.883570  0.500000  1
  Fe  Fe3  1  0.390704  0.296833  0.000000  1
  Fe  Fe4  1  0.904131  0.609749  0.000000  1
  Fe  Fe5  1  0.709266  0.097175  0.000000  1
  Fe  Fe6  1  0.609036  0.785076  0.000000  1
  Fe  Fe7  1  0.172023  0.386728  0.000000  1
  Fe  Fe8  1  0.213734  0.821839  0.000000  1
  Fe  Fe9  1  0.768997  0.715564  0.500000  1
  Fe  Fe10  1  0.947141  0.232439  0.500000  1
  Fe  Fe11  1  0.283757  0.052572  0.500000  1
  Fe  Fe12  1  0.428260  0.546117  0.500000  1
  Fe  Fe13  1  0.115714  0.571575  0.500000  1
  P  P14  1  0.629936  0.549352  0.000000  1
  P  P15  1  0.918490  0.375160  0.000000  1
  P  P16  1  0.450346  0.083460  0.000000  1
  P  P17  1  0.745404  0.953364  0.500000  1
  P  P18  1  0.218889  0.260325  0.500000  1
  P  P19  1  0.045047  0.784490  0.500000  1
  P  P20  1  0.329949  0.662175  0.000000  1
