# generated using pymatgen
data_Tb8Zn(Pd11Au)2
_symmetry_space_group_name_H-M   'P 1'
_cell_length_a   8.33038600
_cell_length_b   8.42618400
_cell_length_c   8.42525200
_cell_angle_alpha   90.00000000
_cell_angle_beta   90.00000000
_cell_angle_gamma   90.00000000
_symmetry_Int_Tables_number   1
_chemical_formula_structural   Tb8Zn(Pd11Au)2
_chemical_formula_sum   'Tb8 Zn1 Pd22 Au2'
_cell_volume   591.39679077
_cell_formula_units_Z   1
loop_
 _symmetry_equiv_pos_site_id
 _symmetry_equiv_pos_as_xyz
  1  'x, y, z'
loop_
 _atom_site_type_symbol
 _atom_site_label
 _atom_site_symmetry_multiplicity
 _atom_site_fract_x
 _atom_site_fract_y
 _atom_site_fract_z
 _atom_site_occupancy
  Tb  Tb0  1  0.251374  0.243684  0.250764  1
  Tb  Tb1  1  0.747998  0.747553  0.748868  1
  Tb  Tb2  1  0.747998  0.747553  0.251132  1
  Tb  Tb3  1  0.747998  0.252447  0.748868  1
  Tb  Tb4  1  0.251374  0.243684  0.749236  1
  Tb  Tb5  1  0.251374  0.756316  0.250764  1
  Tb  Tb6  1  0.251374  0.756316  0.749236  1
  Tb  Tb7  1  0.747998  0.252447  0.251132  1
  Zn  Zn8  1  0.999865  0.000000  0.000000  1
  Pd  Pd9  1  0.740135  0.500000  0.000000  1
  Pd  Pd10  1  0.000407  0.260413  0.500000  1
  Pd  Pd11  1  0.500161  0.260030  0.000000  1
  Pd  Pd12  1  0.000407  0.739587  0.500000  1
  Pd  Pd13  1  0.500161  0.739970  0.000000  1
  Pd  Pd14  1  0.501065  0.000000  0.260319  1
  Pd  Pd15  1  0.260493  0.000000  0.500000  1
  Pd  Pd16  1  0.501065  0.000000  0.739681  1
  Pd  Pd17  1  0.739114  0.000000  0.500000  1
  Pd  Pd18  1  0.001418  0.500000  0.259347  1
  Pd  Pd19  1  0.001418  0.500000  0.740653  1
  Pd  Pd20  1  0.747633  0.500000  0.500000  1
  Pd  Pd21  1  0.499664  0.252812  0.500000  1
  Pd  Pd22  1  0.499664  0.747188  0.500000  1
  Pd  Pd23  1  0.498803  0.500000  0.253016  1
  Pd  Pd24  1  0.498803  0.500000  0.746984  1
  Pd  Pd25  1  0.294691  0.000000  0.000000  1
  Pd  Pd26  1  0.705705  0.000000  0.000000  1
  Pd  Pd27  1  0.000017  0.291975  0.000000  1
  Pd  Pd28  1  0.000017  0.708025  0.000000  1
  Pd  Pd29  1  0.998442  0.000000  0.293298  1
  Pd  Pd30  1  0.998442  0.000000  0.706702  1
  Au  Au31  1  0.261494  0.500000  0.000000  1
  Au  Au32  1  0.253425  0.500000  0.500000  1
