# generated using pymatgen
data_PSe27
_symmetry_space_group_name_H-M   'P 1'
_cell_length_a   16.28081196
_cell_length_b   16.28073742
_cell_length_c   16.28072000
_cell_angle_alpha   118.77888981
_cell_angle_beta   118.77253046
_cell_angle_gamma   118.77794919
_symmetry_Int_Tables_number   1
_chemical_formula_structural   PSe27
_chemical_formula_sum   'P1 Se27'
_cell_volume   1233.22114003
_cell_formula_units_Z   1
loop_
 _symmetry_equiv_pos_site_id
 _symmetry_equiv_pos_as_xyz
  1  'x, y, z'
loop_
 _atom_site_type_symbol
 _atom_site_label
 _atom_site_symmetry_multiplicity
 _atom_site_fract_x
 _atom_site_fract_y
 _atom_site_fract_z
 _atom_site_occupancy
  P  P0  1  0.064537  0.064563  0.064546  1
  Se  Se1  1  0.007989  0.614880  0.614887  1
  Se  Se2  1  0.614894  0.614886  0.007989  1
  Se  Se3  1  0.614851  0.007947  0.614853  1
  Se  Se4  1  0.245213  0.866063  0.730377  1
  Se  Se5  1  0.866061  0.730391  0.245217  1
  Se  Se6  1  0.730352  0.245200  0.866042  1
  Se  Se7  1  0.866038  0.245203  0.730362  1
  Se  Se8  1  0.245221  0.730393  0.866064  1
  Se  Se9  1  0.730356  0.866050  0.245196  1
  Se  Se10  1  0.090052  0.625650  0.433452  1
  Se  Se11  1  0.625651  0.433440  0.090033  1
  Se  Se12  1  0.433428  0.090017  0.625645  1
  Se  Se13  1  0.625654  0.090028  0.433442  1
  Se  Se14  1  0.090049  0.433448  0.625659  1
  Se  Se15  1  0.433441  0.625644  0.090040  1
  Se  Se16  1  0.367167  0.753802  0.617195  1
  Se  Se17  1  0.753809  0.617227  0.367170  1
  Se  Se18  1  0.617185  0.367157  0.753802  1
  Se  Se19  1  0.753807  0.367168  0.617212  1
  Se  Se20  1  0.367159  0.617195  0.753792  1
  Se  Se21  1  0.617208  0.753821  0.367178  1
  Se  Se22  1  0.184242  0.456132  0.456137  1
  Se  Se23  1  0.456150  0.456150  0.184249  1
  Se  Se24  1  0.456149  0.184237  0.456154  1
  Se  Se25  1  0.150088  0.020169  0.020159  1
  Se  Se26  1  0.020173  0.020179  0.150061  1
  Se  Se27  1  0.020176  0.150063  0.020188  1
