# generated using pymatgen
data_Rb2Te6Pd3Pt
_symmetry_space_group_name_H-M   'P 1'
_cell_length_a   8.48262607
_cell_length_b   8.48262686
_cell_length_c   8.48262594
_cell_angle_alpha   56.61780670
_cell_angle_beta   56.61779788
_cell_angle_gamma   56.61781233
_symmetry_Int_Tables_number   1
_chemical_formula_structural   Rb2Te6Pd3Pt
_chemical_formula_sum   'Rb2 Te6 Pd3 Pt1'
_cell_volume   397.87377850
_cell_formula_units_Z   1
loop_
 _symmetry_equiv_pos_site_id
 _symmetry_equiv_pos_as_xyz
  1  'x, y, z'
loop_
 _atom_site_type_symbol
 _atom_site_label
 _atom_site_symmetry_multiplicity
 _atom_site_fract_x
 _atom_site_fract_y
 _atom_site_fract_z
 _atom_site_occupancy
  Rb  Rb0  1  0.795276  0.795276  0.795276  1
  Rb  Rb1  1  0.204724  0.204724  0.204724  1
  Te  Te2  1  0.767910  0.767910  0.278908  1
  Te  Te3  1  0.278908  0.767910  0.767910  1
  Te  Te4  1  0.767910  0.278908  0.767910  1
  Te  Te5  1  0.721092  0.232090  0.232090  1
  Te  Te6  1  0.232090  0.232090  0.721092  1
  Te  Te7  1  0.232090  0.721092  0.232090  1
  Pd  Pd8  1  0.500000  0.500000  0.000000  1
  Pd  Pd9  1  0.500000  0.000000  0.500000  1
  Pd  Pd10  1  0.000000  0.500000  0.500000  1
  Pt  Pt11  1  0.000000  0.000000  0.000000  1
