# generated using pymatgen
data_Tb3Er(GaNi)4
_symmetry_space_group_name_H-M   'P 1'
_cell_length_a   4.30319300
_cell_length_b   6.84159905
_cell_length_c   7.36095991
_cell_angle_alpha   88.75441122
_cell_angle_beta   90.00000000
_cell_angle_gamma   90.00000000
_symmetry_Int_Tables_number   1
_chemical_formula_structural   Tb3Er(GaNi)4
_chemical_formula_sum   'Tb3 Er1 Ga4 Ni4'
_cell_volume   216.66075986
_cell_formula_units_Z   1
loop_
 _symmetry_equiv_pos_site_id
 _symmetry_equiv_pos_as_xyz
  1  'x, y, z'
loop_
 _atom_site_type_symbol
 _atom_site_label
 _atom_site_symmetry_multiplicity
 _atom_site_fract_x
 _atom_site_fract_y
 _atom_site_fract_z
 _atom_site_occupancy
  Tb  Tb0  1  0.250000  0.521004  0.697266  1
  Tb  Tb1  1  0.750000  0.981161  0.195153  1
  Tb  Tb2  1  0.750000  0.479361  0.303712  1
  Er  Er3  1  0.250000  0.019588  0.801969  1
  Ga  Ga4  1  0.250000  0.176246  0.423809  1
  Ga  Ga5  1  0.250000  0.678444  0.077469  1
  Ga  Ga6  1  0.750000  0.825452  0.578586  1
  Ga  Ga7  1  0.750000  0.321587  0.921685  1
  Ni  Ni8  1  0.250000  0.790145  0.404817  1
  Ni  Ni9  1  0.250000  0.285875  0.091781  1
  Ni  Ni10  1  0.750000  0.209684  0.597929  1
  Ni  Ni11  1  0.750000  0.711453  0.905825  1
