# generated using pymatgen
data_Sm2HoEr3Ta2O14
_symmetry_space_group_name_H-M   'P 1'
_cell_length_a   6.45504145
_cell_length_b   6.45652061
_cell_length_c   7.54672500
_cell_angle_alpha   90.00000000
_cell_angle_beta   90.00000000
_cell_angle_gamma   109.34054586
_symmetry_Int_Tables_number   1
_chemical_formula_structural   Sm2HoEr3Ta2O14
_chemical_formula_sum   'Sm2 Ho1 Er3 Ta2 O14'
_cell_volume   296.77599122
_cell_formula_units_Z   1
loop_
 _symmetry_equiv_pos_site_id
 _symmetry_equiv_pos_as_xyz
  1  'x, y, z'
loop_
 _atom_site_type_symbol
 _atom_site_label
 _atom_site_symmetry_multiplicity
 _atom_site_fract_x
 _atom_site_fract_y
 _atom_site_fract_z
 _atom_site_occupancy
  Sm  Sm0  1  0.500354  0.500186  0.499822  1
  Sm  Sm1  1  0.500354  0.500186  0.000178  1
  Ho  Ho2  1  0.999034  0.466261  0.750000  1
  Er  Er3  1  0.533288  0.001269  0.750000  1
  Er  Er4  1  0.001172  0.533558  0.250000  1
  Er  Er5  1  0.466638  0.998711  0.250000  1
  Ta  Ta6  1  0.999976  0.000078  0.499791  1
  Ta  Ta7  1  0.999976  0.000078  0.000209  1
  O  O8  1  0.677855  0.929939  0.467159  1
  O  O9  1  0.929070  0.677794  0.531951  1
  O  O10  1  0.677855  0.929939  0.032841  1
  O  O11  1  0.929070  0.677794  0.968049  1
  O  O12  1  0.321964  0.070094  0.532816  1
  O  O13  1  0.070482  0.321898  0.466569  1
  O  O14  1  0.321964  0.070094  0.967184  1
  O  O15  1  0.070482  0.321898  0.033431  1
  O  O16  1  0.933538  0.065962  0.750000  1
  O  O17  1  0.066662  0.933637  0.250000  1
  O  O18  1  0.366181  0.636046  0.750000  1
  O  O19  1  0.635308  0.364529  0.250000  1
  O  O20  1  0.640922  0.357752  0.750000  1
  O  O21  1  0.357854  0.642294  0.250000  1
