# generated using pymatgen
data_Hg3IrRh3PbO14
_symmetry_space_group_name_H-M   'P 1'
_cell_length_a   7.26065863
_cell_length_b   7.34775916
_cell_length_c   7.26065800
_cell_angle_alpha   60.39136224
_cell_angle_beta   60.00000286
_cell_angle_gamma   60.39136648
_symmetry_Int_Tables_number   1
_chemical_formula_structural   Hg3IrRh3PbO14
_chemical_formula_sum   'Hg3 Ir1 Rh3 Pb1 O14'
_cell_volume   275.50901188
_cell_formula_units_Z   1
loop_
 _symmetry_equiv_pos_site_id
 _symmetry_equiv_pos_as_xyz
  1  'x, y, z'
loop_
 _atom_site_type_symbol
 _atom_site_label
 _atom_site_symmetry_multiplicity
 _atom_site_fract_x
 _atom_site_fract_y
 _atom_site_fract_z
 _atom_site_occupancy
  Hg  Hg0  1  0.625000  0.125000  0.125000  1
  Hg  Hg1  1  0.125000  0.125000  0.625000  1
  Hg  Hg2  1  0.125000  0.125000  0.125000  1
  Ir  Ir3  1  0.625000  0.125000  0.625000  1
  Rh  Rh4  1  0.125000  0.625000  0.625000  1
  Rh  Rh5  1  0.625000  0.625000  0.125000  1
  Rh  Rh6  1  0.625000  0.625000  0.625000  1
  Pb  Pb7  1  0.125000  0.625000  0.125000  1
  O  O8  1  0.710360  0.694725  0.297457  1
  O  O9  1  0.307124  0.302644  0.695116  1
  O  O10  1  0.695116  0.302644  0.695116  1
  O  O11  1  0.297457  0.694725  0.297457  1
  O  O12  1  0.297457  0.694725  0.710360  1
  O  O13  1  0.695116  0.302644  0.307124  1
  O  O14  1  0.539640  0.555275  0.952543  1
  O  O15  1  0.942876  0.947356  0.554884  1
  O  O16  1  0.554884  0.947356  0.554884  1
  O  O17  1  0.952543  0.555275  0.952543  1
  O  O18  1  0.952543  0.555275  0.539640  1
  O  O19  1  0.554884  0.947356  0.942876  1
  O  O20  1  0.256109  0.231675  0.256109  1
  O  O21  1  0.993891  0.018325  0.993891  1
