# generated using pymatgen
data_Ce3Dy(Re2Si)8
_symmetry_space_group_name_H-M   'P 1'
_cell_length_a   4.15064400
_cell_length_b   7.24196953
_cell_length_c   15.55070038
_cell_angle_alpha   90.20893792
_cell_angle_beta   90.00000000
_cell_angle_gamma   90.00000000
_symmetry_Int_Tables_number   1
_chemical_formula_structural   Ce3Dy(Re2Si)8
_chemical_formula_sum   'Ce3 Dy1 Re16 Si8'
_cell_volume   467.43286559
_cell_formula_units_Z   1
loop_
 _symmetry_equiv_pos_site_id
 _symmetry_equiv_pos_as_xyz
  1  'x, y, z'
loop_
 _atom_site_type_symbol
 _atom_site_label
 _atom_site_symmetry_multiplicity
 _atom_site_fract_x
 _atom_site_fract_y
 _atom_site_fract_z
 _atom_site_occupancy
  Ce  Ce0  1  0.000000  0.417489  0.883190  1
  Ce  Ce1  1  0.500000  0.082850  0.380316  1
  Ce  Ce2  1  0.500000  0.914681  0.618070  1
  Dy  Dy3  1  0.000000  0.583702  0.118297  1
  Re  Re4  1  0.000000  0.148661  0.051378  1
  Re  Re5  1  0.000000  0.861562  0.950813  1
  Re  Re6  1  0.500000  0.641305  0.448967  1
  Re  Re7  1  0.500000  0.355577  0.550176  1
  Re  Re8  1  0.000000  0.736704  0.320383  1
  Re  Re9  1  0.000000  0.261451  0.679160  1
  Re  Re10  1  0.500000  0.238832  0.177637  1
  Re  Re11  1  0.500000  0.761861  0.822036  1
  Re  Re12  1  0.000000  0.427001  0.418733  1
  Re  Re13  1  0.000000  0.570515  0.580139  1
  Re  Re14  1  0.500000  0.933327  0.082611  1
  Re  Re15  1  0.500000  0.073190  0.920980  1
  Re  Re16  1  0.000000  0.990663  0.204197  1
  Re  Re17  1  0.000000  0.004759  0.794864  1
  Re  Re18  1  0.500000  0.493839  0.293647  1
  Re  Re19  1  0.500000  0.503972  0.706755  1
  Si  Si20  1  0.000000  0.831618  0.475059  1
  Si  Si21  1  0.000000  0.166150  0.523792  1
  Si  Si22  1  0.500000  0.338741  0.024350  1
  Si  Si23  1  0.500000  0.670078  0.977353  1
  Si  Si24  1  0.000000  0.297905  0.271049  1
  Si  Si25  1  0.000000  0.700591  0.726656  1
  Si  Si26  1  0.500000  0.791987  0.225048  1
  Si  Si27  1  0.500000  0.200996  0.774346  1
