# generated using pymatgen
data_Tb3Nd17Sn16
_symmetry_space_group_name_H-M   'P 1'
_cell_length_a   8.27686106
_cell_length_b   8.42452506
_cell_length_c   15.97218000
_cell_angle_alpha   90.00000000
_cell_angle_beta   90.00000000
_cell_angle_gamma   89.98621592
_symmetry_Int_Tables_number   1
_chemical_formula_structural   Tb3Nd17Sn16
_chemical_formula_sum   'Tb3 Nd17 Sn16'
_cell_volume   1113.71809227
_cell_formula_units_Z   1
loop_
 _symmetry_equiv_pos_site_id
 _symmetry_equiv_pos_as_xyz
  1  'x, y, z'
loop_
 _atom_site_type_symbol
 _atom_site_label
 _atom_site_symmetry_multiplicity
 _atom_site_fract_x
 _atom_site_fract_y
 _atom_site_fract_z
 _atom_site_occupancy
  Tb  Tb0  1  0.199232  0.502156  0.250000  1
  Tb  Tb1  1  0.699390  0.998023  0.250000  1
  Tb  Tb2  1  0.300839  0.002221  0.750000  1
  Nd  Nd3  1  0.017625  0.181084  0.401008  1
  Nd  Nd4  1  0.368540  0.836851  0.120624  1
  Nd  Nd5  1  0.132072  0.336391  0.620563  1
  Nd  Nd6  1  0.481737  0.681418  0.901243  1
  Nd  Nd7  1  0.868394  0.663136  0.121057  1
  Nd  Nd8  1  0.132072  0.336391  0.879437  1
  Nd  Nd9  1  0.481737  0.681418  0.598757  1
  Nd  Nd10  1  0.630989  0.163015  0.620365  1
  Nd  Nd11  1  0.802418  0.497800  0.750000  1
  Nd  Nd12  1  0.868394  0.663136  0.378943  1
  Nd  Nd13  1  0.017625  0.181084  0.098992  1
  Nd  Nd14  1  0.982491  0.819423  0.901121  1
  Nd  Nd15  1  0.630989  0.163015  0.879635  1
  Nd  Nd16  1  0.517788  0.318973  0.099131  1
  Nd  Nd17  1  0.368540  0.836851  0.379376  1
  Nd  Nd18  1  0.982491  0.819423  0.598879  1
  Nd  Nd19  1  0.517788  0.318973  0.400869  1
  Sn  Sn20  1  0.791375  0.463796  0.541832  1
  Sn  Sn21  1  0.708646  0.964451  0.456618  1
  Sn  Sn22  1  0.674981  0.857838  0.750000  1
  Sn  Sn23  1  0.208610  0.535311  0.456673  1
  Sn  Sn24  1  0.291407  0.035500  0.956819  1
  Sn  Sn25  1  0.824422  0.354698  0.250000  1
  Sn  Sn26  1  0.791375  0.463796  0.958168  1
  Sn  Sn27  1  0.565385  0.616916  0.250000  1
  Sn  Sn28  1  0.208610  0.535311  0.043327  1
  Sn  Sn29  1  0.431725  0.382614  0.750000  1
  Sn  Sn30  1  0.177329  0.645950  0.750000  1
  Sn  Sn31  1  0.935229  0.115125  0.750000  1
  Sn  Sn32  1  0.291407  0.035500  0.543181  1
  Sn  Sn33  1  0.708646  0.964451  0.043382  1
  Sn  Sn34  1  0.324155  0.144917  0.250000  1
  Sn  Sn35  1  0.065545  0.883046  0.250000  1
