# generated using pymatgen
data_La2NdCd3Pd2Ru
_symmetry_space_group_name_H-M   'P 1'
_cell_length_a   7.75419500
_cell_length_b   7.73151819
_cell_length_c   4.11934500
_cell_angle_alpha   90.00000000
_cell_angle_beta   90.00000000
_cell_angle_gamma   120.66227316
_symmetry_Int_Tables_number   1
_chemical_formula_structural   La2NdCd3Pd2Ru
_chemical_formula_sum   'La2 Nd1 Cd3 Pd2 Ru1'
_cell_volume   212.43358357
_cell_formula_units_Z   1
loop_
 _symmetry_equiv_pos_site_id
 _symmetry_equiv_pos_as_xyz
  1  'x, y, z'
loop_
 _atom_site_type_symbol
 _atom_site_label
 _atom_site_symmetry_multiplicity
 _atom_site_fract_x
 _atom_site_fract_y
 _atom_site_fract_z
 _atom_site_occupancy
  La  La0  1  0.594327  0.017542  0.500000  1
  La  La1  1  0.980309  0.577326  0.500000  1
  Nd  Nd2  1  0.417872  0.403311  0.500000  1
  Cd  Cd3  1  0.746886  0.749969  0.000000  1
  Cd  Cd4  1  0.247085  0.000072  0.000000  1
  Cd  Cd5  1  0.006074  0.250042  0.000000  1
  Pd  Pd6  1  0.334634  0.667353  0.000000  1
  Pd  Pd7  1  0.000719  0.000684  0.500000  1
  Ru  Ru8  1  0.672094  0.333702  0.000000  1
