# generated using pymatgen
data_Ho4Er4Ga3Co
_symmetry_space_group_name_H-M   'P 1'
_cell_length_a   9.95093800
_cell_length_b   9.95093791
_cell_length_c   6.86918200
_cell_angle_alpha   90.00000000
_cell_angle_beta   90.00000000
_cell_angle_gamma   120.00000029
_symmetry_Int_Tables_number   1
_chemical_formula_structural   Ho4Er4Ga3Co
_chemical_formula_sum   'Ho8 Er8 Ga6 Co2'
_cell_volume   589.06563915
_cell_formula_units_Z   2
loop_
 _symmetry_equiv_pos_site_id
 _symmetry_equiv_pos_as_xyz
  1  'x, y, z'
loop_
 _atom_site_type_symbol
 _atom_site_label
 _atom_site_symmetry_multiplicity
 _atom_site_fract_x
 _atom_site_fract_y
 _atom_site_fract_z
 _atom_site_occupancy
  Ho  Ho0  1  0.464056  0.535944  0.207906  1
  Ho  Ho1  1  0.071887  0.535944  0.207906  1
  Ho  Ho2  1  0.464056  0.928113  0.207906  1
  Ho  Ho3  1  0.535944  0.464056  0.707906  1
  Ho  Ho4  1  0.928113  0.464056  0.707906  1
  Ho  Ho5  1  0.535944  0.071887  0.707906  1
  Ho  Ho6  1  0.000000  0.000000  0.229915  1
  Ho  Ho7  1  0.000000  0.000000  0.729915  1
  Er  Er8  1  0.172918  0.827082  0.509682  1
  Er  Er9  1  0.654164  0.827082  0.509682  1
  Er  Er10  1  0.172918  0.345836  0.509682  1
  Er  Er11  1  0.827082  0.172918  0.009682  1
  Er  Er12  1  0.345836  0.172918  0.009682  1
  Er  Er13  1  0.827082  0.654164  0.009682  1
  Er  Er14  1  0.333333  0.666667  0.827938  1
  Er  Er15  1  0.666667  0.333333  0.327938  1
  Ga  Ga16  1  0.163499  0.836501  0.960825  1
  Ga  Ga17  1  0.673002  0.836501  0.960825  1
  Ga  Ga18  1  0.163499  0.326998  0.960825  1
  Ga  Ga19  1  0.836501  0.163499  0.460825  1
  Ga  Ga20  1  0.326998  0.163499  0.460825  1
  Ga  Ga21  1  0.836501  0.673002  0.460825  1
  Co  Co22  1  0.333333  0.666667  0.443929  1
  Co  Co23  1  0.666667  0.333333  0.943929  1
