# generated using pymatgen
data_HoFePH
_symmetry_space_group_name_H-M   'P 1'
_cell_length_a   3.77198300
_cell_length_b   3.77198300
_cell_length_c   7.34708000
_cell_angle_alpha   90.00000000
_cell_angle_beta   90.00000000
_cell_angle_gamma   90.00000000
_symmetry_Int_Tables_number   1
_chemical_formula_structural   HoFePH
_chemical_formula_sum   'Ho2 Fe2 P2 H2'
_cell_volume   104.53319444
_cell_formula_units_Z   2
loop_
 _symmetry_equiv_pos_site_id
 _symmetry_equiv_pos_as_xyz
  1  'x, y, z'
loop_
 _atom_site_type_symbol
 _atom_site_label
 _atom_site_symmetry_multiplicity
 _atom_site_fract_x
 _atom_site_fract_y
 _atom_site_fract_z
 _atom_site_occupancy
  Ho  Ho0  1  0.500000  0.000000  0.173133  1
  Ho  Ho1  1  0.000000  0.500000  0.826867  1
  Fe  Fe2  1  0.000000  0.000000  0.500000  1
  Fe  Fe3  1  0.500000  0.500000  0.500000  1
  P  P4  1  0.000000  0.500000  0.342251  1
  P  P5  1  0.500000  0.000000  0.657749  1
  H  H6  1  0.500000  0.500000  0.000000  1
  H  H7  1  0.000000  0.000000  0.000000  1
