# generated using pymatgen
data_Ho3Al3Ga2Ag
_symmetry_space_group_name_H-M   'P 1'
_cell_length_a   6.93297700
_cell_length_b   7.02074031
_cell_length_c   4.31817300
_cell_angle_alpha   90.00000000
_cell_angle_beta   90.00000000
_cell_angle_gamma   119.58734331
_symmetry_Int_Tables_number   1
_chemical_formula_structural   Ho3Al3Ga2Ag
_chemical_formula_sum   'Ho3 Al3 Ga2 Ag1'
_cell_volume   182.77813650
_cell_formula_units_Z   1
loop_
 _symmetry_equiv_pos_site_id
 _symmetry_equiv_pos_as_xyz
  1  'x, y, z'
loop_
 _atom_site_type_symbol
 _atom_site_label
 _atom_site_symmetry_multiplicity
 _atom_site_fract_x
 _atom_site_fract_y
 _atom_site_fract_z
 _atom_site_occupancy
  Ho  Ho0  1  0.576806  0.000000  0.000000  1
  Ho  Ho1  1  0.997751  0.575856  0.000000  1
  Ho  Ho2  1  0.421895  0.424144  0.000000  1
  Al  Al3  1  0.001012  0.243910  0.500000  1
  Al  Al4  1  0.757100  0.756090  0.500000  1
  Al  Al5  1  0.243699  0.000000  0.500000  1
  Ga  Ga6  1  0.333774  0.668897  0.500000  1
  Ga  Ga7  1  0.664878  0.331103  0.500000  1
  Ag  Ag8  1  0.003085  0.000000  0.000000  1
