# generated using pymatgen
data_Hf2AlGa5
_symmetry_space_group_name_H-M   'P 1'
_cell_length_a   9.15109909
_cell_length_b   9.15109892
_cell_length_c   9.15109962
_cell_angle_alpha   154.91163947
_cell_angle_beta   154.91163750
_cell_angle_gamma   35.77588965
_symmetry_Int_Tables_number   1
_chemical_formula_structural   Hf2AlGa5
_chemical_formula_sum   'Hf2 Al1 Ga5'
_cell_volume   137.61009611
_cell_formula_units_Z   1
loop_
 _symmetry_equiv_pos_site_id
 _symmetry_equiv_pos_as_xyz
  1  'x, y, z'
loop_
 _atom_site_type_symbol
 _atom_site_label
 _atom_site_symmetry_multiplicity
 _atom_site_fract_x
 _atom_site_fract_y
 _atom_site_fract_z
 _atom_site_occupancy
  Hf  Hf0  1  0.118915  0.118915  0.000000  1
  Hf  Hf1  1  0.881085  0.881085  0.000000  1
  Al  Al2  1  0.250000  0.750000  0.500000  1
  Ga  Ga3  1  0.374308  0.374308  0.000000  1
  Ga  Ga4  1  0.500074  0.000074  0.500000  1
  Ga  Ga5  1  0.625692  0.625692  0.000000  1
  Ga  Ga6  1  0.750000  0.250000  0.500000  1
  Ga  Ga7  1  0.999926  0.499926  0.500000  1
