# generated using pymatgen
data_HoEr4Hf5(Si5Ir2)4
_symmetry_space_group_name_H-M   'P 1'
_cell_length_a   12.47370709
_cell_length_b   12.47381709
_cell_length_c   4.15899200
_cell_angle_alpha   90.00000000
_cell_angle_beta   90.00000000
_cell_angle_gamma   90.01366049
_symmetry_Int_Tables_number   1
_chemical_formula_structural   HoEr4Hf5(Si5Ir2)4
_chemical_formula_sum   'Ho1 Er4 Hf5 Si20 Ir8'
_cell_volume   647.11726317
_cell_formula_units_Z   1
loop_
 _symmetry_equiv_pos_site_id
 _symmetry_equiv_pos_as_xyz
  1  'x, y, z'
loop_
 _atom_site_type_symbol
 _atom_site_label
 _atom_site_symmetry_multiplicity
 _atom_site_fract_x
 _atom_site_fract_y
 _atom_site_fract_z
 _atom_site_occupancy
  Ho  Ho0  1  0.884121  0.384441  0.500000  1
  Er  Er1  1  0.000039  0.999975  0.000000  1
  Er  Er2  1  0.115881  0.615566  0.500000  1
  Er  Er3  1  0.384417  0.115894  0.500000  1
  Er  Er4  1  0.615566  0.884106  0.500000  1
  Hf  Hf5  1  0.499996  0.500003  0.000000  1
  Hf  Hf6  1  0.673440  0.175013  0.500000  1
  Hf  Hf7  1  0.326559  0.824955  0.500000  1
  Hf  Hf8  1  0.175076  0.326549  0.500000  1
  Hf  Hf9  1  0.824959  0.673494  0.500000  1
  Si  Si10  1  0.565595  0.067503  0.000000  1
  Si  Si11  1  0.434401  0.932501  0.000000  1
  Si  Si12  1  0.067571  0.434400  0.000000  1
  Si  Si13  1  0.932491  0.565682  0.000000  1
  Si  Si14  1  0.665743  0.701380  0.000000  1
  Si  Si15  1  0.334244  0.298648  0.000000  1
  Si  Si16  1  0.164171  0.800768  0.000000  1
  Si  Si17  1  0.835829  0.199167  0.000000  1
  Si  Si18  1  0.298649  0.665762  0.000000  1
  Si  Si19  1  0.701275  0.334240  0.000000  1
  Si  Si20  1  0.199256  0.164150  0.000000  1
  Si  Si21  1  0.800767  0.835841  0.000000  1
  Si  Si22  1  0.651107  0.507706  0.500000  1
  Si  Si23  1  0.348855  0.492287  0.500000  1
  Si  Si24  1  0.156115  0.992721  0.500000  1
  Si  Si25  1  0.843905  0.007274  0.500000  1
  Si  Si26  1  0.492283  0.651162  0.500000  1
  Si  Si27  1  0.507700  0.348849  0.500000  1
  Si  Si28  1  0.007284  0.156043  0.500000  1
  Si  Si29  1  0.992701  0.843904  0.500000  1
  Ir  Ir30  1  0.742197  0.521417  0.000000  1
  Ir  Ir31  1  0.257663  0.478742  0.000000  1
  Ir  Ir32  1  0.246632  0.978371  0.000000  1
  Ir  Ir33  1  0.753372  0.021608  0.000000  1
  Ir  Ir34  1  0.478720  0.742366  0.000000  1
  Ir  Ir35  1  0.521253  0.257639  0.000000  1
  Ir  Ir36  1  0.021779  0.246469  0.000000  1
  Ir  Ir37  1  0.978388  0.753406  0.000000  1
