# generated using pymatgen
data_NaTiRhSe4
_symmetry_space_group_name_H-M   'P 1'
_cell_length_a   7.60752213
_cell_length_b   7.60752296
_cell_length_c   6.03632504
_cell_angle_alpha   80.79379622
_cell_angle_beta   80.79379518
_cell_angle_gamma   28.05597546
_symmetry_Int_Tables_number   1
_chemical_formula_structural   NaTiRhSe4
_chemical_formula_sum   'Na1 Ti1 Rh1 Se4'
_cell_volume   162.06101534
_cell_formula_units_Z   1
loop_
 _symmetry_equiv_pos_site_id
 _symmetry_equiv_pos_as_xyz
  1  'x, y, z'
loop_
 _atom_site_type_symbol
 _atom_site_label
 _atom_site_symmetry_multiplicity
 _atom_site_fract_x
 _atom_site_fract_y
 _atom_site_fract_z
 _atom_site_occupancy
  Na  Na0  1  0.243173  0.243173  0.880374  1
  Ti  Ti1  1  0.495746  0.495746  0.453065  1
  Rh  Rh2  1  0.991369  0.991369  0.041985  1
  Se  Se3  1  0.902574  0.902574  0.715390  1
  Se  Se4  1  0.380886  0.380886  0.211854  1
  Se  Se5  1  0.579811  0.579811  0.819211  1
  Se  Se6  1  0.107441  0.107441  0.311122  1
