# generated using pymatgen
data_Th2Al3SiAu4
_symmetry_space_group_name_H-M   'P 1'
_cell_length_a   4.36887300
_cell_length_b   4.36887300
_cell_length_c   10.56881500
_cell_angle_alpha   90.00000000
_cell_angle_beta   90.00000000
_cell_angle_gamma   90.00000000
_symmetry_Int_Tables_number   1
_chemical_formula_structural   Th2Al3SiAu4
_chemical_formula_sum   'Th2 Al3 Si1 Au4'
_cell_volume   201.72751398
_cell_formula_units_Z   1
loop_
 _symmetry_equiv_pos_site_id
 _symmetry_equiv_pos_as_xyz
  1  'x, y, z'
loop_
 _atom_site_type_symbol
 _atom_site_label
 _atom_site_symmetry_multiplicity
 _atom_site_fract_x
 _atom_site_fract_y
 _atom_site_fract_z
 _atom_site_occupancy
  Th  Th0  1  0.000000  0.500000  0.247405  1
  Th  Th1  1  0.500000  0.000000  0.752111  1
  Al  Al2  1  0.000000  0.000000  0.500646  1
  Al  Al3  1  0.500000  0.500000  0.500646  1
  Al  Al4  1  0.500000  0.000000  0.133339  1
  Si  Si5  1  0.000000  0.500000  0.866435  1
  Au  Au6  1  0.000000  0.000000  0.998321  1
  Au  Au7  1  0.500000  0.500000  0.998321  1
  Au  Au8  1  0.000000  0.500000  0.633261  1
  Au  Au9  1  0.500000  0.000000  0.369516  1
