# generated using pymatgen
data_Ti2MnCr3
_symmetry_space_group_name_H-M   'P 1'
_cell_length_a   4.81405500
_cell_length_b   4.81405531
_cell_length_c   7.92836700
_cell_angle_alpha   90.00000000
_cell_angle_beta   90.00000000
_cell_angle_gamma   120.00000471
_symmetry_Int_Tables_number   1
_chemical_formula_structural   Ti2MnCr3
_chemical_formula_sum   'Ti4 Mn2 Cr6'
_cell_volume   159.12429047
_cell_formula_units_Z   2
loop_
 _symmetry_equiv_pos_site_id
 _symmetry_equiv_pos_as_xyz
  1  'x, y, z'
loop_
 _atom_site_type_symbol
 _atom_site_label
 _atom_site_symmetry_multiplicity
 _atom_site_fract_x
 _atom_site_fract_y
 _atom_site_fract_z
 _atom_site_occupancy
  Ti  Ti0  1  0.333333  0.666667  0.440194  1
  Ti  Ti1  1  0.666667  0.333333  0.559806  1
  Ti  Ti2  1  0.666667  0.333333  0.940194  1
  Ti  Ti3  1  0.333333  0.666667  0.059806  1
  Mn  Mn4  1  0.000000  0.000000  0.500000  1
  Mn  Mn5  1  0.000000  0.000000  0.000000  1
  Cr  Cr6  1  0.829997  0.170003  0.250000  1
  Cr  Cr7  1  0.829997  0.659993  0.250000  1
  Cr  Cr8  1  0.340007  0.170003  0.250000  1
  Cr  Cr9  1  0.170003  0.829997  0.750000  1
  Cr  Cr10  1  0.170003  0.340007  0.750000  1
  Cr  Cr11  1  0.659993  0.829997  0.750000  1
