# generated using pymatgen
data_Th2GeRh5
_symmetry_space_group_name_H-M   'P 1'
_cell_length_a   4.19637100
_cell_length_b   5.94839500
_cell_length_c   11.54788100
_cell_angle_alpha   90.00000000
_cell_angle_beta   90.00000000
_cell_angle_gamma   90.00000000
_symmetry_Int_Tables_number   1
_chemical_formula_structural   Th2GeRh5
_chemical_formula_sum   'Th4 Ge2 Rh10'
_cell_volume   288.25442099
_cell_formula_units_Z   2
loop_
 _symmetry_equiv_pos_site_id
 _symmetry_equiv_pos_as_xyz
  1  'x, y, z'
loop_
 _atom_site_type_symbol
 _atom_site_label
 _atom_site_symmetry_multiplicity
 _atom_site_fract_x
 _atom_site_fract_y
 _atom_site_fract_z
 _atom_site_occupancy
  Th  Th0  1  0.500000  0.179453  0.640813  1
  Th  Th1  1  0.500000  0.820547  0.359187  1
  Th  Th2  1  0.500000  0.679453  0.859187  1
  Th  Th3  1  0.500000  0.320547  0.140813  1
  Ge  Ge4  1  0.000000  0.500000  0.500000  1
  Ge  Ge5  1  0.000000  0.000000  0.000000  1
  Rh  Rh6  1  0.500000  0.182999  0.895689  1
  Rh  Rh7  1  0.500000  0.817001  0.104311  1
  Rh  Rh8  1  0.500000  0.682999  0.604311  1
  Rh  Rh9  1  0.500000  0.317001  0.395689  1
  Rh  Rh10  1  0.000000  0.434425  0.742269  1
  Rh  Rh11  1  0.000000  0.565575  0.257731  1
  Rh  Rh12  1  0.000000  0.000000  0.500000  1
  Rh  Rh13  1  0.000000  0.500000  0.000000  1
  Rh  Rh14  1  0.000000  0.065575  0.242269  1
  Rh  Rh15  1  0.000000  0.934425  0.757731  1
