# generated using pymatgen
data_CeMg2Pa3Rh4
_symmetry_space_group_name_H-M   'P 1'
_cell_length_a   7.65623130
_cell_length_b   7.65623130
_cell_length_c   3.65126500
_cell_angle_alpha   90.00000000
_cell_angle_beta   90.00000000
_cell_angle_gamma   88.96167335
_symmetry_Int_Tables_number   1
_chemical_formula_structural   CeMg2Pa3Rh4
_chemical_formula_sum   'Ce1 Mg2 Pa3 Rh4'
_cell_volume   213.99426106
_cell_formula_units_Z   1
loop_
 _symmetry_equiv_pos_site_id
 _symmetry_equiv_pos_as_xyz
  1  'x, y, z'
loop_
 _atom_site_type_symbol
 _atom_site_label
 _atom_site_symmetry_multiplicity
 _atom_site_fract_x
 _atom_site_fract_y
 _atom_site_fract_z
 _atom_site_occupancy
  Ce  Ce0  1  0.666744  0.166745  0.500000  1
  Mg  Mg1  1  0.999036  0.998952  0.000000  1
  Mg  Mg2  1  0.498952  0.499036  0.000000  1
  Pa  Pa3  1  0.164603  0.333675  0.500000  1
  Pa  Pa4  1  0.833675  0.664602  0.500000  1
  Pa  Pa5  1  0.333864  0.833864  0.500000  1
  Rh  Rh6  1  0.350289  0.135486  0.000000  1
  Rh  Rh7  1  0.874778  0.374779  0.000000  1
  Rh  Rh8  1  0.142576  0.642576  0.000000  1
  Rh  Rh9  1  0.635486  0.850288  0.000000  1
