# generated using pymatgen
data_Er4VReOs6
_symmetry_space_group_name_H-M   'P 1'
_cell_length_a   5.21617206
_cell_length_b   5.21617191
_cell_length_c   8.88190100
_cell_angle_alpha   90.00000000
_cell_angle_beta   90.00000000
_cell_angle_gamma   116.40798301
_symmetry_Int_Tables_number   1
_chemical_formula_structural   Er4VReOs6
_chemical_formula_sum   'Er4 V1 Re1 Os6'
_cell_volume   216.44520329
_cell_formula_units_Z   1
loop_
 _symmetry_equiv_pos_site_id
 _symmetry_equiv_pos_as_xyz
  1  'x, y, z'
loop_
 _atom_site_type_symbol
 _atom_site_label
 _atom_site_symmetry_multiplicity
 _atom_site_fract_x
 _atom_site_fract_y
 _atom_site_fract_z
 _atom_site_occupancy
  Er  Er0  1  0.332207  0.667793  0.435471  1
  Er  Er1  1  0.669856  0.330144  0.565309  1
  Er  Er2  1  0.669856  0.330144  0.934691  1
  Er  Er3  1  0.332207  0.667793  0.064529  1
  V  V4  1  0.829087  0.170913  0.250000  1
  Re  Re5  1  0.164290  0.835710  0.750000  1
  Os  Os6  1  0.001530  0.998470  0.496328  1
  Os  Os7  1  0.001530  0.998470  0.003672  1
  Os  Os8  1  0.828652  0.651773  0.250000  1
  Os  Os9  1  0.348227  0.171348  0.250000  1
  Os  Os10  1  0.171535  0.348978  0.750000  1
  Os  Os11  1  0.651022  0.828465  0.750000  1
