# generated using pymatgen
data_Tb3Co8Si6Ru
_symmetry_space_group_name_H-M   'P 1'
_cell_length_a   3.81007800
_cell_length_b   10.64665300
_cell_length_c   12.44192900
_cell_angle_alpha   90.00000000
_cell_angle_beta   90.00000000
_cell_angle_gamma   90.00000000
_symmetry_Int_Tables_number   1
_chemical_formula_structural   Tb3Co8Si6Ru
_chemical_formula_sum   'Tb6 Co16 Si12 Ru2'
_cell_volume   504.70160398
_cell_formula_units_Z   2
loop_
 _symmetry_equiv_pos_site_id
 _symmetry_equiv_pos_as_xyz
  1  'x, y, z'
loop_
 _atom_site_type_symbol
 _atom_site_label
 _atom_site_symmetry_multiplicity
 _atom_site_fract_x
 _atom_site_fract_y
 _atom_site_fract_z
 _atom_site_occupancy
  Tb  Tb0  1  0.000000  0.500000  0.525809  1
  Tb  Tb1  1  0.500000  0.000000  0.474191  1
  Tb  Tb2  1  0.500000  0.816357  0.205251  1
  Tb  Tb3  1  0.500000  0.183643  0.205251  1
  Tb  Tb4  1  0.000000  0.683643  0.794749  1
  Tb  Tb5  1  0.000000  0.316357  0.794749  1
  Co  Co6  1  0.500000  0.500000  0.695819  1
  Co  Co7  1  0.000000  0.000000  0.304181  1
  Co  Co8  1  0.000000  0.500000  0.980106  1
  Co  Co9  1  0.500000  0.000000  0.019894  1
  Co  Co10  1  0.500000  0.329825  0.992297  1
  Co  Co11  1  0.500000  0.670175  0.992297  1
  Co  Co12  1  0.000000  0.170175  0.007703  1
  Co  Co13  1  0.000000  0.829825  0.007703  1
  Co  Co14  1  0.500000  0.301573  0.429949  1
  Co  Co15  1  0.500000  0.698427  0.429949  1
  Co  Co16  1  0.000000  0.198427  0.570051  1
  Co  Co17  1  0.000000  0.801573  0.570051  1
  Co  Co18  1  0.500000  0.882203  0.707489  1
  Co  Co19  1  0.500000  0.117797  0.707489  1
  Co  Co20  1  0.000000  0.617797  0.292511  1
  Co  Co21  1  0.000000  0.382203  0.292511  1
  Si  Si22  1  0.500000  0.500000  0.882653  1
  Si  Si23  1  0.000000  0.000000  0.117347  1
  Si  Si24  1  0.500000  0.500000  0.340579  1
  Si  Si25  1  0.000000  0.000000  0.659421  1
  Si  Si26  1  0.500000  0.302531  0.613140  1
  Si  Si27  1  0.500000  0.697469  0.613140  1
  Si  Si28  1  0.000000  0.197469  0.386860  1
  Si  Si29  1  0.000000  0.802531  0.386860  1
  Si  Si30  1  0.500000  0.851952  0.894936  1
  Si  Si31  1  0.500000  0.148048  0.894936  1
  Si  Si32  1  0.000000  0.648048  0.105064  1
  Si  Si33  1  0.000000  0.351952  0.105064  1
  Ru  Ru34  1  0.500000  0.500000  0.150646  1
  Ru  Ru35  1  0.000000  0.000000  0.849354  1
