# generated using pymatgen
data_Er3Tm9Co4BiRh
_symmetry_space_group_name_H-M   'P 1'
_cell_length_a   8.22750810
_cell_length_b   8.22741685
_cell_length_c   8.22529180
_cell_angle_alpha   110.88372606
_cell_angle_beta   110.94037425
_cell_angle_gamma   106.63800427
_symmetry_Int_Tables_number   1
_chemical_formula_structural   Er3Tm9Co4BiRh
_chemical_formula_sum   'Er3 Tm9 Co4 Bi1 Rh1'
_cell_volume   427.76360056
_cell_formula_units_Z   1
loop_
 _symmetry_equiv_pos_site_id
 _symmetry_equiv_pos_as_xyz
  1  'x, y, z'
loop_
 _atom_site_type_symbol
 _atom_site_label
 _atom_site_symmetry_multiplicity
 _atom_site_fract_x
 _atom_site_fract_y
 _atom_site_fract_z
 _atom_site_occupancy
  Er  Er0  1  0.288105  0.184305  0.472563  1
  Er  Er1  1  0.712562  0.815639  0.528319  1
  Er  Er2  1  0.287500  0.815643  0.103214  1
  Tm  Tm3  1  0.712444  0.183810  0.896313  1
  Tm  Tm4  1  0.620947  0.311280  0.308924  1
  Tm  Tm5  1  0.379397  0.688691  0.690422  1
  Tm  Tm6  1  0.001928  0.311196  0.690525  1
  Tm  Tm7  1  0.997869  0.688118  0.308970  1
  Tm  Tm8  1  0.209606  0.406867  0.196852  1
  Tm  Tm9  1  0.787686  0.589272  0.801862  1
  Tm  Tm10  1  0.212533  0.014189  0.801928  1
  Tm  Tm11  1  0.789941  0.987270  0.196984  1
  Co  Co12  1  0.999668  0.377262  0.376911  1
  Co  Co13  1  0.000083  0.625145  0.625216  1
  Co  Co14  1  0.388626  0.889527  0.501435  1
  Co  Co15  1  0.611987  0.112865  0.501358  1
  Bi  Bi16  1  0.499949  0.500955  0.000909  1
  Rh  Rh17  1  0.999170  0.997966  0.997292  1
