# generated using pymatgen
data_Er16MgNi4Ag3
_symmetry_space_group_name_H-M   'P 1'
_cell_length_a   9.39574254
_cell_length_b   9.39964289
_cell_length_c   9.39964200
_cell_angle_alpha   59.99999608
_cell_angle_beta   59.98626310
_cell_angle_gamma   59.98626757
_symmetry_Int_Tables_number   1
_chemical_formula_structural   Er16MgNi4Ag3
_chemical_formula_sum   'Er16 Mg1 Ni4 Ag3'
_cell_volume   586.87900550
_cell_formula_units_Z   1
loop_
 _symmetry_equiv_pos_site_id
 _symmetry_equiv_pos_as_xyz
  1  'x, y, z'
loop_
 _atom_site_type_symbol
 _atom_site_label
 _atom_site_symmetry_multiplicity
 _atom_site_fract_x
 _atom_site_fract_y
 _atom_site_fract_z
 _atom_site_occupancy
  Er  Er0  1  0.184146  0.815622  0.815622  1
  Er  Er1  1  0.816006  0.184296  0.184296  1
  Er  Er2  1  0.816006  0.184296  0.815401  1
  Er  Er3  1  0.184146  0.815622  0.184611  1
  Er  Er4  1  0.816006  0.815401  0.184296  1
  Er  Er5  1  0.184146  0.184611  0.815622  1
  Er  Er6  1  0.598643  0.597324  0.597324  1
  Er  Er7  1  0.598643  0.597324  0.206710  1
  Er  Er8  1  0.598643  0.206710  0.597324  1
  Er  Er9  1  0.192763  0.602412  0.602412  1
  Er  Er10  1  0.058534  0.439945  0.439945  1
  Er  Er11  1  0.435641  0.063503  0.063503  1
  Er  Er12  1  0.435641  0.063503  0.437352  1
  Er  Er13  1  0.058534  0.439945  0.061577  1
  Er  Er14  1  0.435641  0.437352  0.063503  1
  Er  Er15  1  0.058534  0.061577  0.439945  1
  Mg  Mg16  1  0.537006  0.820998  0.820998  1
  Ni  Ni17  1  0.388502  0.394295  0.394295  1
  Ni  Ni18  1  0.388502  0.394295  0.822908  1
  Ni  Ni19  1  0.388502  0.822908  0.394295  1
  Ni  Ni20  1  0.823947  0.392017  0.392017  1
  Ag  Ag21  1  0.833955  0.834077  0.834077  1
  Ag  Ag22  1  0.833955  0.834077  0.497890  1
  Ag  Ag23  1  0.833955  0.497890  0.834077  1
