# generated using pymatgen
data_Tm20Ge2IrRu9
_symmetry_space_group_name_H-M   'P 1'
_cell_length_a   10.76025796
_cell_length_b   10.76025769
_cell_length_c   6.30978921
_cell_angle_alpha   89.67157130
_cell_angle_beta   89.67157690
_cell_angle_gamma   89.03564205
_symmetry_Int_Tables_number   1
_chemical_formula_structural   Tm20Ge2IrRu9
_chemical_formula_sum   'Tm20 Ge2 Ir1 Ru9'
_cell_volume   730.44017827
_cell_formula_units_Z   1
loop_
 _symmetry_equiv_pos_site_id
 _symmetry_equiv_pos_as_xyz
  1  'x, y, z'
loop_
 _atom_site_type_symbol
 _atom_site_label
 _atom_site_symmetry_multiplicity
 _atom_site_fract_x
 _atom_site_fract_y
 _atom_site_fract_z
 _atom_site_occupancy
  Tm  Tm0  1  0.289886  0.086073  0.374788  1
  Tm  Tm1  1  0.293025  0.913911  0.876399  1
  Tm  Tm2  1  0.703802  0.075431  0.866733  1
  Tm  Tm3  1  0.705553  0.908482  0.376480  1
  Tm  Tm4  1  0.586330  0.790797  0.875747  1
  Tm  Tm5  1  0.575491  0.203069  0.366361  1
  Tm  Tm6  1  0.413548  0.793455  0.377392  1
  Tm  Tm7  1  0.408364  0.205782  0.877231  1
  Tm  Tm8  1  0.209203  0.413670  0.624253  1
  Tm  Tm9  1  0.206545  0.586452  0.122608  1
  Tm  Tm10  1  0.796931  0.424509  0.133639  1
  Tm  Tm11  1  0.794218  0.591636  0.622769  1
  Tm  Tm12  1  0.913927  0.710114  0.125212  1
  Tm  Tm13  1  0.924569  0.296198  0.633267  1
  Tm  Tm14  1  0.086089  0.706975  0.623601  1
  Tm  Tm15  1  0.091518  0.294447  0.123520  1
  Tm  Tm16  1  0.002857  0.997312  0.501710  1
  Tm  Tm17  1  0.002688  0.997143  0.998290  1
  Tm  Tm18  1  0.498482  0.502330  0.001607  1
  Tm  Tm19  1  0.497670  0.501518  0.498393  1
  Ge  Ge20  1  0.842307  0.157693  0.250000  1
  Ge  Ge21  1  0.658672  0.341328  0.750000  1
  Ir  Ir22  1  0.345851  0.654149  0.750000  1
  Ru  Ru23  1  0.848368  0.848467  0.750829  1
  Ru  Ru24  1  0.151533  0.151632  0.749171  1
  Ru  Ru25  1  0.153968  0.846032  0.250000  1
  Ru  Ru26  1  0.650267  0.651285  0.249659  1
  Ru  Ru27  1  0.348715  0.349733  0.250341  1
  Ru  Ru28  1  0.498149  0.998538  0.124162  1
  Ru  Ru29  1  0.498910  0.998898  0.624137  1
  Ru  Ru30  1  0.001102  0.501090  0.875863  1
  Ru  Ru31  1  0.001462  0.501851  0.375838  1
