# generated using pymatgen
data_Ti2MnPtRh4
_symmetry_space_group_name_H-M   'P 1'
_cell_length_a   3.99267700
_cell_length_b   5.41871800
_cell_length_c   10.73512100
_cell_angle_alpha   90.00000000
_cell_angle_beta   90.00000000
_cell_angle_gamma   90.00000000
_symmetry_Int_Tables_number   1
_chemical_formula_structural   Ti2MnPtRh4
_chemical_formula_sum   'Ti4 Mn2 Pt2 Rh8'
_cell_volume   232.25639032
_cell_formula_units_Z   2
loop_
 _symmetry_equiv_pos_site_id
 _symmetry_equiv_pos_as_xyz
  1  'x, y, z'
loop_
 _atom_site_type_symbol
 _atom_site_label
 _atom_site_symmetry_multiplicity
 _atom_site_fract_x
 _atom_site_fract_y
 _atom_site_fract_z
 _atom_site_occupancy
  Ti  Ti0  1  0.500000  0.300162  0.141536  1
  Ti  Ti1  1  0.500000  0.699838  0.858464  1
  Ti  Ti2  1  0.500000  0.800162  0.358464  1
  Ti  Ti3  1  0.500000  0.199838  0.641536  1
  Mn  Mn4  1  0.000000  0.000000  0.000000  1
  Mn  Mn5  1  0.000000  0.500000  0.500000  1
  Pt  Pt6  1  0.000000  0.000000  0.500000  1
  Pt  Pt7  1  0.000000  0.500000  0.000000  1
  Rh  Rh8  1  0.000000  0.052724  0.244011  1
  Rh  Rh9  1  0.000000  0.947276  0.755989  1
  Rh  Rh10  1  0.000000  0.552724  0.255989  1
  Rh  Rh11  1  0.000000  0.447276  0.744011  1
  Rh  Rh12  1  0.500000  0.290960  0.386497  1
  Rh  Rh13  1  0.500000  0.709040  0.613503  1
  Rh  Rh14  1  0.500000  0.790960  0.113503  1
  Rh  Rh15  1  0.500000  0.209040  0.886497  1
