# generated using pymatgen
data_CsWF6
_symmetry_space_group_name_H-M   'P 1'
_cell_length_a   5.49689023
_cell_length_b   5.49689095
_cell_length_c   5.49689047
_cell_angle_alpha   97.49265977
_cell_angle_beta   97.49265661
_cell_angle_gamma   97.49266323
_symmetry_Int_Tables_number   1
_chemical_formula_structural   CsWF6
_chemical_formula_sum   'Cs1 W1 F6'
_cell_volume   161.42268424
_cell_formula_units_Z   1
loop_
 _symmetry_equiv_pos_site_id
 _symmetry_equiv_pos_as_xyz
  1  'x, y, z'
loop_
 _atom_site_type_symbol
 _atom_site_label
 _atom_site_symmetry_multiplicity
 _atom_site_fract_x
 _atom_site_fract_y
 _atom_site_fract_z
 _atom_site_occupancy
  Cs  Cs0  1  0.500000  0.500000  0.500000  1
  W  W1  1  0.000000  0.000000  0.000000  1
  F  F2  1  0.246419  0.246419  0.911669  1
  F  F3  1  0.911669  0.246419  0.246419  1
  F  F4  1  0.088331  0.753581  0.753581  1
  F  F5  1  0.753581  0.753581  0.088331  1
  F  F6  1  0.753581  0.088331  0.753581  1
  F  F7  1  0.246419  0.911669  0.246419  1
