# generated using pymatgen
data_TmThP7Ru12
_symmetry_space_group_name_H-M   'P 1'
_cell_length_a   9.45682500
_cell_length_b   9.45682502
_cell_length_c   3.95162500
_cell_angle_alpha   90.00000000
_cell_angle_beta   90.00000000
_cell_angle_gamma   119.99999643
_symmetry_Int_Tables_number   1
_chemical_formula_structural   TmThP7Ru12
_chemical_formula_sum   'Tm1 Th1 P7 Ru12'
_cell_volume   306.05330758
_cell_formula_units_Z   1
loop_
 _symmetry_equiv_pos_site_id
 _symmetry_equiv_pos_as_xyz
  1  'x, y, z'
loop_
 _atom_site_type_symbol
 _atom_site_label
 _atom_site_symmetry_multiplicity
 _atom_site_fract_x
 _atom_site_fract_y
 _atom_site_fract_z
 _atom_site_occupancy
  Tm  Tm0  1  0.666667  0.333333  0.500000  1
  Th  Th1  1  0.333333  0.666667  0.000000  1
  P  P2  1  0.606212  0.717304  0.500000  1
  P  P3  1  0.000000  0.000000  0.000000  1
  P  P4  1  0.282696  0.888908  0.500000  1
  P  P5  1  0.111092  0.393788  0.500000  1
  P  P6  1  0.885599  0.572509  0.000000  1
  P  P7  1  0.427491  0.313090  0.000000  1
  P  P8  1  0.686910  0.114401  0.000000  1
  Ru  Ru9  1  0.556965  0.950240  0.500000  1
  Ru  Ru10  1  0.393276  0.443035  0.500000  1
  Ru  Ru11  1  0.913194  0.119698  0.500000  1
  Ru  Ru12  1  0.206504  0.086806  0.500000  1
  Ru  Ru13  1  0.880302  0.793496  0.500000  1
  Ru  Ru14  1  0.727682  0.891579  0.000000  1
  Ru  Ru15  1  0.108421  0.836101  0.000000  1
  Ru  Ru16  1  0.163899  0.272318  0.000000  1
  Ru  Ru17  1  0.424996  0.070400  0.000000  1
  Ru  Ru18  1  0.929600  0.354596  0.000000  1
  Ru  Ru19  1  0.645404  0.575004  0.000000  1
  Ru  Ru20  1  0.049760  0.606724  0.500000  1
