# generated using pymatgen
data_Er12Fe2ReSn2
_symmetry_space_group_name_H-M   'P 1'
_cell_length_a   8.32553386
_cell_length_b   8.32553280
_cell_length_c   8.32553306
_cell_angle_alpha   108.98443933
_cell_angle_beta   108.98443997
_cell_angle_gamma   110.44922453
_symmetry_Int_Tables_number   1
_chemical_formula_structural   Er12Fe2ReSn2
_chemical_formula_sum   'Er12 Fe2 Re1 Sn2'
_cell_volume   444.13932092
_cell_formula_units_Z   1
loop_
 _symmetry_equiv_pos_site_id
 _symmetry_equiv_pos_as_xyz
  1  'x, y, z'
loop_
 _atom_site_type_symbol
 _atom_site_label
 _atom_site_symmetry_multiplicity
 _atom_site_fract_x
 _atom_site_fract_y
 _atom_site_fract_z
 _atom_site_occupancy
  Er  Er0  1  0.307392  0.307392  0.614781  1
  Er  Er1  1  0.692608  0.692608  0.385219  1
  Er  Er2  1  0.307392  0.692608  0.000000  1
  Er  Er3  1  0.692608  0.307392  0.000000  1
  Er  Er4  1  0.431446  0.193265  0.238182  1
  Er  Er5  1  0.568554  0.806735  0.761818  1
  Er  Er6  1  0.955083  0.193265  0.761818  1
  Er  Er7  1  0.193265  0.955083  0.761818  1
  Er  Er8  1  0.044917  0.806735  0.238182  1
  Er  Er9  1  0.806735  0.044917  0.238182  1
  Er  Er10  1  0.193265  0.431446  0.238182  1
  Er  Er11  1  0.806735  0.568554  0.761818  1
  Fe  Fe12  1  0.385458  0.385458  0.000000  1
  Fe  Fe13  1  0.614542  0.614542  0.000000  1
  Re  Re14  1  0.000000  0.000000  0.000000  1
  Sn  Sn15  1  0.500000  0.000000  0.500000  1
  Sn  Sn16  1  0.000000  0.500000  0.500000  1
