# generated using pymatgen
data_Ti7AlCo4
_symmetry_space_group_name_H-M   'P 1'
_cell_length_a   7.87417562
_cell_length_b   7.87417636
_cell_length_c   7.93332300
_cell_angle_alpha   59.75120571
_cell_angle_beta   59.75120260
_cell_angle_gamma   60.49757686
_symmetry_Int_Tables_number   1
_chemical_formula_structural   Ti7AlCo4
_chemical_formula_sum   'Ti14 Al2 Co8'
_cell_volume   347.77706824
_cell_formula_units_Z   2
loop_
 _symmetry_equiv_pos_site_id
 _symmetry_equiv_pos_as_xyz
  1  'x, y, z'
loop_
 _atom_site_type_symbol
 _atom_site_label
 _atom_site_symmetry_multiplicity
 _atom_site_fract_x
 _atom_site_fract_y
 _atom_site_fract_z
 _atom_site_occupancy
  Ti  Ti0  1  0.143010  0.615380  0.620805  1
  Ti  Ti1  1  0.615380  0.143010  0.620805  1
  Ti  Ti2  1  0.620805  0.620805  0.143010  1
  Ti  Ti3  1  0.620805  0.620805  0.615380  1
  Ti  Ti4  1  0.818926  0.181074  0.818926  1
  Ti  Ti5  1  0.181074  0.818926  0.181074  1
  Ti  Ti6  1  0.181074  0.818926  0.818926  1
  Ti  Ti7  1  0.818926  0.181074  0.181074  1
  Ti  Ti8  1  0.443423  0.443423  0.056577  1
  Ti  Ti9  1  0.056577  0.056577  0.443423  1
  Ti  Ti10  1  0.436920  0.063080  0.436920  1
  Ti  Ti11  1  0.063080  0.436920  0.063080  1
  Ti  Ti12  1  0.063080  0.436920  0.436920  1
  Ti  Ti13  1  0.436920  0.063080  0.063080  1
  Al  Al14  1  0.808992  0.808992  0.191008  1
  Al  Al15  1  0.191008  0.191008  0.808992  1
  Co  Co16  1  0.792988  0.400547  0.403232  1
  Co  Co17  1  0.400547  0.792988  0.403232  1
  Co  Co18  1  0.403232  0.403232  0.792988  1
  Co  Co19  1  0.403232  0.403232  0.400547  1
  Co  Co20  1  0.498788  0.826269  0.837472  1
  Co  Co21  1  0.826269  0.498788  0.837472  1
  Co  Co22  1  0.837472  0.837472  0.498788  1
  Co  Co23  1  0.837472  0.837472  0.826269  1
