# generated using pymatgen
data_Ta8VGa6ReB2
_symmetry_space_group_name_H-M   'P 1'
_cell_length_a   7.73053900
_cell_length_b   7.73053911
_cell_length_c   5.24573600
_cell_angle_alpha   90.00000000
_cell_angle_beta   90.00000000
_cell_angle_gamma   120.00000380
_symmetry_Int_Tables_number   1
_chemical_formula_structural   Ta8VGa6ReB2
_chemical_formula_sum   'Ta8 V1 Ga6 Re1 B2'
_cell_volume   271.49172855
_cell_formula_units_Z   1
loop_
 _symmetry_equiv_pos_site_id
 _symmetry_equiv_pos_as_xyz
  1  'x, y, z'
loop_
 _atom_site_type_symbol
 _atom_site_label
 _atom_site_symmetry_multiplicity
 _atom_site_fract_x
 _atom_site_fract_y
 _atom_site_fract_z
 _atom_site_occupancy
  Ta  Ta0  1  0.242721  0.000052  0.254975  1
  Ta  Ta1  1  0.757331  0.000052  0.745025  1
  Ta  Ta2  1  0.999948  0.242669  0.254975  1
  Ta  Ta3  1  0.999948  0.757279  0.745025  1
  Ta  Ta4  1  0.757331  0.757279  0.254975  1
  Ta  Ta5  1  0.242721  0.242669  0.745025  1
  Ta  Ta6  1  0.666667  0.333333  0.500000  1
  Ta  Ta7  1  0.333333  0.666667  0.500000  1
  V  V8  1  0.666667  0.333333  0.000000  1
  Ga  Ga9  1  0.597404  0.002964  0.236163  1
  Ga  Ga10  1  0.405560  0.002964  0.763837  1
  Ga  Ga11  1  0.997036  0.594440  0.236163  1
  Ga  Ga12  1  0.997036  0.402596  0.763837  1
  Ga  Ga13  1  0.405560  0.402596  0.236163  1
  Ga  Ga14  1  0.597404  0.594440  0.763837  1
  Re  Re15  1  0.333333  0.666667  0.000000  1
  B  B16  1  0.000000  0.000000  0.000000  1
  B  B17  1  0.000000  0.000000  0.500000  1
