# generated using pymatgen
data_Ho2TmIn3HgPt2
_symmetry_space_group_name_H-M   'P 1'
_cell_length_a   7.68922795
_cell_length_b   7.70010620
_cell_length_c   3.97379600
_cell_angle_alpha   90.00000000
_cell_angle_beta   90.00000000
_cell_angle_gamma   120.03483711
_symmetry_Int_Tables_number   1
_chemical_formula_structural   Ho2TmIn3HgPt2
_chemical_formula_sum   'Ho2 Tm1 In3 Hg1 Pt2'
_cell_volume   203.68689519
_cell_formula_units_Z   1
loop_
 _symmetry_equiv_pos_site_id
 _symmetry_equiv_pos_as_xyz
  1  'x, y, z'
loop_
 _atom_site_type_symbol
 _atom_site_label
 _atom_site_symmetry_multiplicity
 _atom_site_fract_x
 _atom_site_fract_y
 _atom_site_fract_z
 _atom_site_occupancy
  Ho  Ho0  1  0.390605  0.410895  0.500000  1
  Ho  Ho1  1  0.589110  0.979769  0.500000  1
  Tm  Tm2  1  0.020698  0.609927  0.500000  1
  In  In3  1  0.001880  0.256510  0.000000  1
  In  In4  1  0.743889  0.745475  0.000000  1
  In  In5  1  0.254102  0.997600  0.000000  1
  Hg  Hg6  1  0.667389  0.333854  0.000000  1
  Pt  Pt7  1  0.000039  0.999539  0.500000  1
  Pt  Pt8  1  0.332288  0.666432  0.000000  1
