# generated using pymatgen
data_LiYTm2Th6(Pb3C)2
_symmetry_space_group_name_H-M   'P 1'
_cell_length_a   9.31152600
_cell_length_b   9.31152594
_cell_length_c   6.55385900
_cell_angle_alpha   90.00000000
_cell_angle_beta   90.00000000
_cell_angle_gamma   120.00000020
_symmetry_Int_Tables_number   1
_chemical_formula_structural   LiYTm2Th6(Pb3C)2
_chemical_formula_sum   'Li1 Y1 Tm2 Th6 Pb6 C2'
_cell_volume   492.11821773
_cell_formula_units_Z   1
loop_
 _symmetry_equiv_pos_site_id
 _symmetry_equiv_pos_as_xyz
  1  'x, y, z'
loop_
 _atom_site_type_symbol
 _atom_site_label
 _atom_site_symmetry_multiplicity
 _atom_site_fract_x
 _atom_site_fract_y
 _atom_site_fract_z
 _atom_site_occupancy
  Li  Li0  1  0.666667  0.333333  0.000000  1
  Y  Y1  1  0.333333  0.666667  0.000000  1
  Tm  Tm2  1  0.333333  0.666667  0.500000  1
  Tm  Tm3  1  0.666667  0.333333  0.500000  1
  Th  Th4  1  0.779600  0.778633  0.750385  1
  Th  Th5  1  0.221367  0.000967  0.750385  1
  Th  Th6  1  0.999033  0.220400  0.750385  1
  Th  Th7  1  0.221367  0.220400  0.249615  1
  Th  Th8  1  0.779600  0.000967  0.249615  1
  Th  Th9  1  0.999033  0.778633  0.249615  1
  Pb  Pb10  1  0.408765  0.407560  0.747797  1
  Pb  Pb11  1  0.592440  0.001205  0.747797  1
  Pb  Pb12  1  0.998795  0.591235  0.747797  1
  Pb  Pb13  1  0.592440  0.591235  0.252203  1
  Pb  Pb14  1  0.408765  0.001205  0.252203  1
  Pb  Pb15  1  0.998795  0.407560  0.252203  1
  C  C16  1  0.000000  0.000000  0.000000  1
  C  C17  1  0.000000  0.000000  0.500000  1
