# generated using pymatgen
data_Dy20Sn11Sb5
_symmetry_space_group_name_H-M   'P 1'
_cell_length_a   8.12056039
_cell_length_b   8.15444990
_cell_length_c   15.39034133
_cell_angle_alpha   90.14649693
_cell_angle_beta   90.17118392
_cell_angle_gamma   89.84553370
_symmetry_Int_Tables_number   1
_chemical_formula_structural   Dy20Sn11Sb5
_chemical_formula_sum   'Dy20 Sn11 Sb5'
_cell_volume   1019.11687659
_cell_formula_units_Z   1
loop_
 _symmetry_equiv_pos_site_id
 _symmetry_equiv_pos_as_xyz
  1  'x, y, z'
loop_
 _atom_site_type_symbol
 _atom_site_label
 _atom_site_symmetry_multiplicity
 _atom_site_fract_x
 _atom_site_fract_y
 _atom_site_fract_z
 _atom_site_occupancy
  Dy  Dy0  1  0.378422  0.839469  0.879403  1
  Dy  Dy1  1  0.877417  0.660599  0.621838  1
  Dy  Dy2  1  0.623075  0.159693  0.378277  1
  Dy  Dy3  1  0.121549  0.338995  0.121575  1
  Dy  Dy4  1  0.622526  0.161138  0.120855  1
  Dy  Dy5  1  0.123707  0.338141  0.378423  1
  Dy  Dy6  1  0.375144  0.839114  0.621897  1
  Dy  Dy7  1  0.877326  0.660781  0.878394  1
  Dy  Dy8  1  0.543559  0.331559  0.894925  1
  Dy  Dy9  1  0.042001  0.172332  0.604206  1
  Dy  Dy10  1  0.458069  0.672838  0.395738  1
  Dy  Dy11  1  0.958491  0.825487  0.104608  1
  Dy  Dy12  1  0.462967  0.669117  0.104376  1
  Dy  Dy13  1  0.968663  0.824674  0.398351  1
  Dy  Dy14  1  0.531023  0.324658  0.601779  1
  Dy  Dy15  1  0.035980  0.177932  0.897148  1
  Dy  Dy16  1  0.207171  0.500949  0.747663  1
  Dy  Dy17  1  0.707295  0.000333  0.749597  1
  Dy  Dy18  1  0.792748  0.498979  0.248910  1
  Dy  Dy19  1  0.293106  0.999959  0.252132  1
  Sn  Sn20  1  0.217500  0.531996  0.543067  1
  Sn  Sn21  1  0.282883  0.031482  0.457098  1
  Sn  Sn22  1  0.780887  0.469641  0.042834  1
  Sn  Sn23  1  0.572705  0.624521  0.749934  1
  Sn  Sn24  1  0.072947  0.877325  0.751751  1
  Sn  Sn25  1  0.426986  0.375488  0.249565  1
  Sn  Sn26  1  0.926988  0.122539  0.249762  1
  Sn  Sn27  1  0.343704  0.146311  0.751702  1
  Sn  Sn28  1  0.843066  0.354055  0.749304  1
  Sn  Sn29  1  0.657239  0.853475  0.250027  1
  Sn  Sn30  1  0.156460  0.645481  0.249412  1
  Sb  Sb31  1  0.275419  0.025086  0.045171  1
  Sb  Sb32  1  0.777377  0.471804  0.455634  1
  Sb  Sb33  1  0.721776  0.972376  0.544475  1
  Sb  Sb34  1  0.221856  0.527775  0.955381  1
  Sb  Sb35  1  0.721968  0.973899  0.954783  1
