# generated using pymatgen
data_Ce2ThAs3
_symmetry_space_group_name_H-M   'P 1'
_cell_length_a   4.24071200
_cell_length_b   4.24071259
_cell_length_c   10.37961500
_cell_angle_alpha   90.00000000
_cell_angle_beta   90.00000000
_cell_angle_gamma   119.99999542
_symmetry_Int_Tables_number   1
_chemical_formula_structural   Ce2ThAs3
_chemical_formula_sum   'Ce2 Th1 As3'
_cell_volume   161.65513894
_cell_formula_units_Z   1
loop_
 _symmetry_equiv_pos_site_id
 _symmetry_equiv_pos_as_xyz
  1  'x, y, z'
loop_
 _atom_site_type_symbol
 _atom_site_label
 _atom_site_symmetry_multiplicity
 _atom_site_fract_x
 _atom_site_fract_y
 _atom_site_fract_z
 _atom_site_occupancy
  Ce  Ce0  1  0.333333  0.666667  0.665561  1
  Ce  Ce1  1  0.666667  0.333333  0.334439  1
  Th  Th2  1  0.000000  0.000000  0.000000  1
  As  As3  1  0.333333  0.666667  0.168278  1
  As  As4  1  0.666667  0.333333  0.831722  1
  As  As5  1  0.000000  0.000000  0.500000  1
