# generated using pymatgen
data_SmNp(AuBr6)2
_symmetry_space_group_name_H-M   'P 1'
_cell_length_a   8.49750154
_cell_length_b   10.59431823
_cell_length_c   15.00625636
_cell_angle_alpha   102.88908336
_cell_angle_beta   96.89374843
_cell_angle_gamma   112.82000272
_symmetry_Int_Tables_number   1
_chemical_formula_structural   SmNp(AuBr6)2
_chemical_formula_sum   'Sm2 Np2 Au4 Br24'
_cell_volume   1181.32082718
_cell_formula_units_Z   2
loop_
 _symmetry_equiv_pos_site_id
 _symmetry_equiv_pos_as_xyz
  1  'x, y, z'
loop_
 _atom_site_type_symbol
 _atom_site_label
 _atom_site_symmetry_multiplicity
 _atom_site_fract_x
 _atom_site_fract_y
 _atom_site_fract_z
 _atom_site_occupancy
  Sm  Sm0  1  0.979210  0.315321  0.873425  1
  Sm  Sm1  1  0.020790  0.684679  0.126575  1
  Np  Np2  1  0.578247  0.921325  0.624759  1
  Np  Np3  1  0.421753  0.078675  0.375241  1
  Au  Au4  1  0.291030  0.629692  0.761344  1
  Au  Au5  1  0.708970  0.370308  0.238656  1
  Au  Au6  1  0.500000  0.500000  0.500000  1
  Au  Au7  1  0.000000  0.000000  0.000000  1
  Br  Br8  1  0.603362  0.734526  0.747155  1
  Br  Br9  1  0.396638  0.265474  0.252845  1
  Br  Br10  1  0.281824  0.849886  0.731280  1
  Br  Br11  1  0.718176  0.150114  0.268720  1
  Br  Br12  1  0.977067  0.529022  0.771270  1
  Br  Br13  1  0.022933  0.470978  0.228730  1
  Br  Br14  1  0.304945  0.410180  0.790796  1
  Br  Br15  1  0.695055  0.589820  0.209204  1
  Br  Br16  1  0.685408  0.365883  0.502301  1
  Br  Br17  1  0.314592  0.634117  0.497699  1
  Br  Br18  1  0.757074  0.733990  0.528337  1
  Br  Br19  1  0.242926  0.266010  0.471663  1
  Br  Br20  1  0.793159  0.111320  0.977680  1
  Br  Br21  1  0.206841  0.888680  0.022320  1
  Br  Br22  1  0.773333  0.793074  0.035066  1
  Br  Br23  1  0.226667  0.206926  0.964934  1
  Br  Br24  1  0.620256  0.189561  0.742825  1
  Br  Br25  1  0.379744  0.810439  0.257175  1
  Br  Br26  1  0.939929  0.053173  0.725649  1
  Br  Br27  1  0.060071  0.946827  0.274351  1
  Br  Br28  1  0.718094  0.048051  0.482963  1
  Br  Br29  1  0.281906  0.951949  0.517037  1
  Br  Br30  1  0.767565  0.434622  0.974381  1
  Br  Br31  1  0.232435  0.565378  0.025619  1
