# generated using pymatgen
data_ErHf3Sc4(P3Ir4)4
_symmetry_space_group_name_H-M   'P 1'
_cell_length_a   12.81565700
_cell_length_b   12.81565716
_cell_length_c   3.91431800
_cell_angle_alpha   90.00000000
_cell_angle_beta   90.00000000
_cell_angle_gamma   119.99999701
_symmetry_Int_Tables_number   1
_chemical_formula_structural   ErHf3Sc4(P3Ir4)4
_chemical_formula_sum   'Er1 Hf3 Sc4 P12 Ir16'
_cell_volume   556.76061494
_cell_formula_units_Z   1
loop_
 _symmetry_equiv_pos_site_id
 _symmetry_equiv_pos_as_xyz
  1  'x, y, z'
loop_
 _atom_site_type_symbol
 _atom_site_label
 _atom_site_symmetry_multiplicity
 _atom_site_fract_x
 _atom_site_fract_y
 _atom_site_fract_z
 _atom_site_occupancy
  Er  Er0  1  0.333333  0.666667  0.000000  1
  Hf  Hf1  1  0.450480  0.000340  0.000000  1
  Hf  Hf2  1  0.999660  0.450140  0.000000  1
  Hf  Hf3  1  0.549860  0.549520  0.000000  1
  Sc  Sc4  1  0.666667  0.333333  0.000000  1
  Sc  Sc5  1  0.817040  0.999966  0.500000  1
  Sc  Sc6  1  0.000034  0.817073  0.500000  1
  Sc  Sc7  1  0.182927  0.182960  0.500000  1
  P  P8  1  0.173373  0.000196  0.000000  1
  P  P9  1  0.999804  0.173177  0.000000  1
  P  P10  1  0.826823  0.826627  0.000000  1
  P  P11  1  0.169782  0.482268  0.500000  1
  P  P12  1  0.517732  0.687514  0.500000  1
  P  P13  1  0.312486  0.830218  0.500000  1
  P  P14  1  0.687438  0.516065  0.500000  1
  P  P15  1  0.828627  0.312562  0.500000  1
  P  P16  1  0.483935  0.171373  0.500000  1
  P  P17  1  0.653636  0.000172  0.000000  1
  P  P18  1  0.999828  0.653463  0.000000  1
  P  P19  1  0.346537  0.346364  0.000000  1
  Ir  Ir20  1  0.358706  0.493618  0.500000  1
  Ir  Ir21  1  0.506382  0.865088  0.500000  1
  Ir  Ir22  1  0.134912  0.641294  0.500000  1
  Ir  Ir23  1  0.862960  0.504731  0.500000  1
  Ir  Ir24  1  0.641771  0.137040  0.500000  1
  Ir  Ir25  1  0.495269  0.358229  0.500000  1
  Ir  Ir26  1  0.177545  0.368144  0.000000  1
  Ir  Ir27  1  0.631856  0.809402  0.000000  1
  Ir  Ir28  1  0.190598  0.822455  0.000000  1
  Ir  Ir29  1  0.809104  0.631414  0.000000  1
  Ir  Ir30  1  0.822311  0.190896  0.000000  1
  Ir  Ir31  1  0.368586  0.177689  0.000000  1
  Ir  Ir32  1  0.279419  0.000133  0.500000  1
  Ir  Ir33  1  0.999867  0.279286  0.500000  1
  Ir  Ir34  1  0.720714  0.720581  0.500000  1
  Ir  Ir35  1  0.000000  0.000000  0.000000  1
