# generated using pymatgen
data_LiFe3(SiTc)6
_symmetry_space_group_name_H-M   'P 1'
_cell_length_a   6.96384800
_cell_length_b   6.96384826
_cell_length_c   4.74967200
_cell_angle_alpha   90.00000000
_cell_angle_beta   90.00000000
_cell_angle_gamma   120.00000826
_symmetry_Int_Tables_number   1
_chemical_formula_structural   LiFe3(SiTc)6
_chemical_formula_sum   'Li1 Fe3 Si6 Tc6'
_cell_volume   199.47698600
_cell_formula_units_Z   1
loop_
 _symmetry_equiv_pos_site_id
 _symmetry_equiv_pos_as_xyz
  1  'x, y, z'
loop_
 _atom_site_type_symbol
 _atom_site_label
 _atom_site_symmetry_multiplicity
 _atom_site_fract_x
 _atom_site_fract_y
 _atom_site_fract_z
 _atom_site_occupancy
  Li  Li0  1  0.333333  0.666667  0.500000  1
  Fe  Fe1  1  0.666667  0.333333  0.000000  1
  Fe  Fe2  1  0.666667  0.333333  0.500000  1
  Fe  Fe3  1  0.333333  0.666667  0.000000  1
  Si  Si4  1  0.402791  0.999666  0.757136  1
  Si  Si5  1  0.402791  0.403125  0.242864  1
  Si  Si6  1  0.000334  0.597209  0.242864  1
  Si  Si7  1  0.000334  0.403125  0.757136  1
  Si  Si8  1  0.596875  0.597209  0.757136  1
  Si  Si9  1  0.596875  0.999666  0.242864  1
  Tc  Tc10  1  0.001718  0.758788  0.745919  1
  Tc  Tc11  1  0.001718  0.242929  0.254081  1
  Tc  Tc12  1  0.757071  0.758788  0.254081  1
  Tc  Tc13  1  0.757071  0.998282  0.745919  1
  Tc  Tc14  1  0.241212  0.242929  0.745919  1
  Tc  Tc15  1  0.241212  0.998282  0.254081  1
