# generated using pymatgen
data_TbEr6Tm(OsBr4)2
_symmetry_space_group_name_H-M   'P 1'
_cell_length_a   8.94939252
_cell_length_b   8.92418459
_cell_length_c   6.50745039
_cell_angle_alpha   89.50449956
_cell_angle_beta   89.34359120
_cell_angle_gamma   89.16077362
_symmetry_Int_Tables_number   1
_chemical_formula_structural   TbEr6Tm(OsBr4)2
_chemical_formula_sum   'Tb1 Er6 Tm1 Os2 Br8'
_cell_volume   519.61568885
_cell_formula_units_Z   1
loop_
 _symmetry_equiv_pos_site_id
 _symmetry_equiv_pos_as_xyz
  1  'x, y, z'
loop_
 _atom_site_type_symbol
 _atom_site_label
 _atom_site_symmetry_multiplicity
 _atom_site_fract_x
 _atom_site_fract_y
 _atom_site_fract_z
 _atom_site_occupancy
  Tb  Tb0  1  0.748296  0.099998  0.992395  1
  Er  Er1  1  0.099667  0.752079  0.490389  1
  Er  Er2  1  0.902555  0.247245  0.511409  1
  Er  Er3  1  0.754891  0.902657  0.510400  1
  Er  Er4  1  0.246556  0.095773  0.491846  1
  Er  Er5  1  0.095980  0.246435  0.992276  1
  Er  Er6  1  0.904419  0.753051  0.009945  1
  Tm  Tm7  1  0.245686  0.901825  0.010632  1
  Os  Os8  1  0.995625  0.004608  0.251048  1
  Os  Os9  1  0.005107  0.994845  0.750970  1
  Br  Br10  1  0.418662  0.817165  0.409691  1
  Br  Br11  1  0.582396  0.183822  0.582366  1
  Br  Br12  1  0.184257  0.581875  0.089046  1
  Br  Br13  1  0.817887  0.420236  0.910526  1
  Br  Br14  1  0.409923  0.189510  0.088620  1
  Br  Br15  1  0.586277  0.810233  0.908072  1
  Br  Br16  1  0.813023  0.586052  0.408527  1
  Br  Br17  1  0.188793  0.412591  0.591841  1
