# generated using pymatgen
data_Tm2Zr2Al18Ir5Pt
_symmetry_space_group_name_H-M   'P 1'
_cell_length_a   7.53047215
_cell_length_b   7.51764887
_cell_length_c   9.34943580
_cell_angle_alpha   90.02260437
_cell_angle_beta   90.02492372
_cell_angle_gamma   119.80475627
_symmetry_Int_Tables_number   1
_chemical_formula_structural   Tm2Zr2Al18Ir5Pt
_chemical_formula_sum   'Tm2 Zr2 Al18 Ir5 Pt1'
_cell_volume   459.27330889
_cell_formula_units_Z   1
loop_
 _symmetry_equiv_pos_site_id
 _symmetry_equiv_pos_as_xyz
  1  'x, y, z'
loop_
 _atom_site_type_symbol
 _atom_site_label
 _atom_site_symmetry_multiplicity
 _atom_site_fract_x
 _atom_site_fract_y
 _atom_site_fract_z
 _atom_site_occupancy
  Tm  Tm0  1  0.670130  0.994404  0.250817  1
  Tm  Tm1  1  0.329870  0.005596  0.749183  1
  Zr  Zr2  1  0.994606  0.670206  0.250350  1
  Zr  Zr3  1  0.005394  0.329794  0.749650  1
  Al  Al4  1  0.127755  0.126202  0.252130  1
  Al  Al5  1  0.872245  0.873798  0.747870  1
  Al  Al6  1  0.999577  0.339873  0.075748  1
  Al  Al7  1  0.000423  0.660127  0.924252  1
  Al  Al8  1  0.000774  0.663581  0.573985  1
  Al  Al9  1  0.332551  0.998351  0.423191  1
  Al  Al10  1  0.999226  0.336419  0.426015  1
  Al  Al11  1  0.667449  0.001649  0.576809  1
  Al  Al12  1  0.664244  0.001511  0.921443  1
  Al  Al13  1  0.335756  0.998489  0.078557  1
  Al  Al14  1  0.331452  0.333395  0.556595  1
  Al  Al15  1  0.668548  0.666605  0.443405  1
  Al  Al16  1  0.665596  0.663569  0.057898  1
  Al  Al17  1  0.334404  0.336431  0.942102  1
  Al  Al18  1  0.334199  0.548060  0.250177  1
  Al  Al19  1  0.665801  0.451940  0.749823  1
  Al  Al20  1  0.553458  0.342698  0.250255  1
  Al  Al21  1  0.446542  0.657302  0.749745  1
  Ir  Ir22  1  0.671140  0.326728  0.999728  1
  Ir  Ir23  1  0.328860  0.673272  0.000272  1
  Ir  Ir24  1  0.328571  0.673090  0.499572  1
  Ir  Ir25  1  0.671429  0.326910  0.500428  1
  Ir  Ir26  1  0.000000  0.000000  0.500000  1
  Pt  Pt27  1  0.000000  0.000000  0.000000  1
