# generated using pymatgen
data_Er20Bi8Pt3Au
_symmetry_space_group_name_H-M   'P 1'
_cell_length_a   8.03745075
_cell_length_b   9.03686500
_cell_length_c   12.27601348
_cell_angle_alpha   90.00000000
_cell_angle_beta   90.12552667
_cell_angle_gamma   90.00000000
_symmetry_Int_Tables_number   1
_chemical_formula_structural   Er20Bi8Pt3Au
_chemical_formula_sum   'Er20 Bi8 Pt3 Au1'
_cell_volume   891.64593407
_cell_formula_units_Z   1
loop_
 _symmetry_equiv_pos_site_id
 _symmetry_equiv_pos_as_xyz
  1  'x, y, z'
loop_
 _atom_site_type_symbol
 _atom_site_label
 _atom_site_symmetry_multiplicity
 _atom_site_fract_x
 _atom_site_fract_y
 _atom_site_fract_z
 _atom_site_occupancy
  Er  Er0  1  0.664734  0.750000  0.710814  1
  Er  Er1  1  0.334459  0.250000  0.289332  1
  Er  Er2  1  0.165494  0.250000  0.788459  1
  Er  Er3  1  0.829356  0.750000  0.217577  1
  Er  Er4  1  0.132794  0.750000  0.798780  1
  Er  Er5  1  0.873196  0.250000  0.196024  1
  Er  Er6  1  0.627124  0.250000  0.697335  1
  Er  Er7  1  0.372894  0.750000  0.301700  1
  Er  Er8  1  0.542332  0.750000  0.001512  1
  Er  Er9  1  0.451386  0.250000  0.999319  1
  Er  Er10  1  0.051812  0.250000  0.500146  1
  Er  Er11  1  0.949176  0.750000  0.501546  1
  Er  Er12  1  0.820534  0.444603  0.932514  1
  Er  Er13  1  0.180042  0.543061  0.068342  1
  Er  Er14  1  0.323875  0.548126  0.565867  1
  Er  Er15  1  0.180042  0.956939  0.068342  1
  Er  Er16  1  0.677821  0.452115  0.433104  1
  Er  Er17  1  0.820534  0.055397  0.932514  1
  Er  Er18  1  0.677821  0.047885  0.433104  1
  Er  Er19  1  0.323875  0.951874  0.565867  1
  Bi  Bi20  1  0.932494  0.009854  0.672914  1
  Bi  Bi21  1  0.067408  0.989467  0.328055  1
  Bi  Bi22  1  0.431914  0.989614  0.827575  1
  Bi  Bi23  1  0.067408  0.510533  0.328055  1
  Bi  Bi24  1  0.568969  0.010622  0.172109  1
  Bi  Bi25  1  0.932494  0.490146  0.672914  1
  Bi  Bi26  1  0.568969  0.489378  0.172109  1
  Bi  Bi27  1  0.431914  0.510386  0.827575  1
  Pt  Pt28  1  0.080889  0.250000  0.011696  1
  Pt  Pt29  1  0.422006  0.250000  0.511635  1
  Pt  Pt30  1  0.579994  0.750000  0.487050  1
  Au  Au31  1  0.916243  0.750000  0.986113  1
