# generated using pymatgen
data_DyLuFe2(Ni4P3)2
_symmetry_space_group_name_H-M   'P 1'
_cell_length_a   3.69045600
_cell_length_b   10.29583900
_cell_length_c   11.88083700
_cell_angle_alpha   90.00000000
_cell_angle_beta   90.00000000
_cell_angle_gamma   90.00000000
_symmetry_Int_Tables_number   1
_chemical_formula_structural   DyLuFe2(Ni4P3)2
_chemical_formula_sum   'Dy2 Lu2 Fe4 Ni16 P12'
_cell_volume   451.42833179
_cell_formula_units_Z   2
loop_
 _symmetry_equiv_pos_site_id
 _symmetry_equiv_pos_as_xyz
  1  'x, y, z'
loop_
 _atom_site_type_symbol
 _atom_site_label
 _atom_site_symmetry_multiplicity
 _atom_site_fract_x
 _atom_site_fract_y
 _atom_site_fract_z
 _atom_site_occupancy
  Dy  Dy0  1  0.750000  0.420740  0.295008  1
  Dy  Dy1  1  0.750000  0.079260  0.795008  1
  Lu  Lu2  1  0.250000  0.579153  0.704900  1
  Lu  Lu3  1  0.250000  0.920847  0.204900  1
  Fe  Fe4  1  0.250000  0.464784  0.930497  1
  Fe  Fe5  1  0.250000  0.035216  0.430497  1
  Fe  Fe6  1  0.750000  0.537507  0.067648  1
  Fe  Fe7  1  0.750000  0.962493  0.567648  1
  Ni  Ni8  1  0.250000  0.715001  0.995625  1
  Ni  Ni9  1  0.250000  0.784999  0.495625  1
  Ni  Ni10  1  0.750000  0.285507  0.004685  1
  Ni  Ni11  1  0.750000  0.214493  0.504685  1
  Ni  Ni12  1  0.250000  0.408039  0.488501  1
  Ni  Ni13  1  0.250000  0.091961  0.988501  1
  Ni  Ni14  1  0.750000  0.592958  0.514621  1
  Ni  Ni15  1  0.750000  0.907042  0.014621  1
  Ni  Ni16  1  0.250000  0.224811  0.176789  1
  Ni  Ni17  1  0.250000  0.275189  0.676789  1
  Ni  Ni18  1  0.750000  0.774270  0.823274  1
  Ni  Ni19  1  0.750000  0.725730  0.323274  1
  Ni  Ni20  1  0.250000  0.876215  0.701693  1
  Ni  Ni21  1  0.250000  0.623785  0.201693  1
  Ni  Ni22  1  0.750000  0.120961  0.297024  1
  Ni  Ni23  1  0.750000  0.379039  0.797024  1
  P  P24  1  0.250000  0.426467  0.111017  1
  P  P25  1  0.250000  0.073533  0.611017  1
  P  P26  1  0.750000  0.574544  0.886822  1
  P  P27  1  0.750000  0.925456  0.386822  1
  P  P28  1  0.250000  0.268805  0.869171  1
  P  P29  1  0.250000  0.231195  0.369171  1
  P  P30  1  0.750000  0.732759  0.132098  1
  P  P31  1  0.750000  0.767241  0.632098  1
  P  P32  1  0.250000  0.603801  0.393031  1
  P  P33  1  0.250000  0.896199  0.893031  1
  P  P34  1  0.750000  0.397207  0.607594  1
  P  P35  1  0.750000  0.102793  0.107594  1
