# generated using pymatgen
data_NdMnInO5
_symmetry_space_group_name_H-M   'P 1'
_cell_length_a   5.91016400
_cell_length_b   7.69894800
_cell_length_c   8.89829600
_cell_angle_alpha   90.00000000
_cell_angle_beta   90.00000000
_cell_angle_gamma   90.00000000
_symmetry_Int_Tables_number   1
_chemical_formula_structural   NdMnInO5
_chemical_formula_sum   'Nd4 Mn4 In4 O20'
_cell_volume   404.89066775
_cell_formula_units_Z   4
loop_
 _symmetry_equiv_pos_site_id
 _symmetry_equiv_pos_as_xyz
  1  'x, y, z'
loop_
 _atom_site_type_symbol
 _atom_site_label
 _atom_site_symmetry_multiplicity
 _atom_site_fract_x
 _atom_site_fract_y
 _atom_site_fract_z
 _atom_site_occupancy
  Nd  Nd0  1  0.000000  0.362894  0.669478  1
  Nd  Nd1  1  0.000000  0.637106  0.330522  1
  Nd  Nd2  1  0.000000  0.862894  0.830522  1
  Nd  Nd3  1  0.000000  0.137106  0.169478  1
  Mn  Mn4  1  0.247271  0.500000  0.000000  1
  Mn  Mn5  1  0.752729  0.000000  0.500000  1
  Mn  Mn6  1  0.752729  0.500000  0.000000  1
  Mn  Mn7  1  0.247271  0.000000  0.500000  1
  In  In8  1  0.500000  0.110258  0.847519  1
  In  In9  1  0.500000  0.889742  0.152481  1
  In  In10  1  0.500000  0.610258  0.652481  1
  In  In11  1  0.500000  0.389742  0.347519  1
  O  O12  1  0.230189  0.897451  0.304188  1
  O  O13  1  0.230189  0.102549  0.695812  1
  O  O14  1  0.769811  0.397451  0.195812  1
  O  O15  1  0.769811  0.602549  0.804188  1
  O  O16  1  0.769811  0.102549  0.695812  1
  O  O17  1  0.769811  0.897451  0.304188  1
  O  O18  1  0.230189  0.602549  0.804188  1
  O  O19  1  0.230189  0.397451  0.195812  1
  O  O20  1  0.500000  0.361491  0.932577  1
  O  O21  1  0.500000  0.638509  0.067423  1
  O  O22  1  0.500000  0.861491  0.567423  1
  O  O23  1  0.500000  0.138509  0.432577  1
  O  O24  1  0.256853  0.000000  0.000000  1
  O  O25  1  0.743147  0.500000  0.500000  1
  O  O26  1  0.743147  0.000000  0.000000  1
  O  O27  1  0.256853  0.500000  0.500000  1
  O  O28  1  0.000000  0.154398  0.443665  1
  O  O29  1  0.000000  0.845602  0.556335  1
  O  O30  1  0.000000  0.654398  0.056335  1
  O  O31  1  0.000000  0.345602  0.943665  1
