# generated using pymatgen
data_YEr2Al27Cr8Re
_symmetry_space_group_name_H-M   'P 1'
_cell_length_a   5.07344338
_cell_length_b   6.86278721
_cell_length_c   19.29802601
_cell_angle_alpha   87.12985822
_cell_angle_beta   97.78552647
_cell_angle_gamma   111.69306990
_symmetry_Int_Tables_number   1
_chemical_formula_structural   YEr2Al27Cr8Re
_chemical_formula_sum   'Y1 Er2 Al27 Cr8 Re1'
_cell_volume   618.57586609
_cell_formula_units_Z   1
loop_
 _symmetry_equiv_pos_site_id
 _symmetry_equiv_pos_as_xyz
  1  'x, y, z'
loop_
 _atom_site_type_symbol
 _atom_site_label
 _atom_site_symmetry_multiplicity
 _atom_site_fract_x
 _atom_site_fract_y
 _atom_site_fract_z
 _atom_site_occupancy
  Y  Y0  1  0.333333  0.000000  0.666667  1
  Er  Er1  1  0.994303  0.000000  0.999219  1
  Er  Er2  1  0.672364  0.000000  0.334114  1
  Al  Al3  1  0.128630  0.349938  0.888494  1
  Al  Al4  1  0.775244  0.353150  0.222557  1
  Al  Al5  1  0.463522  0.350507  0.555913  1
  Al  Al6  1  0.203144  0.649493  0.777421  1
  Al  Al7  1  0.891423  0.646850  0.110776  1
  Al  Al8  1  0.538037  0.650062  0.444839  1
  Al  Al9  1  0.553652  0.350507  0.777421  1
  Al  Al10  1  0.244574  0.353150  0.110776  1
  Al  Al11  1  0.887975  0.349938  0.444839  1
  Al  Al12  1  0.778692  0.650062  0.888494  1
  Al  Al13  1  0.422093  0.646850  0.222557  1
  Al  Al14  1  0.113014  0.649493  0.555913  1
  Al  Al15  1  0.766859  0.775220  0.737874  1
  Al  Al16  1  0.411435  0.775649  0.069602  1
  Al  Al17  1  0.104854  0.776102  0.405402  1
  Al  Al18  1  0.561812  0.223898  0.927932  1
  Al  Al19  1  0.255232  0.224351  0.263731  1
  Al  Al20  1  0.899808  0.224780  0.595459  1
  Al  Al21  1  0.337914  0.776102  0.927932  1
  Al  Al22  1  0.030881  0.775649  0.263731  1
  Al  Al23  1  0.675028  0.775220  0.595459  1
  Al  Al24  1  0.991639  0.224780  0.737874  1
  Al  Al25  1  0.635786  0.224351  0.069602  1
  Al  Al26  1  0.328752  0.223898  0.405402  1
  Al  Al27  1  0.001695  0.000000  0.501029  1
  Al  Al28  1  0.664972  0.000000  0.832304  1
  Al  Al29  1  0.833333  0.000000  0.166667  1
  Cr  Cr30  1  0.500476  0.000000  0.499497  1
  Cr  Cr31  1  0.166191  0.000000  0.833836  1
  Cr  Cr32  1  0.995807  0.486702  0.999377  1
  Cr  Cr33  1  0.670860  0.513298  0.333956  1
  Cr  Cr34  1  0.333333  0.500000  0.666667  1
  Cr  Cr35  1  0.509104  0.513298  0.999377  1
  Cr  Cr36  1  0.157563  0.486702  0.333956  1
  Cr  Cr37  1  0.833333  0.500000  0.666667  1
  Re  Re38  1  0.333333  0.000000  0.166667  1
