# generated using pymatgen
data_Li6ZnFe2(Sn3O8)3
_symmetry_space_group_name_H-M   'P 1'
_cell_length_a   10.68916800
_cell_length_b   10.70305810
_cell_length_c   10.05421300
_cell_angle_alpha   90.00000000
_cell_angle_beta   90.00000000
_cell_angle_gamma   120.01181458
_symmetry_Int_Tables_number   1
_chemical_formula_structural   Li6ZnFe2(Sn3O8)3
_chemical_formula_sum   'Li12 Zn2 Fe4 Sn18 O48'
_cell_volume   996.04459563
_cell_formula_units_Z   2
loop_
 _symmetry_equiv_pos_site_id
 _symmetry_equiv_pos_as_xyz
  1  'x, y, z'
loop_
 _atom_site_type_symbol
 _atom_site_label
 _atom_site_symmetry_multiplicity
 _atom_site_fract_x
 _atom_site_fract_y
 _atom_site_fract_z
 _atom_site_occupancy
  Li  Li0  1  0.334053  0.833228  0.009072  1
  Li  Li1  1  0.693989  0.333440  0.780755  1
  Li  Li2  1  0.306012  0.666561  0.280754  1
  Li  Li3  1  0.333796  0.691641  0.781094  1
  Li  Li4  1  0.666205  0.308360  0.281093  1
  Li  Li5  1  0.981507  0.982092  0.783734  1
  Li  Li6  1  0.018492  0.017907  0.283735  1
  Li  Li7  1  0.165158  0.165620  0.508847  1
  Li  Li8  1  0.834842  0.834380  0.008848  1
  Li  Li9  1  0.166630  0.665589  0.509272  1
  Li  Li10  1  0.833371  0.334412  0.009272  1
  Li  Li11  1  0.665948  0.166773  0.509072  1
  Zn  Zn12  1  0.999588  0.333914  0.695128  1
  Zn  Zn13  1  0.000413  0.666087  0.195127  1
  Fe  Fe14  1  0.666338  0.666168  0.689812  1
  Fe  Fe15  1  0.333663  0.333833  0.189812  1
  Fe  Fe16  1  0.334342  0.001680  0.692669  1
  Fe  Fe17  1  0.665659  0.998321  0.192668  1
  Sn  Sn18  1  0.015768  0.840407  0.503453  1
  Sn  Sn19  1  0.984231  0.159593  0.003454  1
  Sn  Sn20  1  0.841914  0.017107  0.504229  1
  Sn  Sn21  1  0.158086  0.982892  0.004230  1
  Sn  Sn22  1  0.839944  0.494168  0.502871  1
  Sn  Sn23  1  0.160057  0.505833  0.002872  1
  Sn  Sn24  1  0.495518  0.838921  0.502735  1
  Sn  Sn25  1  0.504483  0.161080  0.002736  1
  Sn  Sn26  1  0.492070  0.319651  0.503878  1
  Sn  Sn27  1  0.507930  0.680349  0.003878  1
  Sn  Sn28  1  0.318261  0.491674  0.503972  1
  Sn  Sn29  1  0.681739  0.508326  0.003972  1
  Sn  Sn30  1  0.004164  0.666868  0.782778  1
  Sn  Sn31  1  0.995837  0.333133  0.282777  1
  Sn  Sn32  1  0.667235  0.004058  0.782924  1
  Sn  Sn33  1  0.332766  0.995943  0.282923  1
  Sn  Sn34  1  0.328014  0.329275  0.783777  1
  Sn  Sn35  1  0.671986  0.670725  0.283779  1
  O  O36  1  0.852178  0.668743  0.627913  1
  O  O37  1  0.147820  0.331256  0.127912  1
  O  O38  1  0.670664  0.852695  0.628847  1
  O  O39  1  0.329335  0.147303  0.128846  1
  O  O40  1  0.338719  0.186827  0.643909  1
  O  O41  1  0.661280  0.813172  0.143909  1
  O  O42  1  0.183578  0.338682  0.643217  1
  O  O43  1  0.816421  0.661317  0.143217  1
  O  O44  1  0.148986  0.818263  0.640195  1
  O  O45  1  0.851014  0.181737  0.140195  1
  O  O46  1  0.821705  0.152060  0.640774  1
  O  O47  1  0.178295  0.847940  0.140774  1
  O  O48  1  0.991362  0.509336  0.641161  1
  O  O49  1  0.008639  0.490664  0.141161  1
  O  O50  1  0.511541  0.989666  0.641310  1
  O  O51  1  0.488459  0.010335  0.141310  1
  O  O52  1  0.665901  0.336009  0.601402  1
  O  O53  1  0.334098  0.663990  0.101402  1
  O  O54  1  0.336132  0.666139  0.601299  1
  O  O55  1  0.663867  0.333860  0.101299  1
  O  O56  1  0.842154  0.841827  0.387863  1
  O  O57  1  0.157846  0.158173  0.887864  1
  O  O58  1  0.166693  0.999607  0.384362  1
  O  O59  1  0.833307  0.000393  0.884361  1
  O  O60  1  0.000020  0.166410  0.383314  1
  O  O61  1  0.999980  0.833590  0.883313  1
  O  O62  1  0.338363  0.338620  0.394557  1
  O  O63  1  0.661636  0.661379  0.894555  1
  O  O64  1  0.665127  0.495527  0.389875  1
  O  O65  1  0.334873  0.504473  0.889875  1
  O  O66  1  0.496016  0.664695  0.389949  1
  O  O67  1  0.503984  0.335305  0.889949  1
  O  O68  1  0.830524  0.335116  0.383229  1
  O  O69  1  0.169476  0.664885  0.883228  1
  O  O70  1  0.336194  0.831589  0.383793  1
  O  O71  1  0.663807  0.168411  0.883792  1
  O  O72  1  0.497144  0.168976  0.383121  1
  O  O73  1  0.502857  0.831025  0.883120  1
  O  O74  1  0.168788  0.497528  0.382174  1
  O  O75  1  0.831213  0.502473  0.882173  1
  O  O76  1  0.997333  0.666552  0.396345  1
  O  O77  1  0.002668  0.333449  0.896345  1
  O  O78  1  0.667567  0.996330  0.397789  1
  O  O79  1  0.332434  0.003671  0.897789  1
  O  O80  1  0.998174  0.997580  0.602137  1
  O  O81  1  0.001826  0.002420  0.102139  1
  O  O82  1  0.479885  0.480506  0.632468  1
  O  O83  1  0.520116  0.519495  0.132467  1
