# generated using pymatgen
data_Na2PPt2
_symmetry_space_group_name_H-M   'P 1'
_cell_length_a   5.49329329
_cell_length_b   5.49329225
_cell_length_c   7.34692012
_cell_angle_alpha   97.10072599
_cell_angle_beta   97.10072030
_cell_angle_gamma   66.31751392
_symmetry_Int_Tables_number   1
_chemical_formula_structural   Na2PPt2
_chemical_formula_sum   'Na4 P2 Pt4'
_cell_volume   200.80644699
_cell_formula_units_Z   2
loop_
 _symmetry_equiv_pos_site_id
 _symmetry_equiv_pos_as_xyz
  1  'x, y, z'
loop_
 _atom_site_type_symbol
 _atom_site_label
 _atom_site_symmetry_multiplicity
 _atom_site_fract_x
 _atom_site_fract_y
 _atom_site_fract_z
 _atom_site_occupancy
  Na  Na0  1  0.033348  0.264161  0.147807  1
  Na  Na1  1  0.735838  0.966652  0.352193  1
  Na  Na2  1  0.264162  0.033348  0.647807  1
  Na  Na3  1  0.966652  0.735839  0.852194  1
  P  P4  1  0.437119  0.562881  0.250000  1
  P  P5  1  0.562881  0.437119  0.750000  1
  Pt  Pt6  1  0.489999  0.759239  0.001926  1
  Pt  Pt7  1  0.240761  0.510002  0.498073  1
  Pt  Pt8  1  0.759239  0.489998  0.501927  1
  Pt  Pt9  1  0.510002  0.240761  0.998073  1
