# generated using pymatgen
data_Ca3Y4LuHg8
_symmetry_space_group_name_H-M   'P 1'
_cell_length_a   7.46139000
_cell_length_b   7.47895400
_cell_length_c   7.49016800
_cell_angle_alpha   90.00000000
_cell_angle_beta   89.99930889
_cell_angle_gamma   90.00000000
_symmetry_Int_Tables_number   1
_chemical_formula_structural   Ca3Y4LuHg8
_chemical_formula_sum   'Ca3 Y4 Lu1 Hg8'
_cell_volume   417.97678544
_cell_formula_units_Z   1
loop_
 _symmetry_equiv_pos_site_id
 _symmetry_equiv_pos_as_xyz
  1  'x, y, z'
loop_
 _atom_site_type_symbol
 _atom_site_label
 _atom_site_symmetry_multiplicity
 _atom_site_fract_x
 _atom_site_fract_y
 _atom_site_fract_z
 _atom_site_occupancy
  Ca  Ca0  1  0.249481  0.750000  0.499979  1
  Ca  Ca1  1  0.750648  0.250000  0.500025  1
  Ca  Ca2  1  0.250519  0.750000  0.999983  1
  Y  Y3  1  0.250820  0.250000  0.999991  1
  Y  Y4  1  0.749274  0.750000  0.999997  1
  Y  Y5  1  0.750707  0.750000  0.500006  1
  Y  Y6  1  0.249290  0.250000  0.499998  1
  Lu  Lu7  1  0.749446  0.250000  0.000040  1
  Hg  Hg8  1  0.995646  0.495565  0.245611  1
  Hg  Hg9  1  0.995646  0.004437  0.245611  1
  Hg  Hg10  1  0.504436  0.004509  0.247591  1
  Hg  Hg11  1  0.504436  0.495491  0.247591  1
  Hg  Hg12  1  0.504309  0.495608  0.752396  1
  Hg  Hg13  1  0.504309  0.004394  0.752396  1
  Hg  Hg14  1  0.995516  0.004502  0.754394  1
  Hg  Hg15  1  0.995516  0.495498  0.754394  1
