# generated using pymatgen
data_Tm3CoP6Ru5Rh3
_symmetry_space_group_name_H-M   'P 1'
_cell_length_a   3.86975100
_cell_length_b   11.11281600
_cell_length_c   12.59190800
_cell_angle_alpha   90.00000000
_cell_angle_beta   90.00000000
_cell_angle_gamma   90.00000000
_symmetry_Int_Tables_number   1
_chemical_formula_structural   Tm3CoP6Ru5Rh3
_chemical_formula_sum   'Tm6 Co2 P12 Ru10 Rh6'
_cell_volume   541.50028144
_cell_formula_units_Z   2
loop_
 _symmetry_equiv_pos_site_id
 _symmetry_equiv_pos_as_xyz
  1  'x, y, z'
loop_
 _atom_site_type_symbol
 _atom_site_label
 _atom_site_symmetry_multiplicity
 _atom_site_fract_x
 _atom_site_fract_y
 _atom_site_fract_z
 _atom_site_occupancy
  Tm  Tm0  1  0.000000  0.500000  0.522164  1
  Tm  Tm1  1  0.500000  0.000000  0.477836  1
  Tm  Tm2  1  0.500000  0.819012  0.203487  1
  Tm  Tm3  1  0.500000  0.180988  0.203487  1
  Tm  Tm4  1  0.000000  0.680988  0.796513  1
  Tm  Tm5  1  0.000000  0.319012  0.796513  1
  Co  Co6  1  0.000000  0.500000  0.987836  1
  Co  Co7  1  0.500000  0.000000  0.012164  1
  P  P8  1  0.500000  0.500000  0.883805  1
  P  P9  1  0.000000  0.000000  0.116195  1
  P  P10  1  0.500000  0.500000  0.346458  1
  P  P11  1  0.000000  0.000000  0.653542  1
  P  P12  1  0.500000  0.309409  0.615472  1
  P  P13  1  0.500000  0.690591  0.615472  1
  P  P14  1  0.000000  0.190591  0.384528  1
  P  P15  1  0.000000  0.809409  0.384528  1
  P  P16  1  0.500000  0.848100  0.898876  1
  P  P17  1  0.500000  0.151900  0.898876  1
  P  P18  1  0.000000  0.651900  0.101124  1
  P  P19  1  0.000000  0.348100  0.101124  1
  Ru  Ru20  1  0.500000  0.500000  0.158064  1
  Ru  Ru21  1  0.000000  0.000000  0.841936  1
  Ru  Ru22  1  0.500000  0.335357  0.989835  1
  Ru  Ru23  1  0.500000  0.664643  0.989835  1
  Ru  Ru24  1  0.000000  0.164643  0.010165  1
  Ru  Ru25  1  0.000000  0.835357  0.010165  1
  Ru  Ru26  1  0.500000  0.299699  0.428444  1
  Ru  Ru27  1  0.500000  0.700301  0.428444  1
  Ru  Ru28  1  0.000000  0.200301  0.571556  1
  Ru  Ru29  1  0.000000  0.799699  0.571556  1
  Rh  Rh30  1  0.500000  0.500000  0.699561  1
  Rh  Rh31  1  0.000000  0.000000  0.300439  1
  Rh  Rh32  1  0.500000  0.874223  0.716695  1
  Rh  Rh33  1  0.500000  0.125777  0.716695  1
  Rh  Rh34  1  0.000000  0.625777  0.283305  1
  Rh  Rh35  1  0.000000  0.374223  0.283305  1
