# generated using pymatgen
data_Dy16MgCd3Ni3Ru
_symmetry_space_group_name_H-M   'P 1'
_cell_length_a   9.59520651
_cell_length_b   9.59520702
_cell_length_c   9.59520552
_cell_angle_alpha   59.59831825
_cell_angle_beta   59.59831258
_cell_angle_gamma   59.59831834
_symmetry_Int_Tables_number   1
_chemical_formula_structural   Dy16MgCd3Ni3Ru
_chemical_formula_sum   'Dy16 Mg1 Cd3 Ni3 Ru1'
_cell_volume   618.96299361
_cell_formula_units_Z   1
loop_
 _symmetry_equiv_pos_site_id
 _symmetry_equiv_pos_as_xyz
  1  'x, y, z'
loop_
 _atom_site_type_symbol
 _atom_site_label
 _atom_site_symmetry_multiplicity
 _atom_site_fract_x
 _atom_site_fract_y
 _atom_site_fract_z
 _atom_site_occupancy
  Dy  Dy0  1  0.597692  0.597692  0.597692  1
  Dy  Dy1  1  0.599629  0.599629  0.206069  1
  Dy  Dy2  1  0.599629  0.206069  0.599629  1
  Dy  Dy3  1  0.206069  0.599629  0.599629  1
  Dy  Dy4  1  0.059940  0.438924  0.438924  1
  Dy  Dy5  1  0.436488  0.062469  0.062469  1
  Dy  Dy6  1  0.438924  0.059940  0.438924  1
  Dy  Dy7  1  0.062469  0.436488  0.062469  1
  Dy  Dy8  1  0.438924  0.438924  0.059940  1
  Dy  Dy9  1  0.062469  0.062469  0.436488  1
  Dy  Dy10  1  0.186625  0.816722  0.816722  1
  Dy  Dy11  1  0.809594  0.188223  0.188223  1
  Dy  Dy12  1  0.816722  0.186625  0.816722  1
  Dy  Dy13  1  0.188223  0.809594  0.188223  1
  Dy  Dy14  1  0.816722  0.816722  0.186625  1
  Dy  Dy15  1  0.188223  0.188223  0.809594  1
  Mg  Mg16  1  0.824895  0.824895  0.824895  1
  Cd  Cd17  1  0.830065  0.830065  0.505179  1
  Cd  Cd18  1  0.830065  0.505179  0.830065  1
  Cd  Cd19  1  0.505179  0.830065  0.830065  1
  Ni  Ni20  1  0.391986  0.391986  0.824420  1
  Ni  Ni21  1  0.391986  0.824420  0.391986  1
  Ni  Ni22  1  0.824420  0.391986  0.391986  1
  Ru  Ru23  1  0.393064  0.393064  0.393064  1
