# generated using pymatgen
data_Rb2TcF6
_symmetry_space_group_name_H-M   'P 1'
_cell_length_a   6.10377500
_cell_length_b   6.10377420
_cell_length_c   4.91297100
_cell_angle_alpha   90.00000000
_cell_angle_beta   90.00000000
_cell_angle_gamma   120.00000974
_symmetry_Int_Tables_number   1
_chemical_formula_structural   Rb2TcF6
_chemical_formula_sum   'Rb2 Tc1 F6'
_cell_volume   158.51551104
_cell_formula_units_Z   1
loop_
 _symmetry_equiv_pos_site_id
 _symmetry_equiv_pos_as_xyz
  1  'x, y, z'
loop_
 _atom_site_type_symbol
 _atom_site_label
 _atom_site_symmetry_multiplicity
 _atom_site_fract_x
 _atom_site_fract_y
 _atom_site_fract_z
 _atom_site_occupancy
  Rb  Rb0  1  0.333333  0.666667  0.794771  1
  Rb  Rb1  1  0.666667  0.333333  0.205229  1
  Tc  Tc2  1  0.000000  0.000000  0.500000  1
  F  F3  1  0.156027  0.312055  0.279539  1
  F  F4  1  0.687945  0.843973  0.279539  1
  F  F5  1  0.156027  0.843973  0.279539  1
  F  F6  1  0.843973  0.687945  0.720461  1
  F  F7  1  0.312055  0.156027  0.720461  1
  F  F8  1  0.843973  0.156027  0.720461  1
