# generated using pymatgen
data_Sr11Yb(PrSn2)8
_symmetry_space_group_name_H-M   'P 1'
_cell_length_a   8.21583900
_cell_length_b   8.74927705
_cell_length_c   16.67496100
_cell_angle_alpha   90.00000000
_cell_angle_beta   90.00000000
_cell_angle_gamma   89.90102395
_symmetry_Int_Tables_number   1
_chemical_formula_structural   Sr11Yb(PrSn2)8
_chemical_formula_sum   'Sr11 Yb1 Pr8 Sn16'
_cell_volume   1198.63862433
_cell_formula_units_Z   1
loop_
 _symmetry_equiv_pos_site_id
 _symmetry_equiv_pos_as_xyz
  1  'x, y, z'
loop_
 _atom_site_type_symbol
 _atom_site_label
 _atom_site_symmetry_multiplicity
 _atom_site_fract_x
 _atom_site_fract_y
 _atom_site_fract_z
 _atom_site_occupancy
  Sr  Sr0  1  0.508102  0.682409  0.592047  1
  Sr  Sr1  1  0.008435  0.817561  0.907739  1
  Sr  Sr2  1  0.492662  0.315913  0.093937  1
  Sr  Sr3  1  0.990377  0.181503  0.405606  1
  Sr  Sr4  1  0.492662  0.315913  0.406063  1
  Sr  Sr5  1  0.990377  0.181503  0.094394  1
  Sr  Sr6  1  0.508102  0.682409  0.907953  1
  Sr  Sr7  1  0.008435  0.817561  0.592261  1
  Sr  Sr8  1  0.836562  0.515362  0.750000  1
  Sr  Sr9  1  0.336739  0.984684  0.750000  1
  Sr  Sr10  1  0.162680  0.485643  0.250000  1
  Yb  Yb11  1  0.660621  0.009741  0.250000  1
  Pr  Pr12  1  0.675665  0.169627  0.620589  1
  Pr  Pr13  1  0.175679  0.330239  0.879105  1
  Pr  Pr14  1  0.324576  0.831431  0.122173  1
  Pr  Pr15  1  0.824326  0.670448  0.377931  1
  Pr  Pr16  1  0.324576  0.831431  0.377827  1
  Pr  Pr17  1  0.824326  0.670448  0.122069  1
  Pr  Pr18  1  0.675665  0.169627  0.879411  1
  Pr  Pr19  1  0.175679  0.330239  0.620895  1
  Sn  Sn20  1  0.660913  0.961499  0.458351  1
  Sn  Sn21  1  0.161402  0.540437  0.039559  1
  Sn  Sn22  1  0.339253  0.039973  0.961601  1
  Sn  Sn23  1  0.839134  0.459917  0.538334  1
  Sn  Sn24  1  0.339253  0.039973  0.538399  1
  Sn  Sn25  1  0.839134  0.459917  0.961666  1
  Sn  Sn26  1  0.660913  0.961499  0.041649  1
  Sn  Sn27  1  0.161402  0.540437  0.460441  1
  Sn  Sn28  1  0.469360  0.370346  0.750000  1
  Sn  Sn29  1  0.968778  0.129645  0.750000  1
  Sn  Sn30  1  0.532922  0.630568  0.250000  1
  Sn  Sn31  1  0.024936  0.879910  0.250000  1
  Sn  Sn32  1  0.726526  0.885360  0.750000  1
  Sn  Sn33  1  0.226417  0.614791  0.750000  1
  Sn  Sn34  1  0.283032  0.114161  0.250000  1
  Sn  Sn35  1  0.770383  0.377878  0.250000  1
