# generated using pymatgen
data_Dy2ScGa5
_symmetry_space_group_name_H-M   'P 1'
_cell_length_a   6.01461100
_cell_length_b   9.49838300
_cell_length_c   11.39967900
_cell_angle_alpha   90.00000000
_cell_angle_beta   90.00000000
_cell_angle_gamma   90.00000000
_symmetry_Int_Tables_number   1
_chemical_formula_structural   Dy2ScGa5
_chemical_formula_sum   'Dy8 Sc4 Ga20'
_cell_volume   651.25316073
_cell_formula_units_Z   4
loop_
 _symmetry_equiv_pos_site_id
 _symmetry_equiv_pos_as_xyz
  1  'x, y, z'
loop_
 _atom_site_type_symbol
 _atom_site_label
 _atom_site_symmetry_multiplicity
 _atom_site_fract_x
 _atom_site_fract_y
 _atom_site_fract_z
 _atom_site_occupancy
  Dy  Dy0  1  0.892087  0.510165  0.351709  1
  Dy  Dy1  1  0.607913  0.989835  0.851709  1
  Dy  Dy2  1  0.107913  0.010165  0.648291  1
  Dy  Dy3  1  0.392087  0.489835  0.148291  1
  Dy  Dy4  1  0.107913  0.489835  0.648291  1
  Dy  Dy5  1  0.392087  0.010165  0.148291  1
  Dy  Dy6  1  0.892087  0.989835  0.351709  1
  Dy  Dy7  1  0.607913  0.510165  0.851709  1
  Sc  Sc8  1  0.849836  0.750000  0.075570  1
  Sc  Sc9  1  0.650164  0.750000  0.575570  1
  Sc  Sc10  1  0.150164  0.250000  0.924430  1
  Sc  Sc11  1  0.349836  0.250000  0.424430  1
  Ga  Ga12  1  0.878060  0.050763  0.088932  1
  Ga  Ga13  1  0.621940  0.449237  0.588932  1
  Ga  Ga14  1  0.121940  0.550763  0.911068  1
  Ga  Ga15  1  0.378060  0.949237  0.411068  1
  Ga  Ga16  1  0.121940  0.949237  0.911068  1
  Ga  Ga17  1  0.378060  0.550763  0.411068  1
  Ga  Ga18  1  0.878060  0.449237  0.088932  1
  Ga  Ga19  1  0.621940  0.050763  0.588932  1
  Ga  Ga20  1  0.165128  0.750000  0.248934  1
  Ga  Ga21  1  0.334872  0.750000  0.748934  1
  Ga  Ga22  1  0.834872  0.250000  0.751066  1
  Ga  Ga23  1  0.665128  0.250000  0.251066  1
  Ga  Ga24  1  0.379728  0.750000  0.003589  1
  Ga  Ga25  1  0.120272  0.750000  0.503589  1
  Ga  Ga26  1  0.620272  0.250000  0.996411  1
  Ga  Ga27  1  0.879728  0.250000  0.496411  1
  Ga  Ga28  1  0.601799  0.750000  0.296258  1
  Ga  Ga29  1  0.898201  0.750000  0.796258  1
  Ga  Ga30  1  0.398201  0.250000  0.703742  1
  Ga  Ga31  1  0.101799  0.250000  0.203742  1
