# generated using pymatgen
data_Pr7EuTe8
_symmetry_space_group_name_H-M   'P 1'
_cell_length_a   9.08252665
_cell_length_b   9.11180683
_cell_length_c   9.08252700
_cell_angle_alpha   60.10624505
_cell_angle_beta   60.00000238
_cell_angle_gamma   60.10624217
_symmetry_Int_Tables_number   1
_chemical_formula_structural   Pr7EuTe8
_chemical_formula_sum   'Pr7 Eu1 Te8'
_cell_volume   532.35146106
_cell_formula_units_Z   1
loop_
 _symmetry_equiv_pos_site_id
 _symmetry_equiv_pos_as_xyz
  1  'x, y, z'
loop_
 _atom_site_type_symbol
 _atom_site_label
 _atom_site_symmetry_multiplicity
 _atom_site_fract_x
 _atom_site_fract_y
 _atom_site_fract_z
 _atom_site_occupancy
  Pr  Pr0  1  0.125000  0.125000  0.625000  1
  Pr  Pr1  1  0.625000  0.125000  0.125000  1
  Pr  Pr2  1  0.125000  0.125000  0.125000  1
  Pr  Pr3  1  0.625000  0.125000  0.625000  1
  Pr  Pr4  1  0.625000  0.625000  0.625000  1
  Pr  Pr5  1  0.125000  0.625000  0.625000  1
  Pr  Pr6  1  0.625000  0.625000  0.125000  1
  Eu  Eu7  1  0.125000  0.625000  0.125000  1
  Te  Te8  1  0.374976  0.875071  0.374976  1
  Te  Te9  1  0.875024  0.374929  0.875024  1
  Te  Te10  1  0.875660  0.874438  0.374242  1
  Te  Te11  1  0.875660  0.874438  0.875660  1
  Te  Te12  1  0.875758  0.375562  0.374340  1
  Te  Te13  1  0.374340  0.375562  0.875758  1
  Te  Te14  1  0.374340  0.375562  0.374340  1
  Te  Te15  1  0.374242  0.874438  0.875660  1
