# generated using pymatgen
data_YMgCd2(Ni3B)2
_symmetry_space_group_name_H-M   'P 1'
_cell_length_a   5.11064000
_cell_length_b   5.11064044
_cell_length_c   14.05128000
_cell_angle_alpha   90.00000000
_cell_angle_beta   90.00000000
_cell_angle_gamma   120.00001010
_symmetry_Int_Tables_number   1
_chemical_formula_structural   YMgCd2(Ni3B)2
_chemical_formula_sum   'Y2 Mg2 Cd4 Ni12 B4'
_cell_volume   317.83161338
_cell_formula_units_Z   2
loop_
 _symmetry_equiv_pos_site_id
 _symmetry_equiv_pos_as_xyz
  1  'x, y, z'
loop_
 _atom_site_type_symbol
 _atom_site_label
 _atom_site_symmetry_multiplicity
 _atom_site_fract_x
 _atom_site_fract_y
 _atom_site_fract_z
 _atom_site_occupancy
  Y  Y0  1  0.333333  0.666667  0.750000  1
  Y  Y1  1  0.666667  0.333333  0.250000  1
  Mg  Mg2  1  0.000000  0.000000  0.500000  1
  Mg  Mg3  1  0.000000  0.000000  0.000000  1
  Cd  Cd4  1  0.333333  0.666667  0.970520  1
  Cd  Cd5  1  0.666667  0.333333  0.029480  1
  Cd  Cd6  1  0.666667  0.333333  0.470520  1
  Cd  Cd7  1  0.333333  0.666667  0.529480  1
  Ni  Ni8  1  0.167911  0.832089  0.348594  1
  Ni  Ni9  1  0.167911  0.335823  0.348594  1
  Ni  Ni10  1  0.664177  0.832089  0.348594  1
  Ni  Ni11  1  0.832089  0.167911  0.651406  1
  Ni  Ni12  1  0.832089  0.664177  0.651406  1
  Ni  Ni13  1  0.335823  0.167911  0.651406  1
  Ni  Ni14  1  0.832089  0.167911  0.848594  1
  Ni  Ni15  1  0.832089  0.664177  0.848594  1
  Ni  Ni16  1  0.335823  0.167911  0.848594  1
  Ni  Ni17  1  0.167911  0.832089  0.151406  1
  Ni  Ni18  1  0.167911  0.335823  0.151406  1
  Ni  Ni19  1  0.664177  0.832089  0.151406  1
  B  B20  1  0.333333  0.666667  0.250000  1
  B  B21  1  0.666667  0.333333  0.750000  1
  B  B22  1  0.000000  0.000000  0.250000  1
  B  B23  1  0.000000  0.000000  0.750000  1
