# generated using pymatgen
data_Er2Tm3IrRh
_symmetry_space_group_name_H-M   'P 1'
_cell_length_a   6.40229402
_cell_length_b   7.12467027
_cell_length_c   8.44256594
_cell_angle_alpha   96.55920396
_cell_angle_beta   112.28212454
_cell_angle_gamma   89.99999625
_symmetry_Int_Tables_number   1
_chemical_formula_structural   Er2Tm3IrRh
_chemical_formula_sum   'Er4 Tm6 Ir2 Rh2'
_cell_volume   353.61926208
_cell_formula_units_Z   2
loop_
 _symmetry_equiv_pos_site_id
 _symmetry_equiv_pos_as_xyz
  1  'x, y, z'
loop_
 _atom_site_type_symbol
 _atom_site_label
 _atom_site_symmetry_multiplicity
 _atom_site_fract_x
 _atom_site_fract_y
 _atom_site_fract_z
 _atom_site_occupancy
  Er  Er0  1  0.974429  0.918443  0.185405  1
  Er  Er1  1  0.789024  0.581557  0.814595  1
  Er  Er2  1  0.028101  0.081539  0.816513  1
  Er  Er3  1  0.211590  0.418461  0.183487  1
  Tm  Tm4  1  0.653320  0.817044  0.440167  1
  Tm  Tm5  1  0.213152  0.682956  0.559833  1
  Tm  Tm6  1  0.346144  0.184559  0.558535  1
  Tm  Tm7  1  0.787609  0.315441  0.441465  1
  Tm  Tm8  1  0.425577  0.750000  0.000000  1
  Tm  Tm9  1  0.571713  0.250000  0.000000  1
  Ir  Ir10  1  0.175603  0.426935  0.779558  1
  Ir  Ir11  1  0.396044  0.073065  0.220442  1
  Rh  Rh12  1  0.823229  0.572148  0.218764  1
  Rh  Rh13  1  0.604465  0.927852  0.781236  1
