# generated using pymatgen
data_Th3CoSn3IrRh
_symmetry_space_group_name_H-M   'P 1'
_cell_length_a   7.54961000
_cell_length_b   7.54960859
_cell_length_c   4.08272200
_cell_angle_alpha   90.00000000
_cell_angle_beta   90.00000000
_cell_angle_gamma   119.99999741
_symmetry_Int_Tables_number   1
_chemical_formula_structural   Th3CoSn3IrRh
_chemical_formula_sum   'Th3 Co1 Sn3 Ir1 Rh1'
_cell_volume   201.52522080
_cell_formula_units_Z   1
loop_
 _symmetry_equiv_pos_site_id
 _symmetry_equiv_pos_as_xyz
  1  'x, y, z'
loop_
 _atom_site_type_symbol
 _atom_site_label
 _atom_site_symmetry_multiplicity
 _atom_site_fract_x
 _atom_site_fract_y
 _atom_site_fract_z
 _atom_site_occupancy
  Th  Th0  1  0.411252  0.409538  0.500000  1
  Th  Th1  1  0.590462  0.001714  0.500000  1
  Th  Th2  1  0.998286  0.588748  0.500000  1
  Co  Co3  1  0.000000  0.000000  0.500000  1
  Sn  Sn4  1  0.755352  0.757418  0.000000  1
  Sn  Sn5  1  0.242582  0.997934  0.000000  1
  Sn  Sn6  1  0.002066  0.244648  0.000000  1
  Ir  Ir7  1  0.666667  0.333333  0.000000  1
  Rh  Rh8  1  0.333333  0.666667  0.000000  1
