# generated using pymatgen
data_Rb3Ba2BiO6
_symmetry_space_group_name_H-M   'P 1'
_cell_length_a   6.80304165
_cell_length_b   6.80304161
_cell_length_c   12.01738688
_cell_angle_alpha   100.96984629
_cell_angle_beta   100.96984648
_cell_angle_gamma   109.12967706
_symmetry_Int_Tables_number   1
_chemical_formula_structural   Rb3Ba2BiO6
_chemical_formula_sum   'Rb6 Ba4 Bi2 O12'
_cell_volume   496.35930092
_cell_formula_units_Z   2
loop_
 _symmetry_equiv_pos_site_id
 _symmetry_equiv_pos_as_xyz
  1  'x, y, z'
loop_
 _atom_site_type_symbol
 _atom_site_label
 _atom_site_symmetry_multiplicity
 _atom_site_fract_x
 _atom_site_fract_y
 _atom_site_fract_z
 _atom_site_occupancy
  Rb  Rb0  1  0.037306  0.787307  0.074612  1
  Rb  Rb1  1  0.125000  0.374999  0.250000  1
  Rb  Rb2  1  0.712694  0.462694  0.425388  1
  Rb  Rb3  1  0.287306  0.537305  0.574612  1
  Rb  Rb4  1  0.875000  0.625000  0.750000  1
  Rb  Rb5  1  0.962694  0.212693  0.925388  1
  Ba  Ba6  1  0.545046  0.295046  0.090093  1
  Ba  Ba7  1  0.204953  0.954954  0.409907  1
  Ba  Ba8  1  0.795046  0.045045  0.590093  1
  Ba  Ba9  1  0.454954  0.704953  0.909908  1
  Bi  Bi10  1  0.625001  0.875000  0.250000  1
  Bi  Bi11  1  0.375000  0.125001  0.750000  1
  O  O12  1  0.745587  0.006833  0.110215  1
  O  O13  1  0.364628  0.603382  0.110215  1
  O  O14  1  0.424327  0.075672  0.250000  1
  O  O15  1  0.825672  0.674329  0.250000  1
  O  O16  1  0.896618  0.135371  0.389785  1
  O  O17  1  0.493166  0.754414  0.389785  1
  O  O18  1  0.506833  0.245586  0.610215  1
  O  O19  1  0.103383  0.864629  0.610215  1
  O  O20  1  0.174329  0.325672  0.750000  1
  O  O21  1  0.575672  0.924328  0.750000  1
  O  O22  1  0.635371  0.396617  0.889785  1
  O  O23  1  0.254414  0.993167  0.889785  1
