# generated using pymatgen
data_Ho3Tm7Si5As
_symmetry_space_group_name_H-M   'P 1'
_cell_length_a   8.34325791
_cell_length_b   8.36836178
_cell_length_c   6.22577300
_cell_angle_alpha   90.00000000
_cell_angle_beta   90.00000000
_cell_angle_gamma   119.95417397
_symmetry_Int_Tables_number   1
_chemical_formula_structural   Ho3Tm7Si5As
_chemical_formula_sum   'Ho3 Tm7 Si5 As1'
_cell_volume   376.61740765
_cell_formula_units_Z   1
loop_
 _symmetry_equiv_pos_site_id
 _symmetry_equiv_pos_as_xyz
  1  'x, y, z'
loop_
 _atom_site_type_symbol
 _atom_site_label
 _atom_site_symmetry_multiplicity
 _atom_site_fract_x
 _atom_site_fract_y
 _atom_site_fract_z
 _atom_site_occupancy
  Ho  Ho0  1  0.758618  0.999932  0.750000  1
  Ho  Ho1  1  0.242708  0.246284  0.750000  1
  Ho  Ho2  1  0.242698  0.999815  0.250000  1
  Tm  Tm3  1  0.996252  0.753377  0.750000  1
  Tm  Tm4  1  0.000158  0.244113  0.250000  1
  Tm  Tm5  1  0.756437  0.756130  0.250000  1
  Tm  Tm6  1  0.332889  0.663770  0.498764  1
  Tm  Tm7  1  0.669373  0.336405  0.001231  1
  Tm  Tm8  1  0.669373  0.336405  0.498769  1
  Tm  Tm9  1  0.332889  0.663770  0.001236  1
  Si  Si10  1  0.394334  0.393606  0.250000  1
  Si  Si11  1  0.000718  0.606284  0.250000  1
  Si  Si12  1  0.999722  0.394925  0.750000  1
  Si  Si13  1  0.605867  0.605715  0.750000  1
  Si  Si14  1  0.607292  0.999981  0.250000  1
  As  As15  1  0.390670  0.999485  0.750000  1
