# generated using pymatgen
data_Dy8NbSi16Tc11
_symmetry_space_group_name_H-M   'P 1'
_cell_length_a   6.83762469
_cell_length_b   6.81130755
_cell_length_c   12.74842159
_cell_angle_alpha   90.43433035
_cell_angle_beta   89.95900052
_cell_angle_gamma   89.73214737
_symmetry_Int_Tables_number   1
_chemical_formula_structural   Dy8NbSi16Tc11
_chemical_formula_sum   'Dy8 Nb1 Si16 Tc11'
_cell_volume   593.71062337
_cell_formula_units_Z   1
loop_
 _symmetry_equiv_pos_site_id
 _symmetry_equiv_pos_as_xyz
  1  'x, y, z'
loop_
 _atom_site_type_symbol
 _atom_site_label
 _atom_site_symmetry_multiplicity
 _atom_site_fract_x
 _atom_site_fract_y
 _atom_site_fract_z
 _atom_site_occupancy
  Dy  Dy0  1  0.008006  0.662046  0.033585  1
  Dy  Dy1  1  0.999740  0.334607  0.528150  1
  Dy  Dy2  1  0.666558  0.001481  0.970092  1
  Dy  Dy3  1  0.161243  0.498904  0.780061  1
  Dy  Dy4  1  0.840149  0.502903  0.281356  1
  Dy  Dy5  1  0.497846  0.161684  0.221421  1
  Dy  Dy6  1  0.505532  0.835256  0.717106  1
  Dy  Dy7  1  0.339683  0.992981  0.468167  1
  Nb  Nb8  1  0.671226  0.496431  0.872065  1
  Si  Si9  1  0.018997  0.727701  0.437094  1
  Si  Si10  1  0.980781  0.279638  0.939663  1
  Si  Si11  1  0.723648  0.024564  0.562703  1
  Si  Si12  1  0.235780  0.481998  0.189233  1
  Si  Si13  1  0.780305  0.530531  0.677183  1
  Si  Si14  1  0.457228  0.206941  0.813834  1
  Si  Si15  1  0.516993  0.764538  0.310124  1
  Si  Si16  1  0.281301  0.978721  0.063958  1
  Si  Si17  1  0.809160  0.885800  0.188186  1
  Si  Si18  1  0.304307  0.616378  0.563726  1
  Si  Si19  1  0.699025  0.384365  0.066875  1
  Si  Si20  1  0.613680  0.308649  0.438428  1
  Si  Si21  1  0.377493  0.703309  0.936294  1
  Si  Si22  1  0.113513  0.190161  0.313383  1
  Si  Si23  1  0.189871  0.114725  0.688341  1
  Si  Si24  1  0.884155  0.811755  0.810864  1
  Tc  Tc25  1  0.311608  0.474995  0.382883  1
  Tc  Tc26  1  0.815156  0.019693  0.371647  1
  Tc  Tc27  1  0.990079  0.178022  0.128365  1
  Tc  Tc28  1  0.018260  0.819183  0.626097  1
  Tc  Tc29  1  0.477327  0.324847  0.626626  1
  Tc  Tc30  1  0.176832  0.991972  0.875222  1
  Tc  Tc31  1  0.667418  0.666151  0.498643  1
  Tc  Tc32  1  0.834643  0.171552  0.750218  1
  Tc  Tc33  1  0.167282  0.831190  0.250909  1
  Tc  Tc34  1  0.338481  0.337213  0.999973  1
  Tc  Tc35  1  0.526692  0.689118  0.117523  1
