# generated using pymatgen
data_Eu2Mn5(NiP)7
_symmetry_space_group_name_H-M   'P 1'
_cell_length_a   9.38644600
_cell_length_b   9.37337802
_cell_length_c   3.74294200
_cell_angle_alpha   90.00000000
_cell_angle_beta   90.00000000
_cell_angle_gamma   119.92527432
_symmetry_Int_Tables_number   1
_chemical_formula_structural   Eu2Mn5(NiP)7
_chemical_formula_sum   'Eu2 Mn5 Ni7 P7'
_cell_volume   285.40893982
_cell_formula_units_Z   1
loop_
 _symmetry_equiv_pos_site_id
 _symmetry_equiv_pos_as_xyz
  1  'x, y, z'
loop_
 _atom_site_type_symbol
 _atom_site_label
 _atom_site_symmetry_multiplicity
 _atom_site_fract_x
 _atom_site_fract_y
 _atom_site_fract_z
 _atom_site_occupancy
  Eu  Eu0  1  0.659646  0.327254  0.000000  1
  Eu  Eu1  1  0.336184  0.667490  0.500000  1
  Mn  Mn2  1  0.878404  0.722157  0.000000  1
  Mn  Mn3  1  0.949711  0.571591  0.500000  1
  Mn  Mn4  1  0.100148  0.219591  0.500000  1
  Mn  Mn5  1  0.784208  0.881244  0.500000  1
  Mn  Mn6  1  0.124732  0.901795  0.500000  1
  Ni  Ni7  1  0.054474  0.430654  0.000000  1
  Ni  Ni8  1  0.569779  0.629643  0.000000  1
  Ni  Ni9  1  0.371711  0.944688  0.000000  1
  Ni  Ni10  1  0.271025  0.152456  0.000000  1
  Ni  Ni11  1  0.847823  0.119930  0.000000  1
  Ni  Ni12  1  0.430978  0.383236  0.500000  1
  Ni  Ni13  1  0.617359  0.046485  0.500000  1
  P  P14  1  0.298564  0.407673  0.000000  1
  P  P15  1  0.593217  0.892849  0.000000  1
  P  P16  1  0.113586  0.706202  0.000000  1
  P  P17  1  0.402814  0.111786  0.500000  1
  P  P18  1  0.888307  0.292510  0.500000  1
  P  P19  1  0.710137  0.596832  0.500000  1
  P  P20  1  0.997190  0.993935  0.000000  1
