# generated using pymatgen
data_Tb10Pr6Cd4CoIr3
_symmetry_space_group_name_H-M   'P 1'
_cell_length_a   9.76284121
_cell_length_b   9.76284085
_cell_length_c   9.76284138
_cell_angle_alpha   60.02621189
_cell_angle_beta   60.02621293
_cell_angle_gamma   60.02621059
_symmetry_Int_Tables_number   1
_chemical_formula_structural   Tb10Pr6Cd4CoIr3
_chemical_formula_sum   'Tb10 Pr6 Cd4 Co1 Ir3'
_cell_volume   658.37244668
_cell_formula_units_Z   1
loop_
 _symmetry_equiv_pos_site_id
 _symmetry_equiv_pos_as_xyz
  1  'x, y, z'
loop_
 _atom_site_type_symbol
 _atom_site_label
 _atom_site_symmetry_multiplicity
 _atom_site_fract_x
 _atom_site_fract_y
 _atom_site_fract_z
 _atom_site_occupancy
  Tb  Tb0  1  0.347410  0.347410  0.347410  1
  Tb  Tb1  1  0.345420  0.345420  0.958752  1
  Tb  Tb2  1  0.345420  0.958752  0.345420  1
  Tb  Tb3  1  0.958752  0.345420  0.345420  1
  Tb  Tb4  1  0.816103  0.187603  0.187603  1
  Tb  Tb5  1  0.187354  0.811836  0.811836  1
  Tb  Tb6  1  0.187603  0.816103  0.187603  1
  Tb  Tb7  1  0.811836  0.187354  0.811836  1
  Tb  Tb8  1  0.187603  0.187603  0.816103  1
  Tb  Tb9  1  0.811836  0.811836  0.187354  1
  Pr  Pr10  1  0.941587  0.558251  0.558251  1
  Pr  Pr11  1  0.558248  0.941387  0.941387  1
  Pr  Pr12  1  0.558251  0.941587  0.558251  1
  Pr  Pr13  1  0.941387  0.558248  0.941387  1
  Pr  Pr14  1  0.558251  0.558251  0.941587  1
  Pr  Pr15  1  0.941387  0.941387  0.558248  1
  Cd  Cd16  1  0.578926  0.578926  0.578926  1
  Cd  Cd17  1  0.579877  0.579877  0.261671  1
  Cd  Cd18  1  0.579877  0.261671  0.579877  1
  Cd  Cd19  1  0.261671  0.579877  0.579877  1
  Co  Co20  1  0.140805  0.140805  0.140805  1
  Ir  Ir21  1  0.142019  0.142019  0.576354  1
  Ir  Ir22  1  0.142019  0.576354  0.142019  1
  Ir  Ir23  1  0.576354  0.142019  0.142019  1
