# generated using pymatgen
data_Tm20Ga3Bi8As
_symmetry_space_group_name_H-M   'P 1'
_cell_length_a   7.99798294
_cell_length_b   9.17255500
_cell_length_c   11.87529777
_cell_angle_alpha   90.00000000
_cell_angle_beta   90.37502229
_cell_angle_gamma   90.00000000
_symmetry_Int_Tables_number   1
_chemical_formula_structural   Tm20Ga3Bi8As
_chemical_formula_sum   'Tm20 Ga3 Bi8 As1'
_cell_volume   871.17620207
_cell_formula_units_Z   1
loop_
 _symmetry_equiv_pos_site_id
 _symmetry_equiv_pos_as_xyz
  1  'x, y, z'
loop_
 _atom_site_type_symbol
 _atom_site_label
 _atom_site_symmetry_multiplicity
 _atom_site_fract_x
 _atom_site_fract_y
 _atom_site_fract_z
 _atom_site_occupancy
  Tm  Tm0  1  0.680075  0.943337  0.438098  1
  Tm  Tm1  1  0.819755  0.555939  0.937968  1
  Tm  Tm2  1  0.318385  0.444607  0.562960  1
  Tm  Tm3  1  0.179239  0.056697  0.061637  1
  Tm  Tm4  1  0.318385  0.055393  0.562960  1
  Tm  Tm5  1  0.179239  0.443303  0.061637  1
  Tm  Tm6  1  0.680075  0.556663  0.438098  1
  Tm  Tm7  1  0.819755  0.944061  0.937968  1
  Tm  Tm8  1  0.329295  0.750000  0.284537  1
  Tm  Tm9  1  0.172208  0.750000  0.784167  1
  Tm  Tm10  1  0.674255  0.250000  0.718097  1
  Tm  Tm11  1  0.833052  0.250000  0.210278  1
  Tm  Tm12  1  0.037431  0.750000  0.495797  1
  Tm  Tm13  1  0.462190  0.750000  0.998172  1
  Tm  Tm14  1  0.966624  0.250000  0.501982  1
  Tm  Tm15  1  0.535185  0.250000  0.003301  1
  Tm  Tm16  1  0.856432  0.750000  0.206690  1
  Tm  Tm17  1  0.643187  0.750000  0.706621  1
  Tm  Tm18  1  0.142712  0.250000  0.791833  1
  Tm  Tm19  1  0.357502  0.250000  0.295643  1
  Ga  Ga20  1  0.094515  0.750000  0.025218  1
  Ga  Ga21  1  0.406906  0.750000  0.525016  1
  Ga  Ga22  1  0.904530  0.250000  0.971406  1
  Bi  Bi23  1  0.564205  0.991171  0.176505  1
  Bi  Bi24  1  0.934630  0.510665  0.673483  1
  Bi  Bi25  1  0.435737  0.488843  0.824348  1
  Bi  Bi26  1  0.064024  0.011020  0.324947  1
  Bi  Bi27  1  0.435737  0.011157  0.824348  1
  Bi  Bi28  1  0.064024  0.488980  0.324947  1
  Bi  Bi29  1  0.564205  0.508829  0.176505  1
  Bi  Bi30  1  0.934630  0.989335  0.673483  1
  As  As31  1  0.591877  0.250000  0.481347  1
