# generated using pymatgen
data_KCaEr2CuSe5
_symmetry_space_group_name_H-M   'P 1'
_cell_length_a   4.10351900
_cell_length_b   7.38957881
_cell_length_c   17.85556100
_cell_angle_alpha   90.00000000
_cell_angle_beta   90.00000000
_cell_angle_gamma   73.87965007
_symmetry_Int_Tables_number   1
_chemical_formula_structural   KCaEr2CuSe5
_chemical_formula_sum   'K2 Ca2 Er4 Cu2 Se10'
_cell_volume   520.15006125
_cell_formula_units_Z   2
loop_
 _symmetry_equiv_pos_site_id
 _symmetry_equiv_pos_as_xyz
  1  'x, y, z'
loop_
 _atom_site_type_symbol
 _atom_site_label
 _atom_site_symmetry_multiplicity
 _atom_site_fract_x
 _atom_site_fract_y
 _atom_site_fract_z
 _atom_site_occupancy
  K  K0  1  0.521470  0.957064  0.250000  1
  K  K1  1  0.478531  0.042936  0.750000  1
  Ca  Ca2  1  0.000000  0.000000  0.000000  1
  Ca  Ca3  1  0.000000  0.000000  0.500000  1
  Er  Er4  1  0.270865  0.458270  0.103313  1
  Er  Er5  1  0.270865  0.458270  0.396687  1
  Er  Er6  1  0.729136  0.541730  0.603313  1
  Er  Er7  1  0.729136  0.541730  0.896688  1
  Cu  Cu8  1  0.795905  0.408191  0.250000  1
  Cu  Cu9  1  0.204096  0.591808  0.750000  1
  Se  Se10  1  0.643068  0.713867  0.047943  1
  Se  Se11  1  0.898267  0.203468  0.139097  1
  Se  Se12  1  0.197959  0.604082  0.250000  1
  Se  Se13  1  0.898267  0.203468  0.360903  1
  Se  Se14  1  0.643068  0.713867  0.452058  1
  Se  Se15  1  0.356933  0.286133  0.547942  1
  Se  Se16  1  0.101733  0.796532  0.639097  1
  Se  Se17  1  0.802042  0.395918  0.750000  1
  Se  Se18  1  0.101733  0.796532  0.860903  1
  Se  Se19  1  0.356933  0.286133  0.952058  1
