# generated using pymatgen
data_Dy11ErTc4
_symmetry_space_group_name_H-M   'P 1'
_cell_length_a   6.24074271
_cell_length_b   7.40822338
_cell_length_c   9.16415664
_cell_angle_alpha   90.02063690
_cell_angle_beta   90.04719663
_cell_angle_gamma   90.03295866
_symmetry_Int_Tables_number   1
_chemical_formula_structural   Dy11ErTc4
_chemical_formula_sum   'Dy11 Er1 Tc4'
_cell_volume   423.68452643
_cell_formula_units_Z   1
loop_
 _symmetry_equiv_pos_site_id
 _symmetry_equiv_pos_as_xyz
  1  'x, y, z'
loop_
 _atom_site_type_symbol
 _atom_site_label
 _atom_site_symmetry_multiplicity
 _atom_site_fract_x
 _atom_site_fract_y
 _atom_site_fract_z
 _atom_site_occupancy
  Dy  Dy0  1  0.337373  0.675376  0.062583  1
  Dy  Dy1  1  0.162007  0.175539  0.436936  1
  Dy  Dy2  1  0.662314  0.324778  0.562659  1
  Dy  Dy3  1  0.838104  0.824832  0.937591  1
  Dy  Dy4  1  0.662028  0.324653  0.937600  1
  Dy  Dy5  1  0.837838  0.824457  0.562575  1
  Dy  Dy6  1  0.337753  0.675272  0.437266  1
  Dy  Dy7  1  0.873222  0.539802  0.249814  1
  Dy  Dy8  1  0.627234  0.040344  0.249608  1
  Dy  Dy9  1  0.127116  0.459735  0.750232  1
  Dy  Dy10  1  0.372329  0.960055  0.750299  1
  Er  Er11  1  0.162379  0.174859  0.062716  1
  Tc  Tc12  1  0.040534  0.885802  0.249879  1
  Tc  Tc13  1  0.459145  0.385167  0.249439  1
  Tc  Tc14  1  0.960763  0.114642  0.750976  1
  Tc  Tc15  1  0.539858  0.614685  0.749827  1
