# generated using pymatgen
data_ReTeSeBr4
_symmetry_space_group_name_H-M   'P 1'
_cell_length_a   11.14610371
_cell_length_b   11.14610366
_cell_length_c   11.14610384
_cell_angle_alpha   115.02483248
_cell_angle_beta   115.02483474
_cell_angle_gamma   98.85752215
_symmetry_Int_Tables_number   1
_chemical_formula_structural   ReTeSeBr4
_chemical_formula_sum   'Re4 Te4 Se4 Br16'
_cell_volume   1039.30399852
_cell_formula_units_Z   4
loop_
 _symmetry_equiv_pos_site_id
 _symmetry_equiv_pos_as_xyz
  1  'x, y, z'
loop_
 _atom_site_type_symbol
 _atom_site_label
 _atom_site_symmetry_multiplicity
 _atom_site_fract_x
 _atom_site_fract_y
 _atom_site_fract_z
 _atom_site_occupancy
  Re  Re0  1  0.682028  0.541917  0.085448  1
  Re  Re1  1  0.456468  0.596580  0.914552  1
  Re  Re2  1  0.403420  0.317972  0.859888  1
  Re  Re3  1  0.458083  0.543532  0.140112  1
  Te  Te4  1  0.898425  0.441405  0.093124  1
  Te  Te5  1  0.348281  0.805301  0.906876  1
  Te  Te6  1  0.194699  0.101575  0.542980  1
  Te  Te7  1  0.558595  0.651719  0.457020  1
  Se  Se8  1  0.554443  0.432133  0.797169  1
  Se  Se9  1  0.634965  0.757274  0.202831  1
  Se  Se10  1  0.242726  0.445557  0.877690  1
  Se  Se11  1  0.567867  0.365035  0.122310  1
  Br  Br12  1  0.850043  0.307118  0.813111  1
  Br  Br13  1  0.494006  0.036932  0.186889  1
  Br  Br14  1  0.963068  0.149957  0.457075  1
  Br  Br15  1  0.692882  0.505994  0.542925  1
  Br  Br16  1  0.889454  0.702387  0.093471  1
  Br  Br17  1  0.608915  0.795983  0.906529  1
  Br  Br18  1  0.204017  0.110546  0.812933  1
  Br  Br19  1  0.297613  0.391085  0.187067  1
  Br  Br20  1  0.898755  0.639744  0.372274  1
  Br  Br21  1  0.267471  0.526481  0.627726  1
  Br  Br22  1  0.473519  0.101245  0.740989  1
  Br  Br23  1  0.360256  0.732529  0.259011  1
  Br  Br24  1  0.853841  0.220459  0.114809  1
  Br  Br25  1  0.105648  0.739031  0.885191  1
  Br  Br26  1  0.260969  0.146159  0.366618  1
  Br  Br27  1  0.779541  0.894352  0.633382  1
