# generated using pymatgen
data_Sm7Dy(Si3Au)4
_symmetry_space_group_name_H-M   'P 1'
_cell_length_a   8.23502856
_cell_length_b   8.25078384
_cell_length_c   8.45363500
_cell_angle_alpha   90.00000000
_cell_angle_beta   90.00000000
_cell_angle_gamma   120.06329286
_symmetry_Int_Tables_number   1
_chemical_formula_structural   Sm7Dy(Si3Au)4
_chemical_formula_sum   'Sm7 Dy1 Si12 Au4'
_cell_volume   497.11527184
_cell_formula_units_Z   1
loop_
 _symmetry_equiv_pos_site_id
 _symmetry_equiv_pos_as_xyz
  1  'x, y, z'
loop_
 _atom_site_type_symbol
 _atom_site_label
 _atom_site_symmetry_multiplicity
 _atom_site_fract_x
 _atom_site_fract_y
 _atom_site_fract_z
 _atom_site_occupancy
  Sm  Sm0  1  0.000041  0.000021  0.250000  1
  Sm  Sm1  1  0.999812  0.999906  0.750000  1
  Sm  Sm2  1  0.500657  0.499144  0.250000  1
  Sm  Sm3  1  0.500657  0.001515  0.250000  1
  Sm  Sm4  1  0.998209  0.499105  0.250000  1
  Sm  Sm5  1  0.499105  0.501000  0.750000  1
  Sm  Sm6  1  0.499105  0.998104  0.750000  1
  Dy  Dy7  1  0.002492  0.501245  0.750000  1
  Si  Si8  1  0.163966  0.836488  0.501945  1
  Si  Si9  1  0.163966  0.327480  0.501945  1
  Si  Si10  1  0.670842  0.835422  0.500719  1
  Si  Si11  1  0.835885  0.163506  0.499217  1
  Si  Si12  1  0.835885  0.672379  0.499217  1
  Si  Si13  1  0.329292  0.164645  0.498422  1
  Si  Si14  1  0.835885  0.163506  0.000783  1
  Si  Si15  1  0.835885  0.672379  0.000783  1
  Si  Si16  1  0.329292  0.164645  0.001578  1
  Si  Si17  1  0.163966  0.836488  0.998055  1
  Si  Si18  1  0.163966  0.327480  0.998055  1
  Si  Si19  1  0.670842  0.835422  0.999281  1
  Au  Au20  1  0.330735  0.665367  0.500116  1
  Au  Au21  1  0.669390  0.334694  0.506692  1
  Au  Au22  1  0.669390  0.334694  0.993308  1
  Au  Au23  1  0.330735  0.665367  0.999884  1
