# generated using pymatgen
data_Zn5Co3(Mo3N)4
_symmetry_space_group_name_H-M   'P 1'
_cell_length_a   6.76577196
_cell_length_b   6.75813872
_cell_length_c   6.78334882
_cell_angle_alpha   90.29466769
_cell_angle_beta   90.18116197
_cell_angle_gamma   89.97017279
_symmetry_Int_Tables_number   1
_chemical_formula_structural   Zn5Co3(Mo3N)4
_chemical_formula_sum   'Zn5 Co3 Mo12 N4'
_cell_volume   310.15632235
_cell_formula_units_Z   1
loop_
 _symmetry_equiv_pos_site_id
 _symmetry_equiv_pos_as_xyz
  1  'x, y, z'
loop_
 _atom_site_type_symbol
 _atom_site_label
 _atom_site_symmetry_multiplicity
 _atom_site_fract_x
 _atom_site_fract_y
 _atom_site_fract_z
 _atom_site_occupancy
  Zn  Zn0  1  0.070853  0.067861  0.068457  1
  Zn  Zn1  1  0.319145  0.184159  0.821435  1
  Zn  Zn2  1  0.819555  0.321871  0.182436  1
  Zn  Zn3  1  0.178087  0.815780  0.319640  1
  Zn  Zn4  1  0.433029  0.929492  0.571108  1
  Co  Co5  1  0.569822  0.433564  0.930540  1
  Co  Co6  1  0.929966  0.567448  0.437843  1
  Co  Co7  1  0.685389  0.681125  0.685615  1
  Mo  Mo8  1  0.123142  0.212778  0.456758  1
  Mo  Mo9  1  0.383092  0.782558  0.950170  1
  Mo  Mo10  1  0.872155  0.697116  0.038825  1
  Mo  Mo11  1  0.203610  0.459279  0.126473  1
  Mo  Mo12  1  0.791241  0.945681  0.382428  1
  Mo  Mo13  1  0.034277  0.867035  0.696420  1
  Mo  Mo14  1  0.462291  0.128266  0.201088  1
  Mo  Mo15  1  0.302932  0.542495  0.630011  1
  Mo  Mo16  1  0.941549  0.386715  0.785325  1
  Mo  Mo17  1  0.550581  0.624457  0.297586  1
  Mo  Mo18  1  0.703865  0.045394  0.877270  1
  Mo  Mo19  1  0.627272  0.308003  0.549116  1
  N  N20  1  0.375352  0.376897  0.372873  1
  N  N21  1  0.626916  0.872044  0.122837  1
  N  N22  1  0.124049  0.624565  0.870789  1
  N  N23  1  0.871831  0.125417  0.624954  1
