# generated using pymatgen
data_Er5OsRh
_symmetry_space_group_name_H-M   'P 1'
_cell_length_a   6.33636888
_cell_length_b   7.26552793
_cell_length_c   8.40318628
_cell_angle_alpha   96.67796600
_cell_angle_beta   112.14932372
_cell_angle_gamma   89.99999858
_symmetry_Int_Tables_number   1
_chemical_formula_structural   Er5OsRh
_chemical_formula_sum   'Er10 Os2 Rh2'
_cell_volume   355.47423126
_cell_formula_units_Z   2
loop_
 _symmetry_equiv_pos_site_id
 _symmetry_equiv_pos_as_xyz
  1  'x, y, z'
loop_
 _atom_site_type_symbol
 _atom_site_label
 _atom_site_symmetry_multiplicity
 _atom_site_fract_x
 _atom_site_fract_y
 _atom_site_fract_z
 _atom_site_occupancy
  Er  Er0  1  0.791993  0.582110  0.812484  1
  Er  Er1  1  0.979509  0.917890  0.187516  1
  Er  Er2  1  0.208444  0.415062  0.181646  1
  Er  Er3  1  0.026798  0.084938  0.818354  1
  Er  Er4  1  0.208171  0.681649  0.564199  1
  Er  Er5  1  0.643973  0.818351  0.435801  1
  Er  Er6  1  0.791749  0.313775  0.438785  1
  Er  Er7  1  0.352964  0.186225  0.561215  1
  Er  Er8  1  0.420561  0.750000  0.000000  1
  Er  Er9  1  0.575858  0.250000  0.000000  1
  Os  Os10  1  0.396097  0.075406  0.218766  1
  Os  Os11  1  0.177331  0.424594  0.781234  1
  Rh  Rh12  1  0.602893  0.922621  0.779235  1
  Rh  Rh13  1  0.823658  0.577379  0.220765  1
