# generated using pymatgen
data_Li2Ni12GeP6
_symmetry_space_group_name_H-M   'P 1'
_cell_length_a   9.04859000
_cell_length_b   9.04858843
_cell_length_c   3.54924000
_cell_angle_alpha   90.00000000
_cell_angle_beta   90.00000000
_cell_angle_gamma   120.00000573
_symmetry_Int_Tables_number   1
_chemical_formula_structural   Li2Ni12GeP6
_chemical_formula_sum   'Li2 Ni12 Ge1 P6'
_cell_volume   251.66783879
_cell_formula_units_Z   1
loop_
 _symmetry_equiv_pos_site_id
 _symmetry_equiv_pos_as_xyz
  1  'x, y, z'
loop_
 _atom_site_type_symbol
 _atom_site_label
 _atom_site_symmetry_multiplicity
 _atom_site_fract_x
 _atom_site_fract_y
 _atom_site_fract_z
 _atom_site_occupancy
  Li  Li0  1  0.000000  0.000000  0.000000  1
  Li  Li1  1  0.333333  0.666667  0.500000  1
  Ni  Ni2  1  0.103206  0.395110  0.000000  1
  Ni  Ni3  1  0.291903  0.896794  0.000000  1
  Ni  Ni4  1  0.604890  0.708097  0.000000  1
  Ni  Ni5  1  0.834178  0.625210  0.000000  1
  Ni  Ni6  1  0.791033  0.165822  0.000000  1
  Ni  Ni7  1  0.374790  0.208967  0.000000  1
  Ni  Ni8  1  0.053321  0.770401  0.500000  1
  Ni  Ni9  1  0.717080  0.946679  0.500000  1
  Ni  Ni10  1  0.229599  0.282920  0.500000  1
  Ni  Ni11  1  0.901305  0.433251  0.500000  1
  Ni  Ni12  1  0.531947  0.098695  0.500000  1
  Ni  Ni13  1  0.566749  0.468053  0.500000  1
  Ge  Ge14  1  0.666667  0.333333  0.000000  1
  P  P15  1  0.084479  0.627107  0.000000  1
  P  P16  1  0.542628  0.915521  0.000000  1
  P  P17  1  0.372893  0.457372  0.000000  1
  P  P18  1  0.787428  0.747416  0.500000  1
  P  P19  1  0.959988  0.212572  0.500000  1
  P  P20  1  0.252584  0.040012  0.500000  1
