# generated using pymatgen
data_Li2NpO4
_symmetry_space_group_name_H-M   'P 1'
_cell_length_a   5.15271000
_cell_length_b   6.07428900
_cell_length_c   10.54835100
_cell_angle_alpha   90.00000000
_cell_angle_beta   90.00000000
_cell_angle_gamma   90.00000000
_symmetry_Int_Tables_number   1
_chemical_formula_structural   Li2NpO4
_chemical_formula_sum   'Li8 Np4 O16'
_cell_volume   330.15336192
_cell_formula_units_Z   4
loop_
 _symmetry_equiv_pos_site_id
 _symmetry_equiv_pos_as_xyz
  1  'x, y, z'
loop_
 _atom_site_type_symbol
 _atom_site_label
 _atom_site_symmetry_multiplicity
 _atom_site_fract_x
 _atom_site_fract_y
 _atom_site_fract_z
 _atom_site_occupancy
  Li  Li0  1  0.539855  0.750000  0.923500  1
  Li  Li1  1  0.039855  0.250000  0.576500  1
  Li  Li2  1  0.460145  0.250000  0.076500  1
  Li  Li3  1  0.960145  0.750000  0.423500  1
  Li  Li4  1  0.500000  0.000000  0.500000  1
  Li  Li5  1  0.000000  0.000000  0.000000  1
  Li  Li6  1  0.500000  0.500000  0.500000  1
  Li  Li7  1  0.000000  0.500000  0.000000  1
  Np  Np8  1  0.986731  0.750000  0.738925  1
  Np  Np9  1  0.486731  0.250000  0.761075  1
  Np  Np10  1  0.013269  0.250000  0.261075  1
  Np  Np11  1  0.513269  0.750000  0.238925  1
  O  O12  1  0.172925  0.750000  0.897663  1
  O  O13  1  0.214350  0.250000  0.413242  1
  O  O14  1  0.285650  0.250000  0.913242  1
  O  O15  1  0.714350  0.750000  0.086758  1
  O  O16  1  0.265782  0.012861  0.166267  1
  O  O17  1  0.765782  0.987139  0.333733  1
  O  O18  1  0.734218  0.512861  0.833733  1
  O  O19  1  0.234218  0.487139  0.666267  1
  O  O20  1  0.734218  0.987139  0.833733  1
  O  O21  1  0.234218  0.012861  0.666267  1
  O  O22  1  0.265782  0.487139  0.166267  1
  O  O23  1  0.765782  0.512861  0.333733  1
  O  O24  1  0.827075  0.250000  0.102337  1
  O  O25  1  0.327075  0.750000  0.397663  1
  O  O26  1  0.785650  0.750000  0.586758  1
  O  O27  1  0.672925  0.250000  0.602337  1
