# generated using pymatgen
data_NdDy2Cd3Ga2Hg
_symmetry_space_group_name_H-M   'P 1'
_cell_length_a   7.44203066
_cell_length_b   7.41019738
_cell_length_c   4.47237800
_cell_angle_alpha   90.00000000
_cell_angle_beta   90.00000000
_cell_angle_gamma   119.85860381
_symmetry_Int_Tables_number   1
_chemical_formula_structural   NdDy2Cd3Ga2Hg
_chemical_formula_sum   'Nd1 Dy2 Cd3 Ga2 Hg1'
_cell_volume   213.89832679
_cell_formula_units_Z   1
loop_
 _symmetry_equiv_pos_site_id
 _symmetry_equiv_pos_as_xyz
  1  'x, y, z'
loop_
 _atom_site_type_symbol
 _atom_site_label
 _atom_site_symmetry_multiplicity
 _atom_site_fract_x
 _atom_site_fract_y
 _atom_site_fract_z
 _atom_site_occupancy
  Nd  Nd0  1  0.000000  0.576121  0.500000  1
  Dy  Dy1  1  0.423767  0.423031  0.500000  1
  Dy  Dy2  1  0.576233  0.999264  0.500000  1
  Cd  Cd3  1  0.742803  0.744160  0.000000  1
  Cd  Cd4  1  0.257197  0.001357  0.000000  1
  Cd  Cd5  1  0.000000  0.254508  0.000000  1
  Ga  Ga6  1  0.662878  0.330521  0.000000  1
  Ga  Ga7  1  0.337122  0.667644  0.000000  1
  Hg  Hg8  1  0.000000  0.003393  0.500000  1
