# generated using pymatgen
data_Ac3ThCdOs
_symmetry_space_group_name_H-M   'P 1'
_cell_length_a   10.34605882
_cell_length_b   10.34605863
_cell_length_c   10.34606000
_cell_angle_alpha   60.00000202
_cell_angle_beta   60.00000261
_cell_angle_gamma   60.00000669
_symmetry_Int_Tables_number   1
_chemical_formula_structural   Ac3ThCdOs
_chemical_formula_sum   'Ac12 Th4 Cd4 Os4'
_cell_volume   783.08681246
_cell_formula_units_Z   4
loop_
 _symmetry_equiv_pos_site_id
 _symmetry_equiv_pos_as_xyz
  1  'x, y, z'
loop_
 _atom_site_type_symbol
 _atom_site_label
 _atom_site_symmetry_multiplicity
 _atom_site_fract_x
 _atom_site_fract_y
 _atom_site_fract_z
 _atom_site_occupancy
  Ac  Ac0  1  0.056171  0.443829  0.443829  1
  Ac  Ac1  1  0.443829  0.056171  0.056171  1
  Ac  Ac2  1  0.443829  0.056171  0.443829  1
  Ac  Ac3  1  0.056171  0.443829  0.056171  1
  Ac  Ac4  1  0.443829  0.443829  0.056171  1
  Ac  Ac5  1  0.056171  0.056171  0.443829  1
  Ac  Ac6  1  0.192806  0.807194  0.807194  1
  Ac  Ac7  1  0.807194  0.192806  0.192806  1
  Ac  Ac8  1  0.807194  0.192806  0.807194  1
  Ac  Ac9  1  0.192806  0.807194  0.192806  1
  Ac  Ac10  1  0.807194  0.807194  0.192806  1
  Ac  Ac11  1  0.192806  0.192806  0.807194  1
  Th  Th12  1  0.591337  0.591337  0.591337  1
  Th  Th13  1  0.591337  0.591337  0.225991  1
  Th  Th14  1  0.591337  0.225991  0.591337  1
  Th  Th15  1  0.225991  0.591337  0.591337  1
  Cd  Cd16  1  0.827488  0.827488  0.827488  1
  Cd  Cd17  1  0.827488  0.827488  0.517534  1
  Cd  Cd18  1  0.827488  0.517534  0.827488  1
  Cd  Cd19  1  0.517534  0.827488  0.827488  1
  Os  Os20  1  0.396683  0.396683  0.396683  1
  Os  Os21  1  0.396683  0.396683  0.809951  1
  Os  Os22  1  0.396683  0.809951  0.396683  1
  Os  Os23  1  0.809951  0.396683  0.396683  1
