# generated using pymatgen
data_TbTh3(Al3Re)2
_symmetry_space_group_name_H-M   'P 1'
_cell_length_a   5.55838500
_cell_length_b   5.55838422
_cell_length_c   9.17677700
_cell_angle_alpha   90.00000000
_cell_angle_beta   90.00000000
_cell_angle_gamma   119.99999870
_symmetry_Int_Tables_number   1
_chemical_formula_structural   TbTh3(Al3Re)2
_chemical_formula_sum   'Tb1 Th3 Al6 Re2'
_cell_volume   245.53759863
_cell_formula_units_Z   1
loop_
 _symmetry_equiv_pos_site_id
 _symmetry_equiv_pos_as_xyz
  1  'x, y, z'
loop_
 _atom_site_type_symbol
 _atom_site_label
 _atom_site_symmetry_multiplicity
 _atom_site_fract_x
 _atom_site_fract_y
 _atom_site_fract_z
 _atom_site_occupancy
  Tb  Tb0  1  0.333334  0.666667  0.943991  1
  Th  Th1  1  0.666665  0.333333  0.051082  1
  Th  Th2  1  0.666665  0.333333  0.454015  1
  Th  Th3  1  0.333334  0.666667  0.546134  1
  Al  Al4  1  0.162085  0.324170  0.247044  1
  Al  Al5  1  0.162085  0.837915  0.247044  1
  Al  Al6  1  0.675830  0.837915  0.247044  1
  Al  Al7  1  0.323214  0.161607  0.753463  1
  Al  Al8  1  0.838394  0.161607  0.753463  1
  Al  Al9  1  0.838392  0.676785  0.753463  1
  Re  Re10  1  0.000000  0.000000  0.001527  1
  Re  Re11  1  0.000000  0.000000  0.501731  1
