# generated using pymatgen
data_Ce2Al20TcOs3
_symmetry_space_group_name_H-M   'P 1'
_cell_length_a   6.88321830
_cell_length_b   6.89158535
_cell_length_c   9.18165949
_cell_angle_alpha   89.86243572
_cell_angle_beta   90.02886982
_cell_angle_gamma   96.92925986
_symmetry_Int_Tables_number   1
_chemical_formula_structural   Ce2Al20TcOs3
_chemical_formula_sum   'Ce2 Al20 Tc1 Os3'
_cell_volume   432.36130022
_cell_formula_units_Z   1
loop_
 _symmetry_equiv_pos_site_id
 _symmetry_equiv_pos_as_xyz
  1  'x, y, z'
loop_
 _atom_site_type_symbol
 _atom_site_label
 _atom_site_symmetry_multiplicity
 _atom_site_fract_x
 _atom_site_fract_y
 _atom_site_fract_z
 _atom_site_occupancy
  Ce  Ce0  1  0.875028  0.128749  0.750936  1
  Ce  Ce1  1  0.124972  0.871251  0.249064  1
  Al  Al2  1  0.589061  0.859474  0.249959  1
  Al  Al3  1  0.778885  0.519260  0.249522  1
  Al  Al4  1  0.159140  0.840104  0.898301  1
  Al  Al5  1  0.410939  0.140526  0.750041  1
  Al  Al6  1  0.623341  0.377750  0.948939  1
  Al  Al7  1  0.840613  0.158436  0.398764  1
  Al  Al8  1  0.773959  0.773154  0.000153  1
  Al  Al9  1  0.859717  0.589305  0.750506  1
  Al  Al10  1  0.840860  0.159896  0.101699  1
  Al  Al11  1  0.221115  0.480740  0.750478  1
  Al  Al12  1  0.159387  0.841564  0.601236  1
  Al  Al13  1  0.775178  0.774967  0.500159  1
  Al  Al14  1  0.479653  0.219459  0.250977  1
  Al  Al15  1  0.622518  0.377291  0.551356  1
  Al  Al16  1  0.224822  0.225033  0.499841  1
  Al  Al17  1  0.377482  0.622709  0.448644  1
  Al  Al18  1  0.140283  0.410695  0.249494  1
  Al  Al19  1  0.520347  0.780541  0.749023  1
  Al  Al20  1  0.376659  0.622250  0.051061  1
  Al  Al21  1  0.226041  0.226846  0.999847  1
  Tc  Tc22  1  0.000000  0.500000  0.000000  1
  Os  Os23  1  0.500000  0.000000  0.000000  1
  Os  Os24  1  0.500000  0.000000  0.500000  1
  Os  Os25  1  0.000000  0.500000  0.500000  1
