# generated using pymatgen
data_ScTi5(GaPt)6
_symmetry_space_group_name_H-M   'P 1'
_cell_length_a   7.08602402
_cell_length_b   7.08295964
_cell_length_c   6.72107400
_cell_angle_alpha   90.00000000
_cell_angle_beta   90.00000000
_cell_angle_gamma   119.71876497
_symmetry_Int_Tables_number   1
_chemical_formula_structural   ScTi5(GaPt)6
_chemical_formula_sum   'Sc1 Ti5 Ga6 Pt6'
_cell_volume   292.96145586
_cell_formula_units_Z   1
loop_
 _symmetry_equiv_pos_site_id
 _symmetry_equiv_pos_as_xyz
  1  'x, y, z'
loop_
 _atom_site_type_symbol
 _atom_site_label
 _atom_site_symmetry_multiplicity
 _atom_site_fract_x
 _atom_site_fract_y
 _atom_site_fract_z
 _atom_site_occupancy
  Sc  Sc0  1  0.614802  0.022596  0.250000  1
  Ti  Ti1  1  0.409295  0.384714  0.250000  1
  Ti  Ti2  1  0.597925  0.981306  0.750000  1
  Ti  Ti3  1  0.379885  0.400646  0.750000  1
  Ti  Ti4  1  0.019687  0.619230  0.750000  1
  Ti  Ti5  1  0.975022  0.589138  0.250000  1
  Ga  Ga6  1  0.276504  0.002210  0.992036  1
  Ga  Ga7  1  0.276504  0.002210  0.507964  1
  Ga  Ga8  1  0.000224  0.274837  0.499737  1
  Ga  Ga9  1  0.000224  0.274837  0.000263  1
  Ga  Ga10  1  0.724800  0.724997  0.001674  1
  Ga  Ga11  1  0.724800  0.724997  0.498326  1
  Pt  Pt12  1  0.667823  0.337554  0.537643  1
  Pt  Pt13  1  0.996212  0.999243  0.750000  1
  Pt  Pt14  1  0.667823  0.337554  0.962357  1
  Pt  Pt15  1  0.329646  0.662621  0.022680  1
  Pt  Pt16  1  0.329646  0.662621  0.477320  1
  Pt  Pt17  1  0.009176  0.998689  0.250000  1
