# generated using pymatgen
data_Ho12Tc2Ni2SnOs
_symmetry_space_group_name_H-M   'P 1'
_cell_length_a   8.37827721
_cell_length_b   8.37827810
_cell_length_c   8.37827806
_cell_angle_alpha   113.64442261
_cell_angle_beta   109.77215725
_cell_angle_gamma   105.10923371
_symmetry_Int_Tables_number   1
_chemical_formula_structural   Ho12Tc2Ni2SnOs
_chemical_formula_sum   'Ho12 Tc2 Ni2 Sn1 Os1'
_cell_volume   450.22554518
_cell_formula_units_Z   1
loop_
 _symmetry_equiv_pos_site_id
 _symmetry_equiv_pos_as_xyz
  1  'x, y, z'
loop_
 _atom_site_type_symbol
 _atom_site_label
 _atom_site_symmetry_multiplicity
 _atom_site_fract_x
 _atom_site_fract_y
 _atom_site_fract_z
 _atom_site_occupancy
  Ho  Ho0  1  0.419363  0.231795  0.187567  1
  Ho  Ho1  1  0.580637  0.768205  0.812433  1
  Ho  Ho2  1  0.044227  0.231795  0.812433  1
  Ho  Ho3  1  0.955773  0.768205  0.187567  1
  Ho  Ho4  1  0.176523  0.269728  0.446251  1
  Ho  Ho5  1  0.823477  0.730272  0.553749  1
  Ho  Ho6  1  0.176523  0.730272  0.906795  1
  Ho  Ho7  1  0.823477  0.269728  0.093205  1
  Ho  Ho8  1  0.330321  0.645927  0.315607  1
  Ho  Ho9  1  0.669679  0.354073  0.684393  1
  Ho  Ho10  1  0.330321  0.014714  0.684393  1
  Ho  Ho11  1  0.669679  0.985286  0.315607  1
  Tc  Tc12  1  0.332797  0.000000  0.332797  1
  Tc  Tc13  1  0.667203  0.000000  0.667203  1
  Ni  Ni14  1  0.113920  0.613920  0.500000  1
  Ni  Ni15  1  0.886080  0.386080  0.500000  1
  Sn  Sn16  1  0.500000  0.500000  0.000000  1
  Os  Os17  1  0.000000  0.000000  0.000000  1
