# generated using pymatgen
data_ScV3(SiRh5)2
_symmetry_space_group_name_H-M   'P 1'
_cell_length_a   3.95047400
_cell_length_b   5.40134729
_cell_length_c   10.50354036
_cell_angle_alpha   90.16070212
_cell_angle_beta   90.00000000
_cell_angle_gamma   90.00000000
_symmetry_Int_Tables_number   1
_chemical_formula_structural   ScV3(SiRh5)2
_chemical_formula_sum   'Sc1 V3 Si2 Rh10'
_cell_volume   224.12242380
_cell_formula_units_Z   1
loop_
 _symmetry_equiv_pos_site_id
 _symmetry_equiv_pos_as_xyz
  1  'x, y, z'
loop_
 _atom_site_type_symbol
 _atom_site_label
 _atom_site_symmetry_multiplicity
 _atom_site_fract_x
 _atom_site_fract_y
 _atom_site_fract_z
 _atom_site_occupancy
  Sc  Sc0  1  0.500000  0.171477  0.638615  1
  V  V1  1  0.500000  0.835083  0.354996  1
  V  V2  1  0.500000  0.671990  0.853203  1
  V  V3  1  0.500000  0.337834  0.142156  1
  Si  Si4  1  0.000000  0.496776  0.498933  1
  Si  Si5  1  0.000000  0.995214  0.001519  1
  Rh  Rh6  1  0.500000  0.315222  0.387503  1
  Rh  Rh7  1  0.500000  0.675137  0.604466  1
  Rh  Rh8  1  0.500000  0.812173  0.104749  1
  Rh  Rh9  1  0.500000  0.192347  0.905749  1
  Rh  Rh10  1  0.000000  0.432709  0.749752  1
  Rh  Rh11  1  0.000000  0.585308  0.263576  1
  Rh  Rh12  1  0.000000  0.917187  0.769024  1
  Rh  Rh13  1  0.000000  0.086229  0.233793  1
  Rh  Rh14  1  0.000000  0.498757  0.004570  1
  Rh  Rh15  1  0.000000  0.976558  0.487396  1
