# generated using pymatgen
data_YbDy3CoOs7
_symmetry_space_group_name_H-M   'P 1'
_cell_length_a   5.29521475
_cell_length_b   5.29521568
_cell_length_c   8.83377328
_cell_angle_alpha   89.75874185
_cell_angle_beta   90.24125598
_cell_angle_gamma   120.90941432
_symmetry_Int_Tables_number   1
_chemical_formula_structural   YbDy3CoOs7
_chemical_formula_sum   'Yb1 Dy3 Co1 Os7'
_cell_volume   212.51315476
_cell_formula_units_Z   1
loop_
 _symmetry_equiv_pos_site_id
 _symmetry_equiv_pos_as_xyz
  1  'x, y, z'
loop_
 _atom_site_type_symbol
 _atom_site_label
 _atom_site_symmetry_multiplicity
 _atom_site_fract_x
 _atom_site_fract_y
 _atom_site_fract_z
 _atom_site_occupancy
  Yb  Yb0  1  0.334375  0.665625  0.065134  1
  Dy  Dy1  1  0.333355  0.666645  0.428210  1
  Dy  Dy2  1  0.669565  0.330435  0.563097  1
  Dy  Dy3  1  0.671151  0.328849  0.941425  1
  Co  Co4  1  0.823719  0.176281  0.251976  1
  Os  Os5  1  0.006701  0.993299  0.496801  1
  Os  Os6  1  0.008596  0.991404  0.004117  1
  Os  Os7  1  0.822349  0.662586  0.249640  1
  Os  Os8  1  0.337414  0.177651  0.249640  1
  Os  Os9  1  0.165785  0.834215  0.750798  1
  Os  Os10  1  0.174151  0.347163  0.749581  1
  Os  Os11  1  0.652837  0.825849  0.749581  1
