# generated using pymatgen
data_HoTm7Ti4O20
_symmetry_space_group_name_H-M   'P 1'
_cell_length_a   3.65524300
_cell_length_b   10.30407730
_cell_length_c   11.22665435
_cell_angle_alpha   89.94316878
_cell_angle_beta   90.00000000
_cell_angle_gamma   90.00000000
_symmetry_Int_Tables_number   1
_chemical_formula_structural   HoTm7Ti4O20
_chemical_formula_sum   'Ho1 Tm7 Ti4 O20'
_cell_volume   422.83945069
_cell_formula_units_Z   1
loop_
 _symmetry_equiv_pos_site_id
 _symmetry_equiv_pos_as_xyz
  1  'x, y, z'
loop_
 _atom_site_type_symbol
 _atom_site_label
 _atom_site_symmetry_multiplicity
 _atom_site_fract_x
 _atom_site_fract_y
 _atom_site_fract_z
 _atom_site_occupancy
  Ho  Ho0  1  0.750000  0.882399  0.724010  1
  Tm  Tm1  1  0.250000  0.118260  0.275706  1
  Tm  Tm2  1  0.250000  0.136125  0.945117  1
  Tm  Tm3  1  0.750000  0.364779  0.443815  1
  Tm  Tm4  1  0.750000  0.381528  0.775690  1
  Tm  Tm5  1  0.250000  0.618536  0.224240  1
  Tm  Tm6  1  0.250000  0.634749  0.555275  1
  Tm  Tm7  1  0.750000  0.864752  0.056214  1
  Ti  Ti8  1  0.250000  0.173030  0.617863  1
  Ti  Ti9  1  0.750000  0.328177  0.118649  1
  Ti  Ti10  1  0.250000  0.671446  0.882128  1
  Ti  Ti11  1  0.750000  0.827714  0.381059  1
  O  O12  1  0.750000  0.007225  0.896407  1
  O  O13  1  0.250000  0.003824  0.652275  1
  O  O14  1  0.250000  0.225172  0.454769  1
  O  O15  1  0.750000  0.239578  0.615393  1
  O  O16  1  0.750000  0.245625  0.271657  1
  O  O17  1  0.250000  0.254042  0.771668  1
  O  O18  1  0.250000  0.261049  0.115872  1
  O  O19  1  0.750000  0.276004  0.955359  1
  O  O20  1  0.750000  0.497056  0.154714  1
  O  O21  1  0.250000  0.493864  0.394643  1
  O  O22  1  0.750000  0.505600  0.605007  1
  O  O23  1  0.250000  0.502529  0.846349  1
  O  O24  1  0.250000  0.724892  0.045286  1
  O  O25  1  0.750000  0.738762  0.885460  1
  O  O26  1  0.750000  0.745550  0.228158  1
  O  O27  1  0.250000  0.752163  0.728191  1
  O  O28  1  0.250000  0.760810  0.383868  1
  O  O29  1  0.750000  0.773799  0.543799  1
  O  O30  1  0.750000  0.996927  0.345625  1
  O  O31  1  0.250000  0.994033  0.105734  1
