# generated using pymatgen
data_Lu5Re2BC6
_symmetry_space_group_name_H-M   'P 1'
_cell_length_a   8.15394796
_cell_length_b   8.15429963
_cell_length_c   3.33906800
_cell_angle_alpha   90.00000000
_cell_angle_beta   90.00000000
_cell_angle_gamma   121.52404274
_symmetry_Int_Tables_number   1
_chemical_formula_structural   Lu5Re2BC6
_chemical_formula_sum   'Lu5 Re2 B1 C6'
_cell_volume   189.24914274
_cell_formula_units_Z   1
loop_
 _symmetry_equiv_pos_site_id
 _symmetry_equiv_pos_as_xyz
  1  'x, y, z'
loop_
 _atom_site_type_symbol
 _atom_site_label
 _atom_site_symmetry_multiplicity
 _atom_site_fract_x
 _atom_site_fract_y
 _atom_site_fract_z
 _atom_site_occupancy
  Lu  Lu0  1  0.331470  0.080586  0.500000  1
  Lu  Lu1  1  0.668530  0.919414  0.500000  1
  Lu  Lu2  1  0.080589  0.331502  0.500000  1
  Lu  Lu3  1  0.919411  0.668498  0.500000  1
  Lu  Lu4  1  0.500000  0.500000  0.000000  1
  Re  Re5  1  0.284645  0.715359  0.000000  1
  Re  Re6  1  0.715355  0.284641  0.000000  1
  B  B7  1  0.000000  0.000000  0.000000  1
  C  C8  1  0.184277  0.184276  0.000000  1
  C  C9  1  0.815723  0.815724  0.000000  1
  C  C10  1  0.375672  0.624338  0.500000  1
  C  C11  1  0.624328  0.375662  0.500000  1
  C  C12  1  0.500000  0.000000  0.000000  1
  C  C13  1  0.000000  0.500000  0.000000  1
