# generated using pymatgen
data_DyY3Ho2PtI10
_symmetry_space_group_name_H-M   'P 1'
_cell_length_a   7.73134442
_cell_length_b   9.73354621
_cell_length_c   9.76490103
_cell_angle_alpha   107.07134070
_cell_angle_beta   96.89902750
_cell_angle_gamma   104.34584466
_symmetry_Int_Tables_number   1
_chemical_formula_structural   DyY3Ho2PtI10
_chemical_formula_sum   'Dy1 Y3 Ho2 Pt1 I10'
_cell_volume   665.64108989
_cell_formula_units_Z   1
loop_
 _symmetry_equiv_pos_site_id
 _symmetry_equiv_pos_as_xyz
  1  'x, y, z'
loop_
 _atom_site_type_symbol
 _atom_site_label
 _atom_site_symmetry_multiplicity
 _atom_site_fract_x
 _atom_site_fract_y
 _atom_site_fract_z
 _atom_site_occupancy
  Dy  Dy0  1  0.885195  0.959232  0.240987  1
  Y  Y1  1  0.651042  0.875611  0.833511  1
  Y  Y2  1  0.968707  0.287657  0.086731  1
  Y  Y3  1  0.031722  0.712514  0.913605  1
  Ho  Ho4  1  0.115546  0.041323  0.759819  1
  Ho  Ho5  1  0.345764  0.123492  0.165150  1
  Pt  Pt6  1  0.000381  0.000164  0.999685  1
  I  I7  1  0.353165  0.450384  0.272502  1
  I  I8  1  0.648225  0.548357  0.727657  1
  I  I9  1  0.914391  0.627609  0.181198  1
  I  I10  1  0.086080  0.372440  0.819123  1
  I  I11  1  0.455265  0.816823  0.093667  1
  I  I12  1  0.544473  0.184429  0.907988  1
  I  I13  1  0.256841  0.086743  0.462664  1
  I  I14  1  0.745352  0.913926  0.537109  1
  I  I15  1  0.773585  0.255556  0.346069  1
  I  I16  1  0.224266  0.743737  0.652533  1
