# generated using pymatgen
data_Y20CoAg6Ru
_symmetry_space_group_name_H-M   'P 1'
_cell_length_a   9.55017500
_cell_length_b   9.55017511
_cell_length_c   9.65975000
_cell_angle_alpha   90.00000000
_cell_angle_beta   90.00000000
_cell_angle_gamma   120.00000308
_symmetry_Int_Tables_number   1
_chemical_formula_structural   Y20CoAg6Ru
_chemical_formula_sum   'Y20 Co1 Ag6 Ru1'
_cell_volume   762.99056855
_cell_formula_units_Z   1
loop_
 _symmetry_equiv_pos_site_id
 _symmetry_equiv_pos_as_xyz
  1  'x, y, z'
loop_
 _atom_site_type_symbol
 _atom_site_label
 _atom_site_symmetry_multiplicity
 _atom_site_fract_x
 _atom_site_fract_y
 _atom_site_fract_z
 _atom_site_occupancy
  Y  Y0  1  0.000000  0.000000  0.498827  1
  Y  Y1  1  0.000000  0.000000  0.001173  1
  Y  Y2  1  0.210666  0.789334  0.437168  1
  Y  Y3  1  0.210666  0.421333  0.437168  1
  Y  Y4  1  0.578667  0.789334  0.437168  1
  Y  Y5  1  0.791644  0.208356  0.559188  1
  Y  Y6  1  0.791644  0.583288  0.559188  1
  Y  Y7  1  0.416712  0.208356  0.559188  1
  Y  Y8  1  0.791644  0.208356  0.940812  1
  Y  Y9  1  0.791644  0.583288  0.940812  1
  Y  Y10  1  0.416712  0.208356  0.940812  1
  Y  Y11  1  0.210666  0.789334  0.062832  1
  Y  Y12  1  0.210666  0.421333  0.062832  1
  Y  Y13  1  0.578667  0.789334  0.062832  1
  Y  Y14  1  0.542370  0.457630  0.250000  1
  Y  Y15  1  0.542370  0.084739  0.250000  1
  Y  Y16  1  0.915261  0.457630  0.250000  1
  Y  Y17  1  0.457717  0.542283  0.750000  1
  Y  Y18  1  0.457717  0.915436  0.750000  1
  Y  Y19  1  0.084564  0.542283  0.750000  1
  Co  Co20  1  0.333333  0.666667  0.250000  1
  Ag  Ag21  1  0.884347  0.115653  0.250000  1
  Ag  Ag22  1  0.884347  0.768695  0.250000  1
  Ag  Ag23  1  0.231305  0.115653  0.250000  1
  Ag  Ag24  1  0.115970  0.884030  0.750000  1
  Ag  Ag25  1  0.115970  0.231939  0.750000  1
  Ag  Ag26  1  0.768061  0.884030  0.750000  1
  Ru  Ru27  1  0.666667  0.333333  0.750000  1
