# generated using pymatgen
data_SmYSi2(Tc2C)2
_symmetry_space_group_name_H-M   'P 1'
_cell_length_a   5.83328187
_cell_length_b   5.83328217
_cell_length_c   7.27813800
_cell_angle_alpha   90.00000000
_cell_angle_beta   90.00000000
_cell_angle_gamma   140.48779891
_symmetry_Int_Tables_number   1
_chemical_formula_structural   SmYSi2(Tc2C)2
_chemical_formula_sum   'Sm1 Y1 Si2 Tc4 C2'
_cell_volume   157.56832735
_cell_formula_units_Z   1
loop_
 _symmetry_equiv_pos_site_id
 _symmetry_equiv_pos_as_xyz
  1  'x, y, z'
loop_
 _atom_site_type_symbol
 _atom_site_label
 _atom_site_symmetry_multiplicity
 _atom_site_fract_x
 _atom_site_fract_y
 _atom_site_fract_z
 _atom_site_occupancy
  Sm  Sm0  1  0.544608  0.455392  0.250000  1
  Y  Y1  1  0.455678  0.544322  0.750000  1
  Si  Si2  1  0.268101  0.731899  0.250000  1
  Si  Si3  1  0.732203  0.267797  0.750000  1
  Tc  Tc4  1  0.828441  0.171559  0.059520  1
  Tc  Tc5  1  0.171627  0.828373  0.938119  1
  Tc  Tc6  1  0.171627  0.828373  0.561881  1
  Tc  Tc7  1  0.828441  0.171559  0.440480  1
  C  C8  1  0.999637  0.000363  0.996851  1
  C  C9  1  0.999637  0.000363  0.503149  1
