# generated using pymatgen
data_Y4Zn3(Ga5Pd2)3
_symmetry_space_group_name_H-M   'P 1'
_cell_length_a   7.61850182
_cell_length_b   7.64021374
_cell_length_c   9.56275700
_cell_angle_alpha   90.00000000
_cell_angle_beta   90.00000000
_cell_angle_gamma   119.30426017
_symmetry_Int_Tables_number   1
_chemical_formula_structural   Y4Zn3(Ga5Pd2)3
_chemical_formula_sum   'Y4 Zn3 Ga15 Pd6'
_cell_volume   485.39026887
_cell_formula_units_Z   1
loop_
 _symmetry_equiv_pos_site_id
 _symmetry_equiv_pos_as_xyz
  1  'x, y, z'
loop_
 _atom_site_type_symbol
 _atom_site_label
 _atom_site_symmetry_multiplicity
 _atom_site_fract_x
 _atom_site_fract_y
 _atom_site_fract_z
 _atom_site_occupancy
  Y  Y0  1  0.996447  0.671279  0.250000  1
  Y  Y1  1  0.003707  0.329580  0.750000  1
  Y  Y2  1  0.672857  0.998325  0.250000  1
  Y  Y3  1  0.329101  0.003548  0.750000  1
  Zn  Zn4  1  0.139535  0.138198  0.250000  1
  Zn  Zn5  1  0.864720  0.864267  0.750000  1
  Zn  Zn6  1  0.342467  0.544031  0.250000  1
  Ga  Ga7  1  0.006442  0.336382  0.086632  1
  Ga  Ga8  1  0.996569  0.666666  0.917047  1
  Ga  Ga9  1  0.996569  0.666666  0.582953  1
  Ga  Ga10  1  0.333632  0.000644  0.415446  1
  Ga  Ga11  1  0.006442  0.336382  0.413368  1
  Ga  Ga12  1  0.667390  0.998254  0.583622  1
  Ga  Ga13  1  0.667390  0.998254  0.916378  1
  Ga  Ga14  1  0.333632  0.000644  0.084554  1
  Ga  Ga15  1  0.331074  0.330928  0.561270  1
  Ga  Ga16  1  0.664112  0.666908  0.433097  1
  Ga  Ga17  1  0.664112  0.666908  0.066903  1
  Ga  Ga18  1  0.331074  0.330928  0.938730  1
  Ga  Ga19  1  0.657254  0.454876  0.750000  1
  Ga  Ga20  1  0.540223  0.342215  0.250000  1
  Ga  Ga21  1  0.456602  0.656877  0.750000  1
  Pd  Pd22  1  0.674054  0.326749  0.000052  1
  Pd  Pd23  1  0.326458  0.673103  0.996705  1
  Pd  Pd24  1  0.326458  0.673103  0.503295  1
  Pd  Pd25  1  0.674054  0.326749  0.499948  1
  Pd  Pd26  1  0.998814  0.998771  0.000564  1
  Pd  Pd27  1  0.998814  0.998771  0.499436  1
