# generated using pymatgen
data_Zr10TiMnBi4
_symmetry_space_group_name_H-M   'P 1'
_cell_length_a   5.60283126
_cell_length_b   8.54693380
_cell_length_c   8.54695018
_cell_angle_alpha   96.15503367
_cell_angle_beta   109.13352396
_cell_angle_gamma   70.86679312
_symmetry_Int_Tables_number   1
_chemical_formula_structural   Zr10TiMnBi4
_chemical_formula_sum   'Zr10 Ti1 Mn1 Bi4'
_cell_volume   365.31742219
_cell_formula_units_Z   1
loop_
 _symmetry_equiv_pos_site_id
 _symmetry_equiv_pos_as_xyz
  1  'x, y, z'
loop_
 _atom_site_type_symbol
 _atom_site_label
 _atom_site_symmetry_multiplicity
 _atom_site_fract_x
 _atom_site_fract_y
 _atom_site_fract_z
 _atom_site_occupancy
  Zr  Zr0  1  0.429524  0.868491  0.722695  1
  Zr  Zr1  1  0.575309  0.131521  0.277298  1
  Zr  Zr2  1  0.924680  0.277305  0.131509  1
  Zr  Zr3  1  0.070469  0.722702  0.868479  1
  Zr  Zr4  1  0.706640  0.722446  0.131397  1
  Zr  Zr5  1  0.297684  0.277562  0.868593  1
  Zr  Zr6  1  0.793347  0.131407  0.722438  1
  Zr  Zr7  1  0.202311  0.868603  0.277554  1
  Zr  Zr8  1  0.249996  0.500004  0.499996  1
  Zr  Zr9  1  0.749996  0.500004  0.499996  1
  Ti  Ti10  1  0.249992  0.000008  0.999992  1
  Mn  Mn11  1  0.750066  0.999934  0.000066  1
  Bi  Bi12  1  0.335679  0.500011  0.171406  1
  Bi  Bi13  1  0.664274  0.499993  0.828584  1
  Bi  Bi14  1  0.835714  0.828594  0.499989  1
  Bi  Bi15  1  0.164318  0.171416  0.500007  1
