# generated using pymatgen
data_ThBr35
_symmetry_space_group_name_H-M   'P 1'
_cell_length_a   15.98197694
_cell_length_b   11.40028128
_cell_length_c   10.79188300
_cell_angle_alpha   88.81408278
_cell_angle_beta   66.02770512
_cell_angle_gamma   92.31545406
_symmetry_Int_Tables_number   1
_chemical_formula_structural   ThBr35
_chemical_formula_sum   'Th1 Br35'
_cell_volume   1793.71352310
_cell_formula_units_Z   1
loop_
 _symmetry_equiv_pos_site_id
 _symmetry_equiv_pos_as_xyz
  1  'x, y, z'
loop_
 _atom_site_type_symbol
 _atom_site_label
 _atom_site_symmetry_multiplicity
 _atom_site_fract_x
 _atom_site_fract_y
 _atom_site_fract_z
 _atom_site_occupancy
  Th  Th0  1  0.227309  0.439720  0.473166  1
  Br  Br1  1  0.515739  0.258484  0.528534  1
  Br  Br2  1  0.758868  0.579922  0.562945  1
  Br  Br3  1  0.486447  0.686617  0.752610  1
  Br  Br4  1  0.045657  0.889928  0.863101  1
  Br  Br5  1  0.886557  0.158084  0.009468  1
  Br  Br6  1  0.649105  0.318050  0.291201  1
  Br  Br7  1  0.626291  0.350830  0.838391  1
  Br  Br8  1  0.353377  0.757863  0.705271  1
  Br  Br9  1  0.358680  0.583714  0.214961  1
  Br  Br10  1  0.642865  0.144968  0.811471  1
  Br  Br11  1  0.896701  0.539372  0.360049  1
  Br  Br12  1  0.045014  0.950264  0.637620  1
  Br  Br13  1  0.894643  0.109811  0.242707  1
  Br  Br14  1  0.876930  0.210698  0.791679  1
  Br  Br15  1  0.654593  0.045963  0.232723  1
  Br  Br16  1  0.024035  0.822205  0.105218  1
  Br  Br17  1  0.369788  0.975200  0.729996  1
  Br  Br18  1  0.890647  0.319266  0.312163  1
  Br  Br19  1  0.865124  0.924832  0.715968  1
  Br  Br20  1  0.894519  0.654759  0.790797  1
  Br  Br21  1  0.329328  0.033132  0.260944  1
  Br  Br22  1  0.351397  0.313090  0.234261  1
  Br  Br23  1  0.621476  0.615698  0.799977  1
  Br  Br24  1  0.105414  0.425561  0.350367  1
  Br  Br25  1  0.696914  0.907821  0.797545  1
  Br  Br26  1  0.868079  0.446026  0.801723  1
  Br  Br27  1  0.498362  0.037266  0.248176  1
  Br  Br28  1  0.155723  0.254209  0.657188  1
  Br  Br29  1  0.675247  0.768601  0.274195  1
  Br  Br30  1  0.849477  0.796782  0.192358  1
  Br  Br31  1  0.388184  0.201504  0.750174  1
  Br  Br32  1  0.367937  0.496631  0.559994  1
  Br  Br33  1  0.653817  0.539604  0.270396  1
  Br  Br34  1  0.149865  0.639607  0.607474  1
  Br  Br35  1  0.325893  0.803919  0.225193  1
