# generated using pymatgen
data_Dy2Ho3Lu3(ReB6)4
_symmetry_space_group_name_H-M   'P 1'
_cell_length_a   3.64980800
_cell_length_b   9.11531301
_cell_length_c   11.49839600
_cell_angle_alpha   90.00195478
_cell_angle_beta   90.00000000
_cell_angle_gamma   90.00000000
_symmetry_Int_Tables_number   1
_chemical_formula_structural   Dy2Ho3Lu3(ReB6)4
_chemical_formula_sum   'Dy2 Ho3 Lu3 Re4 B24'
_cell_volume   382.54177312
_cell_formula_units_Z   1
loop_
 _symmetry_equiv_pos_site_id
 _symmetry_equiv_pos_as_xyz
  1  'x, y, z'
loop_
 _atom_site_type_symbol
 _atom_site_label
 _atom_site_symmetry_multiplicity
 _atom_site_fract_x
 _atom_site_fract_y
 _atom_site_fract_z
 _atom_site_occupancy
  Dy  Dy0  1  0.000000  0.323246  0.414033  1
  Dy  Dy1  1  0.000000  0.676588  0.586295  1
  Ho  Ho2  1  0.000000  0.823133  0.085726  1
  Ho  Ho3  1  0.000000  0.176909  0.913822  1
  Ho  Ho4  1  0.000000  0.943572  0.370616  1
  Lu  Lu5  1  0.000000  0.056816  0.630695  1
  Lu  Lu6  1  0.000000  0.443511  0.129309  1
  Lu  Lu7  1  0.000000  0.556619  0.870254  1
  Re  Re8  1  0.000000  0.638332  0.319677  1
  Re  Re9  1  0.000000  0.360559  0.680405  1
  Re  Re10  1  0.000000  0.140147  0.178896  1
  Re  Re11  1  0.000000  0.860586  0.820526  1
  B  B12  1  0.500000  0.552998  0.432625  1
  B  B13  1  0.500000  0.446039  0.567566  1
  B  B14  1  0.500000  0.053970  0.066678  1
  B  B15  1  0.500000  0.946295  0.932800  1
  B  B16  1  0.500000  0.749264  0.418422  1
  B  B17  1  0.500000  0.249248  0.581958  1
  B  B18  1  0.500000  0.251312  0.080938  1
  B  B19  1  0.500000  0.748979  0.918674  1
  B  B20  1  0.500000  0.792099  0.264828  1
  B  B21  1  0.500000  0.206904  0.734967  1
  B  B22  1  0.500000  0.293712  0.234069  1
  B  B23  1  0.500000  0.706805  0.765634  1
  B  B24  1  0.500000  0.629872  0.184323  1
  B  B25  1  0.500000  0.369780  0.815394  1
  B  B26  1  0.500000  0.131484  0.314435  1
  B  B27  1  0.500000  0.869684  0.685240  1
  B  B28  1  0.500000  0.982480  0.211655  1
  B  B29  1  0.500000  0.018129  0.787647  1
  B  B30  1  0.500000  0.481567  0.286996  1
  B  B31  1  0.500000  0.518103  0.712795  1
  B  B32  1  0.500000  0.597993  0.027105  1
  B  B33  1  0.500000  0.402084  0.972526  1
  B  B34  1  0.500000  0.099652  0.473729  1
  B  B35  1  0.500000  0.901529  0.528746  1
