# generated using pymatgen
data_Hf8Sc14Os7Ru
_symmetry_space_group_name_H-M   'P 1'
_cell_length_a   9.46096249
_cell_length_b   9.46096286
_cell_length_c   9.46096200
_cell_angle_alpha   60.00000302
_cell_angle_beta   60.00000171
_cell_angle_gamma   60.00000044
_symmetry_Int_Tables_number   1
_chemical_formula_structural   Hf8Sc14Os7Ru
_chemical_formula_sum   'Hf8 Sc14 Os7 Ru1'
_cell_volume   598.81266289
_cell_formula_units_Z   1
loop_
 _symmetry_equiv_pos_site_id
 _symmetry_equiv_pos_as_xyz
  1  'x, y, z'
loop_
 _atom_site_type_symbol
 _atom_site_label
 _atom_site_symmetry_multiplicity
 _atom_site_fract_x
 _atom_site_fract_y
 _atom_site_fract_z
 _atom_site_occupancy
  Hf  Hf0  1  0.841537  0.841537  0.841537  1
  Hf  Hf1  1  0.524612  0.158463  0.158463  1
  Hf  Hf2  1  0.158463  0.158463  0.524612  1
  Hf  Hf3  1  0.158463  0.524612  0.158463  1
  Hf  Hf4  1  0.841537  0.841537  0.475388  1
  Hf  Hf5  1  0.841537  0.475388  0.841537  1
  Hf  Hf6  1  0.475388  0.841537  0.841537  1
  Hf  Hf7  1  0.158463  0.158463  0.158463  1
  Sc  Sc8  1  0.198395  0.801605  0.198395  1
  Sc  Sc9  1  0.198395  0.801605  0.801605  1
  Sc  Sc10  1  0.801605  0.198395  0.198395  1
  Sc  Sc11  1  0.801605  0.801605  0.198395  1
  Sc  Sc12  1  0.198395  0.198395  0.801605  1
  Sc  Sc13  1  0.801605  0.198395  0.801605  1
  Sc  Sc14  1  0.383218  0.383218  0.383218  1
  Sc  Sc15  1  0.149655  0.616782  0.616782  1
  Sc  Sc16  1  0.616782  0.149655  0.616782  1
  Sc  Sc17  1  0.616782  0.616782  0.149655  1
  Sc  Sc18  1  0.383218  0.850345  0.383218  1
  Sc  Sc19  1  0.383218  0.383218  0.850345  1
  Sc  Sc20  1  0.850345  0.383218  0.383218  1
  Sc  Sc21  1  0.616782  0.616782  0.616782  1
  Os  Os22  1  0.500000  0.500000  0.000000  1
  Os  Os23  1  0.000000  0.000000  0.500000  1
  Os  Os24  1  0.500000  0.000000  0.500000  1
  Os  Os25  1  0.000000  0.500000  0.500000  1
  Os  Os26  1  0.500000  0.000000  0.000000  1
  Os  Os27  1  0.000000  0.500000  0.000000  1
  Os  Os28  1  0.500000  0.500000  0.500000  1
  Ru  Ru29  1  0.000000  0.000000  0.000000  1
