# generated using pymatgen
data_La9Nd7Cd4TcPt3
_symmetry_space_group_name_H-M   'P 1'
_cell_length_a   10.14579663
_cell_length_b   10.14579634
_cell_length_c   10.14260260
_cell_angle_alpha   59.54190379
_cell_angle_beta   59.54189809
_cell_angle_gamma   59.69428317
_symmetry_Int_Tables_number   1
_chemical_formula_structural   La9Nd7Cd4TcPt3
_chemical_formula_sum   'La9 Nd7 Cd4 Tc1 Pt3'
_cell_volume   731.41727160
_cell_formula_units_Z   1
loop_
 _symmetry_equiv_pos_site_id
 _symmetry_equiv_pos_as_xyz
  1  'x, y, z'
loop_
 _atom_site_type_symbol
 _atom_site_label
 _atom_site_symmetry_multiplicity
 _atom_site_fract_x
 _atom_site_fract_y
 _atom_site_fract_z
 _atom_site_occupancy
  La  La0  1  0.350961  0.350961  0.351340  1
  La  La1  1  0.345571  0.345571  0.957361  1
  La  La2  1  0.346842  0.957519  0.344925  1
  La  La3  1  0.957519  0.346842  0.344925  1
  La  La4  1  0.816360  0.187772  0.190227  1
  La  La5  1  0.190309  0.804690  0.806076  1
  La  La6  1  0.187772  0.816360  0.190227  1
  La  La7  1  0.804690  0.190309  0.806076  1
  La  La8  1  0.189661  0.189661  0.816423  1
  Nd  Nd9  1  0.803765  0.803765  0.192890  1
  Nd  Nd10  1  0.933386  0.567386  0.565571  1
  Nd  Nd11  1  0.559841  0.934592  0.935995  1
  Nd  Nd12  1  0.567386  0.933386  0.565571  1
  Nd  Nd13  1  0.934592  0.559841  0.935995  1
  Nd  Nd14  1  0.565966  0.565966  0.935218  1
  Nd  Nd15  1  0.935689  0.935689  0.559007  1
  Cd  Cd16  1  0.581189  0.581189  0.578118  1
  Cd  Cd17  1  0.581927  0.581927  0.256241  1
  Cd  Cd18  1  0.581426  0.256080  0.581002  1
  Cd  Cd19  1  0.256080  0.581426  0.581002  1
  Tc  Tc20  1  0.141135  0.141135  0.140190  1
  Pt  Pt21  1  0.145202  0.145202  0.576211  1
  Pt  Pt22  1  0.145943  0.576790  0.144705  1
  Pt  Pt23  1  0.576790  0.145943  0.144705  1
