# generated using pymatgen
data_Lu3Sn3Pt2Rh
_symmetry_space_group_name_H-M   'P 1'
_cell_length_a   7.61053000
_cell_length_b   7.61053059
_cell_length_c   3.74138700
_cell_angle_alpha   90.00000000
_cell_angle_beta   90.00000000
_cell_angle_gamma   119.99999743
_symmetry_Int_Tables_number   1
_chemical_formula_structural   Lu3Sn3Pt2Rh
_chemical_formula_sum   'Lu3 Sn3 Pt2 Rh1'
_cell_volume   187.66924816
_cell_formula_units_Z   1
loop_
 _symmetry_equiv_pos_site_id
 _symmetry_equiv_pos_as_xyz
  1  'x, y, z'
loop_
 _atom_site_type_symbol
 _atom_site_label
 _atom_site_symmetry_multiplicity
 _atom_site_fract_x
 _atom_site_fract_y
 _atom_site_fract_z
 _atom_site_occupancy
  Lu  Lu0  1  0.401279  0.401279  0.500000  1
  Lu  Lu1  1  0.598721  0.000000  0.500000  1
  Lu  Lu2  1  0.000000  0.598721  0.500000  1
  Sn  Sn3  1  0.737922  0.737922  0.000000  1
  Sn  Sn4  1  0.262078  0.000000  0.000000  1
  Sn  Sn5  1  0.000000  0.262078  0.000000  1
  Pt  Pt6  1  0.666667  0.333333  0.000000  1
  Pt  Pt7  1  0.333333  0.666667  0.000000  1
  Rh  Rh8  1  0.000000  0.000000  0.500000  1
