# generated using pymatgen
data_K4AuO4
_symmetry_space_group_name_H-M   'P 1'
_cell_length_a   5.64007843
_cell_length_b   5.64007948
_cell_length_c   6.27662637
_cell_angle_alpha   76.96382344
_cell_angle_beta   76.96382163
_cell_angle_gamma   69.27597681
_symmetry_Int_Tables_number   1
_chemical_formula_structural   K4AuO4
_chemical_formula_sum   'K4 Au1 O4'
_cell_volume   179.58839865
_cell_formula_units_Z   1
loop_
 _symmetry_equiv_pos_site_id
 _symmetry_equiv_pos_as_xyz
  1  'x, y, z'
loop_
 _atom_site_type_symbol
 _atom_site_label
 _atom_site_symmetry_multiplicity
 _atom_site_fract_x
 _atom_site_fract_y
 _atom_site_fract_z
 _atom_site_occupancy
  K  K0  1  0.377828  0.377828  0.864764  1
  K  K1  1  0.806194  0.806194  0.580393  1
  K  K2  1  0.622172  0.622172  0.135236  1
  K  K3  1  0.193806  0.193806  0.419607  1
  Au  Au4  1  0.000000  0.000000  0.000000  1
  O  O5  1  0.893446  0.335007  0.793578  1
  O  O6  1  0.335007  0.893446  0.793578  1
  O  O7  1  0.664993  0.106554  0.206422  1
  O  O8  1  0.106554  0.664993  0.206422  1
