# generated using pymatgen
data_Y8ReTc11Ge16
_symmetry_space_group_name_H-M   'P 1'
_cell_length_a   6.95578207
_cell_length_b   6.95427895
_cell_length_c   12.98681600
_cell_angle_alpha   90.09641194
_cell_angle_beta   90.00796532
_cell_angle_gamma   89.95540577
_symmetry_Int_Tables_number   1
_chemical_formula_structural   Y8ReTc11Ge16
_chemical_formula_sum   'Y8 Re1 Tc11 Ge16'
_cell_volume   628.20300662
_cell_formula_units_Z   1
loop_
 _symmetry_equiv_pos_site_id
 _symmetry_equiv_pos_as_xyz
  1  'x, y, z'
loop_
 _atom_site_type_symbol
 _atom_site_label
 _atom_site_symmetry_multiplicity
 _atom_site_fract_x
 _atom_site_fract_y
 _atom_site_fract_z
 _atom_site_occupancy
  Y  Y0  1  0.008931  0.661068  0.028431  1
  Y  Y1  1  0.992495  0.337493  0.527391  1
  Y  Y2  1  0.662603  0.007446  0.972390  1
  Y  Y3  1  0.160582  0.491971  0.777647  1
  Y  Y4  1  0.840738  0.507534  0.277717  1
  Y  Y5  1  0.493591  0.160349  0.222644  1
  Y  Y6  1  0.507815  0.838086  0.722233  1
  Y  Y7  1  0.339536  0.991010  0.471493  1
  Re  Re8  1  0.685220  0.517952  0.876657  1
  Tc  Tc9  1  0.307080  0.477812  0.379420  1
  Tc  Tc10  1  0.810161  0.018678  0.372638  1
  Tc  Tc11  1  0.982357  0.188434  0.126630  1
  Tc  Tc12  1  0.019135  0.811363  0.628061  1
  Tc  Tc13  1  0.480759  0.314108  0.623610  1
  Tc  Tc14  1  0.187064  0.982189  0.872861  1
  Tc  Tc15  1  0.661830  0.662399  0.499978  1
  Tc  Tc16  1  0.836568  0.162862  0.750330  1
  Tc  Tc17  1  0.163955  0.837029  0.249937  1
  Tc  Tc18  1  0.338991  0.338101  0.999936  1
  Tc  Tc19  1  0.522949  0.692856  0.120153  1
  Ge  Ge20  1  0.015470  0.726100  0.435301  1
  Ge  Ge21  1  0.981929  0.276295  0.934476  1
  Ge  Ge22  1  0.724863  0.017553  0.565685  1
  Ge  Ge23  1  0.230846  0.484502  0.185301  1
  Ge  Ge24  1  0.776192  0.517882  0.683363  1
  Ge  Ge25  1  0.480609  0.222213  0.815914  1
  Ge  Ge26  1  0.515740  0.769647  0.314397  1
  Ge  Ge27  1  0.276012  0.984499  0.065415  1
  Ge  Ge28  1  0.812539  0.889587  0.182760  1
  Ge  Ge29  1  0.309515  0.612210  0.567737  1
  Ge  Ge30  1  0.690084  0.389071  0.067704  1
  Ge  Ge31  1  0.610491  0.311245  0.432675  1
  Ge  Ge32  1  0.386204  0.690617  0.931959  1
  Ge  Ge33  1  0.110459  0.187713  0.317192  1
  Ge  Ge34  1  0.188280  0.111466  0.682591  1
  Ge  Ge35  1  0.888404  0.810660  0.817369  1
