# generated using pymatgen
data_Pr2Nd3Sn10(PdRh)2
_symmetry_space_group_name_H-M   'P 1'
_cell_length_a   14.28790800
_cell_length_b   14.27293000
_cell_length_c   4.65976000
_cell_angle_alpha   90.00000000
_cell_angle_beta   90.00000000
_cell_angle_gamma   90.00000000
_symmetry_Int_Tables_number   1
_chemical_formula_structural   Pr2Nd3Sn10(PdRh)2
_chemical_formula_sum   'Pr4 Nd6 Sn20 Pd4 Rh4'
_cell_volume   950.26630473
_cell_formula_units_Z   2
loop_
 _symmetry_equiv_pos_site_id
 _symmetry_equiv_pos_as_xyz
  1  'x, y, z'
loop_
 _atom_site_type_symbol
 _atom_site_label
 _atom_site_symmetry_multiplicity
 _atom_site_fract_x
 _atom_site_fract_y
 _atom_site_fract_z
 _atom_site_occupancy
  Pr  Pr0  1  0.892330  0.390510  0.500000  1
  Pr  Pr1  1  0.107670  0.609490  0.500000  1
  Pr  Pr2  1  0.392330  0.109490  0.500000  1
  Pr  Pr3  1  0.607670  0.890510  0.500000  1
  Nd  Nd4  1  0.500000  0.500000  0.000000  1
  Nd  Nd5  1  0.000000  0.000000  0.000000  1
  Nd  Nd6  1  0.677933  0.179979  0.500000  1
  Nd  Nd7  1  0.322067  0.820021  0.500000  1
  Nd  Nd8  1  0.177933  0.320021  0.500000  1
  Nd  Nd9  1  0.822067  0.679979  0.500000  1
  Sn  Sn10  1  0.567025  0.071435  0.000000  1
  Sn  Sn11  1  0.432975  0.928565  0.000000  1
  Sn  Sn12  1  0.067025  0.428565  0.000000  1
  Sn  Sn13  1  0.932975  0.571435  0.000000  1
  Sn  Sn14  1  0.652098  0.702349  0.000000  1
  Sn  Sn15  1  0.347902  0.297651  0.000000  1
  Sn  Sn16  1  0.152098  0.797651  0.000000  1
  Sn  Sn17  1  0.847902  0.202349  0.000000  1
  Sn  Sn18  1  0.301609  0.653324  0.000000  1
  Sn  Sn19  1  0.698391  0.346676  0.000000  1
  Sn  Sn20  1  0.198391  0.153324  0.000000  1
  Sn  Sn21  1  0.801609  0.846676  0.000000  1
  Sn  Sn22  1  0.662753  0.502920  0.500000  1
  Sn  Sn23  1  0.337247  0.497080  0.500000  1
  Sn  Sn24  1  0.162753  0.997080  0.500000  1
  Sn  Sn25  1  0.837247  0.002920  0.500000  1
  Sn  Sn26  1  0.496176  0.663720  0.500000  1
  Sn  Sn27  1  0.503824  0.336280  0.500000  1
  Sn  Sn28  1  0.003824  0.163720  0.500000  1
  Sn  Sn29  1  0.996176  0.836280  0.500000  1
  Pd  Pd30  1  0.746108  0.531052  0.000000  1
  Pd  Pd31  1  0.253892  0.468948  0.000000  1
  Pd  Pd32  1  0.246108  0.968948  0.000000  1
  Pd  Pd33  1  0.753892  0.031052  0.000000  1
  Rh  Rh34  1  0.468862  0.742898  0.000000  1
  Rh  Rh35  1  0.531138  0.257102  0.000000  1
  Rh  Rh36  1  0.031138  0.242898  0.000000  1
  Rh  Rh37  1  0.968862  0.757102  0.000000  1
