# generated using pymatgen
data_CaErOsC2
_symmetry_space_group_name_H-M   'P 1'
_cell_length_a   5.11447400
_cell_length_b   6.44583200
_cell_length_c   10.05816300
_cell_angle_alpha   90.00000000
_cell_angle_beta   90.00000000
_cell_angle_gamma   90.00000000
_symmetry_Int_Tables_number   1
_chemical_formula_structural   CaErOsC2
_chemical_formula_sum   'Ca4 Er4 Os4 C8'
_cell_volume   331.58786368
_cell_formula_units_Z   4
loop_
 _symmetry_equiv_pos_site_id
 _symmetry_equiv_pos_as_xyz
  1  'x, y, z'
loop_
 _atom_site_type_symbol
 _atom_site_label
 _atom_site_symmetry_multiplicity
 _atom_site_fract_x
 _atom_site_fract_y
 _atom_site_fract_z
 _atom_site_occupancy
  Ca  Ca0  1  0.250000  0.531999  0.220424  1
  Ca  Ca1  1  0.750000  0.468001  0.779576  1
  Ca  Ca2  1  0.750000  0.968001  0.720424  1
  Ca  Ca3  1  0.250000  0.031999  0.279576  1
  Er  Er4  1  0.250000  0.682551  0.559905  1
  Er  Er5  1  0.750000  0.317449  0.440095  1
  Er  Er6  1  0.750000  0.817449  0.059905  1
  Er  Er7  1  0.250000  0.182551  0.940095  1
  Os  Os8  1  0.250000  0.725175  0.860745  1
  Os  Os9  1  0.750000  0.274825  0.139255  1
  Os  Os10  1  0.750000  0.774825  0.360745  1
  Os  Os11  1  0.250000  0.225175  0.639255  1
  C  C12  1  0.250000  0.461241  0.758501  1
  C  C13  1  0.750000  0.538759  0.241499  1
  C  C14  1  0.750000  0.038759  0.258501  1
  C  C15  1  0.250000  0.961241  0.741499  1
  C  C16  1  0.250000  0.819881  0.038480  1
  C  C17  1  0.750000  0.180119  0.961520  1
  C  C18  1  0.750000  0.680119  0.538480  1
  C  C19  1  0.250000  0.319881  0.461520  1
