# generated using pymatgen
data_La2ReP2RhO2
_symmetry_space_group_name_H-M   'P 1'
_cell_length_a   4.08415400
_cell_length_b   4.08415400
_cell_length_c   8.54308300
_cell_angle_alpha   90.00000000
_cell_angle_beta   90.00000000
_cell_angle_gamma   90.00000000
_symmetry_Int_Tables_number   1
_chemical_formula_structural   La2ReP2RhO2
_chemical_formula_sum   'La2 Re1 P2 Rh1 O2'
_cell_volume   142.50130608
_cell_formula_units_Z   1
loop_
 _symmetry_equiv_pos_site_id
 _symmetry_equiv_pos_as_xyz
  1  'x, y, z'
loop_
 _atom_site_type_symbol
 _atom_site_label
 _atom_site_symmetry_multiplicity
 _atom_site_fract_x
 _atom_site_fract_y
 _atom_site_fract_z
 _atom_site_occupancy
  La  La0  1  0.250003  0.250003  0.142622  1
  La  La1  1  0.750002  0.750002  0.857380  1
  Re  Re2  1  0.750002  0.250003  0.500000  1
  P  P3  1  0.750002  0.750002  0.358653  1
  P  P4  1  0.250003  0.250003  0.641347  1
  Rh  Rh5  1  0.250003  0.750002  0.500000  1
  O  O6  1  0.750002  0.250003  0.000000  1
  O  O7  1  0.250003  0.750002  0.000000  1
