# generated using pymatgen
data_Li3Er2Zr4Os3
_symmetry_space_group_name_H-M   'P 1'
_cell_length_a   4.72356100
_cell_length_b   6.74935400
_cell_length_c   14.16195200
_cell_angle_alpha   90.00041007
_cell_angle_beta   90.00088979
_cell_angle_gamma   89.99949060
_symmetry_Int_Tables_number   1
_chemical_formula_structural   Li3Er2Zr4Os3
_chemical_formula_sum   'Li6 Er4 Zr8 Os6'
_cell_volume   451.49698391
_cell_formula_units_Z   2
loop_
 _symmetry_equiv_pos_site_id
 _symmetry_equiv_pos_as_xyz
  1  'x, y, z'
loop_
 _atom_site_type_symbol
 _atom_site_label
 _atom_site_symmetry_multiplicity
 _atom_site_fract_x
 _atom_site_fract_y
 _atom_site_fract_z
 _atom_site_occupancy
  Li  Li0  1  0.000034  0.500001  0.994032  1
  Li  Li1  1  0.499821  0.000001  0.173053  1
  Li  Li2  1  0.999819  0.499997  0.339498  1
  Li  Li3  1  0.499985  0.000003  0.500799  1
  Li  Li4  1  0.000129  0.499999  0.665626  1
  Li  Li5  1  0.500215  0.000001  0.827300  1
  Er  Er6  1  0.500022  0.248241  0.997032  1
  Er  Er7  1  0.500019  0.751760  0.997030  1
  Er  Er8  1  0.999839  0.251715  0.169517  1
  Er  Er9  1  0.999846  0.748289  0.169519  1
  Zr  Zr10  1  0.499886  0.252469  0.338162  1
  Zr  Zr11  1  0.499888  0.747547  0.338166  1
  Zr  Zr12  1  0.999994  0.246646  0.502092  1
  Zr  Zr13  1  0.999988  0.753339  0.502084  1
  Zr  Zr14  1  0.500095  0.253142  0.664653  1
  Zr  Zr15  1  0.500091  0.746850  0.664650  1
  Zr  Zr16  1  0.000131  0.247692  0.828447  1
  Zr  Zr17  1  0.000131  0.752310  0.828446  1
  Os  Os18  1  0.000022  0.000003  0.983811  1
  Os  Os19  1  0.499862  0.500007  0.182549  1
  Os  Os20  1  0.999925  0.000009  0.347674  1
  Os  Os21  1  0.500008  0.499985  0.501915  1
  Os  Os22  1  0.000092  0.999996  0.664914  1
  Os  Os23  1  0.500151  0.500000  0.819038  1
