# generated using pymatgen
data_Y2Er3Cr3(P3Ir4)4
_symmetry_space_group_name_H-M   'P 1'
_cell_length_a   12.55471807
_cell_length_b   12.55462267
_cell_length_c   3.99048600
_cell_angle_alpha   90.00000000
_cell_angle_beta   90.00000000
_cell_angle_gamma   119.98778854
_symmetry_Int_Tables_number   1
_chemical_formula_structural   Y2Er3Cr3(P3Ir4)4
_chemical_formula_sum   'Y2 Er3 Cr3 P12 Ir16'
_cell_volume   544.77915239
_cell_formula_units_Z   1
loop_
 _symmetry_equiv_pos_site_id
 _symmetry_equiv_pos_as_xyz
  1  'x, y, z'
loop_
 _atom_site_type_symbol
 _atom_site_label
 _atom_site_symmetry_multiplicity
 _atom_site_fract_x
 _atom_site_fract_y
 _atom_site_fract_z
 _atom_site_occupancy
  Y  Y0  1  0.666651  0.333327  0.000000  1
  Y  Y1  1  0.818257  0.818265  0.500000  1
  Er  Er2  1  0.333295  0.666640  0.000000  1
  Er  Er3  1  0.181692  0.000037  0.500000  1
  Er  Er4  1  0.000016  0.181681  0.500000  1
  Cr  Cr5  1  0.292573  0.292710  0.500000  1
  Cr  Cr6  1  0.707310  0.000067  0.500000  1
  Cr  Cr7  1  0.000333  0.707447  0.500000  1
  P  P8  1  0.689840  0.167104  0.500000  1
  P  P9  1  0.832898  0.522792  0.500000  1
  P  P10  1  0.477214  0.310135  0.500000  1
  P  P11  1  0.167411  0.689823  0.500000  1
  P  P12  1  0.522489  0.832620  0.500000  1
  P  P13  1  0.310166  0.477527  0.500000  1
  P  P14  1  0.639692  0.639640  0.000000  1
  P  P15  1  0.360018  0.000042  0.000000  1
  P  P16  1  0.999936  0.359962  0.000000  1
  P  P17  1  0.182275  0.182309  0.000000  1
  P  P18  1  0.817779  0.000186  0.000000  1
  P  P19  1  0.000266  0.817821  0.000000  1
  Ir  Ir20  1  0.806324  0.180319  0.000000  1
  Ir  Ir21  1  0.819777  0.625514  0.000000  1
  Ir  Ir22  1  0.373912  0.193650  0.000000  1
  Ir  Ir23  1  0.180500  0.806210  0.000000  1
  Ir  Ir24  1  0.625221  0.819606  0.000000  1
  Ir  Ir25  1  0.193766  0.374198  0.000000  1
  Ir  Ir26  1  0.454431  0.454501  0.000000  1
  Ir  Ir27  1  0.545329  0.999921  0.000000  1
  Ir  Ir28  1  0.000060  0.545393  0.000000  1
  Ir  Ir29  1  0.869412  0.361763  0.500000  1
  Ir  Ir30  1  0.638159  0.507552  0.500000  1
  Ir  Ir31  1  0.492345  0.130620  0.500000  1
  Ir  Ir32  1  0.361688  0.868682  0.500000  1
  Ir  Ir33  1  0.506911  0.638243  0.500000  1
  Ir  Ir34  1  0.131356  0.492999  0.500000  1
  Ir  Ir35  1  0.000694  0.000695  0.000000  1
