# generated using pymatgen
data_GdLu9(AlSb2)2
_symmetry_space_group_name_H-M   'P 1'
_cell_length_a   8.66143800
_cell_length_b   8.66143673
_cell_length_c   6.27595200
_cell_angle_alpha   90.00000000
_cell_angle_beta   90.00000000
_cell_angle_gamma   120.03012761
_symmetry_Int_Tables_number   1
_chemical_formula_structural   GdLu9(AlSb2)2
_chemical_formula_sum   'Gd1 Lu9 Al2 Sb4'
_cell_volume   407.62260265
_cell_formula_units_Z   1
loop_
 _symmetry_equiv_pos_site_id
 _symmetry_equiv_pos_as_xyz
  1  'x, y, z'
loop_
 _atom_site_type_symbol
 _atom_site_label
 _atom_site_symmetry_multiplicity
 _atom_site_fract_x
 _atom_site_fract_y
 _atom_site_fract_z
 _atom_site_occupancy
  Gd  Gd0  1  0.760331  0.760331  0.750000  1
  Lu  Lu1  1  0.667675  0.327133  0.003909  1
  Lu  Lu2  1  0.327133  0.667675  0.003909  1
  Lu  Lu3  1  0.327133  0.667675  0.496091  1
  Lu  Lu4  1  0.667675  0.327133  0.496091  1
  Lu  Lu5  1  0.238308  0.997978  0.750000  1
  Lu  Lu6  1  0.997978  0.238308  0.750000  1
  Lu  Lu7  1  0.234850  0.234850  0.250000  1
  Lu  Lu8  1  0.764914  0.012779  0.250000  1
  Lu  Lu9  1  0.012779  0.764914  0.250000  1
  Al  Al10  1  0.397574  0.001787  0.250000  1
  Al  Al11  1  0.001787  0.397574  0.250000  1
  Sb  Sb12  1  0.391622  0.391622  0.750000  1
  Sb  Sb13  1  0.600056  0.998262  0.750000  1
  Sb  Sb14  1  0.998262  0.600056  0.750000  1
  Sb  Sb15  1  0.611926  0.611926  0.250000  1
