# generated using pymatgen
data_Y2Er6Re(TcB8)3
_symmetry_space_group_name_H-M   'P 1'
_cell_length_a   3.66555400
_cell_length_b   9.13378682
_cell_length_c   11.51198402
_cell_angle_alpha   90.02064695
_cell_angle_beta   90.00000000
_cell_angle_gamma   90.00000000
_symmetry_Int_Tables_number   1
_chemical_formula_structural   Y2Er6Re(TcB8)3
_chemical_formula_sum   'Y2 Er6 Re1 Tc3 B24'
_cell_volume   385.42567614
_cell_formula_units_Z   1
loop_
 _symmetry_equiv_pos_site_id
 _symmetry_equiv_pos_as_xyz
  1  'x, y, z'
loop_
 _atom_site_type_symbol
 _atom_site_label
 _atom_site_symmetry_multiplicity
 _atom_site_fract_x
 _atom_site_fract_y
 _atom_site_fract_z
 _atom_site_occupancy
  Y  Y0  1  0.000000  0.323635  0.414055  1
  Y  Y1  1  0.000000  0.676531  0.585869  1
  Er  Er2  1  0.000000  0.823875  0.086037  1
  Er  Er3  1  0.000000  0.176470  0.914290  1
  Er  Er4  1  0.000000  0.942909  0.369083  1
  Er  Er5  1  0.000000  0.057672  0.630034  1
  Er  Er6  1  0.000000  0.442848  0.130495  1
  Er  Er7  1  0.000000  0.556106  0.869979  1
  Re  Re8  1  0.000000  0.861434  0.821028  1
  Tc  Tc9  1  0.000000  0.639487  0.319821  1
  Tc  Tc10  1  0.000000  0.360544  0.680096  1
  Tc  Tc11  1  0.000000  0.138797  0.179178  1
  B  B12  1  0.500000  0.553721  0.432668  1
  B  B13  1  0.500000  0.446407  0.567353  1
  B  B14  1  0.500000  0.053355  0.066898  1
  B  B15  1  0.500000  0.946855  0.933423  1
  B  B16  1  0.500000  0.749723  0.418306  1
  B  B17  1  0.500000  0.250516  0.581634  1
  B  B18  1  0.500000  0.249350  0.080990  1
  B  B19  1  0.500000  0.750226  0.919194  1
  B  B20  1  0.500000  0.792465  0.264872  1
  B  B21  1  0.500000  0.207539  0.734964  1
  B  B22  1  0.500000  0.292133  0.234471  1
  B  B23  1  0.500000  0.707506  0.765678  1
  B  B24  1  0.500000  0.630924  0.185079  1
  B  B25  1  0.500000  0.368865  0.814921  1
  B  B26  1  0.500000  0.130481  0.314375  1
  B  B27  1  0.500000  0.869722  0.685481  1
  B  B28  1  0.500000  0.981871  0.211540  1
  B  B29  1  0.500000  0.018458  0.788245  1
  B  B30  1  0.500000  0.482378  0.287857  1
  B  B31  1  0.500000  0.517510  0.712263  1
  B  B32  1  0.500000  0.599803  0.027989  1
  B  B33  1  0.500000  0.399683  0.972240  1
  B  B34  1  0.500000  0.099405  0.472011  1
  B  B35  1  0.500000  0.900796  0.527587  1
