# generated using pymatgen
data_Pr(Eu2Ga)4
_symmetry_space_group_name_H-M   'P 1'
_cell_length_a   9.06849275
_cell_length_b   9.06849364
_cell_length_c   9.06849300
_cell_angle_alpha   94.90237276
_cell_angle_beta   94.90237324
_cell_angle_gamma   146.00470189
_symmetry_Int_Tables_number   1
_chemical_formula_structural   Pr(Eu2Ga)4
_chemical_formula_sum   'Pr1 Eu8 Ga4'
_cell_volume   398.76404764
_cell_formula_units_Z   1
loop_
 _symmetry_equiv_pos_site_id
 _symmetry_equiv_pos_as_xyz
  1  'x, y, z'
loop_
 _atom_site_type_symbol
 _atom_site_label
 _atom_site_symmetry_multiplicity
 _atom_site_fract_x
 _atom_site_fract_y
 _atom_site_fract_z
 _atom_site_occupancy
  Pr  Pr0  1  0.000000  0.000000  0.000000  1
  Eu  Eu1  1  0.893793  0.374345  0.268139  1
  Eu  Eu2  1  0.106207  0.625655  0.731861  1
  Eu  Eu3  1  0.374243  0.106214  0.480461  1
  Eu  Eu4  1  0.625757  0.893786  0.519539  1
  Eu  Eu5  1  0.608677  0.314365  0.923047  1
  Eu  Eu6  1  0.391323  0.685635  0.076953  1
  Eu  Eu7  1  0.314290  0.391325  0.705612  1
  Eu  Eu8  1  0.685710  0.608675  0.294388  1
  Ga  Ga9  1  0.767865  0.105474  0.873345  1
  Ga  Ga10  1  0.232135  0.894526  0.126655  1
  Ga  Ga11  1  0.105523  0.232093  0.337616  1
  Ga  Ga12  1  0.894477  0.767907  0.662384  1
