# generated using pymatgen
data_Ho6Lu6Tl2FeTc2
_symmetry_space_group_name_H-M   'P 1'
_cell_length_a   8.31247100
_cell_length_b   8.29611251
_cell_length_c   8.31247151
_cell_angle_alpha   108.74821928
_cell_angle_beta   108.77112645
_cell_angle_gamma   110.98592785
_symmetry_Int_Tables_number   1
_chemical_formula_structural   Ho6Lu6Tl2FeTc2
_chemical_formula_sum   'Ho6 Lu6 Tl2 Fe1 Tc2'
_cell_volume   440.61183601
_cell_formula_units_Z   1
loop_
 _symmetry_equiv_pos_site_id
 _symmetry_equiv_pos_as_xyz
  1  'x, y, z'
loop_
 _atom_site_type_symbol
 _atom_site_label
 _atom_site_symmetry_multiplicity
 _atom_site_fract_x
 _atom_site_fract_y
 _atom_site_fract_z
 _atom_site_occupancy
  Ho  Ho0  1  0.300523  0.302009  0.608385  1
  Ho  Ho1  1  0.696697  0.694603  0.390824  1
  Ho  Ho2  1  0.693625  0.302009  0.001486  1
  Ho  Ho3  1  0.303777  0.694603  0.997904  1
  Ho  Ho4  1  0.190676  0.432308  0.241631  1
  Ho  Ho5  1  0.806271  0.568593  0.762322  1
  Lu  Lu6  1  0.190345  0.949847  0.759503  1
  Lu  Lu7  1  0.949245  0.186571  0.760306  1
  Lu  Lu8  1  0.806643  0.043769  0.237125  1
  Lu  Lu9  1  0.045240  0.810960  0.236845  1
  Lu  Lu10  1  0.426264  0.186571  0.237325  1
  Lu  Lu11  1  0.574115  0.810960  0.765720  1
  Tl  Tl12  1  0.997689  0.497898  0.500208  1
  Tl  Tl13  1  0.498277  0.998516  0.500239  1
  Fe  Fe14  1  0.632147  0.633146  0.000999  1
  Tc  Tc15  1  0.387660  0.386750  0.999090  1
  Tc  Tc16  1  0.000802  0.000891  0.000088  1
