# generated using pymatgen
data_Er17Tm3(Ir3Os)3
_symmetry_space_group_name_H-M   'P 1'
_cell_length_a   10.75323000
_cell_length_b   10.75311700
_cell_length_c   6.35545800
_cell_angle_alpha   90.00000000
_cell_angle_beta   90.00000000
_cell_angle_gamma   89.99915813
_symmetry_Int_Tables_number   1
_chemical_formula_structural   Er17Tm3(Ir3Os)3
_chemical_formula_sum   'Er17 Tm3 Ir9 Os3'
_cell_volume   734.88631356
_cell_formula_units_Z   1
loop_
 _symmetry_equiv_pos_site_id
 _symmetry_equiv_pos_as_xyz
  1  'x, y, z'
loop_
 _atom_site_type_symbol
 _atom_site_label
 _atom_site_symmetry_multiplicity
 _atom_site_fract_x
 _atom_site_fract_y
 _atom_site_fract_z
 _atom_site_occupancy
  Er  Er0  1  0.293647  0.086112  0.376126  1
  Er  Er1  1  0.293591  0.914080  0.876334  1
  Er  Er2  1  0.706409  0.085920  0.876334  1
  Er  Er3  1  0.706353  0.913888  0.376126  1
  Er  Er4  1  0.585879  0.793560  0.876291  1
  Er  Er5  1  0.586096  0.206468  0.376167  1
  Er  Er6  1  0.413904  0.793532  0.376167  1
  Er  Er7  1  0.414121  0.206440  0.876291  1
  Er  Er8  1  0.208270  0.413494  0.625465  1
  Er  Er9  1  0.207789  0.586740  0.121298  1
  Er  Er10  1  0.792211  0.413260  0.121298  1
  Er  Er11  1  0.791730  0.586506  0.625465  1
  Er  Er12  1  0.913295  0.707744  0.121270  1
  Er  Er13  1  0.913414  0.291834  0.625464  1
  Er  Er14  1  0.086586  0.708166  0.625464  1
  Er  Er15  1  0.086705  0.292256  0.121270  1
  Er  Er16  1  0.000000  0.000000  0.499860  1
  Tm  Tm17  1  0.000000  0.000000  0.000132  1
  Tm  Tm18  1  0.500000  0.500000  0.000144  1
  Tm  Tm19  1  0.500000  0.500000  0.499885  1
  Ir  Ir20  1  0.848333  0.153018  0.250118  1
  Ir  Ir21  1  0.848117  0.847252  0.750027  1
  Ir  Ir22  1  0.151883  0.152748  0.750027  1
  Ir  Ir23  1  0.151667  0.846982  0.250118  1
  Ir  Ir24  1  0.652601  0.348252  0.749778  1
  Ir  Ir25  1  0.652864  0.651506  0.250372  1
  Ir  Ir26  1  0.347136  0.348494  0.250372  1
  Ir  Ir27  1  0.347399  0.651748  0.749778  1
  Ir  Ir28  1  0.000000  0.500000  0.378278  1
  Os  Os29  1  0.500000  0.000000  0.123964  1
  Os  Os30  1  0.500000  0.000000  0.623592  1
  Os  Os31  1  0.000000  0.500000  0.876728  1
