# generated using pymatgen
data_LiNd6Mn(Co4P3)4
_symmetry_space_group_name_H-M   'P 1'
_cell_length_a   3.77808500
_cell_length_b   10.69494600
_cell_length_c   12.41762100
_cell_angle_alpha   90.00000000
_cell_angle_beta   90.00000000
_cell_angle_gamma   90.00000000
_symmetry_Int_Tables_number   1
_chemical_formula_structural   LiNd6Mn(Co4P3)4
_chemical_formula_sum   'Li1 Nd6 Mn1 Co16 P12'
_cell_volume   501.75154816
_cell_formula_units_Z   1
loop_
 _symmetry_equiv_pos_site_id
 _symmetry_equiv_pos_as_xyz
  1  'x, y, z'
loop_
 _atom_site_type_symbol
 _atom_site_label
 _atom_site_symmetry_multiplicity
 _atom_site_fract_x
 _atom_site_fract_y
 _atom_site_fract_z
 _atom_site_occupancy
  Li  Li0  1  0.500000  0.500000  0.150109  1
  Nd  Nd1  1  0.000000  0.500000  0.522303  1
  Nd  Nd2  1  0.500000  0.000000  0.477399  1
  Nd  Nd3  1  0.500000  0.818406  0.206317  1
  Nd  Nd4  1  0.500000  0.181594  0.206317  1
  Nd  Nd5  1  0.000000  0.681191  0.793818  1
  Nd  Nd6  1  0.000000  0.318809  0.793818  1
  Mn  Mn7  1  0.000000  0.000000  0.840676  1
  Co  Co8  1  0.500000  0.500000  0.706126  1
  Co  Co9  1  0.000000  0.000000  0.294970  1
  Co  Co10  1  0.000000  0.500000  0.987483  1
  Co  Co11  1  0.500000  0.000000  0.011485  1
  Co  Co12  1  0.500000  0.331468  0.995917  1
  Co  Co13  1  0.500000  0.668532  0.995917  1
  Co  Co14  1  0.000000  0.164746  0.002353  1
  Co  Co15  1  0.000000  0.835254  0.002353  1
  Co  Co16  1  0.500000  0.296007  0.431876  1
  Co  Co17  1  0.500000  0.703993  0.431876  1
  Co  Co18  1  0.000000  0.202081  0.571352  1
  Co  Co19  1  0.000000  0.797919  0.571352  1
  Co  Co20  1  0.500000  0.882229  0.710687  1
  Co  Co21  1  0.500000  0.117771  0.710687  1
  Co  Co22  1  0.000000  0.620048  0.293883  1
  Co  Co23  1  0.000000  0.379952  0.293883  1
  P  P24  1  0.500000  0.500000  0.888486  1
  P  P25  1  0.000000  0.000000  0.113123  1
  P  P26  1  0.500000  0.500000  0.341288  1
  P  P27  1  0.000000  0.000000  0.656564  1
  P  P28  1  0.500000  0.306048  0.614407  1
  P  P29  1  0.500000  0.693952  0.614407  1
  P  P30  1  0.000000  0.194254  0.386949  1
  P  P31  1  0.000000  0.805746  0.386949  1
  P  P32  1  0.500000  0.847630  0.894918  1
  P  P33  1  0.500000  0.152370  0.894918  1
  P  P34  1  0.000000  0.655989  0.102517  1
  P  P35  1  0.000000  0.344011  0.102517  1
