# generated using pymatgen
data_Y12Ga8RuRh7
_symmetry_space_group_name_H-M   'P 1'
_cell_length_a   5.59031352
_cell_length_b   7.82464114
_cell_length_c   13.64461458
_cell_angle_alpha   89.93500905
_cell_angle_beta   90.13395283
_cell_angle_gamma   90.16341988
_symmetry_Int_Tables_number   1
_chemical_formula_structural   Y12Ga8RuRh7
_chemical_formula_sum   'Y12 Ga8 Ru1 Rh7'
_cell_volume   596.84098238
_cell_formula_units_Z   1
loop_
 _symmetry_equiv_pos_site_id
 _symmetry_equiv_pos_as_xyz
  1  'x, y, z'
loop_
 _atom_site_type_symbol
 _atom_site_label
 _atom_site_symmetry_multiplicity
 _atom_site_fract_x
 _atom_site_fract_y
 _atom_site_fract_z
 _atom_site_occupancy
  Y  Y0  1  0.625124  0.264746  0.249569  1
  Y  Y1  1  0.372904  0.734124  0.749583  1
  Y  Y2  1  0.373470  0.768676  0.247540  1
  Y  Y3  1  0.630667  0.232121  0.750711  1
  Y  Y4  1  0.149830  0.399712  0.097772  1
  Y  Y5  1  0.848277  0.598064  0.902301  1
  Y  Y6  1  0.848766  0.599283  0.597793  1
  Y  Y7  1  0.849269  0.901149  0.401876  1
  Y  Y8  1  0.149245  0.402191  0.402066  1
  Y  Y9  1  0.152275  0.098906  0.598036  1
  Y  Y10  1  0.152367  0.099254  0.902933  1
  Y  Y11  1  0.849710  0.904199  0.097703  1
  Ga  Ga12  1  0.121958  0.111569  0.250417  1
  Ga  Ga13  1  0.879144  0.887502  0.750159  1
  Ga  Ga14  1  0.877825  0.611015  0.250070  1
  Ga  Ga15  1  0.124872  0.387971  0.750068  1
  Ga  Ga16  1  0.636479  0.249572  0.998178  1
  Ga  Ga17  1  0.358445  0.750444  0.002505  1
  Ga  Ga18  1  0.358129  0.749615  0.498823  1
  Ga  Ga19  1  0.641632  0.250567  0.501390  1
  Ru  Ru20  1  0.353037  0.037060  0.092601  1
  Rh  Rh21  1  0.644103  0.960025  0.906183  1
  Rh  Rh22  1  0.643375  0.962362  0.593886  1
  Rh  Rh23  1  0.644060  0.536852  0.406769  1
  Rh  Rh24  1  0.356725  0.038118  0.407534  1
  Rh  Rh25  1  0.356214  0.462945  0.593604  1
  Rh  Rh26  1  0.357679  0.467184  0.905735  1
  Rh  Rh27  1  0.644417  0.534776  0.094195  1
