# generated using pymatgen
data_Zr3AlGe2Os3
_symmetry_space_group_name_H-M   'P 1'
_cell_length_a   6.83950900
_cell_length_b   6.83950965
_cell_length_c   3.73159900
_cell_angle_alpha   90.00000000
_cell_angle_beta   90.00000000
_cell_angle_gamma   120.00000171
_symmetry_Int_Tables_number   1
_chemical_formula_structural   Zr3AlGe2Os3
_chemical_formula_sum   'Zr3 Al1 Ge2 Os3'
_cell_volume   151.17343590
_cell_formula_units_Z   1
loop_
 _symmetry_equiv_pos_site_id
 _symmetry_equiv_pos_as_xyz
  1  'x, y, z'
loop_
 _atom_site_type_symbol
 _atom_site_label
 _atom_site_symmetry_multiplicity
 _atom_site_fract_x
 _atom_site_fract_y
 _atom_site_fract_z
 _atom_site_occupancy
  Zr  Zr0  1  0.415778  0.415778  0.500000  1
  Zr  Zr1  1  0.584222  0.000000  0.500000  1
  Zr  Zr2  1  0.000000  0.584222  0.500000  1
  Al  Al3  1  0.000000  0.000000  0.500000  1
  Ge  Ge4  1  0.666667  0.333333  0.000000  1
  Ge  Ge5  1  0.333333  0.666667  0.000000  1
  Os  Os6  1  0.753410  0.753410  0.000000  1
  Os  Os7  1  0.246590  0.000000  0.000000  1
  Os  Os8  1  0.000000  0.246590  0.000000  1
