# generated using pymatgen
data_Eu4ScMo3O14
_symmetry_space_group_name_H-M   'P 1'
_cell_length_a   7.55942158
_cell_length_b   7.44078551
_cell_length_c   7.55942200
_cell_angle_alpha   59.47115746
_cell_angle_beta   59.99999814
_cell_angle_gamma   59.47115809
_symmetry_Int_Tables_number   1
_chemical_formula_structural   Eu4ScMo3O14
_chemical_formula_sum   'Eu4 Sc1 Mo3 O14'
_cell_volume   298.23786343
_cell_formula_units_Z   1
loop_
 _symmetry_equiv_pos_site_id
 _symmetry_equiv_pos_as_xyz
  1  'x, y, z'
loop_
 _atom_site_type_symbol
 _atom_site_label
 _atom_site_symmetry_multiplicity
 _atom_site_fract_x
 _atom_site_fract_y
 _atom_site_fract_z
 _atom_site_occupancy
  Eu  Eu0  1  0.625000  0.125000  0.125000  1
  Eu  Eu1  1  0.125000  0.625000  0.125000  1
  Eu  Eu2  1  0.125000  0.125000  0.625000  1
  Eu  Eu3  1  0.125000  0.125000  0.125000  1
  Sc  Sc4  1  0.625000  0.125000  0.625000  1
  Mo  Mo5  1  0.125000  0.625000  0.625000  1
  Mo  Mo6  1  0.625000  0.625000  0.125000  1
  Mo  Mo7  1  0.625000  0.625000  0.625000  1
  O  O8  1  0.251981  0.244056  0.251981  1
  O  O9  1  0.998019  0.005944  0.998019  1
  O  O10  1  0.706731  0.691895  0.300687  1
  O  O11  1  0.288629  0.309278  0.701047  1
  O  O12  1  0.701047  0.309278  0.701047  1
  O  O13  1  0.300687  0.691895  0.300687  1
  O  O14  1  0.300687  0.691895  0.706731  1
  O  O15  1  0.701047  0.309278  0.288629  1
  O  O16  1  0.543269  0.558105  0.949313  1
  O  O17  1  0.961371  0.940722  0.548953  1
  O  O18  1  0.548953  0.940722  0.548953  1
  O  O19  1  0.949313  0.558105  0.949313  1
  O  O20  1  0.949313  0.558105  0.543269  1
  O  O21  1  0.548953  0.940722  0.961371  1
