# generated using pymatgen
data_Np2P2O9
_symmetry_space_group_name_H-M   'P 1'
_cell_length_a   5.75684298
_cell_length_b   5.75685103
_cell_length_c   12.68993900
_cell_angle_alpha   90.00000000
_cell_angle_beta   90.00000000
_cell_angle_gamma   103.57064869
_symmetry_Int_Tables_number   1
_chemical_formula_structural   Np2P2O9
_chemical_formula_sum   'Np4 P4 O18'
_cell_volume   408.81941506
_cell_formula_units_Z   2
loop_
 _symmetry_equiv_pos_site_id
 _symmetry_equiv_pos_as_xyz
  1  'x, y, z'
loop_
 _atom_site_type_symbol
 _atom_site_label
 _atom_site_symmetry_multiplicity
 _atom_site_fract_x
 _atom_site_fract_y
 _atom_site_fract_z
 _atom_site_occupancy
  Np  Np0  1  0.708281  0.291719  0.930933  1
  Np  Np1  1  0.791719  0.208281  0.430933  1
  Np  Np2  1  0.291719  0.708281  0.069067  1
  Np  Np3  1  0.208281  0.791719  0.569067  1
  P  P4  1  0.608266  0.391735  0.642851  1
  P  P5  1  0.891734  0.108265  0.142851  1
  P  P6  1  0.391734  0.608265  0.357149  1
  P  P7  1  0.108266  0.891735  0.857149  1
  O  O8  1  0.439751  0.560248  0.624236  1
  O  O9  1  0.060249  0.939752  0.124236  1
  O  O10  1  0.560249  0.439752  0.375764  1
  O  O11  1  0.939751  0.060248  0.875764  1
  O  O12  1  0.000000  0.000000  0.500000  1
  O  O13  1  0.500000  0.500000  0.000000  1
  O  O14  1  0.139183  0.860818  0.739087  1
  O  O15  1  0.360817  0.639182  0.239087  1
  O  O16  1  0.351983  0.986968  0.915386  1
  O  O17  1  0.148017  0.513032  0.415386  1
  O  O18  1  0.986968  0.351983  0.084614  1
  O  O19  1  0.513032  0.148017  0.584614  1
  O  O20  1  0.648017  0.013032  0.084614  1
  O  O21  1  0.851983  0.486968  0.584614  1
  O  O22  1  0.013032  0.648017  0.915386  1
  O  O23  1  0.486968  0.851983  0.415386  1
  O  O24  1  0.639183  0.360818  0.760913  1
  O  O25  1  0.860817  0.139182  0.260913  1
