# generated using pymatgen
data_Al4Tc3GeP
_symmetry_space_group_name_H-M   'P 1'
_cell_length_a   4.69035602
_cell_length_b   4.65998965
_cell_length_c   6.68149109
_cell_angle_alpha   88.93427285
_cell_angle_beta   90.34452922
_cell_angle_gamma   119.77005248
_symmetry_Int_Tables_number   1
_chemical_formula_structural   Al4Tc3GeP
_chemical_formula_sum   'Al4 Tc3 Ge1 P1'
_cell_volume   126.74134467
_cell_formula_units_Z   1
loop_
 _symmetry_equiv_pos_site_id
 _symmetry_equiv_pos_as_xyz
  1  'x, y, z'
loop_
 _atom_site_type_symbol
 _atom_site_label
 _atom_site_symmetry_multiplicity
 _atom_site_fract_x
 _atom_site_fract_y
 _atom_site_fract_z
 _atom_site_occupancy
  Al  Al0  1  0.168620  0.831409  0.503885  1
  Al  Al1  1  0.327195  0.164372  0.167430  1
  Al  Al2  1  0.829881  0.668317  0.834495  1
  Al  Al3  1  0.827474  0.163860  0.497558  1
  Tc  Tc4  1  0.995330  0.496412  0.163398  1
  Tc  Tc5  1  0.507122  0.999886  0.845667  1
  Tc  Tc6  1  0.506233  0.505985  0.491309  1
  Ge  Ge7  1  0.167731  0.334317  0.825859  1
  P  P8  1  0.670799  0.835056  0.170398  1
