# generated using pymatgen
data_Tm2Lu18Si5Sb7
_symmetry_space_group_name_H-M   'P 1'
_cell_length_a   7.78141347
_cell_length_b   8.85841225
_cell_length_c   11.60071341
_cell_angle_alpha   90.02289205
_cell_angle_beta   90.23043942
_cell_angle_gamma   90.07451923
_symmetry_Int_Tables_number   1
_chemical_formula_structural   Tm2Lu18Si5Sb7
_chemical_formula_sum   'Tm2 Lu18 Si5 Sb7'
_cell_volume   799.64120055
_cell_formula_units_Z   1
loop_
 _symmetry_equiv_pos_site_id
 _symmetry_equiv_pos_as_xyz
  1  'x, y, z'
loop_
 _atom_site_type_symbol
 _atom_site_label
 _atom_site_symmetry_multiplicity
 _atom_site_fract_x
 _atom_site_fract_y
 _atom_site_fract_z
 _atom_site_occupancy
  Tm  Tm0  1  0.357518  0.249863  0.705551  1
  Tm  Tm1  1  0.858140  0.749714  0.794295  1
  Lu  Lu2  1  0.821877  0.949128  0.072653  1
  Lu  Lu3  1  0.311031  0.049254  0.433405  1
  Lu  Lu4  1  0.182755  0.447316  0.933927  1
  Lu  Lu5  1  0.684955  0.550814  0.563426  1
  Lu  Lu6  1  0.182671  0.052554  0.935691  1
  Lu  Lu7  1  0.682857  0.948599  0.563256  1
  Lu  Lu8  1  0.816267  0.552507  0.067252  1
  Lu  Lu9  1  0.313361  0.447635  0.434597  1
  Lu  Lu10  1  0.538947  0.251315  0.998459  1
  Lu  Lu11  1  0.033889  0.760817  0.495621  1
  Lu  Lu12  1  0.459804  0.748460  0.004145  1
  Lu  Lu13  1  0.959757  0.238913  0.492429  1
  Lu  Lu14  1  0.161055  0.761057  0.219739  1
  Lu  Lu15  1  0.677560  0.239248  0.284168  1
  Lu  Lu16  1  0.831651  0.251362  0.783362  1
  Lu  Lu17  1  0.332431  0.749778  0.713232  1
  Lu  Lu18  1  0.656159  0.760947  0.296521  1
  Lu  Lu19  1  0.134063  0.240342  0.209317  1
  Si  Si20  1  0.938952  0.991542  0.328069  1
  Si  Si21  1  0.913722  0.251153  0.019842  1
  Si  Si22  1  0.414899  0.748824  0.476635  1
  Si  Si23  1  0.085566  0.749365  0.981069  1
  Si  Si24  1  0.583182  0.249795  0.519046  1
  Sb  Sb25  1  0.434116  0.010732  0.172952  1
  Sb  Sb26  1  0.065600  0.490205  0.669465  1
  Sb  Sb27  1  0.565967  0.511531  0.825745  1
  Sb  Sb28  1  0.065555  0.010194  0.675564  1
  Sb  Sb29  1  0.566469  0.988913  0.827028  1
  Sb  Sb30  1  0.934622  0.509397  0.326544  1
  Sb  Sb31  1  0.434603  0.488727  0.176991  1
