# generated using pymatgen
data_YHo9In8Pd3Rh
_symmetry_space_group_name_H-M   'P 1'
_cell_length_a   3.61231000
_cell_length_b   8.12681908
_cell_length_c   18.25313947
_cell_angle_alpha   89.99519862
_cell_angle_beta   90.00000000
_cell_angle_gamma   90.00000000
_symmetry_Int_Tables_number   1
_chemical_formula_structural   YHo9In8Pd3Rh
_chemical_formula_sum   'Y1 Ho9 In8 Pd3 Rh1'
_cell_volume   535.84992690
_cell_formula_units_Z   1
loop_
 _symmetry_equiv_pos_site_id
 _symmetry_equiv_pos_as_xyz
  1  'x, y, z'
loop_
 _atom_site_type_symbol
 _atom_site_label
 _atom_site_symmetry_multiplicity
 _atom_site_fract_x
 _atom_site_fract_y
 _atom_site_fract_z
 _atom_site_occupancy
  Y  Y0  1  0.000000  0.500146  0.499845  1
  Ho  Ho1  1  0.000000  0.999740  0.000383  1
  Ho  Ho2  1  0.000000  0.731932  0.277901  1
  Ho  Ho3  1  0.000000  0.260687  0.719801  1
  Ho  Ho4  1  0.000000  0.760017  0.780038  1
  Ho  Ho5  1  0.000000  0.251872  0.219814  1
  Ho  Ho6  1  0.000000  0.613307  0.086486  1
  Ho  Ho7  1  0.000000  0.383779  0.917093  1
  Ho  Ho8  1  0.000000  0.884003  0.583086  1
  Ho  Ho9  1  0.000000  0.115972  0.415776  1
  In  In10  1  0.500000  0.709781  0.932331  1
  In  In11  1  0.500000  0.290039  0.068676  1
  In  In12  1  0.500000  0.790541  0.431508  1
  In  In13  1  0.500000  0.209184  0.568018  1
  In  In14  1  0.500000  0.580758  0.649806  1
  In  In15  1  0.500000  0.421132  0.350175  1
  In  In16  1  0.500000  0.920380  0.149946  1
  In  In17  1  0.500000  0.080438  0.850292  1
  Pd  Pd18  1  0.500000  0.476449  0.804147  1
  Pd  Pd19  1  0.500000  0.976650  0.696016  1
  Pd  Pd20  1  0.500000  0.021655  0.303683  1
  Rh  Rh21  1  0.500000  0.521536  0.195179  1
