# generated using pymatgen
data_Pu2ReTcB8
_symmetry_space_group_name_H-M   'P 1'
_cell_length_a   3.57864300
_cell_length_b   5.98104217
_cell_length_c   11.58426233
_cell_angle_alpha   90.02730617
_cell_angle_beta   90.00000000
_cell_angle_gamma   90.00000000
_symmetry_Int_Tables_number   1
_chemical_formula_structural   Pu2ReTcB8
_chemical_formula_sum   'Pu4 Re2 Tc2 B16'
_cell_volume   247.94969294
_cell_formula_units_Z   2
loop_
 _symmetry_equiv_pos_site_id
 _symmetry_equiv_pos_as_xyz
  1  'x, y, z'
loop_
 _atom_site_type_symbol
 _atom_site_label
 _atom_site_symmetry_multiplicity
 _atom_site_fract_x
 _atom_site_fract_y
 _atom_site_fract_z
 _atom_site_occupancy
  Pu  Pu0  1  0.000000  0.626277  0.349985  1
  Pu  Pu1  1  0.000000  0.373723  0.650015  1
  Pu  Pu2  1  0.000000  0.126447  0.150645  1
  Pu  Pu3  1  0.000000  0.873553  0.849355  1
  Re  Re4  1  0.000000  0.635493  0.090286  1
  Re  Re5  1  0.000000  0.364507  0.909714  1
  Tc  Tc6  1  0.000000  0.134971  0.409599  1
  Tc  Tc7  1  0.000000  0.865029  0.590401  1
  B  B8  1  0.500000  0.787564  0.186883  1
  B  B9  1  0.500000  0.212436  0.813117  1
  B  B10  1  0.500000  0.287243  0.313611  1
  B  B11  1  0.500000  0.712757  0.686389  1
  B  B12  1  0.500000  0.865233  0.031626  1
  B  B13  1  0.500000  0.134767  0.968374  1
  B  B14  1  0.500000  0.365014  0.468119  1
  B  B15  1  0.500000  0.634986  0.531881  1
  B  B16  1  0.500000  0.886064  0.453226  1
  B  B17  1  0.500000  0.113936  0.546774  1
  B  B18  1  0.500000  0.385458  0.047017  1
  B  B19  1  0.500000  0.614542  0.952983  1
  B  B20  1  0.500000  0.974684  0.307963  1
  B  B21  1  0.500000  0.025316  0.692037  1
  B  B22  1  0.500000  0.474109  0.192141  1
  B  B23  1  0.500000  0.525891  0.807859  1
