# generated using pymatgen
data_LaCeAl20(IrRu)2
_symmetry_space_group_name_H-M   'P 1'
_cell_length_a   6.88773697
_cell_length_b   6.88773621
_cell_length_c   9.19800613
_cell_angle_alpha   90.03923483
_cell_angle_beta   89.96076802
_cell_angle_gamma   97.34764284
_symmetry_Int_Tables_number   1
_chemical_formula_structural   LaCeAl20(IrRu)2
_chemical_formula_sum   'La1 Ce1 Al20 Ir2 Ru2'
_cell_volume   432.77843985
_cell_formula_units_Z   1
loop_
 _symmetry_equiv_pos_site_id
 _symmetry_equiv_pos_as_xyz
  1  'x, y, z'
loop_
 _atom_site_type_symbol
 _atom_site_label
 _atom_site_symmetry_multiplicity
 _atom_site_fract_x
 _atom_site_fract_y
 _atom_site_fract_z
 _atom_site_occupancy
  La  La0  1  0.874094  0.125906  0.750269  1
  Ce  Ce1  1  0.122970  0.877030  0.250094  1
  Al  Al2  1  0.590017  0.857839  0.251718  1
  Al  Al3  1  0.777322  0.518614  0.252300  1
  Al  Al4  1  0.160877  0.839123  0.895334  1
  Al  Al5  1  0.408121  0.142241  0.748282  1
  Al  Al6  1  0.620915  0.379085  0.949580  1
  Al  Al7  1  0.841742  0.158258  0.397497  1
  Al  Al8  1  0.778524  0.777754  0.001902  1
  Al  Al9  1  0.857759  0.591879  0.748282  1
  Al  Al10  1  0.841038  0.158962  0.105473  1
  Al  Al11  1  0.224027  0.482294  0.747548  1
  Al  Al12  1  0.160210  0.839790  0.601808  1
  Al  Al13  1  0.778030  0.777582  0.498236  1
  Al  Al14  1  0.481386  0.222678  0.252300  1
  Al  Al15  1  0.622576  0.377424  0.547802  1
  Al  Al16  1  0.222418  0.221970  0.498236  1
  Al  Al17  1  0.377359  0.622641  0.450321  1
  Al  Al18  1  0.142161  0.409983  0.251718  1
  Al  Al19  1  0.517706  0.775973  0.747548  1
  Al  Al20  1  0.378584  0.621416  0.052147  1
  Al  Al21  1  0.222246  0.221476  0.001902  1
  Ir  Ir22  1  0.499508  0.999300  0.001041  1
  Ir  Ir23  1  0.000700  0.500492  0.001041  1
  Ru  Ru24  1  0.498994  0.999284  0.498811  1
  Ru  Ru25  1  0.000716  0.501006  0.498811  1
