# generated using pymatgen
data_Tm8Lu4Th4Mg3Co4Hg
_symmetry_space_group_name_H-M   'P 1'
_cell_length_a   9.50372007
_cell_length_b   9.50372129
_cell_length_c   9.50021800
_cell_angle_alpha   59.97396819
_cell_angle_beta   59.97396126
_cell_angle_gamma   59.97429276
_symmetry_Int_Tables_number   1
_chemical_formula_structural   Tm8Lu4Th4Mg3Co4Hg
_chemical_formula_sum   'Tm8 Lu4 Th4 Mg3 Co4 Hg1'
_cell_volume   606.38786719
_cell_formula_units_Z   1
loop_
 _symmetry_equiv_pos_site_id
 _symmetry_equiv_pos_as_xyz
  1  'x, y, z'
loop_
 _atom_site_type_symbol
 _atom_site_label
 _atom_site_symmetry_multiplicity
 _atom_site_fract_x
 _atom_site_fract_y
 _atom_site_fract_z
 _atom_site_occupancy
  Tm  Tm0  1  0.185549  0.185549  0.814133  1
  Tm  Tm1  1  0.815404  0.815404  0.184371  1
  Tm  Tm2  1  0.934926  0.564839  0.564931  1
  Tm  Tm3  1  0.564881  0.935873  0.935968  1
  Tm  Tm4  1  0.564839  0.934926  0.564931  1
  Tm  Tm5  1  0.935873  0.564881  0.935968  1
  Tm  Tm6  1  0.565046  0.565046  0.934919  1
  Tm  Tm7  1  0.935643  0.935643  0.565314  1
  Lu  Lu8  1  0.813223  0.186265  0.186415  1
  Lu  Lu9  1  0.185268  0.814566  0.814630  1
  Lu  Lu10  1  0.186265  0.813223  0.186415  1
  Lu  Lu11  1  0.814566  0.185268  0.814630  1
  Th  Th12  1  0.345117  0.345117  0.343970  1
  Th  Th13  1  0.347159  0.347159  0.960158  1
  Th  Th14  1  0.346224  0.960517  0.347243  1
  Th  Th15  1  0.960517  0.346224  0.347243  1
  Mg  Mg16  1  0.579521  0.579521  0.262325  1
  Mg  Mg17  1  0.579725  0.261293  0.578707  1
  Mg  Mg18  1  0.261293  0.579725  0.578707  1
  Co  Co19  1  0.142847  0.142847  0.144263  1
  Co  Co20  1  0.141840  0.141840  0.567164  1
  Co  Co21  1  0.143076  0.567115  0.141714  1
  Co  Co22  1  0.567115  0.143076  0.141714  1
  Hg  Hg23  1  0.584087  0.584087  0.584173  1
