# generated using pymatgen
data_Pr3SmCo6O19
_symmetry_space_group_name_H-M   'P 1'
_cell_length_a   7.49434368
_cell_length_b   7.49391427
_cell_length_c   7.49439331
_cell_angle_alpha   109.45062813
_cell_angle_beta   109.47155565
_cell_angle_gamma   109.46540669
_symmetry_Int_Tables_number   1
_chemical_formula_structural   Pr3SmCo6O19
_chemical_formula_sum   'Pr3 Sm1 Co6 O19'
_cell_volume   324.11308407
_cell_formula_units_Z   1
loop_
 _symmetry_equiv_pos_site_id
 _symmetry_equiv_pos_as_xyz
  1  'x, y, z'
loop_
 _atom_site_type_symbol
 _atom_site_label
 _atom_site_symmetry_multiplicity
 _atom_site_fract_x
 _atom_site_fract_y
 _atom_site_fract_z
 _atom_site_occupancy
  Pr  Pr0  1  0.329179  0.999126  0.999435  1
  Pr  Pr1  1  0.999293  0.329126  0.999129  1
  Pr  Pr2  1  0.999278  0.999445  0.329233  1
  Sm  Sm3  1  0.669303  0.669344  0.669246  1
  Co  Co4  1  0.658062  0.500714  0.158658  1
  Co  Co5  1  0.500352  0.841838  0.343282  1
  Co  Co6  1  0.158754  0.658154  0.500710  1
  Co  Co7  1  0.841733  0.343172  0.500353  1
  Co  Co8  1  0.500690  0.158642  0.658043  1
  Co  Co9  1  0.343268  0.500344  0.841820  1
  O  O10  1  0.993313  0.993315  0.993314  1
  O  O11  1  0.355866  0.355755  0.000109  1
  O  O12  1  0.645493  0.645124  0.999276  1
  O  O13  1  0.294237  0.676174  0.041637  1
  O  O14  1  0.958692  0.634349  0.252157  1
  O  O15  1  0.676200  0.041648  0.294249  1
  O  O16  1  0.616407  0.366493  0.325600  1
  O  O17  1  0.000114  0.355782  0.355658  1
  O  O18  1  0.355666  0.000117  0.355791  1
  O  O19  1  0.325631  0.616388  0.366469  1
  O  O20  1  0.706682  0.747025  0.385580  1
  O  O21  1  0.366470  0.325672  0.616390  1
  O  O22  1  0.252139  0.958718  0.634356  1
  O  O23  1  0.999272  0.645603  0.645240  1
  O  O24  1  0.645246  0.999261  0.645594  1
  O  O25  1  0.041716  0.294309  0.676223  1
  O  O26  1  0.747025  0.385595  0.706662  1
  O  O27  1  0.385564  0.706607  0.747025  1
  O  O28  1  0.634352  0.252153  0.958755  1
