# generated using pymatgen
data_Tb2Lu3Pb4
_symmetry_space_group_name_H-M   'P 1'
_cell_length_a   8.13129000
_cell_length_b   8.20453300
_cell_length_c   15.46350600
_cell_angle_alpha   90.00000000
_cell_angle_beta   90.00000000
_cell_angle_gamma   90.00000000
_symmetry_Int_Tables_number   1
_chemical_formula_structural   Tb2Lu3Pb4
_chemical_formula_sum   'Tb8 Lu12 Pb16'
_cell_volume   1031.62363546
_cell_formula_units_Z   4
loop_
 _symmetry_equiv_pos_site_id
 _symmetry_equiv_pos_as_xyz
  1  'x, y, z'
loop_
 _atom_site_type_symbol
 _atom_site_label
 _atom_site_symmetry_multiplicity
 _atom_site_fract_x
 _atom_site_fract_y
 _atom_site_fract_z
 _atom_site_occupancy
  Tb  Tb0  1  0.535087  0.322597  0.900239  1
  Tb  Tb1  1  0.035087  0.177403  0.599761  1
  Tb  Tb2  1  0.464913  0.677403  0.400239  1
  Tb  Tb3  1  0.964913  0.822597  0.099761  1
  Tb  Tb4  1  0.464913  0.677403  0.099761  1
  Tb  Tb5  1  0.964913  0.822597  0.400239  1
  Tb  Tb6  1  0.535087  0.322597  0.599761  1
  Tb  Tb7  1  0.035087  0.177403  0.900239  1
  Lu  Lu8  1  0.376359  0.840771  0.878937  1
  Lu  Lu9  1  0.876359  0.659229  0.621063  1
  Lu  Lu10  1  0.623641  0.159229  0.378937  1
  Lu  Lu11  1  0.123641  0.340771  0.121063  1
  Lu  Lu12  1  0.623641  0.159229  0.121063  1
  Lu  Lu13  1  0.123641  0.340771  0.378937  1
  Lu  Lu14  1  0.376359  0.840771  0.621063  1
  Lu  Lu15  1  0.876359  0.659229  0.878937  1
  Lu  Lu16  1  0.207396  0.505300  0.750000  1
  Lu  Lu17  1  0.707396  0.994700  0.750000  1
  Lu  Lu18  1  0.792604  0.494700  0.250000  1
  Lu  Lu19  1  0.292604  0.005300  0.250000  1
  Pb  Pb20  1  0.283060  0.034270  0.042872  1
  Pb  Pb21  1  0.783060  0.465730  0.457128  1
  Pb  Pb22  1  0.716940  0.965730  0.542872  1
  Pb  Pb23  1  0.216940  0.534270  0.957128  1
  Pb  Pb24  1  0.716940  0.965730  0.957128  1
  Pb  Pb25  1  0.216940  0.534270  0.542872  1
  Pb  Pb26  1  0.283060  0.034270  0.457128  1
  Pb  Pb27  1  0.783060  0.465730  0.042872  1
  Pb  Pb28  1  0.570356  0.629146  0.750000  1
  Pb  Pb29  1  0.070356  0.870854  0.750000  1
  Pb  Pb30  1  0.429644  0.370854  0.250000  1
  Pb  Pb31  1  0.929644  0.129146  0.250000  1
  Pb  Pb32  1  0.345723  0.151845  0.750000  1
  Pb  Pb33  1  0.845723  0.348155  0.750000  1
  Pb  Pb34  1  0.654277  0.848155  0.250000  1
  Pb  Pb35  1  0.154277  0.651845  0.250000  1
