# generated using pymatgen
data_Ho2ThMg2AlIr3
_symmetry_space_group_name_H-M   'P 1'
_cell_length_a   7.29289090
_cell_length_b   7.29289151
_cell_length_c   4.02506400
_cell_angle_alpha   90.00000000
_cell_angle_beta   90.00000000
_cell_angle_gamma   119.19718027
_symmetry_Int_Tables_number   1
_chemical_formula_structural   Ho2ThMg2AlIr3
_chemical_formula_sum   'Ho2 Th1 Mg2 Al1 Ir3'
_cell_volume   186.87864737
_cell_formula_units_Z   1
loop_
 _symmetry_equiv_pos_site_id
 _symmetry_equiv_pos_as_xyz
  1  'x, y, z'
loop_
 _atom_site_type_symbol
 _atom_site_label
 _atom_site_symmetry_multiplicity
 _atom_site_fract_x
 _atom_site_fract_y
 _atom_site_fract_z
 _atom_site_occupancy
  Ho  Ho0  1  0.409124  0.008368  0.500000  1
  Ho  Ho1  1  0.008368  0.409124  0.500000  1
  Th  Th2  1  0.570743  0.570743  0.500000  1
  Mg  Mg3  1  0.755784  0.007290  0.000000  1
  Mg  Mg4  1  0.007290  0.755784  0.000000  1
  Al  Al5  1  0.232813  0.232813  0.000000  1
  Ir  Ir6  1  0.338752  0.654688  0.000000  1
  Ir  Ir7  1  0.654688  0.338752  0.000000  1
  Ir  Ir8  1  0.022437  0.022437  0.500000  1
