# generated using pymatgen
data_Mn2Al3IrS8
_symmetry_space_group_name_H-M   'P 1'
_cell_length_a   7.13195457
_cell_length_b   7.13195373
_cell_length_c   7.19426635
_cell_angle_alpha   60.28610221
_cell_angle_beta   60.28610403
_cell_angle_gamma   60.00000589
_symmetry_Int_Tables_number   1
_chemical_formula_structural   Mn2Al3IrS8
_chemical_formula_sum   'Mn2 Al3 Ir1 S8'
_cell_volume   259.86825379
_cell_formula_units_Z   1
loop_
 _symmetry_equiv_pos_site_id
 _symmetry_equiv_pos_as_xyz
  1  'x, y, z'
loop_
 _atom_site_type_symbol
 _atom_site_label
 _atom_site_symmetry_multiplicity
 _atom_site_fract_x
 _atom_site_fract_y
 _atom_site_fract_z
 _atom_site_occupancy
  Mn  Mn0  1  0.251014  0.251014  0.246957  1
  Mn  Mn1  1  0.998986  0.998986  0.003043  1
  Al  Al2  1  0.125000  0.625000  0.625000  1
  Al  Al3  1  0.625000  0.125000  0.625000  1
  Al  Al4  1  0.625000  0.625000  0.625000  1
  Ir  Ir5  1  0.625000  0.625000  0.125000  1
  S  S6  1  0.838820  0.388858  0.383462  1
  S  S7  1  0.388858  0.838820  0.383462  1
  S  S8  1  0.384317  0.384317  0.847047  1
  S  S9  1  0.388858  0.388858  0.383462  1
  S  S10  1  0.411180  0.861142  0.866538  1
  S  S11  1  0.861142  0.411180  0.866538  1
  S  S12  1  0.865683  0.865683  0.402953  1
  S  S13  1  0.861142  0.861142  0.866538  1
