# generated using pymatgen
data_PrNd4YTa2O14
_symmetry_space_group_name_H-M   'P 1'
_cell_length_a   6.67683084
_cell_length_b   6.65467223
_cell_length_c   7.70575501
_cell_angle_alpha   89.99840790
_cell_angle_beta   90.00552166
_cell_angle_gamma   108.74430262
_symmetry_Int_Tables_number   1
_chemical_formula_structural   PrNd4YTa2O14
_chemical_formula_sum   'Pr1 Nd4 Y1 Ta2 O14'
_cell_volume   324.22375436
_cell_formula_units_Z   1
loop_
 _symmetry_equiv_pos_site_id
 _symmetry_equiv_pos_as_xyz
  1  'x, y, z'
loop_
 _atom_site_type_symbol
 _atom_site_label
 _atom_site_symmetry_multiplicity
 _atom_site_fract_x
 _atom_site_fract_y
 _atom_site_fract_z
 _atom_site_occupancy
  Pr  Pr0  1  0.532920  0.526764  0.499003  1
  Nd  Nd1  1  0.536561  0.530327  0.000836  1
  Nd  Nd2  1  0.006964  0.461925  0.750563  1
  Nd  Nd3  1  0.532372  0.003656  0.750474  1
  Nd  Nd4  1  0.462111  0.004035  0.249394  1
  Y  Y5  1  0.003775  0.530399  0.249502  1
  Ta  Ta6  1  0.000660  0.000996  0.498016  1
  Ta  Ta7  1  0.000920  0.001147  0.001974  1
  O  O8  1  0.944495  0.055715  0.749971  1
  O  O9  1  0.058061  0.936410  0.250028  1
  O  O10  1  0.354456  0.635607  0.248259  1
  O  O11  1  0.643170  0.368151  0.751847  1
  O  O12  1  0.372131  0.631880  0.752030  1
  O  O13  1  0.643973  0.376505  0.248076  1
  O  O14  1  0.307437  0.067897  0.969273  1
  O  O15  1  0.679135  0.920097  0.472504  1
  O  O16  1  0.308222  0.068836  0.530548  1
  O  O17  1  0.678748  0.918605  0.027314  1
  O  O18  1  0.037090  0.300334  0.459714  1
  O  O19  1  0.930037  0.680532  0.975799  1
  O  O20  1  0.931134  0.680857  0.524380  1
  O  O21  1  0.035629  0.299327  0.040494  1
