# generated using pymatgen
data_SrSm6TcBr12
_symmetry_space_group_name_H-M   'P 1'
_cell_length_a   9.46703775
_cell_length_b   9.46770523
_cell_length_c   9.46935567
_cell_angle_alpha   106.16900595
_cell_angle_beta   106.21362322
_cell_angle_gamma   106.14905406
_symmetry_Int_Tables_number   1
_chemical_formula_structural   SrSm6TcBr12
_chemical_formula_sum   'Sr1 Sm6 Tc1 Br12'
_cell_volume   722.12374026
_cell_formula_units_Z   1
loop_
 _symmetry_equiv_pos_site_id
 _symmetry_equiv_pos_as_xyz
  1  'x, y, z'
loop_
 _atom_site_type_symbol
 _atom_site_label
 _atom_site_symmetry_multiplicity
 _atom_site_fract_x
 _atom_site_fract_y
 _atom_site_fract_z
 _atom_site_occupancy
  Sr  Sr0  1  0.500000  0.500000  0.500000  1
  Sm  Sm1  1  0.100766  0.308811  0.019785  1
  Sm  Sm2  1  0.309215  0.019829  0.101209  1
  Sm  Sm3  1  0.019661  0.101006  0.308894  1
  Sm  Sm4  1  0.980338  0.898993  0.691105  1
  Sm  Sm5  1  0.690786  0.980170  0.898790  1
  Sm  Sm6  1  0.899234  0.691188  0.980213  1
  Tc  Tc7  1  0.000001  0.000000  0.000000  1
  Br  Br8  1  0.219261  0.680013  0.072198  1
  Br  Br9  1  0.446921  0.365748  0.146290  1
  Br  Br10  1  0.679807  0.072121  0.218885  1
  Br  Br11  1  0.927854  0.780994  0.319907  1
  Br  Br12  1  0.146259  0.447076  0.365574  1
  Br  Br13  1  0.365499  0.146150  0.447012  1
  Br  Br14  1  0.634499  0.853850  0.552987  1
  Br  Br15  1  0.853739  0.552922  0.634424  1
  Br  Br16  1  0.072148  0.219007  0.680093  1
  Br  Br17  1  0.320196  0.927882  0.781118  1
  Br  Br18  1  0.553078  0.634254  0.853712  1
  Br  Br19  1  0.780738  0.319988  0.927802  1
