# generated using pymatgen
data_TbDy(TaSe2)8
_symmetry_space_group_name_H-M   'P 1'
_cell_length_a   7.02710500
_cell_length_b   7.02710486
_cell_length_c   14.55900600
_cell_angle_alpha   90.00000000
_cell_angle_beta   90.00000000
_cell_angle_gamma   120.00000534
_symmetry_Int_Tables_number   1
_chemical_formula_structural   TbDy(TaSe2)8
_chemical_formula_sum   'Tb1 Dy1 Ta8 Se16'
_cell_volume   622.60873686
_cell_formula_units_Z   1
loop_
 _symmetry_equiv_pos_site_id
 _symmetry_equiv_pos_as_xyz
  1  'x, y, z'
loop_
 _atom_site_type_symbol
 _atom_site_label
 _atom_site_symmetry_multiplicity
 _atom_site_fract_x
 _atom_site_fract_y
 _atom_site_fract_z
 _atom_site_occupancy
  Tb  Tb0  1  0.000000  0.000000  0.500000  1
  Dy  Dy1  1  0.000000  0.000000  0.000000  1
  Ta  Ta2  1  0.506583  0.493417  0.750910  1
  Ta  Ta3  1  0.013164  0.506583  0.249090  1
  Ta  Ta4  1  0.493417  0.986836  0.249090  1
  Ta  Ta5  1  0.506583  0.013164  0.750910  1
  Ta  Ta6  1  0.986836  0.493417  0.750910  1
  Ta  Ta7  1  0.493417  0.506583  0.249090  1
  Ta  Ta8  1  0.000000  0.000000  0.750715  1
  Ta  Ta9  1  0.000000  0.000000  0.249285  1
  Se  Se10  1  0.830571  0.169429  0.362723  1
  Se  Se11  1  0.830571  0.661141  0.362723  1
  Se  Se12  1  0.338859  0.169429  0.362723  1
  Se  Se13  1  0.661075  0.830537  0.864462  1
  Se  Se14  1  0.169429  0.338859  0.637277  1
  Se  Se15  1  0.169463  0.830537  0.864462  1
  Se  Se16  1  0.169463  0.338925  0.864462  1
  Se  Se17  1  0.830537  0.169463  0.135538  1
  Se  Se18  1  0.338925  0.169463  0.135538  1
  Se  Se19  1  0.661141  0.830571  0.637277  1
  Se  Se20  1  0.333333  0.666667  0.131318  1
  Se  Se21  1  0.666667  0.333333  0.633120  1
  Se  Se22  1  0.666667  0.333333  0.868682  1
  Se  Se23  1  0.333333  0.666667  0.366880  1
  Se  Se24  1  0.830537  0.661075  0.135538  1
  Se  Se25  1  0.169429  0.830571  0.637277  1
