# generated using pymatgen
data_Sc24Co4TcRu3
_symmetry_space_group_name_H-M   'P 1'
_cell_length_a   5.83942836
_cell_length_b   8.55773400
_cell_length_c   13.26549382
_cell_angle_alpha   90.00000000
_cell_angle_beta   89.95988474
_cell_angle_gamma   90.00000000
_symmetry_Int_Tables_number   1
_chemical_formula_structural   Sc24Co4TcRu3
_chemical_formula_sum   'Sc24 Co4 Tc1 Ru3'
_cell_volume   662.90673702
_cell_formula_units_Z   1
loop_
 _symmetry_equiv_pos_site_id
 _symmetry_equiv_pos_as_xyz
  1  'x, y, z'
loop_
 _atom_site_type_symbol
 _atom_site_label
 _atom_site_symmetry_multiplicity
 _atom_site_fract_x
 _atom_site_fract_y
 _atom_site_fract_z
 _atom_site_occupancy
  Sc  Sc0  1  0.533752  0.750000  0.351566  1
  Sc  Sc1  1  0.037995  0.250000  0.147828  1
  Sc  Sc2  1  0.461824  0.250000  0.648184  1
  Sc  Sc3  1  0.963094  0.750000  0.852050  1
  Sc  Sc4  1  0.786067  0.750000  0.111902  1
  Sc  Sc5  1  0.285384  0.250000  0.388489  1
  Sc  Sc6  1  0.213420  0.250000  0.888324  1
  Sc  Sc7  1  0.712842  0.750000  0.612679  1
  Sc  Sc8  1  0.407120  0.934431  0.785823  1
  Sc  Sc9  1  0.907959  0.065171  0.713903  1
  Sc  Sc10  1  0.592964  0.434718  0.214824  1
  Sc  Sc11  1  0.092237  0.565305  0.285367  1
  Sc  Sc12  1  0.592964  0.065282  0.214824  1
  Sc  Sc13  1  0.092237  0.934695  0.285367  1
  Sc  Sc14  1  0.407120  0.565569  0.785823  1
  Sc  Sc15  1  0.907959  0.434829  0.713903  1
  Sc  Sc16  1  0.248891  0.937846  0.537474  1
  Sc  Sc17  1  0.748431  0.062154  0.962267  1
  Sc  Sc18  1  0.753909  0.439487  0.462018  1
  Sc  Sc19  1  0.252440  0.561869  0.037901  1
  Sc  Sc20  1  0.753909  0.060513  0.462018  1
  Sc  Sc21  1  0.252440  0.938131  0.037901  1
  Sc  Sc22  1  0.248891  0.562154  0.537474  1
  Sc  Sc23  1  0.748431  0.437846  0.962267  1
  Co  Co24  1  0.372362  0.750000  0.179777  1
  Co  Co25  1  0.871818  0.250000  0.319029  1
  Co  Co26  1  0.628247  0.250000  0.819593  1
  Co  Co27  1  0.127942  0.750000  0.680758  1
  Tc  Tc28  1  0.937395  0.750000  0.440869  1
  Ru  Ru29  1  0.440910  0.250000  0.059343  1
  Ru  Ru30  1  0.059543  0.250000  0.559817  1
  Ru  Ru31  1  0.559503  0.750000  0.940639  1
