# generated using pymatgen
data_Ba6HfNbF20
_symmetry_space_group_name_H-M   'P 1'
_cell_length_a   8.73357565
_cell_length_b   8.73357541
_cell_length_c   6.17323900
_cell_angle_alpha   90.00000000
_cell_angle_beta   90.00000000
_cell_angle_gamma   100.78898070
_symmetry_Int_Tables_number   1
_chemical_formula_structural   Ba6HfNbF20
_chemical_formula_sum   'Ba6 Hf1 Nb1 F20'
_cell_volume   462.54254339
_cell_formula_units_Z   1
loop_
 _symmetry_equiv_pos_site_id
 _symmetry_equiv_pos_as_xyz
  1  'x, y, z'
loop_
 _atom_site_type_symbol
 _atom_site_label
 _atom_site_symmetry_multiplicity
 _atom_site_fract_x
 _atom_site_fract_y
 _atom_site_fract_z
 _atom_site_occupancy
  Ba  Ba0  1  0.825532  0.601744  0.750000  1
  Ba  Ba1  1  0.175657  0.398381  0.250000  1
  Ba  Ba2  1  0.398256  0.174468  0.750000  1
  Ba  Ba3  1  0.601618  0.824343  0.250000  1
  Ba  Ba4  1  0.888307  0.111692  0.750000  1
  Ba  Ba5  1  0.111436  0.888564  0.250000  1
  Hf  Hf6  1  0.319194  0.680806  0.750000  1
  Nb  Nb7  1  0.681390  0.318610  0.250000  1
  F  F8  1  0.139166  0.139234  0.499972  1
  F  F9  1  0.860766  0.860834  0.499972  1
  F  F10  1  0.860766  0.860834  0.000028  1
  F  F11  1  0.139166  0.139234  0.000028  1
  F  F12  1  0.115027  0.653377  0.542856  1
  F  F13  1  0.884496  0.350014  0.460150  1
  F  F14  1  0.884496  0.350014  0.039850  1
  F  F15  1  0.346623  0.884973  0.957144  1
  F  F16  1  0.115027  0.653377  0.957144  1
  F  F17  1  0.649986  0.115504  0.039850  1
  F  F18  1  0.649986  0.115504  0.460150  1
  F  F19  1  0.346623  0.884973  0.542856  1
  F  F20  1  0.244462  0.436909  0.750000  1
  F  F21  1  0.759383  0.563003  0.250000  1
  F  F22  1  0.563091  0.755538  0.750000  1
  F  F23  1  0.436998  0.240617  0.250000  1
  F  F24  1  0.605958  0.394042  0.538565  1
  F  F25  1  0.395314  0.604685  0.461609  1
  F  F26  1  0.395314  0.604685  0.038391  1
  F  F27  1  0.605958  0.394042  0.961435  1
