# generated using pymatgen
data_Sc4ReNi2Os5
_symmetry_space_group_name_H-M   'P 1'
_cell_length_a   5.15161430
_cell_length_b   5.09866289
_cell_length_c   8.51886600
_cell_angle_alpha   90.00000000
_cell_angle_beta   90.00000000
_cell_angle_gamma   120.21647475
_symmetry_Int_Tables_number   1
_chemical_formula_structural   Sc4ReNi2Os5
_chemical_formula_sum   'Sc4 Re1 Ni2 Os5'
_cell_volume   193.35729989
_cell_formula_units_Z   1
loop_
 _symmetry_equiv_pos_site_id
 _symmetry_equiv_pos_as_xyz
  1  'x, y, z'
loop_
 _atom_site_type_symbol
 _atom_site_label
 _atom_site_symmetry_multiplicity
 _atom_site_fract_x
 _atom_site_fract_y
 _atom_site_fract_z
 _atom_site_occupancy
  Sc  Sc0  1  0.329406  0.666761  0.434898  1
  Sc  Sc1  1  0.664630  0.336179  0.562552  1
  Sc  Sc2  1  0.664630  0.336179  0.937448  1
  Sc  Sc3  1  0.329406  0.666761  0.065102  1
  Re  Re4  1  0.177919  0.341461  0.750000  1
  Ni  Ni5  1  0.170673  0.823940  0.750000  1
  Ni  Ni6  1  0.343678  0.167252  0.250000  1
  Os  Os7  1  0.833344  0.648753  0.250000  1
  Os  Os8  1  0.660519  0.824953  0.750000  1
  Os  Os9  1  0.995447  0.010794  0.999776  1
  Os  Os10  1  0.834900  0.166174  0.250000  1
  Os  Os11  1  0.995447  0.010794  0.500224  1
