# generated using pymatgen
data_HfPa3InSb4
_symmetry_space_group_name_H-M   'P 1'
_cell_length_a   9.24242500
_cell_length_b   9.24242452
_cell_length_c   6.17305300
_cell_angle_alpha   90.00000000
_cell_angle_beta   90.00000000
_cell_angle_gamma   120.00000530
_symmetry_Int_Tables_number   1
_chemical_formula_structural   HfPa3InSb4
_chemical_formula_sum   'Hf2 Pa6 In2 Sb8'
_cell_volume   456.66997830
_cell_formula_units_Z   2
loop_
 _symmetry_equiv_pos_site_id
 _symmetry_equiv_pos_as_xyz
  1  'x, y, z'
loop_
 _atom_site_type_symbol
 _atom_site_label
 _atom_site_symmetry_multiplicity
 _atom_site_fract_x
 _atom_site_fract_y
 _atom_site_fract_z
 _atom_site_occupancy
  Hf  Hf0  1  0.000000  0.000000  0.000000  1
  Hf  Hf1  1  0.000000  0.000000  0.500000  1
  Pa  Pa2  1  0.617897  0.000000  0.256197  1
  Pa  Pa3  1  0.382103  0.000000  0.743803  1
  Pa  Pa4  1  0.000000  0.617897  0.256197  1
  Pa  Pa5  1  0.000000  0.382103  0.743803  1
  Pa  Pa6  1  0.382103  0.382103  0.256197  1
  Pa  Pa7  1  0.617897  0.617897  0.743803  1
  In  In8  1  0.333333  0.666667  0.000000  1
  In  In9  1  0.666667  0.333333  0.000000  1
  Sb  Sb10  1  0.274231  0.000000  0.243581  1
  Sb  Sb11  1  0.725769  0.000000  0.756419  1
  Sb  Sb12  1  0.000000  0.274231  0.243581  1
  Sb  Sb13  1  0.000000  0.725769  0.756419  1
  Sb  Sb14  1  0.725769  0.725769  0.243581  1
  Sb  Sb15  1  0.274231  0.274231  0.756419  1
  Sb  Sb16  1  0.666667  0.333333  0.500000  1
  Sb  Sb17  1  0.333333  0.666667  0.500000  1
