# generated using pymatgen
data_CePr6Er(Si3Rh)4
_symmetry_space_group_name_H-M   'P 1'
_cell_length_a   8.27418700
_cell_length_b   8.27362374
_cell_length_c   8.32699700
_cell_angle_alpha   90.00000000
_cell_angle_beta   90.00000000
_cell_angle_gamma   120.00165972
_symmetry_Int_Tables_number   1
_chemical_formula_structural   CePr6Er(Si3Rh)4
_chemical_formula_sum   'Ce1 Pr6 Er1 Si12 Rh4'
_cell_volume   493.66561038
_cell_formula_units_Z   1
loop_
 _symmetry_equiv_pos_site_id
 _symmetry_equiv_pos_as_xyz
  1  'x, y, z'
loop_
 _atom_site_type_symbol
 _atom_site_label
 _atom_site_symmetry_multiplicity
 _atom_site_fract_x
 _atom_site_fract_y
 _atom_site_fract_z
 _atom_site_occupancy
  Ce  Ce0  1  0.999896  0.999680  0.750000  1
  Pr  Pr1  1  0.000324  0.000654  0.250000  1
  Pr  Pr2  1  0.495277  0.504833  0.250000  1
  Pr  Pr3  1  0.496421  0.992852  0.250000  1
  Pr  Pr4  1  0.009551  0.504836  0.250000  1
  Pr  Pr5  1  0.506305  0.493400  0.750000  1
  Pr  Pr6  1  0.987080  0.493387  0.750000  1
  Er  Er7  1  0.503938  0.007894  0.750000  1
  Si  Si8  1  0.832371  0.164669  0.508420  1
  Si  Si9  1  0.834274  0.668558  0.502666  1
  Si  Si10  1  0.332303  0.164677  0.508412  1
  Si  Si11  1  0.832371  0.164669  0.991580  1
  Si  Si12  1  0.834274  0.668558  0.997334  1
  Si  Si13  1  0.332303  0.164677  0.991588  1
  Si  Si14  1  0.167616  0.834342  0.998127  1
  Si  Si15  1  0.666727  0.834347  0.998119  1
  Si  Si16  1  0.166686  0.333377  0.998815  1
  Si  Si17  1  0.167616  0.834342  0.501873  1
  Si  Si18  1  0.666727  0.834347  0.501881  1
  Si  Si19  1  0.166686  0.333377  0.501185  1
  Rh  Rh20  1  0.665583  0.331168  0.484476  1
  Rh  Rh21  1  0.665583  0.331168  0.015524  1
  Rh  Rh22  1  0.335044  0.670093  0.968645  1
  Rh  Rh23  1  0.335044  0.670093  0.531355  1
