# generated using pymatgen
data_Tb3Ce(Ho3Ru2)2
_symmetry_space_group_name_H-M   'P 1'
_cell_length_a   6.36886099
_cell_length_b   7.23105401
_cell_length_c   8.57991248
_cell_angle_alpha   96.09164007
_cell_angle_beta   111.95925259
_cell_angle_gamma   91.41444576
_symmetry_Int_Tables_number   1
_chemical_formula_structural   Tb3Ce(Ho3Ru2)2
_chemical_formula_sum   'Tb3 Ce1 Ho6 Ru4'
_cell_volume   363.51062446
_cell_formula_units_Z   1
loop_
 _symmetry_equiv_pos_site_id
 _symmetry_equiv_pos_as_xyz
  1  'x, y, z'
loop_
 _atom_site_type_symbol
 _atom_site_label
 _atom_site_symmetry_multiplicity
 _atom_site_fract_x
 _atom_site_fract_y
 _atom_site_fract_z
 _atom_site_occupancy
  Tb  Tb0  1  0.789748  0.582922  0.807319  1
  Tb  Tb1  1  0.022003  0.084299  0.813515  1
  Tb  Tb2  1  0.210961  0.415687  0.186375  1
  Ce  Ce3  1  0.991404  0.900431  0.190951  1
  Ho  Ho4  1  0.638719  0.816422  0.436340  1
  Ho  Ho5  1  0.207777  0.686966  0.569632  1
  Ho  Ho6  1  0.357168  0.187553  0.569002  1
  Ho  Ho7  1  0.793725  0.312762  0.434335  1
  Ho  Ho8  1  0.423755  0.749023  0.997408  1
  Ho  Ho9  1  0.580409  0.247862  0.001013  1
  Ru  Ru10  1  0.836067  0.598944  0.220154  1
  Ru  Ru11  1  0.602183  0.926455  0.778014  1
  Ru  Ru12  1  0.177478  0.424690  0.776369  1
  Ru  Ru13  1  0.368602  0.065985  0.219574  1
