# generated using pymatgen
data_Y3HoCo4(P3Rh4)4
_symmetry_space_group_name_H-M   'P 1'
_cell_length_a   3.84261900
_cell_length_b   10.75905716
_cell_length_c   12.39236418
_cell_angle_alpha   90.01947781
_cell_angle_beta   90.00000000
_cell_angle_gamma   90.00000000
_symmetry_Int_Tables_number   1
_chemical_formula_structural   Y3HoCo4(P3Rh4)4
_chemical_formula_sum   'Y3 Ho1 Co4 P12 Rh16'
_cell_volume   512.33695532
_cell_formula_units_Z   1
loop_
 _symmetry_equiv_pos_site_id
 _symmetry_equiv_pos_as_xyz
  1  'x, y, z'
loop_
 _atom_site_type_symbol
 _atom_site_label
 _atom_site_symmetry_multiplicity
 _atom_site_fract_x
 _atom_site_fract_y
 _atom_site_fract_z
 _atom_site_occupancy
  Y  Y0  1  0.250000  0.585036  0.707647  1
  Y  Y1  1  0.250000  0.914957  0.207587  1
  Y  Y2  1  0.750000  0.414937  0.292369  1
  Ho  Ho3  1  0.750000  0.085083  0.792478  1
  Co  Co4  1  0.250000  0.464200  0.933977  1
  Co  Co5  1  0.250000  0.035727  0.434111  1
  Co  Co6  1  0.750000  0.535680  0.065969  1
  Co  Co7  1  0.750000  0.964386  0.566248  1
  P  P8  1  0.250000  0.424024  0.105996  1
  P  P9  1  0.250000  0.075985  0.606315  1
  P  P10  1  0.750000  0.575968  0.893978  1
  P  P11  1  0.750000  0.924078  0.394028  1
  P  P12  1  0.250000  0.271876  0.872390  1
  P  P13  1  0.250000  0.227740  0.372611  1
  P  P14  1  0.750000  0.727774  0.127359  1
  P  P15  1  0.750000  0.772229  0.627378  1
  P  P16  1  0.250000  0.599550  0.388136  1
  P  P17  1  0.250000  0.900751  0.887952  1
  P  P18  1  0.750000  0.400471  0.611853  1
  P  P19  1  0.750000  0.099542  0.111911  1
  Rh  Rh20  1  0.250000  0.716284  0.987758  1
  Rh  Rh21  1  0.250000  0.783779  0.487880  1
  Rh  Rh22  1  0.750000  0.283739  0.012142  1
  Rh  Rh23  1  0.750000  0.216262  0.512275  1
  Rh  Rh24  1  0.250000  0.408118  0.480298  1
  Rh  Rh25  1  0.250000  0.091839  0.979516  1
  Rh  Rh26  1  0.750000  0.591849  0.519734  1
  Rh  Rh27  1  0.750000  0.908203  0.019690  1
  Rh  Rh28  1  0.250000  0.227386  0.177856  1
  Rh  Rh29  1  0.250000  0.272064  0.678295  1
  Rh  Rh30  1  0.750000  0.772637  0.822029  1
  Rh  Rh31  1  0.750000  0.727440  0.321983  1
  Rh  Rh32  1  0.250000  0.887164  0.699092  1
  Rh  Rh33  1  0.250000  0.613363  0.198691  1
  Rh  Rh34  1  0.750000  0.113393  0.301211  1
  Rh  Rh35  1  0.750000  0.386486  0.801256  1
