# generated using pymatgen
data_Pr4Pb3
_symmetry_space_group_name_H-M   'P 1'
_cell_length_a   8.55603052
_cell_length_b   8.55603051
_cell_length_c   8.55603100
_cell_angle_alpha   109.47121942
_cell_angle_beta   109.47121939
_cell_angle_gamma   109.47121855
_symmetry_Int_Tables_number   1
_chemical_formula_structural   Pr4Pb3
_chemical_formula_sum   'Pr8 Pb6'
_cell_volume   482.16439053
_cell_formula_units_Z   2
loop_
 _symmetry_equiv_pos_site_id
 _symmetry_equiv_pos_as_xyz
  1  'x, y, z'
loop_
 _atom_site_type_symbol
 _atom_site_label
 _atom_site_symmetry_multiplicity
 _atom_site_fract_x
 _atom_site_fract_y
 _atom_site_fract_z
 _atom_site_occupancy
  Pr  Pr0  1  0.500001  0.364449  0.000057  1
  Pr  Pr1  1  0.499979  0.864426  0.999987  1
  Pr  Pr2  1  0.135487  0.635473  0.135500  1
  Pr  Pr3  1  0.000021  0.000021  0.364507  1
  Pr  Pr4  1  0.864480  0.499992  0.500010  1
  Pr  Pr5  1  0.364514  0.499971  0.500005  1
  Pr  Pr6  1  0.635552  0.135569  0.635542  1
  Pr  Pr7  1  0.999988  0.999989  0.864460  1
  Pb  Pb8  1  0.875041  0.250064  0.124999  1
  Pb  Pb9  1  0.374968  0.124978  0.250014  1
  Pb  Pb10  1  0.624985  0.750013  0.375028  1
  Pb  Pb11  1  0.249897  0.874991  0.624982  1
  Pb  Pb12  1  0.125062  0.375068  0.750032  1
  Pb  Pb13  1  0.750021  0.624992  0.874876  1
