# generated using pymatgen
data_Ca4In4Pt3Au
_symmetry_space_group_name_H-M   'P 1'
_cell_length_a   4.41498700
_cell_length_b   7.41962698
_cell_length_c   8.55720618
_cell_angle_alpha   89.52510458
_cell_angle_beta   90.00000000
_cell_angle_gamma   90.00000000
_symmetry_Int_Tables_number   1
_chemical_formula_structural   Ca4In4Pt3Au
_chemical_formula_sum   'Ca4 In4 Pt3 Au1'
_cell_volume   280.30353770
_cell_formula_units_Z   1
loop_
 _symmetry_equiv_pos_site_id
 _symmetry_equiv_pos_as_xyz
  1  'x, y, z'
loop_
 _atom_site_type_symbol
 _atom_site_label
 _atom_site_symmetry_multiplicity
 _atom_site_fract_x
 _atom_site_fract_y
 _atom_site_fract_z
 _atom_site_occupancy
  Ca  Ca0  1  0.750000  0.968395  0.676490  1
  Ca  Ca1  1  0.250000  0.026472  0.326697  1
  Ca  Ca2  1  0.750000  0.472240  0.817889  1
  Ca  Ca3  1  0.250000  0.537934  0.181322  1
  In  In4  1  0.750000  0.354117  0.440835  1
  In  In5  1  0.250000  0.143244  0.929086  1
  In  In6  1  0.250000  0.646813  0.565219  1
  In  In7  1  0.750000  0.848329  0.063403  1
  Pt  Pt8  1  0.250000  0.764407  0.875386  1
  Pt  Pt9  1  0.250000  0.265605  0.623006  1
  Pt  Pt10  1  0.750000  0.734834  0.375255  1
  Au  Au11  1  0.750000  0.237610  0.125410  1
