# generated using pymatgen
data_YbPrIr3W
_symmetry_space_group_name_H-M   'P 1'
_cell_length_a   5.70483368
_cell_length_b   5.70483357
_cell_length_c   5.22688188
_cell_angle_alpha   56.92607109
_cell_angle_beta   56.92607423
_cell_angle_gamma   59.99999300
_symmetry_Int_Tables_number   1
_chemical_formula_structural   YbPrIr3W
_chemical_formula_sum   'Yb1 Pr1 Ir3 W1'
_cell_volume   114.39013947
_cell_formula_units_Z   1
loop_
 _symmetry_equiv_pos_site_id
 _symmetry_equiv_pos_as_xyz
  1  'x, y, z'
loop_
 _atom_site_type_symbol
 _atom_site_label
 _atom_site_symmetry_multiplicity
 _atom_site_fract_x
 _atom_site_fract_y
 _atom_site_fract_z
 _atom_site_occupancy
  Yb  Yb0  1  0.751699  0.751699  0.744901  1
  Pr  Pr1  1  0.502627  0.502627  0.492119  1
  Ir  Ir2  1  0.625349  0.122910  0.128830  1
  Ir  Ir3  1  0.122910  0.122910  0.128830  1
  Ir  Ir4  1  0.122910  0.625349  0.128830  1
  W  W5  1  0.124504  0.124504  0.626488  1
