# generated using pymatgen
data_MgPa(Ni7B2)3
_symmetry_space_group_name_H-M   'P 1'
_cell_length_a   7.47022835
_cell_length_b   7.50112360
_cell_length_c   7.49275699
_cell_angle_alpha   59.99253819
_cell_angle_beta   60.04779367
_cell_angle_gamma   60.03504569
_symmetry_Int_Tables_number   1
_chemical_formula_structural   MgPa(Ni7B2)3
_chemical_formula_sum   'Mg1 Pa1 Ni21 B6'
_cell_volume   297.05298503
_cell_formula_units_Z   1
loop_
 _symmetry_equiv_pos_site_id
 _symmetry_equiv_pos_as_xyz
  1  'x, y, z'
loop_
 _atom_site_type_symbol
 _atom_site_label
 _atom_site_symmetry_multiplicity
 _atom_site_fract_x
 _atom_site_fract_y
 _atom_site_fract_z
 _atom_site_occupancy
  Mg  Mg0  1  0.250089  0.249928  0.249968  1
  Pa  Pa1  1  0.749970  0.750012  0.750012  1
  Ni  Ni2  1  0.999962  0.000026  0.000014  1
  Ni  Ni3  1  0.612681  0.612778  0.161836  1
  Ni  Ni4  1  0.612702  0.161823  0.612764  1
  Ni  Ni5  1  0.161860  0.612731  0.612692  1
  Ni  Ni6  1  0.612711  0.612736  0.612709  1
  Ni  Ni7  1  0.384576  0.384505  0.846391  1
  Ni  Ni8  1  0.384567  0.846400  0.384505  1
  Ni  Ni9  1  0.846283  0.384579  0.384597  1
  Ni  Ni10  1  0.384540  0.384555  0.384545  1
  Ni  Ni11  1  0.000289  0.000196  0.337745  1
  Ni  Ni12  1  0.661750  0.000223  0.337727  1
  Ni  Ni13  1  0.000251  0.661770  0.337765  1
  Ni  Ni14  1  0.661755  0.337729  0.000228  1
  Ni  Ni15  1  0.000273  0.337761  0.000204  1
  Ni  Ni16  1  0.000245  0.337757  0.661765  1
  Ni  Ni17  1  0.337777  0.661749  0.000249  1
  Ni  Ni18  1  0.337770  0.000233  0.661745  1
  Ni  Ni19  1  0.337746  0.000238  0.000262  1
  Ni  Ni20  1  0.000253  0.000228  0.661761  1
  Ni  Ni21  1  0.000237  0.661755  0.000229  1
  Ni  Ni22  1  0.661753  0.000257  0.000269  1
  B  B23  1  0.730248  0.730276  0.269736  1
  B  B24  1  0.269735  0.730278  0.269722  1
  B  B25  1  0.730236  0.269751  0.269756  1
  B  B26  1  0.269742  0.269728  0.730268  1
  B  B27  1  0.730252  0.269733  0.730276  1
  B  B28  1  0.269744  0.730259  0.730256  1
