# generated using pymatgen
data_Eu2SiP5Pd21
_symmetry_space_group_name_H-M   'P 1'
_cell_length_a   8.69508078
_cell_length_b   8.68718388
_cell_length_c   8.68718400
_cell_angle_alpha   60.06014581
_cell_angle_beta   59.96992829
_cell_angle_gamma   59.96992241
_symmetry_Int_Tables_number   1
_chemical_formula_structural   Eu2SiP5Pd21
_chemical_formula_sum   'Eu2 Si1 P5 Pd21'
_cell_volume   463.99780727
_cell_formula_units_Z   1
loop_
 _symmetry_equiv_pos_site_id
 _symmetry_equiv_pos_as_xyz
  1  'x, y, z'
loop_
 _atom_site_type_symbol
 _atom_site_label
 _atom_site_symmetry_multiplicity
 _atom_site_fract_x
 _atom_site_fract_y
 _atom_site_fract_z
 _atom_site_occupancy
  Eu  Eu0  1  0.749495  0.750505  0.750505  1
  Eu  Eu1  1  0.249495  0.250505  0.250505  1
  Si  Si2  1  0.260351  0.739649  0.739649  1
  P  P3  1  0.736875  0.738642  0.263125  1
  P  P4  1  0.261358  0.738642  0.263125  1
  P  P5  1  0.738769  0.261231  0.261231  1
  P  P6  1  0.261358  0.263125  0.738642  1
  P  P7  1  0.736875  0.263125  0.738642  1
  Pd  Pd8  1  0.002261  0.997739  0.997739  1
  Pd  Pd9  1  0.613240  0.612779  0.160741  1
  Pd  Pd10  1  0.613240  0.160741  0.612779  1
  Pd  Pd11  1  0.159331  0.613144  0.613144  1
  Pd  Pd12  1  0.614380  0.613144  0.613144  1
  Pd  Pd13  1  0.386856  0.385620  0.840669  1
  Pd  Pd14  1  0.386856  0.840669  0.385620  1
  Pd  Pd15  1  0.839259  0.386760  0.386760  1
  Pd  Pd16  1  0.387221  0.386760  0.386760  1
  Pd  Pd17  1  0.000216  0.999784  0.342752  1
  Pd  Pd18  1  0.657248  0.999784  0.342752  1
  Pd  Pd19  1  0.000840  0.656317  0.342004  1
  Pd  Pd20  1  0.657248  0.342752  0.999784  1
  Pd  Pd21  1  0.000216  0.342752  0.999784  1
  Pd  Pd22  1  0.000840  0.342004  0.656317  1
  Pd  Pd23  1  0.344974  0.655026  0.002727  1
  Pd  Pd24  1  0.344974  0.002727  0.655026  1
  Pd  Pd25  1  0.343683  0.999160  0.999160  1
  Pd  Pd26  1  0.997273  0.002727  0.655026  1
  Pd  Pd27  1  0.997273  0.655026  0.002727  1
  Pd  Pd28  1  0.657996  0.999160  0.999160  1
