# generated using pymatgen
data_Dy8Y8MgAg3Rh4
_symmetry_space_group_name_H-M   'P 1'
_cell_length_a   9.59625467
_cell_length_b   9.61777817
_cell_length_c   9.62473700
_cell_angle_alpha   59.97627276
_cell_angle_beta   59.90182394
_cell_angle_gamma   60.05969536
_symmetry_Int_Tables_number   1
_chemical_formula_structural   Dy8Y8MgAg3Rh4
_chemical_formula_sum   'Dy8 Y8 Mg1 Ag3 Rh4'
_cell_volume   627.83350726
_cell_formula_units_Z   1
loop_
 _symmetry_equiv_pos_site_id
 _symmetry_equiv_pos_as_xyz
  1  'x, y, z'
loop_
 _atom_site_type_symbol
 _atom_site_label
 _atom_site_symmetry_multiplicity
 _atom_site_fract_x
 _atom_site_fract_y
 _atom_site_fract_z
 _atom_site_occupancy
  Dy  Dy0  1  0.599907  0.598182  0.598001  1
  Dy  Dy1  1  0.599891  0.598174  0.203922  1
  Dy  Dy2  1  0.599753  0.204464  0.597880  1
  Dy  Dy3  1  0.186505  0.604836  0.604322  1
  Dy  Dy4  1  0.059453  0.438661  0.440064  1
  Dy  Dy5  1  0.435681  0.062947  0.063866  1
  Dy  Dy6  1  0.435682  0.062944  0.437518  1
  Dy  Dy7  1  0.059463  0.438662  0.061818  1
  Y  Y8  1  0.435797  0.436238  0.063983  1
  Y  Y9  1  0.059158  0.060734  0.440056  1
  Y  Y10  1  0.185558  0.813614  0.813831  1
  Y  Y11  1  0.814638  0.186068  0.185692  1
  Y  Y12  1  0.814627  0.186069  0.813615  1
  Y  Y13  1  0.185557  0.813619  0.186994  1
  Y  Y14  1  0.813366  0.813688  0.186469  1
  Y  Y15  1  0.185646  0.187260  0.813557  1
  Mg  Mg16  1  0.539490  0.820144  0.820202  1
  Ag  Ag17  1  0.832403  0.835039  0.833643  1
  Ag  Ag18  1  0.832413  0.835013  0.498931  1
  Ag  Ag19  1  0.832393  0.499383  0.834114  1
  Rh  Rh20  1  0.388160  0.394047  0.396372  1
  Rh  Rh21  1  0.388153  0.394054  0.821405  1
  Rh  Rh22  1  0.393407  0.820583  0.393003  1
  Rh  Rh23  1  0.822898  0.395578  0.390742  1
