# generated using pymatgen
data_KLa2CoH12Ir
_symmetry_space_group_name_H-M   'P 1'
_cell_length_a   5.13977300
_cell_length_b   5.13977376
_cell_length_c   8.88789800
_cell_angle_alpha   90.00000000
_cell_angle_beta   90.00000000
_cell_angle_gamma   120.00001441
_symmetry_Int_Tables_number   1
_chemical_formula_structural   KLa2CoH12Ir
_chemical_formula_sum   'K1 La2 Co1 H12 Ir1'
_cell_volume   203.33754325
_cell_formula_units_Z   1
loop_
 _symmetry_equiv_pos_site_id
 _symmetry_equiv_pos_as_xyz
  1  'x, y, z'
loop_
 _atom_site_type_symbol
 _atom_site_label
 _atom_site_symmetry_multiplicity
 _atom_site_fract_x
 _atom_site_fract_y
 _atom_site_fract_z
 _atom_site_occupancy
  K  K0  1  0.000000  0.000000  0.994042  1
  La  La1  1  0.666667  0.333333  0.370495  1
  La  La2  1  0.333333  0.666667  0.650914  1
  Co  Co3  1  0.666667  0.333333  0.724503  1
  H  H4  1  0.174700  0.825300  0.382772  1
  H  H5  1  0.650601  0.825300  0.382772  1
  H  H6  1  0.174700  0.349399  0.382772  1
  H  H7  1  0.814006  0.185994  0.622115  1
  H  H8  1  0.371988  0.185994  0.622115  1
  H  H9  1  0.814006  0.628012  0.622115  1
  H  H10  1  0.529645  0.059291  0.833498  1
  H  H11  1  0.529645  0.470355  0.833498  1
  H  H12  1  0.940709  0.470355  0.833498  1
  H  H13  1  0.479949  0.959897  0.156950  1
  H  H14  1  0.479949  0.520051  0.156950  1
  H  H15  1  0.040103  0.520051  0.156950  1
  Ir  Ir16  1  0.333333  0.666667  0.274041  1
