# generated using pymatgen
data_Nd16MgAg3(RuRh)2
_symmetry_space_group_name_H-M   'P 1'
_cell_length_a   9.87972401
_cell_length_b   9.93865719
_cell_length_c   9.98978900
_cell_angle_alpha   59.82967027
_cell_angle_beta   59.63078946
_cell_angle_gamma   59.38805229
_symmetry_Int_Tables_number   1
_chemical_formula_structural   Nd16MgAg3(RuRh)2
_chemical_formula_sum   'Nd16 Mg1 Ag3 Ru2 Rh2'
_cell_volume   687.53644507
_cell_formula_units_Z   1
loop_
 _symmetry_equiv_pos_site_id
 _symmetry_equiv_pos_as_xyz
  1  'x, y, z'
loop_
 _atom_site_type_symbol
 _atom_site_label
 _atom_site_symmetry_multiplicity
 _atom_site_fract_x
 _atom_site_fract_y
 _atom_site_fract_z
 _atom_site_occupancy
  Nd  Nd0  1  0.595819  0.596751  0.598647  1
  Nd  Nd1  1  0.595819  0.596751  0.208782  1
  Nd  Nd2  1  0.594760  0.211864  0.596687  1
  Nd  Nd3  1  0.198739  0.599327  0.600967  1
  Nd  Nd4  1  0.059543  0.440685  0.441360  1
  Nd  Nd5  1  0.437312  0.063473  0.061561  1
  Nd  Nd6  1  0.437312  0.063473  0.437654  1
  Nd  Nd7  1  0.059543  0.440685  0.058411  1
  Nd  Nd8  1  0.437290  0.437854  0.062428  1
  Nd  Nd9  1  0.057173  0.059077  0.441875  1
  Nd  Nd10  1  0.185435  0.811879  0.814527  1
  Nd  Nd11  1  0.810849  0.187019  0.188020  1
  Nd  Nd12  1  0.810849  0.187019  0.814112  1
  Nd  Nd13  1  0.185435  0.811879  0.188157  1
  Nd  Nd14  1  0.813115  0.813670  0.186608  1
  Nd  Nd15  1  0.188844  0.187556  0.811800  1
  Mg  Mg16  1  0.545209  0.816862  0.818966  1
  Ag  Ag17  1  0.830615  0.834135  0.833888  1
  Ag  Ag18  1  0.830615  0.834135  0.501364  1
  Ag  Ag19  1  0.830019  0.502267  0.833858  1
  Ru  Ru20  1  0.389130  0.391822  0.388118  1
  Ru  Ru21  1  0.389130  0.391822  0.830929  1
  Rh  Rh22  1  0.390734  0.825914  0.391676  1
  Rh  Rh23  1  0.826706  0.394082  0.389606  1
