# generated using pymatgen
data_Tm4LuGa2Bi
_symmetry_space_group_name_H-M   'P 1'
_cell_length_a   8.61599945
_cell_length_b   8.61599820
_cell_length_c   8.61599903
_cell_angle_alpha   125.03632708
_cell_angle_beta   125.03633038
_cell_angle_gamma   81.47786977
_symmetry_Int_Tables_number   1
_chemical_formula_structural   Tm4LuGa2Bi
_chemical_formula_sum   'Tm8 Lu2 Ga4 Bi2'
_cell_volume   412.81081062
_cell_formula_units_Z   2
loop_
 _symmetry_equiv_pos_site_id
 _symmetry_equiv_pos_as_xyz
  1  'x, y, z'
loop_
 _atom_site_type_symbol
 _atom_site_label
 _atom_site_symmetry_multiplicity
 _atom_site_fract_x
 _atom_site_fract_y
 _atom_site_fract_z
 _atom_site_occupancy
  Tm  Tm0  1  0.795837  0.295837  0.808555  1
  Tm  Tm1  1  0.204163  0.704163  0.191445  1
  Tm  Tm2  1  0.487283  0.987283  0.191445  1
  Tm  Tm3  1  0.295837  0.487283  0.500000  1
  Tm  Tm4  1  0.012717  0.204163  0.500000  1
  Tm  Tm5  1  0.512717  0.012717  0.808555  1
  Tm  Tm6  1  0.704163  0.512717  0.500000  1
  Tm  Tm7  1  0.987283  0.795837  0.500000  1
  Lu  Lu8  1  0.000000  0.000000  0.000000  1
  Lu  Lu9  1  0.500000  0.500000  0.000000  1
  Ga  Ga10  1  0.144446  0.644446  0.788891  1
  Ga  Ga11  1  0.855554  0.355554  0.211109  1
  Ga  Ga12  1  0.644446  0.855554  0.500000  1
  Ga  Ga13  1  0.355554  0.144446  0.500000  1
  Bi  Bi14  1  0.250000  0.250000  0.000000  1
  Bi  Bi15  1  0.750000  0.750000  0.000000  1
