# generated using pymatgen
data_Ta8Si5PtW2
_symmetry_space_group_name_H-M   'P 1'
_cell_length_a   7.55458673
_cell_length_b   7.55458653
_cell_length_c   7.55458641
_cell_angle_alpha   128.70959596
_cell_angle_beta   128.70958052
_cell_angle_gamma   75.47830608
_symmetry_Int_Tables_number   1
_chemical_formula_structural   Ta8Si5PtW2
_chemical_formula_sum   'Ta8 Si5 Pt1 W2'
_cell_volume   255.46449244
_cell_formula_units_Z   1
loop_
 _symmetry_equiv_pos_site_id
 _symmetry_equiv_pos_as_xyz
  1  'x, y, z'
loop_
 _atom_site_type_symbol
 _atom_site_label
 _atom_site_symmetry_multiplicity
 _atom_site_fract_x
 _atom_site_fract_y
 _atom_site_fract_z
 _atom_site_occupancy
  Ta  Ta0  1  0.016946  0.191221  0.510201  1
  Ta  Ta1  1  0.681020  0.506745  0.489799  1
  Ta  Ta2  1  0.506745  0.016946  0.825725  1
  Ta  Ta3  1  0.191221  0.681020  0.174275  1
  Ta  Ta4  1  0.993255  0.818980  0.510201  1
  Ta  Ta5  1  0.308779  0.483054  0.489799  1
  Ta  Ta6  1  0.483054  0.993255  0.174275  1
  Ta  Ta7  1  0.818980  0.308779  0.825725  1
  Si  Si8  1  0.250000  0.250000  0.000000  1
  Si  Si9  1  0.367932  0.132068  0.500000  1
  Si  Si10  1  0.632068  0.867932  0.500000  1
  Si  Si11  1  0.867932  0.367932  0.235865  1
  Si  Si12  1  0.132068  0.632068  0.764135  1
  Pt  Pt13  1  0.750000  0.750000  0.000000  1
  W  W14  1  0.995914  0.995914  0.000000  1
  W  W15  1  0.504086  0.504086  0.000000  1
