# generated using pymatgen
data_YbNp5F18
_symmetry_space_group_name_H-M   'P 1'
_cell_length_a   7.02003039
_cell_length_b   7.08508047
_cell_length_c   7.24283133
_cell_angle_alpha   89.68570737
_cell_angle_beta   90.63443612
_cell_angle_gamma   119.69673838
_symmetry_Int_Tables_number   1
_chemical_formula_structural   YbNp5F18
_chemical_formula_sum   'Yb1 Np5 F18'
_cell_volume   312.90694909
_cell_formula_units_Z   1
loop_
 _symmetry_equiv_pos_site_id
 _symmetry_equiv_pos_as_xyz
  1  'x, y, z'
loop_
 _atom_site_type_symbol
 _atom_site_label
 _atom_site_symmetry_multiplicity
 _atom_site_fract_x
 _atom_site_fract_y
 _atom_site_fract_z
 _atom_site_occupancy
  Yb  Yb0  1  0.327568  0.000000  0.249441  1
  Np  Np1  1  0.666585  0.000000  0.750328  1
  Np  Np2  1  0.676077  0.674929  0.257247  1
  Np  Np3  1  0.001148  0.325071  0.257247  1
  Np  Np4  1  0.006695  0.681039  0.759816  1
  Np  Np5  1  0.325655  0.318961  0.759816  1
  F  F6  1  0.622926  0.000000  0.419847  1
  F  F7  1  0.621024  0.621517  0.921646  1
  F  F8  1  0.999507  0.378483  0.921646  1
  F  F9  1  0.987022  0.607326  0.430755  1
  F  F10  1  0.379697  0.392674  0.430755  1
  F  F11  1  0.373718  0.000000  0.921392  1
  F  F12  1  0.005923  0.000000  0.318961  1
  F  F13  1  0.996696  0.000000  0.828469  1
  F  F14  1  0.332944  0.670352  0.206462  1
  F  F15  1  0.669627  0.337282  0.701713  1
  F  F16  1  0.332344  0.662718  0.701713  1
  F  F17  1  0.662593  0.329648  0.206462  1
  F  F18  1  0.276587  0.000000  0.581626  1
  F  F19  1  0.277105  0.278647  0.083978  1
  F  F20  1  0.998458  0.721353  0.083978  1
  F  F21  1  0.998793  0.266929  0.584999  1
  F  F22  1  0.731864  0.733071  0.584999  1
  F  F23  1  0.729444  0.000000  0.076707  1
