# generated using pymatgen
data_Ca(CoO2)8
_symmetry_space_group_name_H-M   'P 1'
_cell_length_a   5.71091930
_cell_length_b   6.79624396
_cell_length_c   6.87573464
_cell_angle_alpha   88.56839940
_cell_angle_beta   77.99050369
_cell_angle_gamma   77.49316579
_symmetry_Int_Tables_number   1
_chemical_formula_structural   Ca(CoO2)8
_chemical_formula_sum   'Ca1 Co8 O16'
_cell_volume   254.77522832
_cell_formula_units_Z   1
loop_
 _symmetry_equiv_pos_site_id
 _symmetry_equiv_pos_as_xyz
  1  'x, y, z'
loop_
 _atom_site_type_symbol
 _atom_site_label
 _atom_site_symmetry_multiplicity
 _atom_site_fract_x
 _atom_site_fract_y
 _atom_site_fract_z
 _atom_site_occupancy
  Ca  Ca0  1  0.071343  0.008407  0.012011  1
  Co  Co1  1  0.578748  0.517891  0.181117  1
  Co  Co2  1  0.081167  0.512661  0.181893  1
  Co  Co3  1  0.165961  0.815601  0.519248  1
  Co  Co4  1  0.666071  0.816190  0.524326  1
  Co  Co5  1  0.334365  0.181804  0.479069  1
  Co  Co6  1  0.827225  0.183461  0.485150  1
  Co  Co7  1  0.427826  0.485181  0.818084  1
  Co  Co8  1  0.927054  0.486330  0.815367  1
  O  O9  1  0.832360  0.649151  0.050698  1
  O  O10  1  0.321268  0.656724  0.049906  1
  O  O11  1  0.978578  0.701927  0.382991  1
  O  O12  1  0.481864  0.699079  0.385465  1
  O  O13  1  0.851551  0.957486  0.652003  1
  O  O14  1  0.341367  0.958113  0.654153  1
  O  O15  1  0.337888  0.375747  0.282693  1
  O  O16  1  0.842408  0.360368  0.274747  1
  O  O17  1  0.167140  0.628120  0.710314  1
  O  O18  1  0.667112  0.626413  0.710989  1
  O  O19  1  0.147730  0.040374  0.349350  1
  O  O20  1  0.654606  0.036848  0.353661  1
  O  O21  1  0.019883  0.302500  0.616748  1
  O  O22  1  0.525181  0.298704  0.611530  1
  O  O23  1  0.177494  0.347358  0.948617  1
  O  O24  1  0.680907  0.353565  0.949867  1
