# generated using pymatgen
data_K2TlPd3
_symmetry_space_group_name_H-M   'P 1'
_cell_length_a   5.70056019
_cell_length_b   5.93367005
_cell_length_c   5.93367000
_cell_angle_alpha   60.00001140
_cell_angle_beta   58.63782399
_cell_angle_gamma   58.63781943
_symmetry_Int_Tables_number   1
_chemical_formula_structural   K2TlPd3
_chemical_formula_sum   'K2 Tl1 Pd3'
_cell_volume   138.92925298
_cell_formula_units_Z   1
loop_
 _symmetry_equiv_pos_site_id
 _symmetry_equiv_pos_as_xyz
  1  'x, y, z'
loop_
 _atom_site_type_symbol
 _atom_site_label
 _atom_site_symmetry_multiplicity
 _atom_site_fract_x
 _atom_site_fract_y
 _atom_site_fract_z
 _atom_site_occupancy
  K  K0  1  0.489024  0.503659  0.503659  1
  K  K1  1  0.760976  0.746341  0.746341  1
  Tl  Tl2  1  0.625000  0.125000  0.125000  1
  Pd  Pd3  1  0.125000  0.625000  0.125000  1
  Pd  Pd4  1  0.125000  0.125000  0.625000  1
  Pd  Pd5  1  0.125000  0.125000  0.125000  1
