# generated using pymatgen
data_Pt16Pb7
_symmetry_space_group_name_H-M   'P 1'
_cell_length_a   9.50275747
_cell_length_b   9.50275718
_cell_length_c   9.50275719
_cell_angle_alpha   131.77603176
_cell_angle_beta   131.77603658
_cell_angle_gamma   70.58299187
_symmetry_Int_Tables_number   1
_chemical_formula_structural   Pt16Pb7
_chemical_formula_sum   'Pt16 Pb7'
_cell_volume   467.57088393
_cell_formula_units_Z   1
loop_
 _symmetry_equiv_pos_site_id
 _symmetry_equiv_pos_as_xyz
  1  'x, y, z'
loop_
 _atom_site_type_symbol
 _atom_site_label
 _atom_site_symmetry_multiplicity
 _atom_site_fract_x
 _atom_site_fract_y
 _atom_site_fract_z
 _atom_site_occupancy
  Pt  Pt0  1  0.436631  0.191533  0.000000  1
  Pt  Pt1  1  0.686410  0.936642  0.495228  1
  Pt  Pt2  1  0.936642  0.686410  0.495228  1
  Pt  Pt3  1  0.191533  0.436631  0.000000  1
  Pt  Pt4  1  0.313590  0.808817  0.250231  1
  Pt  Pt5  1  0.937017  0.678046  0.000000  1
  Pt  Pt6  1  0.808467  0.808467  0.245098  1
  Pt  Pt7  1  0.063358  0.558585  0.749769  1
  Pt  Pt8  1  0.062983  0.062983  0.741029  1
  Pt  Pt9  1  0.678046  0.937017  0.000000  1
  Pt  Pt10  1  0.563369  0.563369  0.754902  1
  Pt  Pt11  1  0.808817  0.313590  0.250231  1
  Pt  Pt12  1  0.558585  0.063358  0.749769  1
  Pt  Pt13  1  0.191183  0.441415  0.504772  1
  Pt  Pt14  1  0.321954  0.321954  0.258971  1
  Pt  Pt15  1  0.441415  0.191183  0.504772  1
  Pb  Pb16  1  0.101325  0.101325  0.412701  1
  Pb  Pb17  1  0.688623  0.688623  0.587299  1
  Pb  Pb18  1  0.898675  0.311377  0.000000  1
  Pb  Pb19  1  0.750000  0.250000  0.500000  1
  Pb  Pb20  1  0.500000  0.500000  0.000000  1
  Pb  Pb21  1  0.311377  0.898675  0.000000  1
  Pb  Pb22  1  0.250000  0.750000  0.500000  1
