# generated using pymatgen
data_PrNb6TlBr18
_symmetry_space_group_name_H-M   'P 1'
_cell_length_a   10.86769103
_cell_length_b   10.86769044
_cell_length_c   10.86769100
_cell_angle_alpha   55.45214553
_cell_angle_beta   55.45214129
_cell_angle_gamma   55.45214337
_symmetry_Int_Tables_number   1
_chemical_formula_structural   PrNb6TlBr18
_chemical_formula_sum   'Pr1 Nb6 Tl1 Br18'
_cell_volume   811.74841568
_cell_formula_units_Z   1
loop_
 _symmetry_equiv_pos_site_id
 _symmetry_equiv_pos_as_xyz
  1  'x, y, z'
loop_
 _atom_site_type_symbol
 _atom_site_label
 _atom_site_symmetry_multiplicity
 _atom_site_fract_x
 _atom_site_fract_y
 _atom_site_fract_z
 _atom_site_occupancy
  Pr  Pr0  1  0.498248  0.498248  0.498248  1
  Nb  Nb1  1  0.808807  0.141221  0.918303  1
  Nb  Nb2  1  0.918303  0.808807  0.141221  1
  Nb  Nb3  1  0.141221  0.918303  0.808807  1
  Nb  Nb4  1  0.191861  0.859265  0.081146  1
  Nb  Nb5  1  0.081146  0.191861  0.859265  1
  Nb  Nb6  1  0.859265  0.081146  0.191861  1
  Tl  Tl7  1  0.220922  0.220922  0.220922  1
  Br  Br8  1  0.863293  0.408589  0.729438  1
  Br  Br9  1  0.729438  0.863293  0.408589  1
  Br  Br10  1  0.408589  0.729438  0.863293  1
  Br  Br11  1  0.136446  0.590886  0.272335  1
  Br  Br12  1  0.272335  0.136446  0.590886  1
  Br  Br13  1  0.590886  0.272335  0.136446  1
  Br  Br14  1  0.533553  0.335549  0.813866  1
  Br  Br15  1  0.813866  0.533553  0.335549  1
  Br  Br16  1  0.335549  0.813866  0.533553  1
  Br  Br17  1  0.461484  0.665865  0.190294  1
  Br  Br18  1  0.190294  0.461484  0.665865  1
  Br  Br19  1  0.665865  0.190294  0.461484  1
  Br  Br20  1  0.665565  0.937206  0.071999  1
  Br  Br21  1  0.071999  0.665565  0.937206  1
  Br  Br22  1  0.937206  0.071999  0.665565  1
  Br  Br23  1  0.336126  0.062530  0.926342  1
  Br  Br24  1  0.926342  0.336126  0.062530  1
  Br  Br25  1  0.062530  0.926342  0.336126  1
