# generated using pymatgen
data_Ho7Co6CuSn22
_symmetry_space_group_name_H-M   'P 1'
_cell_length_a   9.63735000
_cell_length_b   9.63734956
_cell_length_c   9.87219700
_cell_angle_alpha   90.00000000
_cell_angle_beta   90.00000000
_cell_angle_gamma   119.99999463
_symmetry_Int_Tables_number   1
_chemical_formula_structural   Ho7Co6CuSn22
_chemical_formula_sum   'Ho7 Co6 Cu1 Sn22'
_cell_volume   794.07168795
_cell_formula_units_Z   1
loop_
 _symmetry_equiv_pos_site_id
 _symmetry_equiv_pos_as_xyz
  1  'x, y, z'
loop_
 _atom_site_type_symbol
 _atom_site_label
 _atom_site_symmetry_multiplicity
 _atom_site_fract_x
 _atom_site_fract_y
 _atom_site_fract_z
 _atom_site_occupancy
  Ho  Ho0  1  0.000000  0.000000  0.000000  1
  Ho  Ho1  1  0.479490  0.520510  0.306373  1
  Ho  Ho2  1  0.520510  0.479490  0.693627  1
  Ho  Ho3  1  0.479490  0.958981  0.306373  1
  Ho  Ho4  1  0.520510  0.041019  0.693627  1
  Ho  Ho5  1  0.041019  0.520510  0.306373  1
  Ho  Ho6  1  0.958981  0.479490  0.693627  1
  Co  Co7  1  0.831919  0.168081  0.197117  1
  Co  Co8  1  0.168081  0.831919  0.802883  1
  Co  Co9  1  0.831919  0.663837  0.197117  1
  Co  Co10  1  0.168081  0.336163  0.802883  1
  Co  Co11  1  0.336163  0.168081  0.197117  1
  Co  Co12  1  0.663837  0.831919  0.802883  1
  Cu  Cu13  1  0.000000  0.000000  0.500000  1
  Sn  Sn14  1  0.346144  0.000000  0.000000  1
  Sn  Sn15  1  0.653856  0.000000  0.000000  1
  Sn  Sn16  1  0.000000  0.346144  0.000000  1
  Sn  Sn17  1  0.000000  0.653856  0.000000  1
  Sn  Sn18  1  0.653856  0.653856  0.000000  1
  Sn  Sn19  1  0.346144  0.346144  0.000000  1
  Sn  Sn20  1  0.333333  0.666667  0.816483  1
  Sn  Sn21  1  0.666667  0.333333  0.183517  1
  Sn  Sn22  1  0.784238  0.215762  0.453909  1
  Sn  Sn23  1  0.215762  0.784238  0.546091  1
  Sn  Sn24  1  0.784238  0.568478  0.453909  1
  Sn  Sn25  1  0.215762  0.431522  0.546091  1
  Sn  Sn26  1  0.431522  0.215762  0.453909  1
  Sn  Sn27  1  0.568478  0.784238  0.546091  1
  Sn  Sn28  1  0.333333  0.666667  0.119730  1
  Sn  Sn29  1  0.666667  0.333333  0.880270  1
  Sn  Sn30  1  0.110949  0.889051  0.283307  1
  Sn  Sn31  1  0.889051  0.110949  0.716693  1
  Sn  Sn32  1  0.110949  0.221897  0.283307  1
  Sn  Sn33  1  0.889051  0.778103  0.716693  1
  Sn  Sn34  1  0.778103  0.889051  0.283307  1
  Sn  Sn35  1  0.221897  0.110949  0.716693  1
