# generated using pymatgen
data_PrNd9Se10
_symmetry_space_group_name_H-M   'P 1'
_cell_length_a   7.34836751
_cell_length_b   8.39523523
_cell_length_c   9.51978092
_cell_angle_alpha   103.27322415
_cell_angle_beta   96.86485088
_cell_angle_gamma   106.78591884
_symmetry_Int_Tables_number   1
_chemical_formula_structural   PrNd9Se10
_chemical_formula_sum   'Pr1 Nd9 Se10'
_cell_volume   536.25000350
_cell_formula_units_Z   1
loop_
 _symmetry_equiv_pos_site_id
 _symmetry_equiv_pos_as_xyz
  1  'x, y, z'
loop_
 _atom_site_type_symbol
 _atom_site_label
 _atom_site_symmetry_multiplicity
 _atom_site_fract_x
 _atom_site_fract_y
 _atom_site_fract_z
 _atom_site_occupancy
  Pr  Pr0  1  0.000000  0.500000  0.000000  1
  Nd  Nd1  1  0.799910  0.599854  0.599382  1
  Nd  Nd2  1  0.598879  0.199581  0.200257  1
  Nd  Nd3  1  0.401121  0.800419  0.799743  1
  Nd  Nd4  1  0.599911  0.700526  0.200760  1
  Nd  Nd5  1  0.200090  0.400146  0.400618  1
  Nd  Nd6  1  0.400089  0.299474  0.799240  1
  Nd  Nd7  1  0.000000  0.000000  0.000000  1
  Nd  Nd8  1  0.200967  0.900273  0.400419  1
  Nd  Nd9  1  0.799033  0.099727  0.599581  1
  Se  Se10  1  0.699179  0.650183  0.899712  1
  Se  Se11  1  0.500087  0.250512  0.499926  1
  Se  Se12  1  0.699711  0.149437  0.900091  1
  Se  Se13  1  0.300289  0.850563  0.099909  1
  Se  Se14  1  0.499913  0.749488  0.500074  1
  Se  Se15  1  0.100569  0.450050  0.699343  1
  Se  Se16  1  0.300821  0.349817  0.100288  1
  Se  Se17  1  0.900341  0.050435  0.299932  1
  Se  Se18  1  0.099659  0.949565  0.700068  1
  Se  Se19  1  0.899431  0.549950  0.300657  1
