# generated using pymatgen
data_Ho4ScAl3Ru4
_symmetry_space_group_name_H-M   'P 1'
_cell_length_a   4.03229100
_cell_length_b   7.07160978
_cell_length_c   8.23536028
_cell_angle_alpha   89.74124657
_cell_angle_beta   90.00000000
_cell_angle_gamma   90.00000000
_symmetry_Int_Tables_number   1
_chemical_formula_structural   Ho4ScAl3Ru4
_chemical_formula_sum   'Ho4 Sc1 Al3 Ru4'
_cell_volume   234.82716178
_cell_formula_units_Z   1
loop_
 _symmetry_equiv_pos_site_id
 _symmetry_equiv_pos_as_xyz
  1  'x, y, z'
loop_
 _atom_site_type_symbol
 _atom_site_label
 _atom_site_symmetry_multiplicity
 _atom_site_fract_x
 _atom_site_fract_y
 _atom_site_fract_z
 _atom_site_occupancy
  Ho  Ho0  1  0.250000  0.531707  0.175539  1
  Ho  Ho1  1  0.750000  0.459199  0.834492  1
  Ho  Ho2  1  0.750000  0.981050  0.684146  1
  Ho  Ho3  1  0.250000  0.036200  0.318442  1
  Sc  Sc4  1  0.250000  0.636634  0.557241  1
  Al  Al5  1  0.750000  0.358450  0.437220  1
  Al  Al6  1  0.750000  0.864032  0.053394  1
  Al  Al7  1  0.250000  0.134864  0.943889  1
  Ru  Ru8  1  0.250000  0.766930  0.878317  1
  Ru  Ru9  1  0.750000  0.224904  0.124850  1
  Ru  Ru10  1  0.750000  0.736293  0.363988  1
  Ru  Ru11  1  0.250000  0.269735  0.628482  1
