# generated using pymatgen
data_Nd2Sn4Pd3
_symmetry_space_group_name_H-M   'P 1'
_cell_length_a   4.58060600
_cell_length_b   11.35536800
_cell_length_c   16.30171800
_cell_angle_alpha   90.00000000
_cell_angle_beta   90.00000000
_cell_angle_gamma   90.00000000
_symmetry_Int_Tables_number   1
_chemical_formula_structural   Nd2Sn4Pd3
_chemical_formula_sum   'Nd8 Sn16 Pd12'
_cell_volume   847.92516958
_cell_formula_units_Z   4
loop_
 _symmetry_equiv_pos_site_id
 _symmetry_equiv_pos_as_xyz
  1  'x, y, z'
loop_
 _atom_site_type_symbol
 _atom_site_label
 _atom_site_symmetry_multiplicity
 _atom_site_fract_x
 _atom_site_fract_y
 _atom_site_fract_z
 _atom_site_occupancy
  Nd  Nd0  1  0.250000  0.743708  0.505643  1
  Nd  Nd1  1  0.250000  0.756292  0.005643  1
  Nd  Nd2  1  0.750000  0.256292  0.494357  1
  Nd  Nd3  1  0.750000  0.243708  0.994357  1
  Nd  Nd4  1  0.250000  0.592591  0.753489  1
  Nd  Nd5  1  0.250000  0.907409  0.253489  1
  Nd  Nd6  1  0.750000  0.407409  0.246511  1
  Nd  Nd7  1  0.750000  0.092591  0.746511  1
  Sn  Sn8  1  0.250000  0.283480  0.653904  1
  Sn  Sn9  1  0.250000  0.216520  0.153904  1
  Sn  Sn10  1  0.750000  0.716520  0.346096  1
  Sn  Sn11  1  0.750000  0.783480  0.846096  1
  Sn  Sn12  1  0.250000  0.883949  0.720419  1
  Sn  Sn13  1  0.250000  0.616051  0.220419  1
  Sn  Sn14  1  0.750000  0.116051  0.279581  1
  Sn  Sn15  1  0.750000  0.383949  0.779581  1
  Sn  Sn16  1  0.250000  0.055888  0.888562  1
  Sn  Sn17  1  0.250000  0.444112  0.388562  1
  Sn  Sn18  1  0.750000  0.944112  0.111438  1
  Sn  Sn19  1  0.750000  0.555888  0.611438  1
  Sn  Sn20  1  0.250000  0.448729  0.936733  1
  Sn  Sn21  1  0.250000  0.051271  0.436733  1
  Sn  Sn22  1  0.750000  0.551271  0.063267  1
  Sn  Sn23  1  0.750000  0.948729  0.563267  1
  Pd  Pd24  1  0.250000  0.464940  0.552553  1
  Pd  Pd25  1  0.250000  0.035060  0.052553  1
  Pd  Pd26  1  0.750000  0.535060  0.447447  1
  Pd  Pd27  1  0.750000  0.964940  0.947447  1
  Pd  Pd28  1  0.250000  0.062149  0.601978  1
  Pd  Pd29  1  0.250000  0.437851  0.101978  1
  Pd  Pd30  1  0.750000  0.937851  0.398022  1
  Pd  Pd31  1  0.750000  0.562149  0.898022  1
  Pd  Pd32  1  0.250000  0.275907  0.823570  1
  Pd  Pd33  1  0.250000  0.224093  0.323570  1
  Pd  Pd34  1  0.750000  0.724093  0.176430  1
  Pd  Pd35  1  0.750000  0.775907  0.676430  1
