# generated using pymatgen
data_AlHgBr4
_symmetry_space_group_name_H-M   'P 1'
_cell_length_a   7.01257810
_cell_length_b   7.31160775
_cell_length_c   10.25813665
_cell_angle_alpha   82.15931525
_cell_angle_beta   75.56655344
_cell_angle_gamma   60.91199057
_symmetry_Int_Tables_number   1
_chemical_formula_structural   AlHgBr4
_chemical_formula_sum   'Al2 Hg2 Br8'
_cell_volume   445.05037453
_cell_formula_units_Z   2
loop_
 _symmetry_equiv_pos_site_id
 _symmetry_equiv_pos_as_xyz
  1  'x, y, z'
loop_
 _atom_site_type_symbol
 _atom_site_label
 _atom_site_symmetry_multiplicity
 _atom_site_fract_x
 _atom_site_fract_y
 _atom_site_fract_z
 _atom_site_occupancy
  Al  Al0  1  0.380212  0.849786  0.767702  1
  Al  Al1  1  0.619788  0.150214  0.232298  1
  Hg  Hg2  1  0.943281  0.514289  0.884359  1
  Hg  Hg3  1  0.056719  0.485711  0.115641  1
  Br  Br4  1  0.746321  0.564363  0.680523  1
  Br  Br5  1  0.253679  0.435637  0.319477  1
  Br  Br6  1  0.331574  0.818074  0.998522  1
  Br  Br7  1  0.668426  0.181926  0.001478  1
  Br  Br8  1  0.135554  0.801455  0.680297  1
  Br  Br9  1  0.864446  0.198545  0.319703  1
  Br  Br10  1  0.381453  0.162691  0.692520  1
  Br  Br11  1  0.618547  0.837309  0.307480  1
