# generated using pymatgen
data_Lu15Sc5(Bi3Sb)3
_symmetry_space_group_name_H-M   'P 1'
_cell_length_a   7.94024304
_cell_length_b   9.24606308
_cell_length_c   11.66602724
_cell_angle_alpha   89.94475280
_cell_angle_beta   90.01672242
_cell_angle_gamma   90.00208357
_symmetry_Int_Tables_number   1
_chemical_formula_structural   Lu15Sc5(Bi3Sb)3
_chemical_formula_sum   'Lu15 Sc5 Bi9 Sb3'
_cell_volume   856.47248031
_cell_formula_units_Z   1
loop_
 _symmetry_equiv_pos_site_id
 _symmetry_equiv_pos_as_xyz
  1  'x, y, z'
loop_
 _atom_site_type_symbol
 _atom_site_label
 _atom_site_symmetry_multiplicity
 _atom_site_fract_x
 _atom_site_fract_y
 _atom_site_fract_z
 _atom_site_occupancy
  Lu  Lu0  1  0.352783  0.248306  0.284285  1
  Lu  Lu1  1  0.645235  0.750451  0.714237  1
  Lu  Lu2  1  0.145391  0.749558  0.785474  1
  Lu  Lu3  1  0.852811  0.250188  0.217579  1
  Lu  Lu4  1  0.187875  0.249657  0.779306  1
  Lu  Lu5  1  0.816602  0.749646  0.217560  1
  Lu  Lu6  1  0.317422  0.750956  0.282385  1
  Lu  Lu7  1  0.680353  0.249247  0.716194  1
  Lu  Lu8  1  0.808629  0.930633  0.942464  1
  Lu  Lu9  1  0.308930  0.933887  0.557531  1
  Lu  Lu10  1  0.808729  0.568873  0.942592  1
  Lu  Lu11  1  0.690880  0.065701  0.442536  1
  Lu  Lu12  1  0.193625  0.437038  0.059340  1
  Lu  Lu13  1  0.691108  0.434466  0.442769  1
  Lu  Lu14  1  0.309234  0.566223  0.557724  1
  Sc  Sc15  1  0.025140  0.250164  0.511434  1
  Sc  Sc16  1  0.974763  0.750045  0.487242  1
  Sc  Sc17  1  0.473199  0.750645  0.013090  1
  Sc  Sc18  1  0.520570  0.248413  0.988591  1
  Sc  Sc19  1  0.194367  0.064018  0.059034  1
  Bi  Bi20  1  0.903911  0.247766  0.957452  1
  Bi  Bi21  1  0.065795  0.003925  0.327020  1
  Bi  Bi22  1  0.934243  0.996394  0.670540  1
  Bi  Bi23  1  0.432666  0.995494  0.830619  1
  Bi  Bi24  1  0.933992  0.503248  0.670950  1
  Bi  Bi25  1  0.564293  0.004199  0.170561  1
  Bi  Bi26  1  0.066122  0.496645  0.328729  1
  Bi  Bi27  1  0.566130  0.495415  0.171322  1
  Bi  Bi28  1  0.434775  0.503954  0.829712  1
  Sb  Sb29  1  0.399001  0.250219  0.541332  1
  Sb  Sb30  1  0.600355  0.749935  0.457095  1
  Sb  Sb31  1  0.101071  0.754690  0.043300  1
