# generated using pymatgen
data_Ce2Zr3SbF22
_symmetry_space_group_name_H-M   'P 1'
_cell_length_a   8.51708419
_cell_length_b   8.51708453
_cell_length_c   8.52895916
_cell_angle_alpha   124.25422402
_cell_angle_beta   106.06136123
_cell_angle_gamma   99.16609085
_symmetry_Int_Tables_number   1
_chemical_formula_structural   Ce2Zr3SbF22
_chemical_formula_sum   'Ce2 Zr3 Sb1 F22'
_cell_volume   451.11813262
_cell_formula_units_Z   1
loop_
 _symmetry_equiv_pos_site_id
 _symmetry_equiv_pos_as_xyz
  1  'x, y, z'
loop_
 _atom_site_type_symbol
 _atom_site_label
 _atom_site_symmetry_multiplicity
 _atom_site_fract_x
 _atom_site_fract_y
 _atom_site_fract_z
 _atom_site_occupancy
  Ce  Ce0  1  0.749563  0.250545  0.501692  1
  Ce  Ce1  1  0.251147  0.752130  0.501692  1
  Zr  Zr2  1  0.316255  0.363509  0.679763  1
  Zr  Zr3  1  0.180903  0.865375  0.046278  1
  Zr  Zr4  1  0.820128  0.137062  0.957190  1
  Sb  Sb5  1  0.684687  0.641613  0.326300  1
  F  F6  1  0.706857  0.923215  0.353356  1
  F  F7  1  0.290059  0.093682  0.645405  1
  F  F8  1  0.551723  0.355346  0.645405  1
  F  F9  1  0.946185  0.601857  0.811299  1
  F  F10  1  0.430142  0.646498  0.353356  1
  F  F11  1  0.057537  0.397090  0.191133  1
  F  F12  1  0.794043  0.133595  0.191133  1
  F  F13  1  0.209442  0.865114  0.811299  1
  F  F14  1  0.486830  0.486324  0.973154  1
  F  F15  1  0.002630  0.999846  0.002476  1
  F  F16  1  0.784705  0.876246  0.660952  1
  F  F17  1  0.219251  0.127403  0.346654  1
  F  F18  1  0.276249  0.629587  0.905837  1
  F  F19  1  0.720580  0.357386  0.077965  1
  F  F20  1  0.970748  0.740480  0.430155  1
  F  F21  1  0.044173  0.262057  0.581069  1
  F  F22  1  0.319012  0.536895  0.581069  1
  F  F23  1  0.175452  0.760408  0.213611  1
  F  F24  1  0.689676  0.459407  0.430155  1
  F  F25  1  0.824523  0.239696  0.783995  1
  F  F26  1  0.544299  0.959472  0.783995  1
  F  F27  1  0.453202  0.038159  0.213611  1
