# generated using pymatgen
data_TbDyGeBr2
_symmetry_space_group_name_H-M   'P 1'
_cell_length_a   4.15465400
_cell_length_b   4.15465495
_cell_length_c   10.52736800
_cell_angle_alpha   90.00000000
_cell_angle_beta   90.00000000
_cell_angle_gamma   119.99999247
_symmetry_Int_Tables_number   1
_chemical_formula_structural   TbDyGeBr2
_chemical_formula_sum   'Tb1 Dy1 Ge1 Br2'
_cell_volume   157.36940080
_cell_formula_units_Z   1
loop_
 _symmetry_equiv_pos_site_id
 _symmetry_equiv_pos_as_xyz
  1  'x, y, z'
loop_
 _atom_site_type_symbol
 _atom_site_label
 _atom_site_symmetry_multiplicity
 _atom_site_fract_x
 _atom_site_fract_y
 _atom_site_fract_z
 _atom_site_occupancy
  Tb  Tb0  1  0.666668  0.333334  0.651581  1
  Dy  Dy1  1  0.333334  0.666667  0.348424  1
  Ge  Ge2  1  0.000000  0.000000  0.499514  1
  Br  Br3  1  0.666668  0.333334  0.181328  1
  Br  Br4  1  0.333334  0.666667  0.819152  1
