# generated using pymatgen
data_Yb2CdBiSb
_symmetry_space_group_name_H-M   'P 1'
_cell_length_a   9.12714822
_cell_length_b   9.12714884
_cell_length_c   7.25279900
_cell_angle_alpha   90.00000000
_cell_angle_beta   90.00000000
_cell_angle_gamma   149.76688114
_symmetry_Int_Tables_number   1
_chemical_formula_structural   Yb2CdBiSb
_chemical_formula_sum   'Yb4 Cd2 Bi2 Sb2'
_cell_volume   304.22305431
_cell_formula_units_Z   2
loop_
 _symmetry_equiv_pos_site_id
 _symmetry_equiv_pos_as_xyz
  1  'x, y, z'
loop_
 _atom_site_type_symbol
 _atom_site_label
 _atom_site_symmetry_multiplicity
 _atom_site_fract_x
 _atom_site_fract_y
 _atom_site_fract_z
 _atom_site_occupancy
  Yb  Yb0  1  0.480310  0.519690  0.721049  1
  Yb  Yb1  1  0.519690  0.480310  0.221049  1
  Yb  Yb2  1  0.695398  0.304602  0.531217  1
  Yb  Yb3  1  0.304602  0.695398  0.031217  1
  Cd  Cd4  1  0.903957  0.096043  0.393136  1
  Cd  Cd5  1  0.096043  0.903957  0.893136  1
  Bi  Bi6  1  0.318463  0.681537  0.516189  1
  Bi  Bi7  1  0.681537  0.318463  0.016189  1
  Sb  Sb8  1  0.067897  0.932103  0.495920  1
  Sb  Sb9  1  0.932103  0.067897  0.995920  1
