# generated using pymatgen
data_Pr4Te3
_symmetry_space_group_name_H-M   'P 1'
_cell_length_a   8.24352964
_cell_length_b   8.24353003
_cell_length_c   8.24353000
_cell_angle_alpha   109.47122548
_cell_angle_beta   109.47122644
_cell_angle_gamma   109.47121388
_symmetry_Int_Tables_number   1
_chemical_formula_structural   Pr4Te3
_chemical_formula_sum   'Pr8 Te6'
_cell_volume   431.23871090
_cell_formula_units_Z   2
loop_
 _symmetry_equiv_pos_site_id
 _symmetry_equiv_pos_as_xyz
  1  'x, y, z'
loop_
 _atom_site_type_symbol
 _atom_site_label
 _atom_site_symmetry_multiplicity
 _atom_site_fract_x
 _atom_site_fract_y
 _atom_site_fract_z
 _atom_site_occupancy
  Pr  Pr0  1  0.500000  0.000000  0.142036  1
  Pr  Pr1  1  0.642036  0.500000  0.000000  1
  Pr  Pr2  1  0.000000  0.642036  0.500000  1
  Pr  Pr3  1  0.857964  0.857964  0.857964  1
  Pr  Pr4  1  0.000000  0.142036  0.500000  1
  Pr  Pr5  1  0.357964  0.357964  0.357964  1
  Pr  Pr6  1  0.142036  0.500000  0.000000  1
  Pr  Pr7  1  0.500000  0.000000  0.642036  1
  Te  Te8  1  0.625000  0.750000  0.375000  1
  Te  Te9  1  0.750000  0.375000  0.625000  1
  Te  Te10  1  0.250000  0.125000  0.875000  1
  Te  Te11  1  0.375000  0.625000  0.750000  1
  Te  Te12  1  0.125000  0.875000  0.250000  1
  Te  Te13  1  0.875000  0.250000  0.125000  1
