# generated using pymatgen
data_Lu8Hf12Si15Sn
_symmetry_space_group_name_H-M   'P 1'
_cell_length_a   7.24997869
_cell_length_b   7.27634355
_cell_length_c   13.30874148
_cell_angle_alpha   89.75547769
_cell_angle_beta   90.03179514
_cell_angle_gamma   89.81806204
_symmetry_Int_Tables_number   1
_chemical_formula_structural   Lu8Hf12Si15Sn
_chemical_formula_sum   'Lu8 Hf12 Si15 Sn1'
_cell_volume   702.07046063
_cell_formula_units_Z   1
loop_
 _symmetry_equiv_pos_site_id
 _symmetry_equiv_pos_as_xyz
  1  'x, y, z'
loop_
 _atom_site_type_symbol
 _atom_site_label
 _atom_site_symmetry_multiplicity
 _atom_site_fract_x
 _atom_site_fract_y
 _atom_site_fract_z
 _atom_site_occupancy
  Lu  Lu0  1  0.988288  0.345624  0.212272  1
  Lu  Lu1  1  0.004577  0.655612  0.716383  1
  Lu  Lu2  1  0.148085  0.506087  0.471190  1
  Lu  Lu3  1  0.505487  0.842731  0.032558  1
  Lu  Lu4  1  0.845019  0.503769  0.964323  1
  Lu  Lu5  1  0.498383  0.153233  0.539104  1
  Lu  Lu6  1  0.344360  0.995930  0.784687  1
  Lu  Lu7  1  0.662231  0.996786  0.283101  1
  Hf  Hf8  1  0.174277  0.174866  0.999127  1
  Hf  Hf9  1  0.825626  0.826759  0.501182  1
  Hf  Hf10  1  0.326763  0.681164  0.247977  1
  Hf  Hf11  1  0.674804  0.325061  0.750214  1
  Hf  Hf12  1  0.140713  0.988283  0.373746  1
  Hf  Hf13  1  0.852800  0.002370  0.874109  1
  Hf  Hf14  1  0.502286  0.649378  0.624922  1
  Hf  Hf15  1  0.351688  0.496699  0.875377  1
  Hf  Hf16  1  0.497690  0.352431  0.118937  1
  Hf  Hf17  1  0.659477  0.513965  0.379323  1
  Hf  Hf18  1  0.995821  0.148294  0.626660  1
  Hf  Hf19  1  0.001450  0.850285  0.123829  1
  Si  Si20  1  0.639397  0.705076  0.818080  1
  Si  Si21  1  0.204828  0.862265  0.569073  1
  Si  Si22  1  0.140164  0.794583  0.931232  1
  Si  Si23  1  0.795356  0.138978  0.066368  1
  Si  Si24  1  0.859454  0.204489  0.432475  1
  Si  Si25  1  0.295331  0.360825  0.682384  1
  Si  Si26  1  0.703526  0.638677  0.181451  1
  Si  Si27  1  0.297392  0.041294  0.180599  1
  Si  Si28  1  0.703114  0.950461  0.686357  1
  Si  Si29  1  0.450942  0.799655  0.435626  1
  Si  Si30  1  0.201674  0.548136  0.064461  1
  Si  Si31  1  0.548210  0.200913  0.933756  1
  Si  Si32  1  0.796215  0.451443  0.566843  1
  Si  Si33  1  0.048449  0.297408  0.814638  1
  Si  Si34  1  0.953535  0.700015  0.312972  1
  Sn  Sn35  1  0.362589  0.296456  0.324664  1
