# generated using pymatgen
data_Tb16CdCo(NiHg)3
_symmetry_space_group_name_H-M   'P 1'
_cell_length_a   9.53775018
_cell_length_b   9.54219657
_cell_length_c   9.55930439
_cell_angle_alpha   60.12408865
_cell_angle_beta   60.07455777
_cell_angle_gamma   60.01541458
_symmetry_Int_Tables_number   1
_chemical_formula_structural   Tb16CdCo(NiHg)3
_chemical_formula_sum   'Tb16 Cd1 Co1 Ni3 Hg3'
_cell_volume   616.17846483
_cell_formula_units_Z   1
loop_
 _symmetry_equiv_pos_site_id
 _symmetry_equiv_pos_as_xyz
  1  'x, y, z'
loop_
 _atom_site_type_symbol
 _atom_site_label
 _atom_site_symmetry_multiplicity
 _atom_site_fract_x
 _atom_site_fract_y
 _atom_site_fract_z
 _atom_site_occupancy
  Tb  Tb0  1  0.439536  0.437837  0.058365  1
  Tb  Tb1  1  0.596423  0.597427  0.600822  1
  Tb  Tb2  1  0.187660  0.810816  0.813864  1
  Tb  Tb3  1  0.059258  0.060370  0.439940  1
  Tb  Tb4  1  0.439272  0.064022  0.057434  1
  Tb  Tb5  1  0.811988  0.187411  0.813412  1
  Tb  Tb6  1  0.440431  0.060370  0.439940  1
  Tb  Tb7  1  0.598440  0.200029  0.603091  1
  Tb  Tb8  1  0.813557  0.811629  0.188194  1
  Tb  Tb9  1  0.205328  0.597427  0.600822  1
  Tb  Tb10  1  0.812936  0.186527  0.187603  1
  Tb  Tb11  1  0.060340  0.438845  0.440475  1
  Tb  Tb12  1  0.186621  0.811629  0.188194  1
  Tb  Tb13  1  0.599579  0.601047  0.199795  1
  Tb  Tb14  1  0.187190  0.187411  0.813412  1
  Tb  Tb15  1  0.064262  0.437837  0.058365  1
  Cd  Cd16  1  0.830246  0.509448  0.830059  1
  Co  Co17  1  0.392375  0.391727  0.823525  1
  Ni  Ni18  1  0.393204  0.392210  0.392285  1
  Ni  Ni19  1  0.822302  0.392210  0.392285  1
  Ni  Ni20  1  0.392429  0.823381  0.391763  1
  Hg  Hg21  1  0.835116  0.833627  0.496139  1
  Hg  Hg22  1  0.834734  0.833381  0.835109  1
  Hg  Hg23  1  0.496775  0.833381  0.835109  1
