# generated using pymatgen
data_Sm3Th(Nb3Si4)2
_symmetry_space_group_name_H-M   'P 1'
_cell_length_a   7.15856910
_cell_length_b   7.15634211
_cell_length_c   13.26613600
_cell_angle_alpha   90.00000000
_cell_angle_beta   90.00000000
_cell_angle_gamma   90.06367216
_symmetry_Int_Tables_number   1
_chemical_formula_structural   Sm3Th(Nb3Si4)2
_chemical_formula_sum   'Sm6 Th2 Nb12 Si16'
_cell_volume   679.61271006
_cell_formula_units_Z   2
loop_
 _symmetry_equiv_pos_site_id
 _symmetry_equiv_pos_as_xyz
  1  'x, y, z'
loop_
 _atom_site_type_symbol
 _atom_site_label
 _atom_site_symmetry_multiplicity
 _atom_site_fract_x
 _atom_site_fract_y
 _atom_site_fract_z
 _atom_site_occupancy
  Sm  Sm0  1  0.159889  0.498168  0.467696  1
  Sm  Sm1  1  0.502363  0.840590  0.032335  1
  Sm  Sm2  1  0.840111  0.501832  0.967696  1
  Sm  Sm3  1  0.497637  0.159410  0.532335  1
  Sm  Sm4  1  0.340688  0.997518  0.782911  1
  Sm  Sm5  1  0.659312  0.002482  0.282911  1
  Th  Th6  1  0.995675  0.339757  0.217504  1
  Th  Th7  1  0.004325  0.660243  0.717504  1
  Nb  Nb8  1  0.170607  0.170585  0.000866  1
  Nb  Nb9  1  0.829393  0.829415  0.500866  1
  Nb  Nb10  1  0.327737  0.669160  0.249444  1
  Nb  Nb11  1  0.672263  0.330840  0.749444  1
  Nb  Nb12  1  0.155478  0.994125  0.374791  1
  Nb  Nb13  1  0.844522  0.005875  0.874791  1
  Nb  Nb14  1  0.507507  0.654893  0.625413  1
  Nb  Nb15  1  0.344050  0.491800  0.874257  1
  Nb  Nb16  1  0.492493  0.345107  0.125413  1
  Nb  Nb17  1  0.655950  0.508200  0.374257  1
  Nb  Nb18  1  0.991581  0.155183  0.625015  1
  Nb  Nb19  1  0.008419  0.844817  0.125015  1
  Si  Si20  1  0.293889  0.042713  0.186536  1
  Si  Si21  1  0.706111  0.957287  0.686536  1
  Si  Si22  1  0.455649  0.790894  0.436247  1
  Si  Si23  1  0.210444  0.546185  0.061899  1
  Si  Si24  1  0.544351  0.209106  0.936247  1
  Si  Si25  1  0.789556  0.453815  0.561899  1
  Si  Si26  1  0.045101  0.287369  0.814938  1
  Si  Si27  1  0.954899  0.712631  0.314938  1
  Si  Si28  1  0.372291  0.296805  0.316666  1
  Si  Si29  1  0.627709  0.703195  0.816666  1
  Si  Si30  1  0.204762  0.872321  0.563656  1
  Si  Si31  1  0.130716  0.798358  0.935426  1
  Si  Si32  1  0.795238  0.127679  0.063656  1
  Si  Si33  1  0.869284  0.201642  0.435426  1
  Si  Si34  1  0.299178  0.367073  0.684398  1
  Si  Si35  1  0.700822  0.632927  0.184398  1
