# generated using pymatgen
data_CaYb11(DyPb2)8
_symmetry_space_group_name_H-M   'P 1'
_cell_length_a   8.03652302
_cell_length_b   8.65083817
_cell_length_c   16.45226500
_cell_angle_alpha   90.01027250
_cell_angle_beta   90.00437034
_cell_angle_gamma   90.00473477
_symmetry_Int_Tables_number   1
_chemical_formula_structural   CaYb11(DyPb2)8
_chemical_formula_sum   'Ca1 Yb11 Dy8 Pb16'
_cell_volume   1143.80520207
_cell_formula_units_Z   1
loop_
 _symmetry_equiv_pos_site_id
 _symmetry_equiv_pos_as_xyz
  1  'x, y, z'
loop_
 _atom_site_type_symbol
 _atom_site_label
 _atom_site_symmetry_multiplicity
 _atom_site_fract_x
 _atom_site_fract_y
 _atom_site_fract_z
 _atom_site_occupancy
  Ca  Ca0  1  0.504061  0.689960  0.591753  1
  Yb  Yb1  1  0.004323  0.809369  0.907901  1
  Yb  Yb2  1  0.495683  0.309344  0.092205  1
  Yb  Yb3  1  0.995920  0.190457  0.407660  1
  Yb  Yb4  1  0.495666  0.309570  0.407646  1
  Yb  Yb5  1  0.995770  0.190646  0.092236  1
  Yb  Yb6  1  0.504276  0.690601  0.907834  1
  Yb  Yb7  1  0.004364  0.809572  0.592250  1
  Yb  Yb8  1  0.836113  0.510157  0.750067  1
  Yb  Yb9  1  0.336311  0.989718  0.750115  1
  Yb  Yb10  1  0.163690  0.489700  0.249924  1
  Yb  Yb11  1  0.663675  0.010264  0.249896  1
  Dy  Dy12  1  0.675620  0.161683  0.621333  1
  Dy  Dy13  1  0.175575  0.338150  0.878811  1
  Dy  Dy14  1  0.324306  0.838319  0.121283  1
  Dy  Dy15  1  0.824276  0.661788  0.378700  1
  Dy  Dy16  1  0.324179  0.838526  0.378595  1
  Dy  Dy17  1  0.824291  0.661634  0.121288  1
  Dy  Dy18  1  0.675770  0.161728  0.878814  1
  Dy  Dy19  1  0.175479  0.338318  0.621535  1
  Pb  Pb20  1  0.677617  0.965442  0.457223  1
  Pb  Pb21  1  0.177537  0.535402  0.042434  1
  Pb  Pb22  1  0.322460  0.035379  0.957640  1
  Pb  Pb23  1  0.823893  0.463395  0.542152  1
  Pb  Pb24  1  0.322103  0.036474  0.542079  1
  Pb  Pb25  1  0.822505  0.464674  0.957633  1
  Pb  Pb26  1  0.677600  0.964621  0.042410  1
  Pb  Pb27  1  0.177375  0.535192  0.457281  1
  Pb  Pb28  1  0.475362  0.369128  0.750274  1
  Pb  Pb29  1  0.975709  0.130666  0.749989  1
  Pb  Pb30  1  0.524347  0.630510  0.249980  1
  Pb  Pb31  1  0.024339  0.869553  0.249963  1
  Pb  Pb32  1  0.714502  0.868121  0.750675  1
  Pb  Pb33  1  0.213154  0.631879  0.750420  1
  Pb  Pb34  1  0.286087  0.132173  0.249978  1
  Pb  Pb35  1  0.786062  0.367889  0.250022  1
