# generated using pymatgen
data_Th4(PaTe4)3
_symmetry_space_group_name_H-M   'P 1'
_cell_length_a   12.48919600
_cell_length_b   12.48919587
_cell_length_c   4.28810200
_cell_angle_alpha   90.00000000
_cell_angle_beta   90.00000000
_cell_angle_gamma   119.99999903
_symmetry_Int_Tables_number   1
_chemical_formula_structural   Th4(PaTe4)3
_chemical_formula_sum   'Th4 Pa3 Te12'
_cell_volume   579.24821104
_cell_formula_units_Z   1
loop_
 _symmetry_equiv_pos_site_id
 _symmetry_equiv_pos_as_xyz
  1  'x, y, z'
loop_
 _atom_site_type_symbol
 _atom_site_label
 _atom_site_symmetry_multiplicity
 _atom_site_fract_x
 _atom_site_fract_y
 _atom_site_fract_z
 _atom_site_occupancy
  Th  Th0  1  0.389298  0.490893  0.000000  1
  Th  Th1  1  0.509107  0.898405  0.000000  1
  Th  Th2  1  0.101595  0.610702  0.000000  1
  Th  Th3  1  0.666667  0.333333  0.000000  1
  Pa  Pa4  1  0.208527  0.041699  0.500000  1
  Pa  Pa5  1  0.958301  0.166827  0.500000  1
  Pa  Pa6  1  0.833173  0.791473  0.500000  1
  Te  Te7  1  0.406010  0.084157  0.000000  1
  Te  Te8  1  0.915843  0.321854  0.000000  1
  Te  Te9  1  0.678146  0.593990  0.000000  1
  Te  Te10  1  0.156426  0.195215  0.000000  1
  Te  Te11  1  0.804785  0.961210  0.000000  1
  Te  Te12  1  0.038790  0.843574  0.000000  1
  Te  Te13  1  0.531483  0.719231  0.500000  1
  Te  Te14  1  0.880679  0.546225  0.500000  1
  Te  Te15  1  0.665545  0.119321  0.500000  1
  Te  Te16  1  0.453775  0.334455  0.500000  1
  Te  Te17  1  0.187748  0.468517  0.500000  1
  Te  Te18  1  0.280769  0.812252  0.500000  1
