# generated using pymatgen
data_Dy2Mn3Fe11(SiC)3
_symmetry_space_group_name_H-M   'P 1'
_cell_length_a   6.42734024
_cell_length_b   6.42733936
_cell_length_c   6.42733944
_cell_angle_alpha   83.42590675
_cell_angle_beta   83.42589566
_cell_angle_gamma   83.42589368
_symmetry_Int_Tables_number   1
_chemical_formula_structural   Dy2Mn3Fe11(SiC)3
_chemical_formula_sum   'Dy2 Mn3 Fe11 Si3 C3'
_cell_volume   260.65129941
_cell_formula_units_Z   1
loop_
 _symmetry_equiv_pos_site_id
 _symmetry_equiv_pos_as_xyz
  1  'x, y, z'
loop_
 _atom_site_type_symbol
 _atom_site_label
 _atom_site_symmetry_multiplicity
 _atom_site_fract_x
 _atom_site_fract_y
 _atom_site_fract_z
 _atom_site_occupancy
  Dy  Dy0  1  0.653071  0.653071  0.653071  1
  Dy  Dy1  1  0.346929  0.346929  0.346929  1
  Mn  Mn2  1  0.717922  0.282078  0.000000  1
  Mn  Mn3  1  0.000000  0.717922  0.282078  1
  Mn  Mn4  1  0.282078  0.000000  0.717922  1
  Fe  Fe5  1  0.000000  0.284109  0.715891  1
  Fe  Fe6  1  0.715891  0.000000  0.284109  1
  Fe  Fe7  1  0.284109  0.715891  0.000000  1
  Fe  Fe8  1  0.341966  0.338389  0.861606  1
  Fe  Fe9  1  0.861606  0.341966  0.338389  1
  Fe  Fe10  1  0.338389  0.861606  0.341966  1
  Fe  Fe11  1  0.661611  0.658034  0.138394  1
  Fe  Fe12  1  0.138394  0.661611  0.658034  1
  Fe  Fe13  1  0.658034  0.138394  0.661611  1
  Fe  Fe14  1  0.903597  0.903597  0.903597  1
  Fe  Fe15  1  0.096403  0.096403  0.096403  1
  Si  Si16  1  0.997714  0.002286  0.500000  1
  Si  Si17  1  0.500000  0.997714  0.002286  1
  Si  Si18  1  0.002286  0.500000  0.997714  1
  C  C19  1  0.500045  0.499955  0.000000  1
  C  C20  1  0.000000  0.500045  0.499955  1
  C  C21  1  0.499955  0.000000  0.500045  1
