# generated using pymatgen
data_K3Ho2(BO3)3
_symmetry_space_group_name_H-M   'P 1'
_cell_length_a   8.59172800
_cell_length_b   9.44744000
_cell_length_c   12.06828300
_cell_angle_alpha   90.00000000
_cell_angle_beta   90.00000000
_cell_angle_gamma   90.00000000
_symmetry_Int_Tables_number   1
_chemical_formula_structural   K3Ho2(BO3)3
_chemical_formula_sum   'K12 Ho8 B12 O36'
_cell_volume   979.58053714
_cell_formula_units_Z   4
loop_
 _symmetry_equiv_pos_site_id
 _symmetry_equiv_pos_as_xyz
  1  'x, y, z'
loop_
 _atom_site_type_symbol
 _atom_site_label
 _atom_site_symmetry_multiplicity
 _atom_site_fract_x
 _atom_site_fract_y
 _atom_site_fract_z
 _atom_site_occupancy
  K  K0  1  0.350398  0.356587  0.743873  1
  K  K1  1  0.201949  0.030262  0.577599  1
  K  K2  1  0.798051  0.969738  0.077599  1
  K  K3  1  0.086481  0.695486  0.593408  1
  K  K4  1  0.149602  0.856587  0.243873  1
  K  K5  1  0.850398  0.143413  0.743873  1
  K  K6  1  0.298051  0.530262  0.077599  1
  K  K7  1  0.913519  0.304514  0.093408  1
  K  K8  1  0.701949  0.469738  0.577599  1
  K  K9  1  0.649602  0.643413  0.243873  1
  K  K10  1  0.586481  0.804514  0.593408  1
  K  K11  1  0.413519  0.195486  0.093408  1
  Ho  Ho12  1  0.010119  0.507694  0.331417  1
  Ho  Ho13  1  0.640043  0.611896  0.896334  1
  Ho  Ho14  1  0.989881  0.492306  0.831417  1
  Ho  Ho15  1  0.489881  0.007694  0.831417  1
  Ho  Ho16  1  0.359957  0.388104  0.396334  1
  Ho  Ho17  1  0.859957  0.111896  0.396334  1
  Ho  Ho18  1  0.140043  0.888104  0.896334  1
  Ho  Ho19  1  0.510119  0.992306  0.331417  1
  B  B20  1  0.134889  0.178747  0.909427  1
  B  B21  1  0.365111  0.678747  0.409427  1
  B  B22  1  0.169826  0.194349  0.283540  1
  B  B23  1  0.865111  0.821253  0.409427  1
  B  B24  1  0.330174  0.694349  0.783540  1
  B  B25  1  0.669826  0.305651  0.283540  1
  B  B26  1  0.037894  0.344850  0.565665  1
  B  B27  1  0.462106  0.844850  0.065665  1
  B  B28  1  0.962106  0.655150  0.065665  1
  B  B29  1  0.830174  0.805651  0.783540  1
  B  B30  1  0.537894  0.155150  0.565665  1
  B  B31  1  0.634889  0.321253  0.909427  1
  O  O32  1  0.473964  0.905756  0.169116  1
  O  O33  1  0.540213  0.386023  0.266176  1
  O  O34  1  0.376117  0.916028  0.985209  1
  O  O35  1  0.876117  0.583972  0.985209  1
  O  O36  1  0.305146  0.142334  0.335097  1
  O  O37  1  0.254534  0.613252  0.339620  1
  O  O38  1  0.963768  0.219639  0.541598  1
  O  O39  1  0.622459  0.175209  0.915788  1
  O  O40  1  0.623883  0.083972  0.485209  1
  O  O41  1  0.805146  0.357666  0.335097  1
  O  O42  1  0.973964  0.594244  0.169116  1
  O  O43  1  0.961320  0.910209  0.468892  1
  O  O44  1  0.674495  0.162306  0.253472  1
  O  O45  1  0.877541  0.675209  0.415788  1
  O  O46  1  0.463768  0.280361  0.541598  1
  O  O47  1  0.461320  0.589791  0.468892  1
  O  O48  1  0.325505  0.837694  0.753472  1
  O  O49  1  0.538680  0.410209  0.968892  1
  O  O50  1  0.174495  0.337694  0.253472  1
  O  O51  1  0.245466  0.113252  0.839620  1
  O  O52  1  0.038680  0.089791  0.968892  1
  O  O53  1  0.526036  0.094244  0.669116  1
  O  O54  1  0.040213  0.113977  0.266176  1
  O  O55  1  0.123883  0.416028  0.485209  1
  O  O56  1  0.377541  0.824791  0.415788  1
  O  O57  1  0.694854  0.857666  0.835097  1
  O  O58  1  0.825505  0.662306  0.753472  1
  O  O59  1  0.194854  0.642334  0.835097  1
  O  O60  1  0.754534  0.886748  0.339620  1
  O  O61  1  0.959787  0.886023  0.766176  1
  O  O62  1  0.036232  0.780361  0.041598  1
  O  O63  1  0.026036  0.405756  0.669116  1
  O  O64  1  0.122459  0.324791  0.915788  1
  O  O65  1  0.745466  0.386748  0.839620  1
  O  O66  1  0.459787  0.613977  0.766176  1
  O  O67  1  0.536232  0.719639  0.041598  1
