# generated using pymatgen
data_Dy15LuZnIn3Rh4
_symmetry_space_group_name_H-M   'P 1'
_cell_length_a   9.59400064
_cell_length_b   9.60611200
_cell_length_c   9.60571243
_cell_angle_alpha   59.97262316
_cell_angle_beta   60.04032894
_cell_angle_gamma   60.04170165
_symmetry_Int_Tables_number   1
_chemical_formula_structural   Dy15LuZnIn3Rh4
_chemical_formula_sum   'Dy15 Lu1 Zn1 In3 Rh4'
_cell_volume   626.24011813
_cell_formula_units_Z   1
loop_
 _symmetry_equiv_pos_site_id
 _symmetry_equiv_pos_as_xyz
  1  'x, y, z'
loop_
 _atom_site_type_symbol
 _atom_site_label
 _atom_site_symmetry_multiplicity
 _atom_site_fract_x
 _atom_site_fract_y
 _atom_site_fract_z
 _atom_site_occupancy
  Dy  Dy0  1  0.688646  0.688842  0.311899  1
  Dy  Dy1  1  0.310613  0.688842  0.311899  1
  Dy  Dy2  1  0.936464  0.937650  0.556721  1
  Dy  Dy3  1  0.150083  0.148961  0.550871  1
  Dy  Dy4  1  0.569164  0.937650  0.556721  1
  Dy  Dy5  1  0.148850  0.148881  0.150182  1
  Dy  Dy6  1  0.310404  0.310652  0.689806  1
  Dy  Dy7  1  0.937326  0.567925  0.557422  1
  Dy  Dy8  1  0.563665  0.562305  0.936476  1
  Dy  Dy9  1  0.563533  0.937754  0.935179  1
  Dy  Dy10  1  0.937553  0.562305  0.936476  1
  Dy  Dy11  1  0.148806  0.553214  0.149173  1
  Dy  Dy12  1  0.310185  0.689594  0.690037  1
  Dy  Dy13  1  0.689137  0.310652  0.689806  1
  Dy  Dy14  1  0.552084  0.148881  0.150182  1
  Lu  Lu15  1  0.689279  0.310740  0.310702  1
  Zn  Zn16  1  0.916170  0.916757  0.250904  1
  In  In17  1  0.244197  0.917210  0.921783  1
  In  In18  1  0.916529  0.244659  0.922282  1
  In  In19  1  0.916809  0.917210  0.921783  1
  Rh  Rh20  1  0.359673  0.357198  0.356553  1
  Rh  Rh21  1  0.926578  0.357198  0.356553  1
  Rh  Rh22  1  0.356731  0.357075  0.929464  1
  Rh  Rh23  1  0.357518  0.927840  0.357127  1
