# generated using pymatgen
data_Ho6Al24FeCu2Ru5
_symmetry_space_group_name_H-M   'P 1'
_cell_length_a   8.81107511
_cell_length_b   8.78690180
_cell_length_c   9.47113817
_cell_angle_alpha   90.00000074
_cell_angle_beta   90.27322278
_cell_angle_gamma   119.90928794
_symmetry_Int_Tables_number   1
_chemical_formula_structural   Ho6Al24FeCu2Ru5
_chemical_formula_sum   'Ho6 Al24 Fe1 Cu2 Ru5'
_cell_volume   635.60478851
_cell_formula_units_Z   1
loop_
 _symmetry_equiv_pos_site_id
 _symmetry_equiv_pos_as_xyz
  1  'x, y, z'
loop_
 _atom_site_type_symbol
 _atom_site_label
 _atom_site_symmetry_multiplicity
 _atom_site_fract_x
 _atom_site_fract_y
 _atom_site_fract_z
 _atom_site_occupancy
  Ho  Ho0  1  0.191132  0.387255  0.250853  1
  Ho  Ho1  1  0.808868  0.612745  0.749147  1
  Ho  Ho2  1  0.615720  0.807860  0.247192  1
  Ho  Ho3  1  0.384280  0.192140  0.752808  1
  Ho  Ho4  1  0.191132  0.803878  0.250853  1
  Ho  Ho5  1  0.808868  0.196122  0.749147  1
  Al  Al6  1  0.330861  0.665431  0.022821  1
  Al  Al7  1  0.669139  0.334569  0.977179  1
  Al  Al8  1  0.665797  0.332898  0.515939  1
  Al  Al9  1  0.334203  0.667102  0.484061  1
  Al  Al10  1  0.161063  0.319880  0.575224  1
  Al  Al11  1  0.838937  0.680120  0.424776  1
  Al  Al12  1  0.680796  0.840399  0.573308  1
  Al  Al13  1  0.842419  0.675633  0.079151  1
  Al  Al14  1  0.319204  0.159601  0.426692  1
  Al  Al15  1  0.157581  0.324367  0.920849  1
  Al  Al16  1  0.161063  0.841185  0.575224  1
  Al  Al17  1  0.321495  0.160747  0.081856  1
  Al  Al18  1  0.838937  0.158815  0.424776  1
  Al  Al19  1  0.678505  0.839253  0.918144  1
  Al  Al20  1  0.842419  0.166784  0.079151  1
  Al  Al21  1  0.157581  0.833216  0.920849  1
  Al  Al22  1  0.561051  0.123473  0.250567  1
  Al  Al23  1  0.438949  0.876527  0.749433  1
  Al  Al24  1  0.876083  0.438041  0.248478  1
  Al  Al25  1  0.123917  0.561959  0.751522  1
  Al  Al26  1  0.561051  0.437578  0.250567  1
  Al  Al27  1  0.438949  0.562422  0.749433  1
  Al  Al28  1  0.998481  0.999241  0.256924  1
  Al  Al29  1  0.001519  0.000759  0.743076  1
  Fe  Fe30  1  0.000000  0.000000  0.500000  1
  Cu  Cu31  1  0.500000  0.000000  0.000000  1
  Cu  Cu32  1  0.500000  0.500000  0.000000  1
  Ru  Ru33  1  0.000000  0.500000  0.000000  1
  Ru  Ru34  1  0.500000  0.000000  0.500000  1
  Ru  Ru35  1  0.000000  0.500000  0.500000  1
  Ru  Ru36  1  0.500000  0.500000  0.500000  1
  Ru  Ru37  1  0.000000  0.000000  0.000000  1
