# generated using pymatgen
data_SmTh2As4Pd7
_symmetry_space_group_name_H-M   'P 1'
_cell_length_a   8.27449745
_cell_length_b   8.27449702
_cell_length_c   9.73797106
_cell_angle_alpha   55.21692188
_cell_angle_beta   55.21692508
_cell_angle_gamma   29.55018962
_symmetry_Int_Tables_number   1
_chemical_formula_structural   SmTh2As4Pd7
_chemical_formula_sum   'Sm1 Th2 As4 Pd7'
_cell_volume   265.49783306
_cell_formula_units_Z   1
loop_
 _symmetry_equiv_pos_site_id
 _symmetry_equiv_pos_as_xyz
  1  'x, y, z'
loop_
 _atom_site_type_symbol
 _atom_site_label
 _atom_site_symmetry_multiplicity
 _atom_site_fract_x
 _atom_site_fract_y
 _atom_site_fract_z
 _atom_site_occupancy
  Sm  Sm0  1  0.320416  0.320416  0.674163  1
  Th  Th1  1  0.676742  0.676742  0.331178  1
  Th  Th2  1  0.001288  0.001288  0.997111  1
  As  As3  1  0.342304  0.342304  0.251728  1
  As  As4  1  0.660040  0.660040  0.747088  1
  As  As5  1  0.891790  0.891790  0.824181  1
  As  As6  1  0.106635  0.106635  0.173956  1
  Pd  Pd7  1  0.308363  0.308363  0.024068  1
  Pd  Pd8  1  0.691460  0.691460  0.979508  1
  Pd  Pd9  1  0.512101  0.512101  0.706266  1
  Pd  Pd10  1  0.835399  0.835399  0.425823  1
  Pd  Pd11  1  0.488326  0.488326  0.293343  1
  Pd  Pd12  1  0.163945  0.163945  0.571460  1
  Pd  Pd13  1  0.001190  0.001190  0.500127  1
