# generated using pymatgen
data_Ho4Al16ZnCuPd6
_symmetry_space_group_name_H-M   'P 1'
_cell_length_a   7.57119985
_cell_length_b   7.57119925
_cell_length_c   9.42390100
_cell_angle_alpha   90.00000000
_cell_angle_beta   90.00000000
_cell_angle_gamma   118.66361495
_symmetry_Int_Tables_number   1
_chemical_formula_structural   Ho4Al16ZnCuPd6
_chemical_formula_sum   'Ho4 Al16 Zn1 Cu1 Pd6'
_cell_volume   474.00502778
_cell_formula_units_Z   1
loop_
 _symmetry_equiv_pos_site_id
 _symmetry_equiv_pos_as_xyz
  1  'x, y, z'
loop_
 _atom_site_type_symbol
 _atom_site_label
 _atom_site_symmetry_multiplicity
 _atom_site_fract_x
 _atom_site_fract_y
 _atom_site_fract_z
 _atom_site_occupancy
  Ho  Ho0  1  0.992004  0.675948  0.250000  1
  Ho  Ho1  1  0.005975  0.323716  0.750000  1
  Ho  Ho2  1  0.675948  0.992004  0.250000  1
  Ho  Ho3  1  0.323716  0.005975  0.750000  1
  Al  Al4  1  0.003812  0.330472  0.085047  1
  Al  Al5  1  0.997920  0.664604  0.920185  1
  Al  Al6  1  0.997920  0.664604  0.579815  1
  Al  Al7  1  0.330472  0.003812  0.414953  1
  Al  Al8  1  0.003812  0.330472  0.414953  1
  Al  Al9  1  0.664604  0.997920  0.579815  1
  Al  Al10  1  0.664604  0.997920  0.920185  1
  Al  Al11  1  0.330472  0.003812  0.085047  1
  Al  Al12  1  0.331221  0.331221  0.545981  1
  Al  Al13  1  0.667471  0.667472  0.447418  1
  Al  Al14  1  0.667471  0.667472  0.052582  1
  Al  Al15  1  0.331221  0.331221  0.954019  1
  Al  Al16  1  0.340856  0.547417  0.250000  1
  Al  Al17  1  0.656745  0.449427  0.750000  1
  Al  Al18  1  0.547417  0.340856  0.250000  1
  Al  Al19  1  0.449427  0.656745  0.750000  1
  Zn  Zn20  1  0.857070  0.857070  0.750000  1
  Cu  Cu21  1  0.159706  0.159706  0.250000  1
  Pd  Pd22  1  0.675436  0.326595  0.000195  1
  Pd  Pd23  1  0.326595  0.675436  0.000195  1
  Pd  Pd24  1  0.326595  0.675436  0.499805  1
  Pd  Pd25  1  0.675436  0.326595  0.499805  1
  Pd  Pd26  1  0.998037  0.998037  0.999366  1
  Pd  Pd27  1  0.998037  0.998037  0.500634  1
