# generated using pymatgen
data_YbY2Ga8Ag3
_symmetry_space_group_name_H-M   'P 1'
_cell_length_a   4.35224210
_cell_length_b   8.33782040
_cell_length_c   8.33782073
_cell_angle_alpha   70.44451351
_cell_angle_beta   74.87094572
_cell_angle_gamma   74.87094710
_symmetry_Int_Tables_number   1
_chemical_formula_structural   YbY2Ga8Ag3
_chemical_formula_sum   'Yb1 Y2 Ga8 Ag3'
_cell_volume   270.16966809
_cell_formula_units_Z   1
loop_
 _symmetry_equiv_pos_site_id
 _symmetry_equiv_pos_as_xyz
  1  'x, y, z'
loop_
 _atom_site_type_symbol
 _atom_site_label
 _atom_site_symmetry_multiplicity
 _atom_site_fract_x
 _atom_site_fract_y
 _atom_site_fract_z
 _atom_site_occupancy
  Yb  Yb0  1  0.301770  0.698230  0.698230  1
  Y  Y1  1  0.999604  0.000396  0.000396  1
  Y  Y2  1  0.701391  0.298609  0.298609  1
  Ga  Ga3  1  0.341331  0.288526  0.028813  1
  Ga  Ga4  1  0.661294  0.707193  0.970219  1
  Ga  Ga5  1  0.341331  0.028813  0.288526  1
  Ga  Ga6  1  0.661294  0.970219  0.707193  1
  Ga  Ga7  1  0.140741  0.578390  0.140130  1
  Ga  Ga8  1  0.856480  0.425254  0.861784  1
  Ga  Ga9  1  0.140741  0.140130  0.578390  1
  Ga  Ga10  1  0.856480  0.861784  0.425254  1
  Ag  Ag11  1  0.498952  0.305839  0.696257  1
  Ag  Ag12  1  0.498952  0.696257  0.305839  1
  Ag  Ag13  1  0.999640  0.500360  0.500360  1
