# generated using pymatgen
data_Sc5InB4(OsRh4)2
_symmetry_space_group_name_H-M   'P 1'
_cell_length_a   9.58692200
_cell_length_b   9.58692200
_cell_length_c   3.07814700
_cell_angle_alpha   90.00000000
_cell_angle_beta   90.00000000
_cell_angle_gamma   90.00000000
_symmetry_Int_Tables_number   1
_chemical_formula_structural   Sc5InB4(OsRh4)2
_chemical_formula_sum   'Sc5 In1 B4 Os2 Rh8'
_cell_volume   282.90963866
_cell_formula_units_Z   1
loop_
 _symmetry_equiv_pos_site_id
 _symmetry_equiv_pos_as_xyz
  1  'x, y, z'
loop_
 _atom_site_type_symbol
 _atom_site_label
 _atom_site_symmetry_multiplicity
 _atom_site_fract_x
 _atom_site_fract_y
 _atom_site_fract_z
 _atom_site_occupancy
  Sc  Sc0  1  0.825738  0.325666  0.000000  1
  Sc  Sc1  1  0.325666  0.174262  0.000000  1
  Sc  Sc2  1  0.674334  0.825738  0.000000  1
  Sc  Sc3  1  0.174262  0.674334  0.000000  1
  Sc  Sc4  1  0.500000  0.500000  0.000000  1
  In  In5  1  0.000000  0.000000  0.000000  1
  B  B6  1  0.619712  0.119713  0.000000  1
  B  B7  1  0.119713  0.380288  0.000000  1
  B  B8  1  0.880287  0.619712  0.000000  1
  B  B9  1  0.380288  0.880287  0.000000  1
  Os  Os10  1  0.500000  0.000000  0.500000  1
  Os  Os11  1  0.000000  0.500000  0.500000  1
  Rh  Rh12  1  0.074642  0.222521  0.500000  1
  Rh  Rh13  1  0.222521  0.925358  0.500000  1
  Rh  Rh14  1  0.777479  0.074642  0.500000  1
  Rh  Rh15  1  0.925358  0.777479  0.500000  1
  Rh  Rh16  1  0.426906  0.720783  0.500000  1
  Rh  Rh17  1  0.573094  0.279217  0.500000  1
  Rh  Rh18  1  0.720783  0.573094  0.500000  1
  Rh  Rh19  1  0.279217  0.426906  0.500000  1
