# generated using pymatgen
data_NaAg(S2O7)2
_symmetry_space_group_name_H-M   'P 1'
_cell_length_a   5.39250877
_cell_length_b   7.47914155
_cell_length_c   8.99441947
_cell_angle_alpha   92.24239073
_cell_angle_beta   89.08834573
_cell_angle_gamma   108.92882025
_symmetry_Int_Tables_number   1
_chemical_formula_structural   NaAg(S2O7)2
_chemical_formula_sum   'Na1 Ag1 S4 O14'
_cell_volume   342.87514815
_cell_formula_units_Z   1
loop_
 _symmetry_equiv_pos_site_id
 _symmetry_equiv_pos_as_xyz
  1  'x, y, z'
loop_
 _atom_site_type_symbol
 _atom_site_label
 _atom_site_symmetry_multiplicity
 _atom_site_fract_x
 _atom_site_fract_y
 _atom_site_fract_z
 _atom_site_occupancy
  Na  Na0  1  0.500000  0.000000  0.500000  1
  Ag  Ag1  1  0.000000  0.500000  0.000000  1
  S  S2  1  0.458112  0.638657  0.766348  1
  S  S3  1  0.541888  0.361343  0.233652  1
  S  S4  1  0.091714  0.262489  0.705381  1
  S  S5  1  0.908286  0.737511  0.294619  1
  O  O6  1  0.622754  0.552540  0.839138  1
  O  O7  1  0.377246  0.447460  0.160862  1
  O  O8  1  0.267350  0.695426  0.868859  1
  O  O9  1  0.732650  0.304574  0.131141  1
  O  O10  1  0.577578  0.794971  0.672225  1
  O  O11  1  0.422422  0.205029  0.327775  1
  O  O12  1  0.266244  0.478405  0.651036  1
  O  O13  1  0.733756  0.521595  0.348964  1
  O  O14  1  0.850678  0.230173  0.626905  1
  O  O15  1  0.149322  0.769827  0.373095  1
  O  O16  1  0.243510  0.138934  0.672839  1
  O  O17  1  0.756490  0.861066  0.327161  1
  O  O18  1  0.073921  0.281696  0.873160  1
  O  O19  1  0.926079  0.718304  0.126840  1
