# generated using pymatgen
data_HoZr3(Nb3Si4)2
_symmetry_space_group_name_H-M   'P 1'
_cell_length_a   6.93381400
_cell_length_b   6.93100342
_cell_length_c   12.87535000
_cell_angle_alpha   90.00000000
_cell_angle_beta   90.00000000
_cell_angle_gamma   90.08928750
_symmetry_Int_Tables_number   1
_chemical_formula_structural   HoZr3(Nb3Si4)2
_chemical_formula_sum   'Ho2 Zr6 Nb12 Si16'
_cell_volume   618.76653375
_cell_formula_units_Z   2
loop_
 _symmetry_equiv_pos_site_id
 _symmetry_equiv_pos_as_xyz
  1  'x, y, z'
loop_
 _atom_site_type_symbol
 _atom_site_label
 _atom_site_symmetry_multiplicity
 _atom_site_fract_x
 _atom_site_fract_y
 _atom_site_fract_z
 _atom_site_occupancy
  Ho  Ho0  1  0.338849  0.997451  0.781382  1
  Ho  Ho1  1  0.661151  0.002549  0.281382  1
  Zr  Zr2  1  0.004235  0.343562  0.216826  1
  Zr  Zr3  1  0.995765  0.656438  0.716826  1
  Zr  Zr4  1  0.159410  0.502399  0.468411  1
  Zr  Zr5  1  0.497800  0.840360  0.033189  1
  Zr  Zr6  1  0.840590  0.497601  0.968411  1
  Zr  Zr7  1  0.502200  0.159640  0.533189  1
  Nb  Nb8  1  0.169231  0.170606  0.000337  1
  Nb  Nb9  1  0.830769  0.829394  0.500337  1
  Nb  Nb10  1  0.327853  0.667681  0.250284  1
  Nb  Nb11  1  0.672147  0.332319  0.750284  1
  Nb  Nb12  1  0.152455  0.993678  0.376166  1
  Nb  Nb13  1  0.847545  0.006322  0.876166  1
  Nb  Nb14  1  0.507248  0.653525  0.625393  1
  Nb  Nb15  1  0.347763  0.496768  0.874342  1
  Nb  Nb16  1  0.492752  0.346475  0.125393  1
  Nb  Nb17  1  0.652237  0.503232  0.374342  1
  Nb  Nb18  1  0.997170  0.156266  0.623130  1
  Nb  Nb19  1  0.002830  0.843734  0.123130  1
  Si  Si20  1  0.292948  0.044115  0.186630  1
  Si  Si21  1  0.707052  0.955885  0.686630  1
  Si  Si22  1  0.454619  0.796633  0.437650  1
  Si  Si23  1  0.202496  0.544537  0.062768  1
  Si  Si24  1  0.545381  0.203367  0.937650  1
  Si  Si25  1  0.797504  0.455463  0.562768  1
  Si  Si26  1  0.044659  0.300233  0.813240  1
  Si  Si27  1  0.955341  0.699767  0.313240  1
  Si  Si28  1  0.361557  0.294013  0.322370  1
  Si  Si29  1  0.638443  0.705987  0.822370  1
  Si  Si30  1  0.205790  0.864475  0.570221  1
  Si  Si31  1  0.131487  0.790044  0.930389  1
  Si  Si32  1  0.794210  0.135525  0.070221  1
  Si  Si33  1  0.868513  0.209956  0.430389  1
  Si  Si34  1  0.293164  0.369211  0.677273  1
  Si  Si35  1  0.706836  0.630789  0.177273  1
