# generated using pymatgen
data_PrMnPtO5
_symmetry_space_group_name_H-M   'P 1'
_cell_length_a   6.08868700
_cell_length_b   7.59546100
_cell_length_c   8.88892600
_cell_angle_alpha   90.00000000
_cell_angle_beta   90.00000000
_cell_angle_gamma   90.00000000
_symmetry_Int_Tables_number   1
_chemical_formula_structural   PrMnPtO5
_chemical_formula_sum   'Pr4 Mn4 Pt4 O20'
_cell_volume   411.08069092
_cell_formula_units_Z   4
loop_
 _symmetry_equiv_pos_site_id
 _symmetry_equiv_pos_as_xyz
  1  'x, y, z'
loop_
 _atom_site_type_symbol
 _atom_site_label
 _atom_site_symmetry_multiplicity
 _atom_site_fract_x
 _atom_site_fract_y
 _atom_site_fract_z
 _atom_site_occupancy
  Pr  Pr0  1  0.000000  0.362537  0.669964  1
  Pr  Pr1  1  0.000000  0.637463  0.330036  1
  Pr  Pr2  1  0.000000  0.862537  0.830036  1
  Pr  Pr3  1  0.000000  0.137463  0.169964  1
  Mn  Mn4  1  0.500000  0.083727  0.851641  1
  Mn  Mn5  1  0.500000  0.916273  0.148359  1
  Mn  Mn6  1  0.500000  0.583727  0.648359  1
  Mn  Mn7  1  0.500000  0.416273  0.351641  1
  Pt  Pt8  1  0.254095  0.500000  0.000000  1
  Pt  Pt9  1  0.745905  0.000000  0.500000  1
  Pt  Pt10  1  0.745905  0.500000  0.000000  1
  Pt  Pt11  1  0.254095  0.000000  0.500000  1
  O  O12  1  0.246214  0.899107  0.285766  1
  O  O13  1  0.246214  0.100893  0.714234  1
  O  O14  1  0.753786  0.399107  0.214234  1
  O  O15  1  0.753786  0.600893  0.785766  1
  O  O16  1  0.753786  0.100893  0.714234  1
  O  O17  1  0.753786  0.899107  0.285766  1
  O  O18  1  0.246214  0.600893  0.785766  1
  O  O19  1  0.246214  0.399107  0.214234  1
  O  O20  1  0.500000  0.341807  0.934012  1
  O  O21  1  0.500000  0.658193  0.065988  1
  O  O22  1  0.500000  0.841807  0.565988  1
  O  O23  1  0.500000  0.158193  0.434012  1
  O  O24  1  0.281675  0.000000  0.000000  1
  O  O25  1  0.718325  0.500000  0.500000  1
  O  O26  1  0.718325  0.000000  0.000000  1
  O  O27  1  0.281675  0.500000  0.500000  1
  O  O28  1  0.000000  0.167149  0.442683  1
  O  O29  1  0.000000  0.832851  0.557317  1
  O  O30  1  0.000000  0.667149  0.057317  1
  O  O31  1  0.000000  0.332851  0.942683  1
