# generated using pymatgen
data_TbU9O20
_symmetry_space_group_name_H-M   'P 1'
_cell_length_a   6.62262863
_cell_length_b   7.65210071
_cell_length_c   8.55428855
_cell_angle_alpha   102.98459456
_cell_angle_beta   97.38231840
_cell_angle_gamma   106.75623628
_symmetry_Int_Tables_number   1
_chemical_formula_structural   TbU9O20
_chemical_formula_sum   'Tb1 U9 O20'
_cell_volume   395.71309443
_cell_formula_units_Z   1
loop_
 _symmetry_equiv_pos_site_id
 _symmetry_equiv_pos_as_xyz
  1  'x, y, z'
loop_
 _atom_site_type_symbol
 _atom_site_label
 _atom_site_symmetry_multiplicity
 _atom_site_fract_x
 _atom_site_fract_y
 _atom_site_fract_z
 _atom_site_occupancy
  Tb  Tb0  1  0.999983  0.000002  0.000032  1
  U  U1  1  0.999955  0.499989  0.000026  1
  U  U2  1  0.400644  0.800968  0.801715  1
  U  U3  1  0.397631  0.298775  0.800424  1
  U  U4  1  0.799810  0.100063  0.601306  1
  U  U5  1  0.800641  0.600801  0.600823  1
  U  U6  1  0.199435  0.399230  0.399126  1
  U  U7  1  0.200194  0.899946  0.398651  1
  U  U8  1  0.602361  0.701230  0.199610  1
  U  U9  1  0.599363  0.199066  0.198361  1
  O  O10  1  0.354511  0.076346  0.947949  1
  O  O11  1  0.351502  0.574796  0.950410  1
  O  O12  1  0.050170  0.228510  0.847948  1
  O  O13  1  0.051999  0.720670  0.847235  1
  O  O14  1  0.447350  0.522988  0.649543  1
  O  O15  1  0.448378  0.025333  0.648398  1
  O  O16  1  0.747169  0.374342  0.750433  1
  O  O17  1  0.745000  0.873134  0.746944  1
  O  O18  1  0.150055  0.674885  0.547506  1
  O  O19  1  0.149176  0.174370  0.549381  1
  O  O20  1  0.849848  0.325152  0.452571  1
  O  O21  1  0.552772  0.477041  0.350551  1
  O  O22  1  0.551613  0.974677  0.351673  1
  O  O23  1  0.850834  0.825630  0.450689  1
  O  O24  1  0.254888  0.126771  0.252991  1
  O  O25  1  0.252807  0.625675  0.249531  1
  O  O26  1  0.648485  0.425191  0.049480  1
  O  O27  1  0.645467  0.923601  0.051906  1
  O  O28  1  0.948067  0.279340  0.152718  1
  O  O29  1  0.949891  0.771477  0.152068  1
