# generated using pymatgen
data_Dy3Er13(TmPb4)4
_symmetry_space_group_name_H-M   'P 1'
_cell_length_a   8.15731620
_cell_length_b   8.22663991
_cell_length_c   15.53229304
_cell_angle_alpha   90.00974299
_cell_angle_beta   90.04784868
_cell_angle_gamma   89.97353403
_symmetry_Int_Tables_number   1
_chemical_formula_structural   Dy3Er13(TmPb4)4
_chemical_formula_sum   'Dy3 Er13 Tm4 Pb16'
_cell_volume   1042.32980632
_cell_formula_units_Z   1
loop_
 _symmetry_equiv_pos_site_id
 _symmetry_equiv_pos_as_xyz
  1  'x, y, z'
loop_
 _atom_site_type_symbol
 _atom_site_label
 _atom_site_symmetry_multiplicity
 _atom_site_fract_x
 _atom_site_fract_y
 _atom_site_fract_z
 _atom_site_occupancy
  Dy  Dy0  1  0.963644  0.823106  0.400339  1
  Dy  Dy1  1  0.536362  0.323206  0.599551  1
  Dy  Dy2  1  0.036549  0.176670  0.900441  1
  Er  Er3  1  0.376865  0.841189  0.878991  1
  Er  Er4  1  0.876648  0.658690  0.621182  1
  Er  Er5  1  0.623312  0.158566  0.378734  1
  Er  Er6  1  0.123347  0.341452  0.121165  1
  Er  Er7  1  0.623296  0.158586  0.121084  1
  Er  Er8  1  0.123424  0.341372  0.378883  1
  Er  Er9  1  0.376604  0.841325  0.621099  1
  Er  Er10  1  0.876866  0.658773  0.878933  1
  Er  Er11  1  0.536987  0.323534  0.900034  1
  Er  Er12  1  0.036885  0.176563  0.599998  1
  Er  Er13  1  0.463170  0.676500  0.400110  1
  Er  Er14  1  0.963035  0.823377  0.099988  1
  Er  Er15  1  0.463081  0.676541  0.099758  1
  Tm  Tm16  1  0.208131  0.504568  0.750086  1
  Tm  Tm17  1  0.708088  0.995410  0.750029  1
  Tm  Tm18  1  0.791729  0.495582  0.249859  1
  Tm  Tm19  1  0.292013  0.004504  0.249831  1
  Pb  Pb20  1  0.281545  0.032349  0.043250  1
  Pb  Pb21  1  0.781179  0.466938  0.456846  1
  Pb  Pb22  1  0.718851  0.967003  0.543093  1
  Pb  Pb23  1  0.219563  0.533575  0.957411  1
  Pb  Pb24  1  0.717909  0.966019  0.957539  1
  Pb  Pb25  1  0.217746  0.534100  0.542399  1
  Pb  Pb26  1  0.282323  0.034132  0.457567  1
  Pb  Pb27  1  0.781128  0.466830  0.042567  1
  Pb  Pb28  1  0.571057  0.626850  0.749983  1
  Pb  Pb29  1  0.071109  0.873044  0.750074  1
  Pb  Pb30  1  0.429026  0.373360  0.249893  1
  Pb  Pb31  1  0.928929  0.126921  0.250036  1
  Pb  Pb32  1  0.347995  0.154194  0.750471  1
  Pb  Pb33  1  0.848072  0.345847  0.749569  1
  Pb  Pb34  1  0.651264  0.845116  0.249810  1
  Pb  Pb35  1  0.152268  0.654208  0.249392  1
