# generated using pymatgen
data_Ac3Pr(I3N)2
_symmetry_space_group_name_H-M   'P 1'
_cell_length_a   10.84934942
_cell_length_b   10.84934943
_cell_length_c   13.32317313
_cell_angle_alpha   125.14136127
_cell_angle_beta   125.14136213
_cell_angle_gamma   23.19242003
_symmetry_Int_Tables_number   1
_chemical_formula_structural   Ac3Pr(I3N)2
_chemical_formula_sum   'Ac3 Pr1 I6 N2'
_cell_volume   499.74358470
_cell_formula_units_Z   1
loop_
 _symmetry_equiv_pos_site_id
 _symmetry_equiv_pos_as_xyz
  1  'x, y, z'
loop_
 _atom_site_type_symbol
 _atom_site_label
 _atom_site_symmetry_multiplicity
 _atom_site_fract_x
 _atom_site_fract_y
 _atom_site_fract_z
 _atom_site_occupancy
  Ac  Ac0  1  0.428915  0.428915  0.038255  1
  Ac  Ac1  1  0.133742  0.133742  0.275212  1
  Ac  Ac2  1  0.869367  0.869367  0.723359  1
  Pr  Pr3  1  0.568104  0.568104  0.963391  1
  I  I4  1  0.210775  0.210775  0.116447  1
  I  I5  1  0.966487  0.966487  0.257952  1
  I  I6  1  0.332739  0.332739  0.493211  1
  I  I7  1  0.668377  0.668377  0.505370  1
  I  I8  1  0.037489  0.037489  0.755642  1
  I  I9  1  0.781770  0.781770  0.872454  1
  N  N10  1  0.571189  0.571189  0.144296  1
  N  N11  1  0.431046  0.431046  0.854411  1
