# generated using pymatgen
data_HfSc(SiMo)2
_symmetry_space_group_name_H-M   'P 1'
_cell_length_a   3.49713500
_cell_length_b   7.01791406
_cell_length_c   8.23272707
_cell_angle_alpha   90.01547076
_cell_angle_beta   90.00000000
_cell_angle_gamma   90.00000000
_symmetry_Int_Tables_number   1
_chemical_formula_structural   HfSc(SiMo)2
_chemical_formula_sum   'Hf2 Sc2 Si4 Mo4'
_cell_volume   202.05246169
_cell_formula_units_Z   2
loop_
 _symmetry_equiv_pos_site_id
 _symmetry_equiv_pos_as_xyz
  1  'x, y, z'
loop_
 _atom_site_type_symbol
 _atom_site_label
 _atom_site_symmetry_multiplicity
 _atom_site_fract_x
 _atom_site_fract_y
 _atom_site_fract_z
 _atom_site_occupancy
  Hf  Hf0  1  0.250000  0.542603  0.166389  1
  Hf  Hf1  1  0.750000  0.457397  0.833611  1
  Sc  Sc2  1  0.250000  0.043432  0.333846  1
  Sc  Sc3  1  0.750000  0.956568  0.666154  1
  Si  Si4  1  0.250000  0.258388  0.636564  1
  Si  Si5  1  0.750000  0.741612  0.363436  1
  Si  Si6  1  0.250000  0.758503  0.862788  1
  Si  Si7  1  0.750000  0.241497  0.137212  1
  Mo  Mo8  1  0.750000  0.370616  0.438018  1
  Mo  Mo9  1  0.250000  0.629384  0.561982  1
  Mo  Mo10  1  0.750000  0.867885  0.062199  1
  Mo  Mo11  1  0.250000  0.132115  0.937801  1
