# generated using pymatgen
data_YbSmB6Ru
_symmetry_space_group_name_H-M   'P 1'
_cell_length_a   3.71762200
_cell_length_b   9.10756600
_cell_length_c   11.52197400
_cell_angle_alpha   90.00000000
_cell_angle_beta   90.00000000
_cell_angle_gamma   90.00000000
_symmetry_Int_Tables_number   1
_chemical_formula_structural   YbSmB6Ru
_chemical_formula_sum   'Yb4 Sm4 B24 Ru4'
_cell_volume   390.11661528
_cell_formula_units_Z   4
loop_
 _symmetry_equiv_pos_site_id
 _symmetry_equiv_pos_as_xyz
  1  'x, y, z'
loop_
 _atom_site_type_symbol
 _atom_site_label
 _atom_site_symmetry_multiplicity
 _atom_site_fract_x
 _atom_site_fract_y
 _atom_site_fract_z
 _atom_site_occupancy
  Yb  Yb0  1  0.000000  0.940721  0.366477  1
  Yb  Yb1  1  0.000000  0.059279  0.633523  1
  Yb  Yb2  1  0.000000  0.440721  0.133523  1
  Yb  Yb3  1  0.000000  0.559279  0.866477  1
  Sm  Sm4  1  0.000000  0.321763  0.413990  1
  Sm  Sm5  1  0.000000  0.678237  0.586010  1
  Sm  Sm6  1  0.000000  0.821763  0.086010  1
  Sm  Sm7  1  0.000000  0.178237  0.913990  1
  B  B8  1  0.500000  0.555259  0.431448  1
  B  B9  1  0.500000  0.444741  0.568552  1
  B  B10  1  0.500000  0.055259  0.068552  1
  B  B11  1  0.500000  0.944741  0.931448  1
  B  B12  1  0.500000  0.750546  0.416526  1
  B  B13  1  0.500000  0.249454  0.583474  1
  B  B14  1  0.500000  0.250546  0.083474  1
  B  B15  1  0.500000  0.749454  0.916526  1
  B  B16  1  0.500000  0.789272  0.265043  1
  B  B17  1  0.500000  0.210728  0.734957  1
  B  B18  1  0.500000  0.289272  0.234957  1
  B  B19  1  0.500000  0.710728  0.765043  1
  B  B20  1  0.500000  0.627711  0.185708  1
  B  B21  1  0.500000  0.372289  0.814292  1
  B  B22  1  0.500000  0.127711  0.314292  1
  B  B23  1  0.500000  0.872289  0.685708  1
  B  B24  1  0.500000  0.983305  0.212077  1
  B  B25  1  0.500000  0.016695  0.787923  1
  B  B26  1  0.500000  0.483305  0.287923  1
  B  B27  1  0.500000  0.516695  0.712077  1
  B  B28  1  0.500000  0.593752  0.026109  1
  B  B29  1  0.500000  0.406248  0.973891  1
  B  B30  1  0.500000  0.093752  0.473891  1
  B  B31  1  0.500000  0.906248  0.526109  1
  Ru  Ru32  1  0.000000  0.638333  0.319887  1
  Ru  Ru33  1  0.000000  0.361667  0.680113  1
  Ru  Ru34  1  0.000000  0.138333  0.180113  1
  Ru  Ru35  1  0.000000  0.861667  0.819887  1
