# generated using pymatgen
data_Y2Sn(AsRh2)6
_symmetry_space_group_name_H-M   'P 1'
_cell_length_a   10.06730100
_cell_length_b   10.06730089
_cell_length_c   3.95089400
_cell_angle_alpha   90.00000000
_cell_angle_beta   90.00000000
_cell_angle_gamma   120.00000364
_symmetry_Int_Tables_number   1
_chemical_formula_structural   Y2Sn(AsRh2)6
_chemical_formula_sum   'Y2 Sn1 As6 Rh12'
_cell_volume   346.77844629
_cell_formula_units_Z   1
loop_
 _symmetry_equiv_pos_site_id
 _symmetry_equiv_pos_as_xyz
  1  'x, y, z'
loop_
 _atom_site_type_symbol
 _atom_site_label
 _atom_site_symmetry_multiplicity
 _atom_site_fract_x
 _atom_site_fract_y
 _atom_site_fract_z
 _atom_site_occupancy
  Y  Y0  1  0.333333  0.666667  0.751162  1
  Y  Y1  1  0.000000  0.000000  0.249727  1
  Sn  Sn2  1  0.666667  0.333333  0.590008  1
  As  As3  1  0.955245  0.215662  0.747940  1
  As  As4  1  0.784338  0.739583  0.747940  1
  As  As5  1  0.260417  0.044755  0.747940  1
  As  As6  1  0.377427  0.448989  0.253339  1
  As  As7  1  0.551011  0.928438  0.253339  1
  As  As8  1  0.071562  0.622573  0.253339  1
  Rh  Rh9  1  0.733820  0.951353  0.749959  1
  Rh  Rh10  1  0.048647  0.782467  0.749959  1
  Rh  Rh11  1  0.217533  0.266180  0.749959  1
  Rh  Rh12  1  0.602100  0.718613  0.252418  1
  Rh  Rh13  1  0.281387  0.883488  0.252418  1
  Rh  Rh14  1  0.116512  0.397900  0.252418  1
  Rh  Rh15  1  0.954252  0.459477  0.756733  1
  Rh  Rh16  1  0.540523  0.494775  0.756733  1
  Rh  Rh17  1  0.505225  0.045748  0.756733  1
  Rh  Rh18  1  0.393930  0.212100  0.244040  1
  Rh  Rh19  1  0.787900  0.181830  0.244040  1
  Rh  Rh20  1  0.818170  0.606070  0.244040  1
