# generated using pymatgen
data_Mn24Mo5
_symmetry_space_group_name_H-M   'P 1'
_cell_length_a   7.59687975
_cell_length_b   7.59687917
_cell_length_c   7.59687900
_cell_angle_alpha   109.47122018
_cell_angle_beta   109.47121865
_cell_angle_gamma   109.47122038
_symmetry_Int_Tables_number   1
_chemical_formula_structural   Mn24Mo5
_chemical_formula_sum   'Mn24 Mo5'
_cell_volume   337.50779197
_cell_formula_units_Z   1
loop_
 _symmetry_equiv_pos_site_id
 _symmetry_equiv_pos_as_xyz
  1  'x, y, z'
loop_
 _atom_site_type_symbol
 _atom_site_label
 _atom_site_symmetry_multiplicity
 _atom_site_fract_x
 _atom_site_fract_y
 _atom_site_fract_z
 _atom_site_occupancy
  Mn  Mn0  1  0.324485  0.324485  0.714964  1
  Mn  Mn1  1  0.390479  0.675515  0.000000  1
  Mn  Mn2  1  0.675515  0.390479  0.000000  1
  Mn  Mn3  1  0.609521  0.285036  0.609521  1
  Mn  Mn4  1  0.390479  0.000000  0.675515  1
  Mn  Mn5  1  0.000000  0.390479  0.675515  1
  Mn  Mn6  1  0.285036  0.609521  0.609521  1
  Mn  Mn7  1  0.714964  0.324485  0.324485  1
  Mn  Mn8  1  0.324485  0.714964  0.324485  1
  Mn  Mn9  1  0.675515  0.000000  0.390479  1
  Mn  Mn10  1  0.000000  0.675515  0.390479  1
  Mn  Mn11  1  0.609521  0.609521  0.285036  1
  Mn  Mn12  1  0.803873  0.803873  0.180722  1
  Mn  Mn13  1  0.376850  0.196127  0.000000  1
  Mn  Mn14  1  0.196127  0.376850  0.000000  1
  Mn  Mn15  1  0.623150  0.819278  0.623150  1
  Mn  Mn16  1  0.376850  0.000000  0.196127  1
  Mn  Mn17  1  0.000000  0.376850  0.196127  1
  Mn  Mn18  1  0.819278  0.623150  0.623150  1
  Mn  Mn19  1  0.180722  0.803873  0.803873  1
  Mn  Mn20  1  0.803873  0.180722  0.803873  1
  Mn  Mn21  1  0.196127  0.000000  0.376850  1
  Mn  Mn22  1  0.000000  0.196127  0.376850  1
  Mn  Mn23  1  0.623150  0.623150  0.819278  1
  Mo  Mo24  1  0.000000  0.000000  0.000000  1
  Mo  Mo25  1  0.000000  0.000000  0.632082  1
  Mo  Mo26  1  0.632082  0.000000  0.000000  1
  Mo  Mo27  1  0.000000  0.632082  0.000000  1
  Mo  Mo28  1  0.367918  0.367918  0.367918  1
