# generated using pymatgen
data_TbTh2(MgPt)3
_symmetry_space_group_name_H-M   'P 1'
_cell_length_a   7.65028187
_cell_length_b   7.65028219
_cell_length_c   4.00974200
_cell_angle_alpha   90.00000000
_cell_angle_beta   90.00000000
_cell_angle_gamma   120.61867515
_symmetry_Int_Tables_number   1
_chemical_formula_structural   TbTh2(MgPt)3
_chemical_formula_sum   'Tb1 Th2 Mg3 Pt3'
_cell_volume   201.95777776
_cell_formula_units_Z   1
loop_
 _symmetry_equiv_pos_site_id
 _symmetry_equiv_pos_as_xyz
  1  'x, y, z'
loop_
 _atom_site_type_symbol
 _atom_site_label
 _atom_site_symmetry_multiplicity
 _atom_site_fract_x
 _atom_site_fract_y
 _atom_site_fract_z
 _atom_site_occupancy
  Tb  Tb0  1  0.409154  0.409154  0.000000  1
  Th  Th1  1  0.584261  0.001535  0.000000  1
  Th  Th2  1  0.001535  0.584261  0.000000  1
  Mg  Mg3  1  0.241590  0.007248  0.500000  1
  Mg  Mg4  1  0.007248  0.241590  0.500000  1
  Mg  Mg5  1  0.751541  0.751541  0.500000  1
  Pt  Pt6  1  0.332655  0.675486  0.500000  1
  Pt  Pt7  1  0.675486  0.332655  0.500000  1
  Pt  Pt8  1  0.996529  0.996529  0.000000  1
