# generated using pymatgen
data_Tb12CoSi8Ni3
_symmetry_space_group_name_H-M   'P 1'
_cell_length_a   4.14637900
_cell_length_b   11.29059327
_cell_length_c   11.39514627
_cell_angle_alpha   89.97500155
_cell_angle_beta   90.00000000
_cell_angle_gamma   90.00000000
_symmetry_Int_Tables_number   1
_chemical_formula_structural   Tb12CoSi8Ni3
_chemical_formula_sum   'Tb12 Co1 Si8 Ni3'
_cell_volume   533.46462015
_cell_formula_units_Z   1
loop_
 _symmetry_equiv_pos_site_id
 _symmetry_equiv_pos_as_xyz
  1  'x, y, z'
loop_
 _atom_site_type_symbol
 _atom_site_label
 _atom_site_symmetry_multiplicity
 _atom_site_fract_x
 _atom_site_fract_y
 _atom_site_fract_z
 _atom_site_occupancy
  Tb  Tb0  1  0.250000  0.059073  0.882753  1
  Tb  Tb1  1  0.250000  0.440052  0.383257  1
  Tb  Tb2  1  0.750000  0.941015  0.117989  1
  Tb  Tb3  1  0.750000  0.557379  0.617911  1
  Tb  Tb4  1  0.250000  0.127612  0.558944  1
  Tb  Tb5  1  0.250000  0.375112  0.057634  1
  Tb  Tb6  1  0.750000  0.875900  0.441962  1
  Tb  Tb7  1  0.750000  0.625538  0.942099  1
  Tb  Tb8  1  0.250000  0.804215  0.714616  1
  Tb  Tb9  1  0.250000  0.694832  0.214630  1
  Tb  Tb10  1  0.750000  0.195998  0.285797  1
  Tb  Tb11  1  0.750000  0.303074  0.782863  1
  Co  Co12  1  0.250000  0.365180  0.630891  1
  Si  Si13  1  0.250000  0.814287  0.974393  1
  Si  Si14  1  0.250000  0.686014  0.473662  1
  Si  Si15  1  0.750000  0.185495  0.025934  1
  Si  Si16  1  0.750000  0.315018  0.525635  1
  Si  Si17  1  0.250000  0.494906  0.801719  1
  Si  Si18  1  0.250000  0.004392  0.302228  1
  Si  Si19  1  0.750000  0.504093  0.197119  1
  Si  Si20  1  0.750000  0.995441  0.696986  1
  Ni  Ni21  1  0.250000  0.134162  0.129805  1
  Ni  Ni22  1  0.750000  0.633995  0.370592  1
  Ni  Ni23  1  0.750000  0.867216  0.870581  1
