# generated using pymatgen
data_Nd4HfZr(AlPt2)2
_symmetry_space_group_name_H-M   'P 1'
_cell_length_a   4.53818500
_cell_length_b   7.42441895
_cell_length_c   8.04153656
_cell_angle_alpha   90.15695205
_cell_angle_beta   90.00000000
_cell_angle_gamma   90.00000000
_symmetry_Int_Tables_number   1
_chemical_formula_structural   Nd4HfZr(AlPt2)2
_chemical_formula_sum   'Nd4 Hf1 Zr1 Al2 Pt4'
_cell_volume   270.94558443
_cell_formula_units_Z   1
loop_
 _symmetry_equiv_pos_site_id
 _symmetry_equiv_pos_as_xyz
  1  'x, y, z'
loop_
 _atom_site_type_symbol
 _atom_site_label
 _atom_site_symmetry_multiplicity
 _atom_site_fract_x
 _atom_site_fract_y
 _atom_site_fract_z
 _atom_site_occupancy
  Nd  Nd0  1  0.750000  0.452261  0.176129  1
  Nd  Nd1  1  0.250000  0.047319  0.676532  1
  Nd  Nd2  1  0.750000  0.987385  0.325595  1
  Nd  Nd3  1  0.250000  0.514614  0.826259  1
  Hf  Hf4  1  0.750000  0.869534  0.934849  1
  Zr  Zr5  1  0.250000  0.629874  0.435697  1
  Al  Al6  1  0.750000  0.360366  0.567102  1
  Al  Al7  1  0.250000  0.140010  0.066568  1
  Pt  Pt8  1  0.750000  0.720379  0.617604  1
  Pt  Pt9  1  0.750000  0.222410  0.882463  1
  Pt  Pt10  1  0.250000  0.272158  0.381342  1
  Pt  Pt11  1  0.250000  0.783691  0.109862  1
