# generated using pymatgen
data_Na4LaPr3Te8
_symmetry_space_group_name_H-M   'P 1'
_cell_length_a   9.23346657
_cell_length_b   9.18925892
_cell_length_c   9.18925800
_cell_angle_alpha   59.99999611
_cell_angle_beta   60.15824809
_cell_angle_gamma   60.15824508
_symmetry_Int_Tables_number   1
_chemical_formula_structural   Na4LaPr3Te8
_chemical_formula_sum   'Na4 La1 Pr3 Te8'
_cell_volume   552.64387463
_cell_formula_units_Z   1
loop_
 _symmetry_equiv_pos_site_id
 _symmetry_equiv_pos_as_xyz
  1  'x, y, z'
loop_
 _atom_site_type_symbol
 _atom_site_label
 _atom_site_symmetry_multiplicity
 _atom_site_fract_x
 _atom_site_fract_y
 _atom_site_fract_z
 _atom_site_occupancy
  Na  Na0  1  0.125000  0.625000  0.125000  1
  Na  Na1  1  0.125000  0.125000  0.625000  1
  Na  Na2  1  0.625000  0.125000  0.125000  1
  Na  Na3  1  0.125000  0.125000  0.125000  1
  La  La4  1  0.125000  0.625000  0.625000  1
  Pr  Pr5  1  0.625000  0.125000  0.625000  1
  Pr  Pr6  1  0.625000  0.625000  0.625000  1
  Pr  Pr7  1  0.625000  0.625000  0.125000  1
  Te  Te8  1  0.379701  0.866700  0.376799  1
  Te  Te9  1  0.870299  0.383300  0.873201  1
  Te  Te10  1  0.870299  0.873201  0.383300  1
  Te  Te11  1  0.870299  0.873201  0.873201  1
  Te  Te12  1  0.865912  0.378029  0.378029  1
  Te  Te13  1  0.379701  0.376799  0.866700  1
  Te  Te14  1  0.379701  0.376799  0.376799  1
  Te  Te15  1  0.384088  0.871971  0.871971  1
