# generated using pymatgen
data_Tb19Tm(Ir5Au)2
_symmetry_space_group_name_H-M   'P 1'
_cell_length_a   11.09981088
_cell_length_b   11.04521201
_cell_length_c   6.34847009
_cell_angle_alpha   90.00291088
_cell_angle_beta   89.86212583
_cell_angle_gamma   90.00216623
_symmetry_Int_Tables_number   1
_chemical_formula_structural   Tb19Tm(Ir5Au)2
_chemical_formula_sum   'Tb19 Tm1 Ir10 Au2'
_cell_volume   778.31868190
_cell_formula_units_Z   1
loop_
 _symmetry_equiv_pos_site_id
 _symmetry_equiv_pos_as_xyz
  1  'x, y, z'
loop_
 _atom_site_type_symbol
 _atom_site_label
 _atom_site_symmetry_multiplicity
 _atom_site_fract_x
 _atom_site_fract_y
 _atom_site_fract_z
 _atom_site_occupancy
  Tb  Tb0  1  0.291690  0.088680  0.372122  1
  Tb  Tb1  1  0.291652  0.911401  0.872299  1
  Tb  Tb2  1  0.697951  0.092174  0.865641  1
  Tb  Tb3  1  0.697941  0.907732  0.365337  1
  Tb  Tb4  1  0.578021  0.789361  0.877580  1
  Tb  Tb5  1  0.577882  0.211237  0.377963  1
  Tb  Tb6  1  0.408713  0.789919  0.376910  1
  Tb  Tb7  1  0.408413  0.209688  0.876710  1
  Tb  Tb8  1  0.210769  0.411696  0.621114  1
  Tb  Tb9  1  0.210318  0.588566  0.121258  1
  Tb  Tb10  1  0.789348  0.419552  0.122816  1
  Tb  Tb11  1  0.788914  0.580249  0.622633  1
  Tb  Tb12  1  0.917239  0.705369  0.138844  1
  Tb  Tb13  1  0.917095  0.294622  0.639038  1
  Tb  Tb14  1  0.096462  0.703056  0.623925  1
  Tb  Tb15  1  0.096386  0.297005  0.123558  1
  Tb  Tb16  1  0.008845  0.997417  0.499922  1
  Tb  Tb17  1  0.009032  0.002510  0.999991  1
  Tb  Tb18  1  0.499845  0.498810  0.000600  1
  Tm  Tm19  1  0.499780  0.501189  0.500579  1
  Ir  Ir20  1  0.154093  0.153879  0.750717  1
  Ir  Ir21  1  0.153999  0.845948  0.250553  1
  Ir  Ir22  1  0.655075  0.347483  0.746510  1
  Ir  Ir23  1  0.654920  0.652480  0.250092  1
  Ir  Ir24  1  0.348610  0.347069  0.253178  1
  Ir  Ir25  1  0.348727  0.652927  0.749810  1
  Ir  Ir26  1  0.499553  0.999445  0.119924  1
  Ir  Ir27  1  0.499614  0.000466  0.619817  1
  Ir  Ir28  1  0.999835  0.501079  0.879983  1
  Ir  Ir29  1  0.999841  0.498932  0.380000  1
  Au  Au30  1  0.844761  0.155306  0.250350  1
  Au  Au31  1  0.844680  0.844753  0.750226  1
