# generated using pymatgen
data_CeNb6TcS12
_symmetry_space_group_name_H-M   'P 1'
_cell_length_a   5.83028900
_cell_length_b   5.83028928
_cell_length_c   13.35057000
_cell_angle_alpha   90.00000000
_cell_angle_beta   90.00000000
_cell_angle_gamma   119.99999272
_symmetry_Int_Tables_number   1
_chemical_formula_structural   CeNb6TcS12
_chemical_formula_sum   'Ce1 Nb6 Tc1 S12'
_cell_volume   393.01638641
_cell_formula_units_Z   1
loop_
 _symmetry_equiv_pos_site_id
 _symmetry_equiv_pos_as_xyz
  1  'x, y, z'
loop_
 _atom_site_type_symbol
 _atom_site_label
 _atom_site_symmetry_multiplicity
 _atom_site_fract_x
 _atom_site_fract_y
 _atom_site_fract_z
 _atom_site_occupancy
  Ce  Ce0  1  0.333333  0.666667  0.250000  1
  Nb  Nb1  1  0.000000  0.000000  0.526493  1
  Nb  Nb2  1  0.000000  0.000000  0.973507  1
  Nb  Nb3  1  0.333333  0.666667  0.974340  1
  Nb  Nb4  1  0.666667  0.333333  0.977820  1
  Nb  Nb5  1  0.666667  0.333333  0.522180  1
  Nb  Nb6  1  0.333333  0.666667  0.525660  1
  Tc  Tc7  1  0.666667  0.333333  0.750000  1
  S  S8  1  0.329801  0.329746  0.405628  1
  S  S9  1  0.670254  0.000057  0.405628  1
  S  S10  1  0.999943  0.670199  0.405628  1
  S  S11  1  0.337229  0.333206  0.641533  1
  S  S12  1  0.995976  0.662771  0.641533  1
  S  S13  1  0.666794  0.004024  0.641533  1
  S  S14  1  0.666794  0.662771  0.858467  1
  S  S15  1  0.337229  0.004024  0.858467  1
  S  S16  1  0.995976  0.333206  0.858467  1
  S  S17  1  0.670254  0.670199  0.094372  1
  S  S18  1  0.999943  0.329746  0.094372  1
  S  S19  1  0.329801  0.000057  0.094372  1
