# generated using pymatgen
data_Tm8Sc12Ga15Bi
_symmetry_space_group_name_H-M   'P 1'
_cell_length_a   7.25363457
_cell_length_b   7.54254865
_cell_length_c   14.49781542
_cell_angle_alpha   90.10598524
_cell_angle_beta   89.53050897
_cell_angle_gamma   89.97402976
_symmetry_Int_Tables_number   1
_chemical_formula_structural   Tm8Sc12Ga15Bi
_chemical_formula_sum   'Tm8 Sc12 Ga15 Bi1'
_cell_volume   793.16033421
_cell_formula_units_Z   1
loop_
 _symmetry_equiv_pos_site_id
 _symmetry_equiv_pos_as_xyz
  1  'x, y, z'
loop_
 _atom_site_type_symbol
 _atom_site_label
 _atom_site_symmetry_multiplicity
 _atom_site_fract_x
 _atom_site_fract_y
 _atom_site_fract_z
 _atom_site_occupancy
  Tm  Tm0  1  0.011207  0.179337  0.094476  1
  Tm  Tm1  1  0.989960  0.822252  0.906277  1
  Tm  Tm2  1  0.489381  0.677072  0.906222  1
  Tm  Tm3  1  0.990085  0.829898  0.597025  1
  Tm  Tm4  1  0.510805  0.322029  0.094563  1
  Tm  Tm5  1  0.000279  0.172048  0.399839  1
  Tm  Tm6  1  0.512881  0.313218  0.399380  1
  Tm  Tm7  1  0.509655  0.689334  0.599990  1
  Sc  Sc8  1  0.166052  0.502827  0.756782  1
  Sc  Sc9  1  0.832969  0.496481  0.248856  1
  Sc  Sc10  1  0.332807  0.005565  0.249389  1
  Sc  Sc11  1  0.669828  0.997273  0.753092  1
  Sc  Sc12  1  0.344335  0.154115  0.630155  1
  Sc  Sc13  1  0.661705  0.831286  0.372706  1
  Sc  Sc14  1  0.160026  0.682616  0.369337  1
  Sc  Sc15  1  0.667860  0.825201  0.122522  1
  Sc  Sc16  1  0.823902  0.325720  0.626071  1
  Sc  Sc17  1  0.330410  0.174125  0.877258  1
  Sc  Sc18  1  0.831005  0.326015  0.877167  1
  Sc  Sc19  1  0.169373  0.673968  0.123748  1
  Ga  Ga20  1  0.035335  0.117345  0.750014  1
  Ga  Ga21  1  0.963318  0.886256  0.246139  1
  Ga  Ga22  1  0.464921  0.614180  0.249807  1
  Ga  Ga23  1  0.533730  0.384976  0.752266  1
  Ga  Ga24  1  0.287522  0.865401  0.752562  1
  Ga  Ga25  1  0.711559  0.129513  0.247166  1
  Ga  Ga26  1  0.210742  0.370706  0.250524  1
  Ga  Ga27  1  0.791640  0.630468  0.750895  1
  Ga  Ga28  1  0.818681  0.538941  0.457451  1
  Ga  Ga29  1  0.333825  0.964758  0.460396  1
  Ga  Ga30  1  0.838896  0.532854  0.040924  1
  Ga  Ga31  1  0.666414  0.038055  0.537287  1
  Ga  Ga32  1  0.160252  0.465986  0.960685  1
  Ga  Ga33  1  0.660404  0.034219  0.959534  1
  Ga  Ga34  1  0.338929  0.965756  0.040812  1
  Bi  Bi35  1  0.179302  0.460204  0.538679  1
