# generated using pymatgen
data_Er4MoRu7
_symmetry_space_group_name_H-M   'P 1'
_cell_length_a   5.45882400
_cell_length_b   5.16974714
_cell_length_c   8.99749900
_cell_angle_alpha   90.00000000
_cell_angle_beta   90.00000000
_cell_angle_gamma   121.86762311
_symmetry_Int_Tables_number   1
_chemical_formula_structural   Er4MoRu7
_chemical_formula_sum   'Er4 Mo1 Ru7'
_cell_volume   215.64334895
_cell_formula_units_Z   1
loop_
 _symmetry_equiv_pos_site_id
 _symmetry_equiv_pos_as_xyz
  1  'x, y, z'
loop_
 _atom_site_type_symbol
 _atom_site_label
 _atom_site_symmetry_multiplicity
 _atom_site_fract_x
 _atom_site_fract_y
 _atom_site_fract_z
 _atom_site_occupancy
  Er  Er0  1  0.332895  0.665792  0.431265  1
  Er  Er1  1  0.670833  0.341666  0.563231  1
  Er  Er2  1  0.670833  0.341666  0.936769  1
  Er  Er3  1  0.332895  0.665792  0.068735  1
  Mo  Mo4  1  0.165172  0.330344  0.750000  1
  Ru  Ru5  1  0.168126  0.821078  0.750000  1
  Ru  Ru6  1  0.336368  0.166242  0.250000  1
  Ru  Ru7  1  0.826037  0.652074  0.250000  1
  Ru  Ru8  1  0.652952  0.821078  0.750000  1
  Ru  Ru9  1  0.007007  0.014013  0.001298  1
  Ru  Ru10  1  0.829874  0.166242  0.250000  1
  Ru  Ru11  1  0.007007  0.014013  0.498702  1
