# generated using pymatgen
data_Dy5YReB14Ru
_symmetry_space_group_name_H-M   'P 1'
_cell_length_a   8.07603005
_cell_length_b   8.07602990
_cell_length_c   9.34445300
_cell_angle_alpha   90.00000000
_cell_angle_beta   90.00000000
_cell_angle_gamma   154.71300793
_symmetry_Int_Tables_number   1
_chemical_formula_structural   Dy5YReB14Ru
_chemical_formula_sum   'Dy5 Y1 Re1 B14 Ru1'
_cell_volume   260.33513222
_cell_formula_units_Z   1
loop_
 _symmetry_equiv_pos_site_id
 _symmetry_equiv_pos_as_xyz
  1  'x, y, z'
loop_
 _atom_site_type_symbol
 _atom_site_label
 _atom_site_symmetry_multiplicity
 _atom_site_fract_x
 _atom_site_fract_y
 _atom_site_fract_z
 _atom_site_occupancy
  Dy  Dy0  1  0.894642  0.105358  0.439946  1
  Dy  Dy1  1  0.105554  0.894446  0.560865  1
  Dy  Dy2  1  0.894642  0.105358  0.060054  1
  Dy  Dy3  1  0.105554  0.894446  0.939135  1
  Dy  Dy4  1  0.756825  0.243175  0.750000  1
  Y  Y5  1  0.243350  0.756650  0.250000  1
  Re  Re6  1  0.947116  0.052884  0.750000  1
  B  B7  1  0.726791  0.273209  0.465584  1
  B  B8  1  0.272633  0.727367  0.533389  1
  B  B9  1  0.726791  0.273209  0.034416  1
  B  B10  1  0.272633  0.727367  0.966611  1
  B  B11  1  0.631329  0.368671  0.151521  1
  B  B12  1  0.367805  0.632195  0.849044  1
  B  B13  1  0.631329  0.368671  0.348479  1
  B  B14  1  0.367805  0.632195  0.650956  1
  B  B15  1  0.520735  0.479265  0.096531  1
  B  B16  1  0.479403  0.520597  0.904385  1
  B  B17  1  0.520735  0.479265  0.403469  1
  B  B18  1  0.479403  0.520597  0.595615  1
  B  B19  1  0.457536  0.542464  0.250000  1
  B  B20  1  0.543443  0.456557  0.750000  1
  Ru  Ru21  1  0.053945  0.946055  0.250000  1
