# generated using pymatgen
data_Ho2Lu10Co5Sb
_symmetry_space_group_name_H-M   'P 1'
_cell_length_a   8.11018526
_cell_length_b   8.12239517
_cell_length_c   8.12235232
_cell_angle_alpha   111.23435128
_cell_angle_beta   110.79183251
_cell_angle_gamma   106.48727298
_symmetry_Int_Tables_number   1
_chemical_formula_structural   Ho2Lu10Co5Sb
_chemical_formula_sum   'Ho2 Lu10 Co5 Sb1'
_cell_volume   410.73755308
_cell_formula_units_Z   1
loop_
 _symmetry_equiv_pos_site_id
 _symmetry_equiv_pos_as_xyz
  1  'x, y, z'
loop_
 _atom_site_type_symbol
 _atom_site_label
 _atom_site_symmetry_multiplicity
 _atom_site_fract_x
 _atom_site_fract_y
 _atom_site_fract_z
 _atom_site_occupancy
  Ho  Ho0  1  0.981227  0.786413  0.194809  1
  Ho  Ho1  1  0.018773  0.213587  0.805191  1
  Lu  Lu2  1  0.815773  0.713372  0.531198  1
  Lu  Lu3  1  0.184227  0.286628  0.468802  1
  Lu  Lu4  1  0.184254  0.715423  0.897611  1
  Lu  Lu5  1  0.815746  0.284577  0.102389  1
  Lu  Lu6  1  0.684597  0.378164  0.690464  1
  Lu  Lu7  1  0.315403  0.621836  0.309536  1
  Lu  Lu8  1  0.684601  0.994134  0.306436  1
  Lu  Lu9  1  0.315399  0.005866  0.693564  1
  Lu  Lu10  1  0.590705  0.786180  0.804528  1
  Lu  Lu11  1  0.409295  0.213820  0.195472  1
  Co  Co12  1  0.626559  0.998778  0.627803  1
  Co  Co13  1  0.373441  0.001222  0.372197  1
  Co  Co14  1  0.114621  0.612851  0.501784  1
  Co  Co15  1  0.885379  0.387149  0.498216  1
  Co  Co16  1  0.000000  0.000000  0.000000  1
  Sb  Sb17  1  0.500000  0.500000  0.000000  1
