# generated using pymatgen
data_LaCo3Si2
_symmetry_space_group_name_H-M   'P 1'
_cell_length_a   5.39154758
_cell_length_b   6.39994077
_cell_length_c   6.39994014
_cell_angle_alpha   64.48476755
_cell_angle_beta   65.08845632
_cell_angle_gamma   65.08845559
_symmetry_Int_Tables_number   1
_chemical_formula_structural   LaCo3Si2
_chemical_formula_sum   'La2 Co6 Si4'
_cell_volume   172.82340851
_cell_formula_units_Z   2
loop_
 _symmetry_equiv_pos_site_id
 _symmetry_equiv_pos_as_xyz
  1  'x, y, z'
loop_
 _atom_site_type_symbol
 _atom_site_label
 _atom_site_symmetry_multiplicity
 _atom_site_fract_x
 _atom_site_fract_y
 _atom_site_fract_z
 _atom_site_occupancy
  La  La0  1  0.541161  0.750000  0.750000  1
  La  La1  1  0.458839  0.250000  0.250000  1
  Co  Co2  1  0.500000  0.218386  0.781614  1
  Co  Co3  1  0.000000  0.718386  0.281614  1
  Co  Co4  1  0.500000  0.781614  0.218386  1
  Co  Co5  1  0.000000  0.281614  0.718386  1
  Co  Co6  1  0.000000  0.500000  0.000000  1
  Co  Co7  1  0.000000  0.000000  0.500000  1
  Si  Si8  1  0.221645  0.578679  0.578679  1
  Si  Si9  1  0.778355  0.421321  0.421321  1
  Si  Si10  1  0.120995  0.078679  0.078679  1
  Si  Si11  1  0.879005  0.921321  0.921321  1
