# generated using pymatgen
data_GdCO3F
_symmetry_space_group_name_H-M   'P 1'
_cell_length_a   4.48053502
_cell_length_b   6.44686359
_cell_length_c   6.91881240
_cell_angle_alpha   90.10232573
_cell_angle_beta   91.17953346
_cell_angle_gamma   92.49766003
_symmetry_Int_Tables_number   1
_chemical_formula_structural   GdCO3F
_chemical_formula_sum   'Gd2 C2 O6 F2'
_cell_volume   199.61976235
_cell_formula_units_Z   2
loop_
 _symmetry_equiv_pos_site_id
 _symmetry_equiv_pos_as_xyz
  1  'x, y, z'
loop_
 _atom_site_type_symbol
 _atom_site_label
 _atom_site_symmetry_multiplicity
 _atom_site_fract_x
 _atom_site_fract_y
 _atom_site_fract_z
 _atom_site_occupancy
  Gd  Gd0  1  0.501726  0.336067  0.249718  1
  Gd  Gd1  1  0.498273  0.663933  0.750282  1
  C  C2  1  0.507952  0.790759  0.250041  1
  C  C3  1  0.492046  0.209241  0.749959  1
  O  O4  1  0.528836  0.680320  0.092234  1
  O  O5  1  0.491822  0.985676  0.249503  1
  O  O6  1  0.502679  0.679970  0.408641  1
  O  O7  1  0.497323  0.320030  0.591359  1
  O  O8  1  0.508180  0.014323  0.750497  1
  O  O9  1  0.471163  0.319680  0.907765  1
  F  F10  1  0.001572  0.342040  0.248719  1
  F  F11  1  0.998427  0.657960  0.751281  1
