# generated using pymatgen
data_K3Ba3ScAs4
_symmetry_space_group_name_H-M   'P 1'
_cell_length_a   10.71500700
_cell_length_b   10.71500789
_cell_length_c   8.08463500
_cell_angle_alpha   90.00000000
_cell_angle_beta   90.00000000
_cell_angle_gamma   120.00000035
_symmetry_Int_Tables_number   1
_chemical_formula_structural   K3Ba3ScAs4
_chemical_formula_sum   'K6 Ba6 Sc2 As8'
_cell_volume   803.85182444
_cell_formula_units_Z   2
loop_
 _symmetry_equiv_pos_site_id
 _symmetry_equiv_pos_as_xyz
  1  'x, y, z'
loop_
 _atom_site_type_symbol
 _atom_site_label
 _atom_site_symmetry_multiplicity
 _atom_site_fract_x
 _atom_site_fract_y
 _atom_site_fract_z
 _atom_site_occupancy
  K  K0  1  0.730094  0.865047  0.170908  1
  K  K1  1  0.865047  0.134953  0.670908  1
  K  K2  1  0.865047  0.730094  0.670908  1
  K  K3  1  0.134953  0.269906  0.170908  1
  K  K4  1  0.134953  0.865047  0.170908  1
  K  K5  1  0.269906  0.134953  0.670908  1
  Ba  Ba6  1  0.057401  0.528702  0.495764  1
  Ba  Ba7  1  0.471298  0.942599  0.495764  1
  Ba  Ba8  1  0.471298  0.528702  0.495764  1
  Ba  Ba9  1  0.528702  0.471298  0.995764  1
  Ba  Ba10  1  0.528702  0.057401  0.995764  1
  Ba  Ba11  1  0.942599  0.471298  0.995764  1
  Sc  Sc12  1  0.333333  0.666667  0.886016  1
  Sc  Sc13  1  0.666667  0.333333  0.386016  1
  As  As14  1  0.666667  0.333333  0.721225  1
  As  As15  1  0.603552  0.801776  0.773980  1
  As  As16  1  0.801776  0.198224  0.273980  1
  As  As17  1  0.801776  0.603552  0.273980  1
  As  As18  1  0.333333  0.666667  0.221225  1
  As  As19  1  0.198224  0.396448  0.773980  1
  As  As20  1  0.198224  0.801776  0.773980  1
  As  As21  1  0.396448  0.198224  0.273980  1
