# generated using pymatgen
data_Pr5Si2Os
_symmetry_space_group_name_H-M   'P 1'
_cell_length_a   7.99705300
_cell_length_b   8.97814800
_cell_length_c   12.33658900
_cell_angle_alpha   90.00000000
_cell_angle_beta   90.00000000
_cell_angle_gamma   90.00000000
_symmetry_Int_Tables_number   1
_chemical_formula_structural   Pr5Si2Os
_chemical_formula_sum   'Pr20 Si8 Os4'
_cell_volume   885.75136596
_cell_formula_units_Z   4
loop_
 _symmetry_equiv_pos_site_id
 _symmetry_equiv_pos_as_xyz
  1  'x, y, z'
loop_
 _atom_site_type_symbol
 _atom_site_label
 _atom_site_symmetry_multiplicity
 _atom_site_fract_x
 _atom_site_fract_y
 _atom_site_fract_z
 _atom_site_occupancy
  Pr  Pr0  1  0.679469  0.465337  0.075396  1
  Pr  Pr1  1  0.179469  0.534663  0.424604  1
  Pr  Pr2  1  0.320531  0.965337  0.924604  1
  Pr  Pr3  1  0.820531  0.034663  0.575396  1
  Pr  Pr4  1  0.320531  0.534663  0.924604  1
  Pr  Pr5  1  0.820531  0.465337  0.575396  1
  Pr  Pr6  1  0.679469  0.034663  0.075396  1
  Pr  Pr7  1  0.179469  0.965337  0.424604  1
  Pr  Pr8  1  0.960850  0.750000  0.001343  1
  Pr  Pr9  1  0.460850  0.250000  0.498657  1
  Pr  Pr10  1  0.039150  0.250000  0.998657  1
  Pr  Pr11  1  0.539150  0.750000  0.501343  1
  Pr  Pr12  1  0.354959  0.750000  0.202415  1
  Pr  Pr13  1  0.854959  0.250000  0.297585  1
  Pr  Pr14  1  0.645041  0.250000  0.797585  1
  Pr  Pr15  1  0.145041  0.750000  0.702415  1
  Pr  Pr16  1  0.829275  0.750000  0.284222  1
  Pr  Pr17  1  0.329275  0.250000  0.215778  1
  Pr  Pr18  1  0.170725  0.250000  0.715778  1
  Pr  Pr19  1  0.670725  0.750000  0.784222  1
  Si  Si20  1  0.559687  0.495144  0.328862  1
  Si  Si21  1  0.059687  0.504856  0.171138  1
  Si  Si22  1  0.440313  0.995144  0.671138  1
  Si  Si23  1  0.940313  0.004856  0.828862  1
  Si  Si24  1  0.440313  0.504856  0.671138  1
  Si  Si25  1  0.940313  0.495144  0.828862  1
  Si  Si26  1  0.559687  0.004856  0.328862  1
  Si  Si27  1  0.059687  0.995144  0.171138  1
  Os  Os28  1  0.578031  0.750000  0.015475  1
  Os  Os29  1  0.078031  0.250000  0.484525  1
  Os  Os30  1  0.421969  0.250000  0.984525  1
  Os  Os31  1  0.921969  0.750000  0.515475  1
