# generated using pymatgen
data_Nb4Al6NiAu
_symmetry_space_group_name_H-M   'P 1'
_cell_length_a   5.21639400
_cell_length_b   5.21639547
_cell_length_c   8.02294800
_cell_angle_alpha   90.00000000
_cell_angle_beta   90.00000000
_cell_angle_gamma   119.99997797
_symmetry_Int_Tables_number   1
_chemical_formula_structural   Nb4Al6NiAu
_chemical_formula_sum   'Nb4 Al6 Ni1 Au1'
_cell_volume   189.06258938
_cell_formula_units_Z   1
loop_
 _symmetry_equiv_pos_site_id
 _symmetry_equiv_pos_as_xyz
  1  'x, y, z'
loop_
 _atom_site_type_symbol
 _atom_site_label
 _atom_site_symmetry_multiplicity
 _atom_site_fract_x
 _atom_site_fract_y
 _atom_site_fract_z
 _atom_site_occupancy
  Nb  Nb0  1  0.333333  0.666667  0.428471  1
  Nb  Nb1  1  0.666667  0.333333  0.571529  1
  Nb  Nb2  1  0.666667  0.333333  0.926985  1
  Nb  Nb3  1  0.333333  0.666667  0.073015  1
  Al  Al4  1  0.829725  0.170275  0.237205  1
  Al  Al5  1  0.829725  0.659450  0.237205  1
  Al  Al6  1  0.340550  0.170275  0.237205  1
  Al  Al7  1  0.170275  0.829725  0.762795  1
  Al  Al8  1  0.170275  0.340550  0.762795  1
  Al  Al9  1  0.659450  0.829725  0.762795  1
  Ni  Ni10  1  0.000000  0.000000  0.000000  1
  Au  Au11  1  0.000000  0.000000  0.500000  1
