# generated using pymatgen
data_Ti2Bi6PtO18
_symmetry_space_group_name_H-M   'P 1'
_cell_length_a   9.24064600
_cell_length_b   9.24065014
_cell_length_c   5.14187900
_cell_angle_alpha   90.00001240
_cell_angle_beta   90.00000000
_cell_angle_gamma   119.99996608
_symmetry_Int_Tables_number   1
_chemical_formula_structural   Ti2Bi6PtO18
_chemical_formula_sum   'Ti2 Bi6 Pt1 O18'
_cell_volume   380.23973038
_cell_formula_units_Z   1
loop_
 _symmetry_equiv_pos_site_id
 _symmetry_equiv_pos_as_xyz
  1  'x, y, z'
loop_
 _atom_site_type_symbol
 _atom_site_label
 _atom_site_symmetry_multiplicity
 _atom_site_fract_x
 _atom_site_fract_y
 _atom_site_fract_z
 _atom_site_occupancy
  Ti  Ti0  1  0.000000  0.000000  0.494418  1
  Ti  Ti1  1  0.333333  0.666667  0.981763  1
  Bi  Bi2  1  0.015568  0.378824  0.497231  1
  Bi  Bi3  1  0.294513  0.292132  0.999816  1
  Bi  Bi4  1  0.997620  0.705487  0.999816  1
  Bi  Bi5  1  0.621176  0.636744  0.497231  1
  Bi  Bi6  1  0.363256  0.984432  0.497231  1
  Bi  Bi7  1  0.707867  0.002381  0.999816  1
  Pt  Pt8  1  0.666667  0.333333  0.997202  1
  O  O9  1  0.089400  0.203227  0.728630  1
  O  O10  1  0.240080  0.458637  0.221807  1
  O  O11  1  0.136614  0.605280  0.780121  1
  O  O12  1  0.394720  0.531334  0.780120  1
  O  O13  1  0.218557  0.759920  0.221807  1
  O  O14  1  0.113826  0.910599  0.728630  1
  O  O15  1  0.541363  0.781443  0.221808  1
  O  O16  1  0.202405  0.089353  0.288472  1
  O  O17  1  0.468666  0.863386  0.780121  1
  O  O18  1  0.796774  0.886174  0.728630  1
  O  O19  1  0.455403  0.219626  0.786451  1
  O  O20  1  0.587595  0.126269  0.206345  1
  O  O21  1  0.538674  0.412405  0.206346  1
  O  O22  1  0.780374  0.235778  0.786451  1
  O  O23  1  0.910647  0.113053  0.288472  1
  O  O24  1  0.764222  0.544596  0.786451  1
  O  O25  1  0.873731  0.461326  0.206344  1
  O  O26  1  0.886947  0.797596  0.288472  1
