# generated using pymatgen
data_Ta3Ti9Zn12C3O
_symmetry_space_group_name_H-M   'P 1'
_cell_length_a   8.23734797
_cell_length_b   8.23734903
_cell_length_c   8.19605186
_cell_angle_alpha   59.83319115
_cell_angle_beta   59.83319254
_cell_angle_gamma   60.00000584
_symmetry_Int_Tables_number   1
_chemical_formula_structural   Ta3Ti9Zn12C3O
_chemical_formula_sum   'Ta3 Ti9 Zn12 C3 O1'
_cell_volume   392.25184682
_cell_formula_units_Z   1
loop_
 _symmetry_equiv_pos_site_id
 _symmetry_equiv_pos_as_xyz
  1  'x, y, z'
loop_
 _atom_site_type_symbol
 _atom_site_label
 _atom_site_symmetry_multiplicity
 _atom_site_fract_x
 _atom_site_fract_y
 _atom_site_fract_z
 _atom_site_occupancy
  Ta  Ta0  1  0.929613  0.929613  0.568934  1
  Ta  Ta1  1  0.571839  0.929613  0.568934  1
  Ta  Ta2  1  0.929613  0.571839  0.568934  1
  Ti  Ti3  1  0.569851  0.569851  0.929199  1
  Ti  Ti4  1  0.931099  0.569851  0.929199  1
  Ti  Ti5  1  0.569851  0.931099  0.929199  1
  Ti  Ti6  1  0.319387  0.319387  0.679967  1
  Ti  Ti7  1  0.681259  0.319387  0.679967  1
  Ti  Ti8  1  0.319387  0.681259  0.679967  1
  Ti  Ti9  1  0.679872  0.679872  0.320521  1
  Ti  Ti10  1  0.319736  0.679872  0.320521  1
  Ti  Ti11  1  0.679872  0.319736  0.320521  1
  Zn  Zn12  1  0.335554  0.335554  0.993338  1
  Zn  Zn13  1  0.335885  0.993400  0.334829  1
  Zn  Zn14  1  0.993400  0.335885  0.334829  1
  Zn  Zn15  1  0.335885  0.335885  0.334829  1
  Zn  Zn16  1  0.917876  0.917876  0.246373  1
  Zn  Zn17  1  0.914087  0.253968  0.917859  1
  Zn  Zn18  1  0.253968  0.914087  0.917859  1
  Zn  Zn19  1  0.914087  0.914087  0.917859  1
  Zn  Zn20  1  0.125105  0.125105  0.624684  1
  Zn  Zn21  1  0.124764  0.623500  0.126972  1
  Zn  Zn22  1  0.623500  0.124764  0.126972  1
  Zn  Zn23  1  0.124764  0.124764  0.126972  1
  C  C24  1  0.622207  0.129328  0.626257  1
  C  C25  1  0.129328  0.622207  0.626257  1
  C  C26  1  0.622207  0.622207  0.626257  1
  O  O27  1  0.626002  0.626002  0.121994  1
