# generated using pymatgen
data_Nd16MgCo4Hg3
_symmetry_space_group_name_H-M   'P 1'
_cell_length_a   9.77861951
_cell_length_b   9.79708497
_cell_length_c   9.79708600
_cell_angle_alpha   60.00000326
_cell_angle_beta   59.93751747
_cell_angle_gamma   59.93751041
_symmetry_Int_Tables_number   1
_chemical_formula_structural   Nd16MgCo4Hg3
_chemical_formula_sum   'Nd16 Mg1 Co4 Hg3'
_cell_volume   663.04885331
_cell_formula_units_Z   1
loop_
 _symmetry_equiv_pos_site_id
 _symmetry_equiv_pos_as_xyz
  1  'x, y, z'
loop_
 _atom_site_type_symbol
 _atom_site_label
 _atom_site_symmetry_multiplicity
 _atom_site_fract_x
 _atom_site_fract_y
 _atom_site_fract_z
 _atom_site_occupancy
  Nd  Nd0  1  0.560025  0.939004  0.561968  1
  Nd  Nd1  1  0.185129  0.188746  0.813063  1
  Nd  Nd2  1  0.560025  0.561968  0.939004  1
  Nd  Nd3  1  0.957105  0.347632  0.347632  1
  Nd  Nd4  1  0.807993  0.190914  0.810179  1
  Nd  Nd5  1  0.185129  0.813063  0.188746  1
  Nd  Nd6  1  0.345549  0.344976  0.964501  1
  Nd  Nd7  1  0.345549  0.964501  0.344976  1
  Nd  Nd8  1  0.939926  0.936591  0.561741  1
  Nd  Nd9  1  0.939926  0.561741  0.561741  1
  Nd  Nd10  1  0.345549  0.344976  0.344976  1
  Nd  Nd11  1  0.807993  0.810179  0.190914  1
  Nd  Nd12  1  0.807993  0.190914  0.190914  1
  Nd  Nd13  1  0.560025  0.939004  0.939004  1
  Nd  Nd14  1  0.939926  0.561741  0.936591  1
  Nd  Nd15  1  0.185129  0.813063  0.813063  1
  Mg  Mg16  1  0.289061  0.570313  0.570313  1
  Co  Co17  1  0.139527  0.579036  0.140718  1
  Co  Co18  1  0.576927  0.141025  0.141025  1
  Co  Co19  1  0.139527  0.140718  0.579036  1
  Co  Co20  1  0.139527  0.140718  0.140718  1
  Hg  Hg21  1  0.580822  0.584882  0.584882  1
  Hg  Hg22  1  0.580822  0.249416  0.584882  1
  Hg  Hg23  1  0.580822  0.584882  0.249416  1
