# generated using pymatgen
data_Tm2Lu2MnB12Ru
_symmetry_space_group_name_H-M   'P 1'
_cell_length_a   3.55361400
_cell_length_b   9.01750531
_cell_length_c   11.39133502
_cell_angle_alpha   89.98802782
_cell_angle_beta   90.00000000
_cell_angle_gamma   90.00000000
_symmetry_Int_Tables_number   1
_chemical_formula_structural   Tm2Lu2MnB12Ru
_chemical_formula_sum   'Tm4 Lu4 Mn2 B24 Ru2'
_cell_volume   365.03228263
_cell_formula_units_Z   2
loop_
 _symmetry_equiv_pos_site_id
 _symmetry_equiv_pos_as_xyz
  1  'x, y, z'
loop_
 _atom_site_type_symbol
 _atom_site_label
 _atom_site_symmetry_multiplicity
 _atom_site_fract_x
 _atom_site_fract_y
 _atom_site_fract_z
 _atom_site_occupancy
  Tm  Tm0  1  0.000000  0.326348  0.416266  1
  Tm  Tm1  1  0.000000  0.673652  0.583734  1
  Tm  Tm2  1  0.000000  0.819994  0.087865  1
  Tm  Tm3  1  0.000000  0.180006  0.912135  1
  Lu  Lu4  1  0.000000  0.940064  0.371169  1
  Lu  Lu5  1  0.000000  0.059936  0.628831  1
  Lu  Lu6  1  0.000000  0.445476  0.131199  1
  Lu  Lu7  1  0.000000  0.554524  0.868801  1
  Mn  Mn8  1  0.000000  0.638244  0.320075  1
  Mn  Mn9  1  0.000000  0.361756  0.679925  1
  B  B10  1  0.500000  0.553889  0.432519  1
  B  B11  1  0.500000  0.446111  0.567481  1
  B  B12  1  0.500000  0.053456  0.066617  1
  B  B13  1  0.500000  0.946544  0.933383  1
  B  B14  1  0.500000  0.746978  0.418224  1
  B  B15  1  0.500000  0.253022  0.581776  1
  B  B16  1  0.500000  0.249954  0.080635  1
  B  B17  1  0.500000  0.750046  0.919365  1
  B  B18  1  0.500000  0.790118  0.266053  1
  B  B19  1  0.500000  0.209882  0.733947  1
  B  B20  1  0.500000  0.292668  0.235463  1
  B  B21  1  0.500000  0.707332  0.764537  1
  B  B22  1  0.500000  0.630927  0.186380  1
  B  B23  1  0.500000  0.369073  0.813620  1
  B  B24  1  0.500000  0.130817  0.315542  1
  B  B25  1  0.500000  0.869183  0.684458  1
  B  B26  1  0.500000  0.981158  0.212836  1
  B  B27  1  0.500000  0.018842  0.787164  1
  B  B28  1  0.500000  0.484395  0.288641  1
  B  B29  1  0.500000  0.515605  0.711359  1
  B  B30  1  0.500000  0.602632  0.028469  1
  B  B31  1  0.500000  0.397368  0.971531  1
  B  B32  1  0.500000  0.103269  0.471570  1
  B  B33  1  0.500000  0.896731  0.528430  1
  Ru  Ru34  1  0.000000  0.138334  0.179308  1
  Ru  Ru35  1  0.000000  0.861666  0.820692  1
