# generated using pymatgen
data_Y4Er5TmIr4
_symmetry_space_group_name_H-M   'P 1'
_cell_length_a   6.44556399
_cell_length_b   7.20831910
_cell_length_c   8.48937994
_cell_angle_alpha   96.80954084
_cell_angle_beta   112.31046459
_cell_angle_gamma   90.00000414
_symmetry_Int_Tables_number   1
_chemical_formula_structural   Y4Er5TmIr4
_chemical_formula_sum   'Y4 Er5 Tm1 Ir4'
_cell_volume   361.89458376
_cell_formula_units_Z   1
loop_
 _symmetry_equiv_pos_site_id
 _symmetry_equiv_pos_as_xyz
  1  'x, y, z'
loop_
 _atom_site_type_symbol
 _atom_site_label
 _atom_site_symmetry_multiplicity
 _atom_site_fract_x
 _atom_site_fract_y
 _atom_site_fract_z
 _atom_site_occupancy
  Y  Y0  1  0.971251  0.920102  0.186161  1
  Y  Y1  1  0.785088  0.579898  0.813839  1
  Y  Y2  1  0.028731  0.079997  0.813868  1
  Y  Y3  1  0.214865  0.420003  0.186132  1
  Er  Er4  1  0.650852  0.817352  0.440661  1
  Er  Er5  1  0.210191  0.682648  0.559339  1
  Er  Er6  1  0.349243  0.182689  0.559411  1
  Er  Er7  1  0.789832  0.317311  0.440589  1
  Er  Er8  1  0.427910  0.750000  0.000000  1
  Tm  Tm9  1  0.571911  0.250000  0.000000  1
  Ir  Ir10  1  0.820399  0.573310  0.220892  1
  Ir  Ir11  1  0.599507  0.926690  0.779108  1
  Ir  Ir12  1  0.179678  0.426454  0.779133  1
  Ir  Ir13  1  0.400544  0.073546  0.220867  1
