# generated using pymatgen
data_Dy2Y14CdHg3Pt4
_symmetry_space_group_name_H-M   'P 1'
_cell_length_a   9.68755910
_cell_length_b   9.69413101
_cell_length_c   9.68707100
_cell_angle_alpha   60.02409168
_cell_angle_beta   60.00167010
_cell_angle_gamma   60.00810858
_symmetry_Int_Tables_number   1
_chemical_formula_structural   Dy2Y14CdHg3Pt4
_chemical_formula_sum   'Dy2 Y14 Cd1 Hg3 Pt4'
_cell_volume   643.44561542
_cell_formula_units_Z   1
loop_
 _symmetry_equiv_pos_site_id
 _symmetry_equiv_pos_as_xyz
  1  'x, y, z'
loop_
 _atom_site_type_symbol
 _atom_site_label
 _atom_site_symmetry_multiplicity
 _atom_site_fract_x
 _atom_site_fract_y
 _atom_site_fract_z
 _atom_site_occupancy
  Dy  Dy0  1  0.353599  0.353025  0.350900  1
  Dy  Dy1  1  0.353599  0.353025  0.942475  1
  Y  Y2  1  0.357515  0.933774  0.354355  1
  Y  Y3  1  0.930916  0.357885  0.355600  1
  Y  Y4  1  0.810294  0.190323  0.190340  1
  Y  Y5  1  0.188917  0.811246  0.809760  1
  Y  Y6  1  0.188917  0.811246  0.190078  1
  Y  Y7  1  0.810294  0.190323  0.809042  1
  Y  Y8  1  0.190114  0.191135  0.809376  1
  Y  Y9  1  0.810568  0.810990  0.189221  1
  Y  Y10  1  0.936454  0.563160  0.564152  1
  Y  Y11  1  0.562233  0.937680  0.935965  1
  Y  Y12  1  0.562233  0.937680  0.564123  1
  Y  Y13  1  0.936454  0.563160  0.936233  1
  Y  Y14  1  0.563210  0.563950  0.936420  1
  Y  Y15  1  0.936265  0.937397  0.563169  1
  Cd  Cd16  1  0.257237  0.579334  0.581714  1
  Hg  Hg17  1  0.584018  0.586269  0.588073  1
  Hg  Hg18  1  0.584018  0.586269  0.241638  1
  Hg  Hg19  1  0.583524  0.240793  0.587841  1
  Pt  Pt20  1  0.144046  0.144656  0.145411  1
  Pt  Pt21  1  0.144046  0.144656  0.565889  1
  Pt  Pt22  1  0.143046  0.568348  0.144304  1
  Pt  Pt23  1  0.568483  0.143675  0.143921  1
