# generated using pymatgen
data_Zr2V3Os
_symmetry_space_group_name_H-M   'P 1'
_cell_length_a   5.19386485
_cell_length_b   5.19386490
_cell_length_c   5.19386543
_cell_angle_alpha   60.56956333
_cell_angle_beta   60.56956052
_cell_angle_gamma   60.56956759
_symmetry_Int_Tables_number   1
_chemical_formula_structural   Zr2V3Os
_chemical_formula_sum   'Zr2 V3 Os1'
_cell_volume   100.34808204
_cell_formula_units_Z   1
loop_
 _symmetry_equiv_pos_site_id
 _symmetry_equiv_pos_as_xyz
  1  'x, y, z'
loop_
 _atom_site_type_symbol
 _atom_site_label
 _atom_site_symmetry_multiplicity
 _atom_site_fract_x
 _atom_site_fract_y
 _atom_site_fract_z
 _atom_site_occupancy
  Zr  Zr0  1  0.625402  0.625402  0.625402  1
  Zr  Zr1  1  0.374598  0.374598  0.374598  1
  V  V2  1  0.000000  0.500000  0.000000  1
  V  V3  1  0.500000  0.000000  0.000000  1
  V  V4  1  0.000000  0.000000  0.500000  1
  Os  Os5  1  0.000000  0.000000  0.000000  1
