# generated using pymatgen
data_CeF25
_symmetry_space_group_name_H-M   'P 1'
_cell_length_a   7.86352607
_cell_length_b   7.61201088
_cell_length_c   8.52008650
_cell_angle_alpha   104.16738114
_cell_angle_beta   85.20632784
_cell_angle_gamma   107.48366953
_symmetry_Int_Tables_number   1
_chemical_formula_structural   CeF25
_chemical_formula_sum   'Ce1 F25'
_cell_volume   471.60618969
_cell_formula_units_Z   1
loop_
 _symmetry_equiv_pos_site_id
 _symmetry_equiv_pos_as_xyz
  1  'x, y, z'
loop_
 _atom_site_type_symbol
 _atom_site_label
 _atom_site_symmetry_multiplicity
 _atom_site_fract_x
 _atom_site_fract_y
 _atom_site_fract_z
 _atom_site_occupancy
  Ce  Ce0  1  0.238587  0.996423  0.004043  1
  F  F1  1  0.731000  0.001488  0.005318  1
  F  F2  1  0.547202  0.468458  0.162144  1
  F  F3  1  0.489377  0.575547  0.842825  1
  F  F4  1  0.159862  0.486001  0.204616  1
  F  F5  1  0.794200  0.430543  0.811326  1
  F  F6  1  0.398813  0.764910  0.504562  1
  F  F7  1  0.625652  0.236538  0.484258  1
  F  F8  1  0.825465  0.812777  0.488382  1
  F  F9  1  0.158601  0.185729  0.531906  1
  F  F10  1  0.335353  0.418823  0.850467  1
  F  F11  1  0.704841  0.616472  0.142567  1
  F  F12  1  0.284902  0.233370  0.206668  1
  F  F13  1  0.750427  0.865313  0.825170  1
  F  F14  1  0.074919  0.626815  0.198718  1
  F  F15  1  0.930107  0.339429  0.796716  1
  F  F16  1  0.006020  0.881633  0.136859  1
  F  F17  1  0.108010  0.142586  0.893116  1
  F  F18  1  0.226878  0.036283  0.543079  1
  F  F19  1  0.778101  0.950232  0.428507  1
  F  F20  1  0.803071  0.197726  0.130440  1
  F  F21  1  0.178976  0.745342  0.822782  1
  F  F22  1  0.388852  0.879110  0.123564  1
  F  F23  1  0.459909  0.100074  0.860298  1
  F  F24  1  0.323942  0.580002  0.531141  1
  F  F25  1  0.676934  0.428377  0.470526  1
