# generated using pymatgen
data_La4Mg2As5
_symmetry_space_group_name_H-M   'P 1'
_cell_length_a   4.39163400
_cell_length_b   4.39163297
_cell_length_c   17.92359600
_cell_angle_alpha   90.00000000
_cell_angle_beta   90.00000000
_cell_angle_gamma   119.99999267
_symmetry_Int_Tables_number   1
_chemical_formula_structural   La4Mg2As5
_chemical_formula_sum   'La4 Mg2 As5'
_cell_volume   299.36979918
_cell_formula_units_Z   1
loop_
 _symmetry_equiv_pos_site_id
 _symmetry_equiv_pos_as_xyz
  1  'x, y, z'
loop_
 _atom_site_type_symbol
 _atom_site_label
 _atom_site_symmetry_multiplicity
 _atom_site_fract_x
 _atom_site_fract_y
 _atom_site_fract_z
 _atom_site_occupancy
  La  La0  1  0.666667  0.333333  0.901881  1
  La  La1  1  0.333333  0.666667  0.098119  1
  La  La2  1  0.000000  0.000000  0.707673  1
  La  La3  1  0.000000  0.000000  0.292327  1
  Mg  Mg4  1  0.666667  0.333333  0.446661  1
  Mg  Mg5  1  0.333333  0.666667  0.553339  1
  As  As6  1  0.666667  0.333333  0.598687  1
  As  As7  1  0.333333  0.666667  0.401313  1
  As  As8  1  0.666667  0.333333  0.200399  1
  As  As9  1  0.333333  0.666667  0.799601  1
  As  As10  1  0.000000  0.000000  0.000000  1
