# generated using pymatgen
data_Tm4Re3GeF28
_symmetry_space_group_name_H-M   'P 1'
_cell_length_a   5.45353293
_cell_length_b   8.75863828
_cell_length_c   11.79387300
_cell_angle_alpha   62.38591780
_cell_angle_beta   90.09130922
_cell_angle_gamma   90.04587517
_symmetry_Int_Tables_number   1
_chemical_formula_structural   Tm4Re3GeF28
_chemical_formula_sum   'Tm4 Re3 Ge1 F28'
_cell_volume   499.16957282
_cell_formula_units_Z   1
loop_
 _symmetry_equiv_pos_site_id
 _symmetry_equiv_pos_as_xyz
  1  'x, y, z'
loop_
 _atom_site_type_symbol
 _atom_site_label
 _atom_site_symmetry_multiplicity
 _atom_site_fract_x
 _atom_site_fract_y
 _atom_site_fract_z
 _atom_site_occupancy
  Tm  Tm0  1  0.257798  0.814433  0.259872  1
  Tm  Tm1  1  0.741407  0.181457  0.737894  1
  Tm  Tm2  1  0.758475  0.188840  0.234064  1
  Tm  Tm3  1  0.239256  0.813594  0.768128  1
  Re  Re4  1  0.243774  0.273163  0.957817  1
  Re  Re5  1  0.257741  0.273737  0.456790  1
  Re  Re6  1  0.740601  0.726002  0.543516  1
  Ge  Ge7  1  0.758631  0.725697  0.043663  1
  F  F8  1  0.937119  0.705031  0.410861  1
  F  F9  1  0.058396  0.295692  0.587523  1
  F  F10  1  0.441984  0.297482  0.087933  1
  F  F11  1  0.557171  0.708615  0.926361  1
  F  F12  1  0.494079  0.729612  0.137555  1
  F  F13  1  0.543960  0.267823  0.866563  1
  F  F14  1  0.961075  0.276868  0.359364  1
  F  F15  1  0.038028  0.723980  0.640216  1
  F  F16  1  0.955870  0.742600  0.164431  1
  F  F17  1  0.050061  0.252672  0.823664  1
  F  F18  1  0.450806  0.256567  0.321459  1
  F  F19  1  0.550308  0.744303  0.680420  1
  F  F20  1  0.774163  0.492021  0.135610  1
  F  F21  1  0.231803  0.526222  0.859832  1
  F  F22  1  0.274335  0.526670  0.354144  1
  F  F23  1  0.722013  0.472639  0.644519  1
  F  F24  1  0.934054  0.281262  0.043177  1
  F  F25  1  0.036876  0.719343  0.956556  1
  F  F26  1  0.432872  0.723495  0.453802  1
  F  F27  1  0.566247  0.275898  0.545575  1
  F  F28  1  0.743336  0.979639  0.446181  1
  F  F29  1  0.259434  0.020205  0.554689  1
  F  F30  1  0.241694  0.019649  0.051768  1
  F  F31  1  0.760685  0.960644  0.951422  1
  F  F32  1  0.582404  0.972216  0.231056  1
  F  F33  1  0.408844  0.032473  0.769886  1
  F  F34  1  0.082875  0.030473  0.265474  1
  F  F35  1  0.911823  0.968981  0.728220  1
