# generated using pymatgen
data_Dy9YCd2NiHg
_symmetry_space_group_name_H-M   'P 1'
_cell_length_a   9.66056000
_cell_length_b   9.64809536
_cell_length_c   9.66836400
_cell_angle_alpha   90.00000000
_cell_angle_beta   90.00000000
_cell_angle_gamma   119.96022468
_symmetry_Int_Tables_number   1
_chemical_formula_structural   Dy9YCd2NiHg
_chemical_formula_sum   'Dy18 Y2 Cd4 Ni2 Hg2'
_cell_volume   780.73103028
_cell_formula_units_Z   2
loop_
 _symmetry_equiv_pos_site_id
 _symmetry_equiv_pos_as_xyz
  1  'x, y, z'
loop_
 _atom_site_type_symbol
 _atom_site_label
 _atom_site_symmetry_multiplicity
 _atom_site_fract_x
 _atom_site_fract_y
 _atom_site_fract_z
 _atom_site_occupancy
  Dy  Dy0  1  0.996666  0.998361  0.494034  1
  Dy  Dy1  1  0.996666  0.998361  0.005966  1
  Dy  Dy2  1  0.547499  0.458617  0.250000  1
  Dy  Dy3  1  0.547467  0.088828  0.250000  1
  Dy  Dy4  1  0.911488  0.455724  0.250000  1
  Dy  Dy5  1  0.455304  0.543696  0.750000  1
  Dy  Dy6  1  0.210784  0.789987  0.436242  1
  Dy  Dy7  1  0.211047  0.420969  0.436430  1
  Dy  Dy8  1  0.578460  0.789091  0.436393  1
  Dy  Dy9  1  0.789683  0.210954  0.563580  1
  Dy  Dy10  1  0.789469  0.578726  0.563675  1
  Dy  Dy11  1  0.421258  0.210872  0.563207  1
  Dy  Dy12  1  0.789683  0.210954  0.936420  1
  Dy  Dy13  1  0.789469  0.578726  0.936325  1
  Dy  Dy14  1  0.421258  0.210872  0.936793  1
  Dy  Dy15  1  0.210784  0.789987  0.063758  1
  Dy  Dy16  1  0.211047  0.420969  0.063570  1
  Dy  Dy17  1  0.578460  0.789091  0.063607  1
  Y  Y18  1  0.455340  0.911415  0.750000  1
  Y  Y19  1  0.089847  0.544896  0.750000  1
  Cd  Cd20  1  0.236281  0.118100  0.250000  1
  Cd  Cd21  1  0.113620  0.885400  0.750000  1
  Cd  Cd22  1  0.113822  0.228378  0.750000  1
  Cd  Cd23  1  0.770195  0.884996  0.750000  1
  Ni  Ni24  1  0.333563  0.666762  0.250000  1
  Ni  Ni25  1  0.666036  0.332905  0.750000  1
  Hg  Hg26  1  0.882399  0.121701  0.250000  1
  Hg  Hg27  1  0.882404  0.760664  0.250000  1
