# generated using pymatgen
data_Ho2ErBC3
_symmetry_space_group_name_H-M   'P 1'
_cell_length_a   3.60852500
_cell_length_b   3.60852430
_cell_length_c   15.82816800
_cell_angle_alpha   90.00000000
_cell_angle_beta   90.00000000
_cell_angle_gamma   90.51594338
_symmetry_Int_Tables_number   1
_chemical_formula_structural   Ho2ErBC3
_chemical_formula_sum   'Ho4 Er2 B2 C6'
_cell_volume   206.09734445
_cell_formula_units_Z   2
loop_
 _symmetry_equiv_pos_site_id
 _symmetry_equiv_pos_as_xyz
  1  'x, y, z'
loop_
 _atom_site_type_symbol
 _atom_site_label
 _atom_site_symmetry_multiplicity
 _atom_site_fract_x
 _atom_site_fract_y
 _atom_site_fract_z
 _atom_site_occupancy
  Ho  Ho0  1  0.583883  0.416116  0.102566  1
  Ho  Ho1  1  0.583883  0.416116  0.397434  1
  Ho  Ho2  1  0.416116  0.583883  0.602566  1
  Ho  Ho3  1  0.416116  0.583883  0.897434  1
  Er  Er4  1  0.089058  0.910941  0.250000  1
  Er  Er5  1  0.910941  0.089058  0.750000  1
  B  B6  1  0.000000  0.000000  0.000000  1
  B  B7  1  0.000000  0.000000  0.500000  1
  C  C8  1  0.096108  0.903890  0.086738  1
  C  C9  1  0.595412  0.404586  0.250000  1
  C  C10  1  0.096108  0.903890  0.413262  1
  C  C11  1  0.903890  0.096108  0.586737  1
  C  C12  1  0.404586  0.595412  0.750000  1
  C  C13  1  0.903890  0.096108  0.913262  1
