# generated using pymatgen
data_Tb4Ho4Er4Co5Hg
_symmetry_space_group_name_H-M   'P 1'
_cell_length_a   8.25947442
_cell_length_b   8.26052214
_cell_length_c   8.25947479
_cell_angle_alpha   110.07410453
_cell_angle_beta   110.55625164
_cell_angle_gamma   107.79158860
_symmetry_Int_Tables_number   1
_chemical_formula_structural   Tb4Ho4Er4Co5Hg
_chemical_formula_sum   'Tb4 Ho4 Er4 Co5 Hg1'
_cell_volume   433.54176606
_cell_formula_units_Z   1
loop_
 _symmetry_equiv_pos_site_id
 _symmetry_equiv_pos_as_xyz
  1  'x, y, z'
loop_
 _atom_site_type_symbol
 _atom_site_label
 _atom_site_symmetry_multiplicity
 _atom_site_fract_x
 _atom_site_fract_y
 _atom_site_fract_z
 _atom_site_occupancy
  Tb  Tb0  1  0.814234  0.709475  0.523733  1
  Tb  Tb1  1  0.185766  0.290525  0.476267  1
  Tb  Tb2  1  0.185743  0.709475  0.895242  1
  Tb  Tb3  1  0.814257  0.290525  0.104758  1
  Ho  Ho4  1  0.597895  0.789576  0.808330  1
  Ho  Ho5  1  0.402105  0.210424  0.191670  1
  Ho  Ho6  1  0.981246  0.789576  0.191679  1
  Ho  Ho7  1  0.018754  0.210424  0.808321  1
  Er  Er8  1  0.683834  0.377263  0.693431  1
  Er  Er9  1  0.316166  0.622737  0.306569  1
  Er  Er10  1  0.683956  0.990555  0.306600  1
  Er  Er11  1  0.316044  0.009445  0.693400  1
  Co  Co12  1  0.622048  0.000000  0.622048  1
  Co  Co13  1  0.377952  0.000000  0.377952  1
  Co  Co14  1  0.113657  0.613664  0.500008  1
  Co  Co15  1  0.886343  0.386336  0.499992  1
  Co  Co16  1  0.000000  0.000000  0.000000  1
  Hg  Hg17  1  0.500000  0.500000  0.000000  1
