# generated using pymatgen
data_CdHgIrRuO7
_symmetry_space_group_name_H-M   'P 1'
_cell_length_a   7.29677481
_cell_length_b   7.34901230
_cell_length_c   7.29677498
_cell_angle_alpha   59.76290423
_cell_angle_beta   59.44806165
_cell_angle_gamma   59.76291170
_symmetry_Int_Tables_number   1
_chemical_formula_structural   CdHgIrRuO7
_chemical_formula_sum   'Cd2 Hg2 Ir2 Ru2 O14'
_cell_volume   274.52303168
_cell_formula_units_Z   2
loop_
 _symmetry_equiv_pos_site_id
 _symmetry_equiv_pos_as_xyz
  1  'x, y, z'
loop_
 _atom_site_type_symbol
 _atom_site_label
 _atom_site_symmetry_multiplicity
 _atom_site_fract_x
 _atom_site_fract_y
 _atom_site_fract_z
 _atom_site_occupancy
  Cd  Cd0  1  0.125000  0.625000  0.125000  1
  Cd  Cd1  1  0.125000  0.125000  0.125000  1
  Hg  Hg2  1  0.125000  0.125000  0.625000  1
  Hg  Hg3  1  0.625000  0.125000  0.125000  1
  Ir  Ir4  1  0.625000  0.625000  0.125000  1
  Ir  Ir5  1  0.125000  0.625000  0.625000  1
  Ru  Ru6  1  0.625000  0.125000  0.625000  1
  Ru  Ru7  1  0.625000  0.625000  0.625000  1
  O  O8  1  0.694688  0.694330  0.304500  1
  O  O9  1  0.945500  0.555670  0.555312  1
  O  O10  1  0.555312  0.943519  0.945500  1
  O  O11  1  0.945500  0.943519  0.555312  1
  O  O12  1  0.954366  0.545634  0.954366  1
  O  O13  1  0.566005  0.933995  0.566005  1
  O  O14  1  0.295634  0.704366  0.295634  1
  O  O15  1  0.304500  0.694330  0.694688  1
  O  O16  1  0.694688  0.306481  0.304500  1
  O  O17  1  0.683995  0.316005  0.683995  1
  O  O18  1  0.555312  0.555670  0.945500  1
  O  O19  1  0.304500  0.306481  0.694688  1
  O  O20  1  0.254611  0.245389  0.254611  1
  O  O21  1  0.995389  0.004611  0.995389  1
