# generated using pymatgen
data_Dy3Er2Ti2P12Ir17
_symmetry_space_group_name_H-M   'P 1'
_cell_length_a   12.59715600
_cell_length_b   12.80391176
_cell_length_c   3.95749200
_cell_angle_alpha   90.00000000
_cell_angle_beta   90.00000000
_cell_angle_gamma   119.46725539
_symmetry_Int_Tables_number   1
_chemical_formula_structural   Dy3Er2Ti2P12Ir17
_chemical_formula_sum   'Dy3 Er2 Ti2 P12 Ir17'
_cell_volume   555.74086511
_cell_formula_units_Z   1
loop_
 _symmetry_equiv_pos_site_id
 _symmetry_equiv_pos_as_xyz
  1  'x, y, z'
loop_
 _atom_site_type_symbol
 _atom_site_label
 _atom_site_symmetry_multiplicity
 _atom_site_fract_x
 _atom_site_fract_y
 _atom_site_fract_z
 _atom_site_occupancy
  Dy  Dy0  1  0.999820  0.812074  0.000000  1
  Dy  Dy1  1  0.187746  0.187926  0.000000  1
  Dy  Dy2  1  0.812939  0.000000  0.000000  1
  Er  Er3  1  0.329832  0.659753  0.500000  1
  Er  Er4  1  0.670080  0.340247  0.500000  1
  Ti  Ti5  1  0.997843  0.446501  0.500000  1
  Ti  Ti6  1  0.551342  0.553499  0.500000  1
  P  P7  1  0.001550  0.639465  0.500000  1
  P  P8  1  0.362085  0.360535  0.500000  1
  P  P9  1  0.644894  0.000000  0.500000  1
  P  P10  1  0.514017  0.682641  0.000000  1
  P  P11  1  0.308509  0.822666  0.000000  1
  P  P12  1  0.162460  0.480358  0.000000  1
  P  P13  1  0.485843  0.177334  0.000000  1
  P  P14  1  0.682102  0.519642  0.000000  1
  P  P15  1  0.831375  0.317359  0.000000  1
  P  P16  1  0.999734  0.175290  0.500000  1
  P  P17  1  0.824444  0.824710  0.500000  1
  P  P18  1  0.181546  0.000000  0.500000  1
  Ir  Ir19  1  0.504040  0.862954  0.000000  1
  Ir  Ir20  1  0.126943  0.640301  0.000000  1
  Ir  Ir21  1  0.354976  0.493111  0.000000  1
  Ir  Ir22  1  0.486642  0.359699  0.000000  1
  Ir  Ir23  1  0.861866  0.506889  0.000000  1
  Ir  Ir24  1  0.641087  0.137046  0.000000  1
  Ir  Ir25  1  0.463641  0.000000  0.500000  1
  Ir  Ir26  1  0.996821  0.281462  0.000000  1
  Ir  Ir27  1  0.715360  0.718538  0.000000  1
  Ir  Ir28  1  0.290908  0.000000  0.000000  1
  Ir  Ir29  1  0.622545  0.805560  0.500000  1
  Ir  Ir30  1  0.202353  0.823038  0.500000  1
  Ir  Ir31  1  0.176919  0.368611  0.500000  1
  Ir  Ir32  1  0.379316  0.176962  0.500000  1
  Ir  Ir33  1  0.808308  0.631389  0.500000  1
  Ir  Ir34  1  0.816985  0.194440  0.500000  1
  Ir  Ir35  1  0.003132  0.000000  0.500000  1
