# generated using pymatgen
data_TbYHo2(MoN3)4
_symmetry_space_group_name_H-M   'P 1'
_cell_length_a   7.31594472
_cell_length_b   7.31594368
_cell_length_c   6.27089230
_cell_angle_alpha   73.68084452
_cell_angle_beta   73.68084054
_cell_angle_gamma   81.62252023
_symmetry_Int_Tables_number   1
_chemical_formula_structural   TbYHo2(MoN3)4
_chemical_formula_sum   'Tb1 Y1 Ho2 Mo4 N12'
_cell_volume   308.32465153
_cell_formula_units_Z   1
loop_
 _symmetry_equiv_pos_site_id
 _symmetry_equiv_pos_as_xyz
  1  'x, y, z'
loop_
 _atom_site_type_symbol
 _atom_site_label
 _atom_site_symmetry_multiplicity
 _atom_site_fract_x
 _atom_site_fract_y
 _atom_site_fract_z
 _atom_site_occupancy
  Tb  Tb0  1  0.705440  0.294560  0.250000  1
  Y  Y1  1  0.295116  0.704884  0.750000  1
  Ho  Ho2  1  0.913540  0.086460  0.750000  1
  Ho  Ho3  1  0.087612  0.912388  0.250000  1
  Mo  Mo4  1  0.800417  0.619232  0.767885  1
  Mo  Mo5  1  0.198955  0.380689  0.231874  1
  Mo  Mo6  1  0.619311  0.801045  0.268126  1
  Mo  Mo7  1  0.380768  0.199583  0.732115  1
  N  N8  1  0.218769  0.999709  0.848547  1
  N  N9  1  0.363044  0.349795  0.438980  1
  N  N10  1  0.635834  0.649881  0.561376  1
  N  N11  1  0.624550  0.111013  0.663013  1
  N  N12  1  0.000291  0.781231  0.651453  1
  N  N13  1  0.782208  0.000131  0.152129  1
  N  N14  1  0.109013  0.624042  0.162647  1
  N  N15  1  0.888987  0.375450  0.836987  1
  N  N16  1  0.999869  0.217792  0.347871  1
  N  N17  1  0.350119  0.364166  0.938624  1
  N  N18  1  0.650205  0.636956  0.061020  1
  N  N19  1  0.375958  0.890987  0.337353  1
