# generated using pymatgen
data_La3(AlPd)4
_symmetry_space_group_name_H-M   'P 1'
_cell_length_a   8.40280652
_cell_length_b   8.40280679
_cell_length_c   8.40280642
_cell_angle_alpha   150.61999952
_cell_angle_beta   127.60701555
_cell_angle_gamma   61.20825666
_symmetry_Int_Tables_number   1
_chemical_formula_structural   La3(AlPd)4
_chemical_formula_sum   'La3 Al4 Pd4'
_cell_volume   228.66549900
_cell_formula_units_Z   1
loop_
 _symmetry_equiv_pos_site_id
 _symmetry_equiv_pos_as_xyz
  1  'x, y, z'
loop_
 _atom_site_type_symbol
 _atom_site_label
 _atom_site_symmetry_multiplicity
 _atom_site_fract_x
 _atom_site_fract_y
 _atom_site_fract_z
 _atom_site_occupancy
  La  La0  1  0.500000  0.000000  0.500000  1
  La  La1  1  0.878699  0.878699  0.000000  1
  La  La2  1  0.121301  0.121301  0.000000  1
  Al  Al3  1  0.487465  0.679182  0.808283  1
  Al  Al4  1  0.870899  0.679182  0.191717  1
  Al  Al5  1  0.129101  0.320818  0.808283  1
  Al  Al6  1  0.512535  0.320818  0.191717  1
  Pd  Pd7  1  0.281549  0.781549  0.500000  1
  Pd  Pd8  1  0.718451  0.218451  0.500000  1
  Pd  Pd9  1  0.788562  0.500000  0.288562  1
  Pd  Pd10  1  0.211438  0.500000  0.711438  1
