# generated using pymatgen
data_Ba3DyRhO6
_symmetry_space_group_name_H-M   'P 1'
_cell_length_a   7.17667164
_cell_length_b   7.17634581
_cell_length_c   7.17673402
_cell_angle_alpha   93.27899142
_cell_angle_beta   93.27503606
_cell_angle_gamma   93.27636708
_symmetry_Int_Tables_number   1
_chemical_formula_structural   Ba3DyRhO6
_chemical_formula_sum   'Ba6 Dy2 Rh2 O12'
_cell_volume   367.73286494
_cell_formula_units_Z   2
loop_
 _symmetry_equiv_pos_site_id
 _symmetry_equiv_pos_as_xyz
  1  'x, y, z'
loop_
 _atom_site_type_symbol
 _atom_site_label
 _atom_site_symmetry_multiplicity
 _atom_site_fract_x
 _atom_site_fract_y
 _atom_site_fract_z
 _atom_site_occupancy
  Ba  Ba0  1  0.617250  0.882731  0.250023  1
  Ba  Ba1  1  0.250023  0.617269  0.882738  1
  Ba  Ba2  1  0.882746  0.250015  0.617257  1
  Ba  Ba3  1  0.382743  0.117273  0.749973  1
  Ba  Ba4  1  0.749982  0.382730  0.117265  1
  Ba  Ba5  1  0.117255  0.749988  0.382742  1
  Dy  Dy6  1  0.250016  0.250003  0.250007  1
  Dy  Dy7  1  0.749986  0.750000  0.749998  1
  Rh  Rh8  1  0.000013  0.000008  0.999995  1
  Rh  Rh9  1  0.499977  0.499965  0.499999  1
  O  O10  1  0.283989  0.966348  0.092713  1
  O  O11  1  0.092752  0.283993  0.966353  1
  O  O12  1  0.966363  0.092743  0.284005  1
  O  O13  1  0.533624  0.216005  0.407239  1
  O  O14  1  0.407258  0.533650  0.216008  1
  O  O15  1  0.215999  0.407265  0.533631  1
  O  O16  1  0.716012  0.033657  0.907290  1
  O  O17  1  0.907248  0.716012  0.033649  1
  O  O18  1  0.033640  0.907265  0.715998  1
  O  O19  1  0.466377  0.783994  0.592757  1
  O  O20  1  0.592747  0.466349  0.783994  1
  O  O21  1  0.784001  0.592734  0.466367  1
