# generated using pymatgen
data_La2Nd14Cd4Ir3Pt
_symmetry_space_group_name_H-M   'P 1'
_cell_length_a   9.97138317
_cell_length_b   9.97138298
_cell_length_c   9.98998199
_cell_angle_alpha   60.36821510
_cell_angle_beta   60.36821706
_cell_angle_gamma   60.34008994
_symmetry_Int_Tables_number   1
_chemical_formula_structural   La2Nd14Cd4Ir3Pt
_chemical_formula_sum   'La2 Nd14 Cd4 Ir3 Pt1'
_cell_volume   708.06229234
_cell_formula_units_Z   1
loop_
 _symmetry_equiv_pos_site_id
 _symmetry_equiv_pos_as_xyz
  1  'x, y, z'
loop_
 _atom_site_type_symbol
 _atom_site_label
 _atom_site_symmetry_multiplicity
 _atom_site_fract_x
 _atom_site_fract_y
 _atom_site_fract_z
 _atom_site_occupancy
  La  La0  1  0.345740  0.345740  0.347242  1
  La  La1  1  0.351174  0.351174  0.953803  1
  Nd  Nd2  1  0.351903  0.948764  0.352548  1
  Nd  Nd3  1  0.948764  0.351903  0.352548  1
  Nd  Nd4  1  0.806185  0.190476  0.189938  1
  Nd  Nd5  1  0.188544  0.810314  0.809222  1
  Nd  Nd6  1  0.190476  0.806185  0.189938  1
  Nd  Nd7  1  0.810314  0.188544  0.809222  1
  Nd  Nd8  1  0.190075  0.190075  0.806585  1
  Nd  Nd9  1  0.809806  0.809806  0.188401  1
  Nd  Nd10  1  0.939055  0.563028  0.562369  1
  Nd  Nd11  1  0.562680  0.938414  0.938195  1
  Nd  Nd12  1  0.563028  0.939055  0.562369  1
  Nd  Nd13  1  0.938414  0.562680  0.938195  1
  Nd  Nd14  1  0.563563  0.563563  0.938380  1
  Nd  Nd15  1  0.938673  0.938673  0.562220  1
  Cd  Cd16  1  0.581172  0.581172  0.578854  1
  Cd  Cd17  1  0.580657  0.580657  0.259106  1
  Cd  Cd18  1  0.581475  0.258699  0.579595  1
  Cd  Cd19  1  0.258699  0.581475  0.579595  1
  Ir  Ir20  1  0.141954  0.141954  0.574089  1
  Ir  Ir21  1  0.141696  0.574129  0.141867  1
  Ir  Ir22  1  0.574129  0.141696  0.141867  1
  Pt  Pt23  1  0.141825  0.141825  0.143849  1
