# generated using pymatgen
data_TbNd2Sm(MoO4)6
_symmetry_space_group_name_H-M   'P 1'
_cell_length_a   7.59064377
_cell_length_b   7.58849500
_cell_length_c   10.88648647
_cell_angle_alpha   90.16931228
_cell_angle_beta   89.93949314
_cell_angle_gamma   89.92212962
_symmetry_Int_Tables_number   1
_chemical_formula_structural   TbNd2Sm(MoO4)6
_chemical_formula_sum   'Tb1 Nd2 Sm1 Mo6 O24'
_cell_volume   627.07495950
_cell_formula_units_Z   1
loop_
 _symmetry_equiv_pos_site_id
 _symmetry_equiv_pos_as_xyz
  1  'x, y, z'
loop_
 _atom_site_type_symbol
 _atom_site_label
 _atom_site_symmetry_multiplicity
 _atom_site_fract_x
 _atom_site_fract_y
 _atom_site_fract_z
 _atom_site_occupancy
  Tb  Tb0  1  0.309375  0.190744  0.736385  1
  Nd  Nd1  1  0.187767  0.687440  0.261153  1
  Nd  Nd2  1  0.686139  0.813908  0.739428  1
  Sm  Sm3  1  0.810551  0.310152  0.262266  1
  Mo  Mo4  1  0.208861  0.707085  0.646419  1
  Mo  Mo5  1  0.792850  0.291012  0.644500  1
  Mo  Mo6  1  0.708426  0.792348  0.354061  1
  Mo  Mo7  1  0.292171  0.208835  0.359281  1
  Mo  Mo8  1  0.003227  0.005604  0.998281  1
  Mo  Mo9  1  0.498253  0.493928  0.998284  1
  O  O10  1  0.197308  0.696205  0.483158  1
  O  O11  1  0.803400  0.302352  0.481102  1
  O  O12  1  0.696289  0.804386  0.517236  1
  O  O13  1  0.303367  0.197417  0.522822  1
  O  O14  1  0.623181  0.131695  0.690699  1
  O  O15  1  0.368306  0.877065  0.692419  1
  O  O16  1  0.125542  0.370473  0.312394  1
  O  O17  1  0.870548  0.625145  0.307508  1
  O  O18  1  0.776038  0.001043  0.295440  1
  O  O19  1  0.228017  0.999534  0.300149  1
  O  O20  1  0.501321  0.275574  0.300626  1
  O  O21  1  0.499709  0.727406  0.294887  1
  O  O22  1  0.003127  0.222988  0.701556  1
  O  O23  1  0.998974  0.769958  0.705037  1
  O  O24  1  0.730233  0.501120  0.703229  1
  O  O25  1  0.277170  0.496896  0.703356  1
  O  O26  1  0.812986  0.962135  0.905956  1
  O  O27  1  0.186829  0.052310  0.899793  1
  O  O28  1  0.452619  0.310862  0.898816  1
  O  O29  1  0.542709  0.684877  0.907005  1
  O  O30  1  0.959934  0.189960  0.097035  1
  O  O31  1  0.049655  0.816813  0.091303  1
  O  O32  1  0.684083  0.446624  0.094317  1
  O  O33  1  0.311034  0.536107  0.094101  1
