# generated using pymatgen
data_Dy8ErLu3Ga20
_symmetry_space_group_name_H-M   'P 1'
_cell_length_a   6.05351203
_cell_length_b   9.59979300
_cell_length_c   11.51961905
_cell_angle_alpha   90.00000000
_cell_angle_beta   90.01107772
_cell_angle_gamma   90.00000000
_symmetry_Int_Tables_number   1
_chemical_formula_structural   Dy8ErLu3Ga20
_chemical_formula_sum   'Dy8 Er1 Lu3 Ga20'
_cell_volume   669.43341655
_cell_formula_units_Z   1
loop_
 _symmetry_equiv_pos_site_id
 _symmetry_equiv_pos_as_xyz
  1  'x, y, z'
loop_
 _atom_site_type_symbol
 _atom_site_label
 _atom_site_symmetry_multiplicity
 _atom_site_fract_x
 _atom_site_fract_y
 _atom_site_fract_z
 _atom_site_occupancy
  Dy  Dy0  1  0.890558  0.506432  0.351307  1
  Dy  Dy1  1  0.609327  0.993728  0.851048  1
  Dy  Dy2  1  0.109554  0.006572  0.648732  1
  Dy  Dy3  1  0.390336  0.493375  0.148748  1
  Dy  Dy4  1  0.109554  0.493428  0.648732  1
  Dy  Dy5  1  0.390336  0.006625  0.148748  1
  Dy  Dy6  1  0.890558  0.993568  0.351307  1
  Dy  Dy7  1  0.609327  0.506272  0.851048  1
  Er  Er8  1  0.849846  0.750000  0.073953  1
  Lu  Lu9  1  0.650558  0.750000  0.574024  1
  Lu  Lu10  1  0.150553  0.250000  0.925898  1
  Lu  Lu11  1  0.349459  0.250000  0.425895  1
  Ga  Ga12  1  0.875959  0.053526  0.089657  1
  Ga  Ga13  1  0.623985  0.447066  0.589544  1
  Ga  Ga14  1  0.124198  0.552804  0.910289  1
  Ga  Ga15  1  0.376108  0.947036  0.410544  1
  Ga  Ga16  1  0.124198  0.947196  0.910289  1
  Ga  Ga17  1  0.376108  0.552964  0.410544  1
  Ga  Ga18  1  0.875959  0.446474  0.089657  1
  Ga  Ga19  1  0.623985  0.052934  0.589544  1
  Ga  Ga20  1  0.168152  0.750000  0.254460  1
  Ga  Ga21  1  0.332822  0.750000  0.753833  1
  Ga  Ga22  1  0.832804  0.250000  0.745984  1
  Ga  Ga23  1  0.667205  0.250000  0.246046  1
  Ga  Ga24  1  0.377690  0.750000  0.001323  1
  Ga  Ga25  1  0.121204  0.750000  0.501678  1
  Ga  Ga26  1  0.621114  0.250000  0.998491  1
  Ga  Ga27  1  0.878710  0.250000  0.498460  1
  Ga  Ga28  1  0.604259  0.750000  0.299127  1
  Ga  Ga29  1  0.895483  0.750000  0.798293  1
  Ga  Ga30  1  0.395470  0.250000  0.701414  1
  Ga  Ga31  1  0.104621  0.250000  0.201378  1
