# generated using pymatgen
data_Nb5Cr(TcP)6
_symmetry_space_group_name_H-M   'P 1'
_cell_length_a   7.37859028
_cell_length_b   7.37859102
_cell_length_c   7.37859058
_cell_angle_alpha   126.80594495
_cell_angle_beta   123.53283658
_cell_angle_gamma   81.28489566
_symmetry_Int_Tables_number   1
_chemical_formula_structural   Nb5Cr(TcP)6
_chemical_formula_sum   'Nb5 Cr1 Tc6 P6'
_cell_volume   258.24000535
_cell_formula_units_Z   1
loop_
 _symmetry_equiv_pos_site_id
 _symmetry_equiv_pos_as_xyz
  1  'x, y, z'
loop_
 _atom_site_type_symbol
 _atom_site_label
 _atom_site_symmetry_multiplicity
 _atom_site_fract_x
 _atom_site_fract_y
 _atom_site_fract_z
 _atom_site_occupancy
  Nb  Nb0  1  0.710692  0.439961  0.729268  1
  Nb  Nb1  1  0.289308  0.018577  0.729268  1
  Nb  Nb2  1  0.209728  0.369324  0.159596  1
  Nb  Nb3  1  0.790272  0.949869  0.159596  1
  Nb  Nb4  1  0.500000  0.569736  0.069736  1
  Cr  Cr5  1  0.000000  0.623521  0.623521  1
  Tc  Tc6  1  0.790448  0.257232  0.047679  1
  Tc  Tc7  1  0.209552  0.257232  0.466784  1
  Tc  Tc8  1  0.836009  0.995248  0.582910  1
  Tc  Tc9  1  0.163991  0.746901  0.159239  1
  Tc  Tc10  1  0.412338  0.995248  0.159239  1
  Tc  Tc11  1  0.587662  0.746901  0.582910  1
  P  P12  1  0.387282  0.661556  0.725535  1
  P  P13  1  0.612718  0.338254  0.274274  1
  P  P14  1  0.936021  0.661556  0.274274  1
  P  P15  1  0.063979  0.338254  0.725535  1
  P  P16  1  0.500000  0.068437  0.568437  1
  P  P17  1  0.000000  0.963893  0.963893  1
