# generated using pymatgen
data_Ho3Zn3Ag2Ir
_symmetry_space_group_name_H-M   'P 1'
_cell_length_a   7.57894300
_cell_length_b   7.57894360
_cell_length_c   3.72401100
_cell_angle_alpha   90.00000000
_cell_angle_beta   90.00000000
_cell_angle_gamma   119.99999535
_symmetry_Int_Tables_number   1
_chemical_formula_structural   Ho3Zn3Ag2Ir
_chemical_formula_sum   'Ho3 Zn3 Ag2 Ir1'
_cell_volume   185.25030141
_cell_formula_units_Z   1
loop_
 _symmetry_equiv_pos_site_id
 _symmetry_equiv_pos_as_xyz
  1  'x, y, z'
loop_
 _atom_site_type_symbol
 _atom_site_label
 _atom_site_symmetry_multiplicity
 _atom_site_fract_x
 _atom_site_fract_y
 _atom_site_fract_z
 _atom_site_occupancy
  Ho  Ho0  1  0.393094  0.974579  0.000000  1
  Ho  Ho1  1  0.025421  0.418514  0.000000  1
  Ho  Ho2  1  0.581486  0.606906  0.000000  1
  Zn  Zn3  1  0.730407  0.996487  0.500000  1
  Zn  Zn4  1  0.266080  0.269593  0.500000  1
  Zn  Zn5  1  0.003513  0.733919  0.500000  1
  Ag  Ag6  1  0.000000  0.000000  0.000000  1
  Ag  Ag7  1  0.666667  0.333334  0.500000  1
  Ir  Ir8  1  0.333334  0.666667  0.500000  1
