# generated using pymatgen
data_NdDyHo2(Si3Rh)2
_symmetry_space_group_name_H-M   'P 1'
_cell_length_a   8.19153201
_cell_length_b   8.19209132
_cell_length_c   8.00335900
_cell_angle_alpha   90.00000000
_cell_angle_beta   90.00000000
_cell_angle_gamma   120.00226196
_symmetry_Int_Tables_number   1
_chemical_formula_structural   NdDyHo2(Si3Rh)2
_chemical_formula_sum   'Nd2 Dy2 Ho4 Si12 Rh4'
_cell_volume   465.10707728
_cell_formula_units_Z   2
loop_
 _symmetry_equiv_pos_site_id
 _symmetry_equiv_pos_as_xyz
  1  'x, y, z'
loop_
 _atom_site_type_symbol
 _atom_site_label
 _atom_site_symmetry_multiplicity
 _atom_site_fract_x
 _atom_site_fract_y
 _atom_site_fract_z
 _atom_site_occupancy
  Nd  Nd0  1  0.999960  0.999980  0.250000  1
  Nd  Nd1  1  0.000046  0.000023  0.750000  1
  Dy  Dy2  1  0.508788  0.491295  0.250000  1
  Dy  Dy3  1  0.508788  0.017492  0.250000  1
  Ho  Ho4  1  0.982620  0.491310  0.250000  1
  Ho  Ho5  1  0.491251  0.508728  0.750000  1
  Ho  Ho6  1  0.491251  0.982523  0.750000  1
  Ho  Ho7  1  0.017466  0.508733  0.750000  1
  Si  Si8  1  0.168251  0.831628  0.500796  1
  Si  Si9  1  0.168251  0.336623  0.500796  1
  Si  Si10  1  0.663391  0.831695  0.500838  1
  Si  Si11  1  0.831786  0.168409  0.499445  1
  Si  Si12  1  0.831786  0.663378  0.499445  1
  Si  Si13  1  0.336563  0.168282  0.499577  1
  Si  Si14  1  0.831786  0.168409  0.000555  1
  Si  Si15  1  0.831786  0.663378  0.000555  1
  Si  Si16  1  0.336563  0.168282  0.000423  1
  Si  Si17  1  0.168251  0.831628  0.999204  1
  Si  Si18  1  0.168251  0.336623  0.999204  1
  Si  Si19  1  0.663391  0.831695  0.999162  1
  Rh  Rh20  1  0.333089  0.666545  0.465915  1
  Rh  Rh21  1  0.666798  0.333398  0.534824  1
  Rh  Rh22  1  0.666798  0.333398  0.965176  1
  Rh  Rh23  1  0.333089  0.666545  0.034085  1
