# generated using pymatgen
data_Y7HoSc12(GaSi3)4
_symmetry_space_group_name_H-M   'P 1'
_cell_length_a   7.13785507
_cell_length_b   7.41670457
_cell_length_c   14.15229011
_cell_angle_alpha   89.99303683
_cell_angle_beta   89.86755569
_cell_angle_gamma   90.13697282
_symmetry_Int_Tables_number   1
_chemical_formula_structural   Y7HoSc12(GaSi3)4
_chemical_formula_sum   'Y7 Ho1 Sc12 Ga4 Si12'
_cell_volume   749.20906556
_cell_formula_units_Z   1
loop_
 _symmetry_equiv_pos_site_id
 _symmetry_equiv_pos_as_xyz
  1  'x, y, z'
loop_
 _atom_site_type_symbol
 _atom_site_label
 _atom_site_symmetry_multiplicity
 _atom_site_fract_x
 _atom_site_fract_y
 _atom_site_fract_z
 _atom_site_occupancy
  Y  Y0  1  0.013569  0.174488  0.097179  1
  Y  Y1  1  0.988066  0.825102  0.901684  1
  Y  Y2  1  0.487017  0.676682  0.901420  1
  Y  Y3  1  0.987672  0.827629  0.600265  1
  Y  Y4  1  0.510801  0.321685  0.097349  1
  Y  Y5  1  0.009820  0.174448  0.400672  1
  Y  Y6  1  0.511154  0.324772  0.400590  1
  Ho  Ho7  1  0.490108  0.675880  0.600724  1
  Sc  Sc8  1  0.162546  0.500864  0.751223  1
  Sc  Sc9  1  0.836958  0.498465  0.250089  1
  Sc  Sc10  1  0.336582  0.001865  0.248515  1
  Sc  Sc11  1  0.662936  0.998494  0.749922  1
  Sc  Sc12  1  0.333122  0.174963  0.627658  1
  Sc  Sc13  1  0.669338  0.825866  0.373811  1
  Sc  Sc14  1  0.170245  0.674208  0.373066  1
  Sc  Sc15  1  0.668790  0.825827  0.125527  1
  Sc  Sc16  1  0.828798  0.324370  0.626695  1
  Sc  Sc17  1  0.330468  0.175804  0.874565  1
  Sc  Sc18  1  0.829190  0.323181  0.874147  1
  Sc  Sc19  1  0.172990  0.675694  0.124615  1
  Ga  Ga20  1  0.161592  0.461697  0.539879  1
  Ga  Ga21  1  0.839568  0.538108  0.461262  1
  Ga  Ga22  1  0.340068  0.961635  0.461440  1
  Ga  Ga23  1  0.840230  0.538064  0.038797  1
  Si  Si24  1  0.033098  0.116854  0.751145  1
  Si  Si25  1  0.966839  0.883529  0.249292  1
  Si  Si26  1  0.467227  0.615056  0.248531  1
  Si  Si27  1  0.532970  0.384842  0.750993  1
  Si  Si28  1  0.286118  0.872153  0.750858  1
  Si  Si29  1  0.715076  0.127162  0.248730  1
  Si  Si30  1  0.214203  0.372734  0.248870  1
  Si  Si31  1  0.786406  0.628207  0.751265  1
  Si  Si32  1  0.657659  0.036101  0.539438  1
  Si  Si33  1  0.157843  0.463485  0.960699  1
  Si  Si34  1  0.656449  0.036031  0.961168  1
  Si  Si35  1  0.344482  0.964050  0.037924  1
