# generated using pymatgen
data_NpVN2
_symmetry_space_group_name_H-M   'P 1'
_cell_length_a   3.16170000
_cell_length_b   5.45632300
_cell_length_c   10.58366000
_cell_angle_alpha   90.00000000
_cell_angle_beta   90.00000000
_cell_angle_gamma   90.00000000
_symmetry_Int_Tables_number   1
_chemical_formula_structural   NpVN2
_chemical_formula_sum   'Np4 V4 N8'
_cell_volume   182.58143262
_cell_formula_units_Z   4
loop_
 _symmetry_equiv_pos_site_id
 _symmetry_equiv_pos_as_xyz
  1  'x, y, z'
loop_
 _atom_site_type_symbol
 _atom_site_label
 _atom_site_symmetry_multiplicity
 _atom_site_fract_x
 _atom_site_fract_y
 _atom_site_fract_z
 _atom_site_occupancy
  Np  Np0  1  0.750000  0.078137  0.857967  1
  Np  Np1  1  0.750000  0.578137  0.642033  1
  Np  Np2  1  0.250000  0.921863  0.142033  1
  Np  Np3  1  0.250000  0.421863  0.357967  1
  V  V4  1  0.250000  0.077142  0.598151  1
  V  V5  1  0.750000  0.422858  0.098151  1
  V  V6  1  0.250000  0.577142  0.901849  1
  V  V7  1  0.750000  0.922858  0.401849  1
  N  N8  1  0.250000  0.335744  0.745652  1
  N  N9  1  0.750000  0.164256  0.245652  1
  N  N10  1  0.250000  0.261999  0.007647  1
  N  N11  1  0.750000  0.664256  0.254348  1
  N  N12  1  0.250000  0.835744  0.754348  1
  N  N13  1  0.750000  0.738001  0.992353  1
  N  N14  1  0.750000  0.238001  0.507647  1
  N  N15  1  0.250000  0.761999  0.492353  1
