# generated using pymatgen
data_Ba3MoI2O5
_symmetry_space_group_name_H-M   'P 1'
_cell_length_a   8.35872928
_cell_length_b   8.35872917
_cell_length_c   11.89431200
_cell_angle_alpha   90.00000000
_cell_angle_beta   90.00000000
_cell_angle_gamma   137.61307270
_symmetry_Int_Tables_number   1
_chemical_formula_structural   Ba3MoI2O5
_chemical_formula_sum   'Ba6 Mo2 I4 O10'
_cell_volume   560.22952859
_cell_formula_units_Z   2
loop_
 _symmetry_equiv_pos_site_id
 _symmetry_equiv_pos_as_xyz
  1  'x, y, z'
loop_
 _atom_site_type_symbol
 _atom_site_label
 _atom_site_symmetry_multiplicity
 _atom_site_fract_x
 _atom_site_fract_y
 _atom_site_fract_z
 _atom_site_occupancy
  Ba  Ba0  1  0.338294  0.661706  0.963620  1
  Ba  Ba1  1  0.661706  0.338294  0.463620  1
  Ba  Ba2  1  0.338294  0.661706  0.536380  1
  Ba  Ba3  1  0.122511  0.877489  0.750000  1
  Ba  Ba4  1  0.661706  0.338294  0.036380  1
  Ba  Ba5  1  0.877489  0.122511  0.250000  1
  Mo  Mo6  1  0.242369  0.757631  0.250000  1
  Mo  Mo7  1  0.757631  0.242369  0.750000  1
  I  I8  1  0.505387  0.494613  0.750000  1
  I  I9  1  0.000000  0.000000  0.000000  1
  I  I10  1  0.000000  0.000000  0.500000  1
  I  I11  1  0.494613  0.505387  0.250000  1
  O  O12  1  0.493922  0.947013  0.137580  1
  O  O13  1  0.868994  0.131006  0.750000  1
  O  O14  1  0.947013  0.493922  0.637580  1
  O  O15  1  0.506078  0.052987  0.862420  1
  O  O16  1  0.131006  0.868994  0.250000  1
  O  O17  1  0.506078  0.052987  0.637580  1
  O  O18  1  0.947013  0.493922  0.862420  1
  O  O19  1  0.052987  0.506078  0.137580  1
  O  O20  1  0.493922  0.947013  0.362420  1
  O  O21  1  0.052987  0.506078  0.362420  1
