# generated using pymatgen
data_Sc12Al2RhI16
_symmetry_space_group_name_H-M   'P 1'
_cell_length_a   9.27539580
_cell_length_b   12.29902065
_cell_length_c   12.96121904
_cell_angle_alpha   116.88650438
_cell_angle_beta   101.09028646
_cell_angle_gamma   100.49482573
_symmetry_Int_Tables_number   1
_chemical_formula_structural   Sc12Al2RhI16
_chemical_formula_sum   'Sc12 Al2 Rh1 I16'
_cell_volume   1231.43472806
_cell_formula_units_Z   1
loop_
 _symmetry_equiv_pos_site_id
 _symmetry_equiv_pos_as_xyz
  1  'x, y, z'
loop_
 _atom_site_type_symbol
 _atom_site_label
 _atom_site_symmetry_multiplicity
 _atom_site_fract_x
 _atom_site_fract_y
 _atom_site_fract_z
 _atom_site_occupancy
  Sc  Sc0  1  0.090136  0.273333  0.361179  1
  Sc  Sc1  1  0.900972  0.727010  0.638966  1
  Sc  Sc2  1  0.772132  0.535891  0.330932  1
  Sc  Sc3  1  0.218900  0.464313  0.668677  1
  Sc  Sc4  1  0.274287  0.726957  0.638564  1
  Sc  Sc5  1  0.716533  0.272708  0.361231  1
  Sc  Sc6  1  0.145573  0.536057  0.331267  1
  Sc  Sc7  1  0.845581  0.463924  0.669228  1
  Sc  Sc8  1  0.413934  0.365125  0.282503  1
  Sc  Sc9  1  0.595705  0.634746  0.717453  1
  Sc  Sc10  1  0.465619  0.314275  0.521481  1
  Sc  Sc11  1  0.544388  0.685798  0.478462  1
  Al  Al12  1  0.992406  0.499948  0.500035  1
  Al  Al13  1  0.350191  0.500101  0.499928  1
  Rh  Rh14  1  0.660731  0.499865  0.500079  1
  I  I15  1  0.391349  0.729836  0.870063  1
  I  I16  1  0.608822  0.267255  0.125329  1
  I  I17  1  0.180007  0.949056  0.774320  1
  I  I18  1  0.816253  0.050965  0.225742  1
  I  I19  1  0.344136  0.108229  0.260837  1
  I  I20  1  0.661234  0.891685  0.739150  1
  I  I21  1  0.565547  0.437358  0.791503  1
  I  I22  1  0.440504  0.562577  0.208458  1
  I  I23  1  0.303335  0.816485  0.463372  1
  I  I24  1  0.697947  0.179533  0.537080  1
  I  I25  1  0.169380  0.183993  0.536147  1
  I  I26  1  0.833741  0.820069  0.463337  1
  I  I27  1  0.925730  0.571924  0.166825  1
  I  I28  1  0.071086  0.428128  0.833215  1
  I  I29  1  0.922042  0.732289  0.874768  1
  I  I30  1  0.081802  0.270569  0.129871  1
