# generated using pymatgen
data_Ta11B8W
_symmetry_space_group_name_H-M   'P 1'
_cell_length_a   3.30385600
_cell_length_b   6.19135828
_cell_length_c   12.38405615
_cell_angle_alpha   89.97379784
_cell_angle_beta   90.00000000
_cell_angle_gamma   90.00000000
_symmetry_Int_Tables_number   1
_chemical_formula_structural   Ta11B8W
_chemical_formula_sum   'Ta11 B8 W1'
_cell_volume   253.32025326
_cell_formula_units_Z   1
loop_
 _symmetry_equiv_pos_site_id
 _symmetry_equiv_pos_as_xyz
  1  'x, y, z'
loop_
 _atom_site_type_symbol
 _atom_site_label
 _atom_site_symmetry_multiplicity
 _atom_site_fract_x
 _atom_site_fract_y
 _atom_site_fract_z
 _atom_site_occupancy
  Ta  Ta0  1  0.500000  0.821197  0.087566  1
  Ta  Ta1  1  0.500000  0.823079  0.588553  1
  Ta  Ta2  1  0.500000  0.178803  0.912434  1
  Ta  Ta3  1  0.500000  0.176921  0.411447  1
  Ta  Ta4  1  0.500000  0.675453  0.840147  1
  Ta  Ta5  1  0.500000  0.677113  0.337613  1
  Ta  Ta6  1  0.500000  0.324547  0.159853  1
  Ta  Ta7  1  0.500000  0.322887  0.662387  1
  Ta  Ta8  1  0.000000  0.500000  0.500000  1
  Ta  Ta9  1  0.000000  0.000196  0.750419  1
  Ta  Ta10  1  0.000000  0.999804  0.249581  1
  B  B11  1  0.000000  0.391261  0.805802  1
  B  B12  1  0.000000  0.391286  0.303503  1
  B  B13  1  0.000000  0.608739  0.194198  1
  B  B14  1  0.000000  0.608714  0.696497  1
  B  B15  1  0.000000  0.109808  0.054525  1
  B  B16  1  0.000000  0.108491  0.554297  1
  B  B17  1  0.000000  0.890192  0.945475  1
  B  B18  1  0.000000  0.891509  0.445703  1
  W  W19  1  0.000000  0.500000  0.000000  1
