# generated using pymatgen
data_Ho2FeCo5P4
_symmetry_space_group_name_H-M   'P 1'
_cell_length_a   3.68235600
_cell_length_b   10.50414900
_cell_length_c   12.09214100
_cell_angle_alpha   90.00000000
_cell_angle_beta   90.00000000
_cell_angle_gamma   90.00000000
_symmetry_Int_Tables_number   1
_chemical_formula_structural   Ho2FeCo5P4
_chemical_formula_sum   'Ho6 Fe3 Co15 P12'
_cell_volume   467.72420850
_cell_formula_units_Z   3
loop_
 _symmetry_equiv_pos_site_id
 _symmetry_equiv_pos_as_xyz
  1  'x, y, z'
loop_
 _atom_site_type_symbol
 _atom_site_label
 _atom_site_symmetry_multiplicity
 _atom_site_fract_x
 _atom_site_fract_y
 _atom_site_fract_z
 _atom_site_occupancy
  Ho  Ho0  1  0.000000  0.500000  0.522465  1
  Ho  Ho1  1  0.500000  0.000000  0.477397  1
  Ho  Ho2  1  0.500000  0.817767  0.204964  1
  Ho  Ho3  1  0.500000  0.182233  0.204964  1
  Ho  Ho4  1  0.000000  0.680732  0.795723  1
  Ho  Ho5  1  0.000000  0.319268  0.795723  1
  Fe  Fe6  1  0.000000  0.500000  0.988247  1
  Fe  Fe7  1  0.500000  0.500000  0.155816  1
  Fe  Fe8  1  0.000000  0.000000  0.842548  1
  Co  Co9  1  0.500000  0.000000  0.013853  1
  Co  Co10  1  0.500000  0.297148  0.430577  1
  Co  Co11  1  0.500000  0.702852  0.430577  1
  Co  Co12  1  0.000000  0.203317  0.569532  1
  Co  Co13  1  0.000000  0.796683  0.569532  1
  Co  Co14  1  0.500000  0.878826  0.708772  1
  Co  Co15  1  0.500000  0.121174  0.708772  1
  Co  Co16  1  0.000000  0.621109  0.290683  1
  Co  Co17  1  0.000000  0.378891  0.290683  1
  Co  Co18  1  0.500000  0.331220  0.994154  1
  Co  Co19  1  0.500000  0.668780  0.994154  1
  Co  Co20  1  0.000000  0.166344  0.005909  1
  Co  Co21  1  0.000000  0.833656  0.005909  1
  Co  Co22  1  0.500000  0.500000  0.701300  1
  Co  Co23  1  0.000000  0.000000  0.298652  1
  P  P24  1  0.500000  0.310773  0.616530  1
  P  P25  1  0.500000  0.689227  0.616530  1
  P  P26  1  0.000000  0.189578  0.383556  1
  P  P27  1  0.000000  0.810422  0.383556  1
  P  P28  1  0.500000  0.500000  0.883939  1
  P  P29  1  0.000000  0.000000  0.118112  1
  P  P30  1  0.500000  0.847527  0.892337  1
  P  P31  1  0.500000  0.152473  0.892337  1
  P  P32  1  0.000000  0.652619  0.106728  1
  P  P33  1  0.000000  0.347381  0.106728  1
  P  P34  1  0.500000  0.500000  0.342275  1
  P  P35  1  0.000000  0.000000  0.656469  1
