# generated using pymatgen
data_Na3Ga(SeO4)3
_symmetry_space_group_name_H-M   'P 1'
_cell_length_a   8.71946545
_cell_length_b   8.71946511
_cell_length_c   8.71946463
_cell_angle_alpha   107.37071285
_cell_angle_beta   107.37071110
_cell_angle_gamma   107.37071830
_symmetry_Int_Tables_number   1
_chemical_formula_structural   Na3Ga(SeO4)3
_chemical_formula_sum   'Na6 Ga2 Se6 O24'
_cell_volume   546.41750051
_cell_formula_units_Z   2
loop_
 _symmetry_equiv_pos_site_id
 _symmetry_equiv_pos_as_xyz
  1  'x, y, z'
loop_
 _atom_site_type_symbol
 _atom_site_label
 _atom_site_symmetry_multiplicity
 _atom_site_fract_x
 _atom_site_fract_y
 _atom_site_fract_z
 _atom_site_occupancy
  Na  Na0  1  0.760805  0.609071  0.145321  1
  Na  Na1  1  0.390928  0.854678  0.239196  1
  Na  Na2  1  0.854678  0.239196  0.390929  1
  Na  Na3  1  0.145322  0.760804  0.609071  1
  Na  Na4  1  0.609071  0.145322  0.760804  1
  Na  Na5  1  0.239195  0.390929  0.854678  1
  Ga  Ga6  1  0.000000  0.000000  0.000000  1
  Ga  Ga7  1  0.500000  0.500000  0.500000  1
  Se  Se8  1  0.443897  0.233074  0.099871  1
  Se  Se9  1  0.099870  0.443898  0.233074  1
  Se  Se10  1  0.233074  0.099871  0.443898  1
  Se  Se11  1  0.766927  0.900130  0.556103  1
  Se  Se12  1  0.900130  0.556103  0.766926  1
  Se  Se13  1  0.556103  0.766926  0.900130  1
  O  O14  1  0.780925  0.870998  0.023764  1
  O  O15  1  0.478937  0.704816  0.034668  1
  O  O16  1  0.976236  0.219075  0.129001  1
  O  O17  1  0.184132  0.530046  0.116219  1
  O  O18  1  0.530047  0.116219  0.184131  1
  O  O19  1  0.487043  0.430614  0.256467  1
  O  O20  1  0.129002  0.976235  0.219075  1
  O  O21  1  0.965332  0.521064  0.295184  1
  O  O22  1  0.256467  0.487043  0.430614  1
  O  O23  1  0.883781  0.815869  0.469955  1
  O  O24  1  0.704816  0.034668  0.478937  1
  O  O25  1  0.430614  0.256467  0.487044  1
  O  O26  1  0.569386  0.743534  0.512957  1
  O  O27  1  0.295185  0.965332  0.521063  1
  O  O28  1  0.116220  0.184131  0.530046  1
  O  O29  1  0.743533  0.512957  0.569387  1
  O  O30  1  0.034668  0.478937  0.704816  1
  O  O31  1  0.870998  0.023765  0.780924  1
  O  O32  1  0.512957  0.569386  0.743533  1
  O  O33  1  0.469954  0.883782  0.815869  1
  O  O34  1  0.815869  0.469954  0.883781  1
  O  O35  1  0.023764  0.780924  0.870998  1
  O  O36  1  0.521063  0.295184  0.965332  1
  O  O37  1  0.219075  0.129002  0.976235  1
