# generated using pymatgen
data_Ho20Sn11Bi3Pb2
_symmetry_space_group_name_H-M   'P 1'
_cell_length_a   8.13766470
_cell_length_b   15.44454718
_cell_length_c   8.17176641
_cell_angle_alpha   90.07777522
_cell_angle_beta   89.97503716
_cell_angle_gamma   90.37831193
_symmetry_Int_Tables_number   1
_chemical_formula_structural   Ho20Sn11Bi3Pb2
_chemical_formula_sum   'Ho20 Sn11 Bi3 Pb2'
_cell_volume   1027.02498307
_cell_formula_units_Z   1
loop_
 _symmetry_equiv_pos_site_id
 _symmetry_equiv_pos_as_xyz
  1  'x, y, z'
loop_
 _atom_site_type_symbol
 _atom_site_label
 _atom_site_symmetry_multiplicity
 _atom_site_fract_x
 _atom_site_fract_y
 _atom_site_fract_z
 _atom_site_occupancy
  Ho  Ho0  1  0.620165  0.622122  0.157578  1
  Ho  Ho1  1  0.125082  0.878491  0.337328  1
  Ho  Ho2  1  0.378633  0.121402  0.837199  1
  Ho  Ho3  1  0.882536  0.376855  0.664759  1
  Ho  Ho4  1  0.385619  0.377306  0.835899  1
  Ho  Ho5  1  0.883184  0.122862  0.662453  1
  Ho  Ho6  1  0.619168  0.876996  0.158454  1
  Ho  Ho7  1  0.120269  0.622947  0.341016  1
  Ho  Ho8  1  0.452201  0.607732  0.671814  1
  Ho  Ho9  1  0.964967  0.896712  0.831371  1
  Ho  Ho10  1  0.532789  0.104556  0.323431  1
  Ho  Ho11  1  0.040321  0.391952  0.170972  1
  Ho  Ho12  1  0.544994  0.391046  0.325985  1
  Ho  Ho13  1  0.045927  0.104704  0.172464  1
  Ho  Ho14  1  0.452331  0.895461  0.677025  1
  Ho  Ho15  1  0.950607  0.606734  0.830165  1
  Ho  Ho16  1  0.788464  0.751230  0.499193  1
  Ho  Ho17  1  0.288201  0.753908  0.001735  1
  Ho  Ho18  1  0.211235  0.248443  0.500819  1
  Ho  Ho19  1  0.711259  0.250503  0.998422  1
  Sn  Sn20  1  0.723705  0.456236  0.974294  1
  Sn  Sn21  1  0.220527  0.042835  0.529683  1
  Sn  Sn22  1  0.283433  0.957295  0.031048  1
  Sn  Sn23  1  0.424689  0.749239  0.374942  1
  Sn  Sn24  1  0.924166  0.749621  0.126694  1
  Sn  Sn25  1  0.578044  0.248792  0.624033  1
  Sn  Sn26  1  0.078182  0.250509  0.874997  1
  Sn  Sn27  1  0.651445  0.750654  0.851794  1
  Sn  Sn28  1  0.149277  0.750167  0.648064  1
  Sn  Sn29  1  0.346418  0.250109  0.144866  1
  Sn  Sn30  1  0.846851  0.248456  0.353287  1
  Bi  Bi31  1  0.775843  0.543636  0.474639  1
  Bi  Bi32  1  0.275222  0.544147  0.024681  1
  Bi  Bi33  1  0.777755  0.956953  0.472527  1
  Pb  Pb34  1  0.721751  0.042629  0.971457  1
  Pb  Pb35  1  0.224737  0.456762  0.524914  1
