# generated using pymatgen
data_Dy5Ho11In3AgIr4
_symmetry_space_group_name_H-M   'P 1'
_cell_length_a   9.60722384
_cell_length_b   9.60477920
_cell_length_c   9.60478033
_cell_angle_alpha   59.94651397
_cell_angle_beta   59.95075782
_cell_angle_gamma   59.95075076
_symmetry_Int_Tables_number   1
_chemical_formula_structural   Dy5Ho11In3AgIr4
_chemical_formula_sum   'Dy5 Ho11 In3 Ag1 Ir4'
_cell_volume   625.97713372
_cell_formula_units_Z   1
loop_
 _symmetry_equiv_pos_site_id
 _symmetry_equiv_pos_as_xyz
  1  'x, y, z'
loop_
 _atom_site_type_symbol
 _atom_site_label
 _atom_site_symmetry_multiplicity
 _atom_site_fract_x
 _atom_site_fract_y
 _atom_site_fract_z
 _atom_site_occupancy
  Dy  Dy0  1  0.809941  0.189670  0.189670  1
  Dy  Dy1  1  0.811172  0.185800  0.810971  1
  Dy  Dy2  1  0.189663  0.809961  0.189495  1
  Dy  Dy3  1  0.811172  0.810971  0.185800  1
  Dy  Dy4  1  0.189663  0.189495  0.809961  1
  Ho  Ho5  1  0.598954  0.599161  0.599161  1
  Ho  Ho6  1  0.600136  0.600247  0.201019  1
  Ho  Ho7  1  0.600136  0.201019  0.600247  1
  Ho  Ho8  1  0.200871  0.600337  0.600337  1
  Ho  Ho9  1  0.058380  0.441239  0.441239  1
  Ho  Ho10  1  0.438183  0.059983  0.059983  1
  Ho  Ho11  1  0.441182  0.058296  0.441311  1
  Ho  Ho12  1  0.060033  0.438355  0.059838  1
  Ho  Ho13  1  0.441182  0.441311  0.058296  1
  Ho  Ho14  1  0.060033  0.059838  0.438355  1
  Ho  Ho15  1  0.186130  0.810923  0.810923  1
  In  In16  1  0.832322  0.832266  0.504517  1
  In  In17  1  0.832322  0.504517  0.832266  1
  In  In18  1  0.504255  0.832367  0.832367  1
  Ag  Ag19  1  0.833356  0.833015  0.833015  1
  Ir  Ir20  1  0.392136  0.392231  0.392231  1
  Ir  Ir21  1  0.391460  0.391752  0.825711  1
  Ir  Ir22  1  0.391460  0.825711  0.391752  1
  Ir  Ir23  1  0.825860  0.391537  0.391537  1
