# generated using pymatgen
data_Cs12Ta3PO16
_symmetry_space_group_name_H-M   'P 1'
_cell_length_a   6.69959029
_cell_length_b   9.04053400
_cell_length_c   12.57700888
_cell_angle_alpha   90.00000000
_cell_angle_beta   88.83478505
_cell_angle_gamma   90.00000000
_symmetry_Int_Tables_number   1
_chemical_formula_structural   Cs12Ta3PO16
_chemical_formula_sum   'Cs12 Ta3 P1 O16'
_cell_volume   761.60516461
_cell_formula_units_Z   1
loop_
 _symmetry_equiv_pos_site_id
 _symmetry_equiv_pos_as_xyz
  1  'x, y, z'
loop_
 _atom_site_type_symbol
 _atom_site_label
 _atom_site_symmetry_multiplicity
 _atom_site_fract_x
 _atom_site_fract_y
 _atom_site_fract_z
 _atom_site_occupancy
  Cs  Cs0  1  0.356080  0.250000  0.569337  1
  Cs  Cs1  1  0.193865  0.495665  0.354436  1
  Cs  Cs2  1  0.143467  0.250000  0.081718  1
  Cs  Cs3  1  0.689142  0.013863  0.156962  1
  Cs  Cs4  1  0.843133  0.750000  0.928488  1
  Cs  Cs5  1  0.807006  0.011897  0.639262  1
  Cs  Cs6  1  0.807006  0.488103  0.639262  1
  Cs  Cs7  1  0.302675  0.995414  0.850401  1
  Cs  Cs8  1  0.655710  0.750000  0.420510  1
  Cs  Cs9  1  0.689142  0.486137  0.156962  1
  Cs  Cs10  1  0.193865  0.004335  0.354436  1
  Cs  Cs11  1  0.302675  0.504586  0.850401  1
  Ta  Ta12  1  0.728668  0.250000  0.887540  1
  Ta  Ta13  1  0.229931  0.750000  0.608882  1
  Ta  Ta14  1  0.262859  0.750000  0.115453  1
  P  P15  1  0.780333  0.250000  0.387816  1
  O  O16  1  0.647978  0.107457  0.393531  1
  O  O17  1  0.105035  0.920239  0.119767  1
  O  O18  1  0.388550  0.580188  0.605632  1
  O  O19  1  0.887539  0.419226  0.887739  1
  O  O20  1  0.905161  0.250000  0.280444  1
  O  O21  1  0.422823  0.750000  0.991418  1
  O  O22  1  0.556422  0.250000  0.007421  1
  O  O23  1  0.931307  0.250000  0.482147  1
  O  O24  1  0.887539  0.080774  0.887739  1
  O  O25  1  0.105035  0.579761  0.119767  1
  O  O26  1  0.388550  0.919812  0.605632  1
  O  O27  1  0.074783  0.750000  0.733935  1
  O  O28  1  0.647978  0.392543  0.393531  1
  O  O29  1  0.061652  0.750000  0.491285  1
  O  O30  1  0.425416  0.750000  0.234793  1
  O  O31  1  0.578677  0.250000  0.763355  1
