# generated using pymatgen
data_YEr(MgIn2)2
_symmetry_space_group_name_H-M   'P 1'
_cell_length_a   6.46722090
_cell_length_b   6.46722259
_cell_length_c   4.62524400
_cell_angle_alpha   90.00000000
_cell_angle_beta   90.00000000
_cell_angle_gamma   91.63325919
_symmetry_Int_Tables_number   1
_chemical_formula_structural   YEr(MgIn2)2
_chemical_formula_sum   'Y1 Er1 Mg2 In4'
_cell_volume   193.37204051
_cell_formula_units_Z   1
loop_
 _symmetry_equiv_pos_site_id
 _symmetry_equiv_pos_as_xyz
  1  'x, y, z'
loop_
 _atom_site_type_symbol
 _atom_site_label
 _atom_site_symmetry_multiplicity
 _atom_site_fract_x
 _atom_site_fract_y
 _atom_site_fract_z
 _atom_site_occupancy
  Y  Y0  1  0.500000  0.500000  0.500000  1
  Er  Er1  1  0.000000  0.000000  0.500000  1
  Mg  Mg2  1  0.752695  0.247305  0.000000  1
  Mg  Mg3  1  0.247305  0.752695  0.000000  1
  In  In4  1  0.500000  0.000000  0.500000  1
  In  In5  1  0.000000  0.500000  0.500000  1
  In  In6  1  0.751746  0.751746  0.000000  1
  In  In7  1  0.248254  0.248254  0.000000  1
