# generated using pymatgen
data_Sc3ZnCoNiSn3
_symmetry_space_group_name_H-M   'P 1'
_cell_length_a   7.21481100
_cell_length_b   7.21481159
_cell_length_c   3.69985200
_cell_angle_alpha   90.00000000
_cell_angle_beta   90.00000000
_cell_angle_gamma   120.00000189
_symmetry_Int_Tables_number   1
_chemical_formula_structural   Sc3ZnCoNiSn3
_chemical_formula_sum   'Sc3 Zn1 Co1 Ni1 Sn3'
_cell_volume   166.78804889
_cell_formula_units_Z   1
loop_
 _symmetry_equiv_pos_site_id
 _symmetry_equiv_pos_as_xyz
  1  'x, y, z'
loop_
 _atom_site_type_symbol
 _atom_site_label
 _atom_site_symmetry_multiplicity
 _atom_site_fract_x
 _atom_site_fract_y
 _atom_site_fract_z
 _atom_site_occupancy
  Sc  Sc0  1  0.614851  0.016382  0.000000  1
  Sc  Sc1  1  0.983618  0.598468  0.000000  1
  Sc  Sc2  1  0.401532  0.385149  0.000000  1
  Zn  Zn3  1  0.333333  0.666667  0.500000  1
  Co  Co4  1  0.000000  0.000000  0.000000  1
  Ni  Ni5  1  0.666667  0.333333  0.500000  1
  Sn  Sn6  1  0.263059  0.002266  0.500000  1
  Sn  Sn7  1  0.997734  0.260792  0.500000  1
  Sn  Sn8  1  0.739208  0.736941  0.500000  1
