# generated using pymatgen
data_K2Hf3(CuSe4)2
_symmetry_space_group_name_H-M   'P 1'
_cell_length_a   3.88610381
_cell_length_b   7.82341866
_cell_length_c   13.39040539
_cell_angle_alpha   93.89638963
_cell_angle_beta   98.34349950
_cell_angle_gamma   104.38070100
_symmetry_Int_Tables_number   1
_chemical_formula_structural   K2Hf3(CuSe4)2
_chemical_formula_sum   'K2 Hf3 Cu2 Se8'
_cell_volume   387.87015228
_cell_formula_units_Z   1
loop_
 _symmetry_equiv_pos_site_id
 _symmetry_equiv_pos_as_xyz
  1  'x, y, z'
loop_
 _atom_site_type_symbol
 _atom_site_label
 _atom_site_symmetry_multiplicity
 _atom_site_fract_x
 _atom_site_fract_y
 _atom_site_fract_z
 _atom_site_occupancy
  K  K0  1  0.868612  0.535733  0.201491  1
  K  K1  1  0.131388  0.464267  0.798508  1
  Hf  Hf2  1  0.500000  0.000000  0.000000  1
  Hf  Hf3  1  0.721649  0.064565  0.378732  1
  Hf  Hf4  1  0.278350  0.935435  0.621267  1
  Cu  Cu5  1  0.147134  0.097311  0.196958  1
  Cu  Cu6  1  0.852865  0.902690  0.803041  1
  Se  Se7  1  0.144702  0.245555  0.043846  1
  Se  Se8  1  0.541810  0.894233  0.189388  1
  Se  Se9  1  0.325542  0.299471  0.351613  1
  Se  Se10  1  0.125867  0.830860  0.420875  1
  Se  Se11  1  0.874133  0.169141  0.579124  1
  Se  Se12  1  0.674459  0.700530  0.648388  1
  Se  Se13  1  0.458190  0.105767  0.810612  1
  Se  Se14  1  0.855297  0.754444  0.956153  1
