# generated using pymatgen
data_Pr5DyTl5InO18
_symmetry_space_group_name_H-M   'P 1'
_cell_length_a   6.69848770
_cell_length_b   6.69411571
_cell_length_c   12.60971597
_cell_angle_alpha   90.12677131
_cell_angle_beta   89.75740020
_cell_angle_gamma   120.00725539
_symmetry_Int_Tables_number   1
_chemical_formula_structural   Pr5DyTl5InO18
_chemical_formula_sum   'Pr5 Dy1 Tl5 In1 O18'
_cell_volume   489.63252991
_cell_formula_units_Z   1
loop_
 _symmetry_equiv_pos_site_id
 _symmetry_equiv_pos_as_xyz
  1  'x, y, z'
loop_
 _atom_site_type_symbol
 _atom_site_label
 _atom_site_symmetry_multiplicity
 _atom_site_fract_x
 _atom_site_fract_y
 _atom_site_fract_z
 _atom_site_occupancy
  Pr  Pr0  1  0.335610  0.670338  0.233258  1
  Pr  Pr1  1  0.995406  0.000260  0.265560  1
  Pr  Pr2  1  0.997916  0.999930  0.765846  1
  Pr  Pr3  1  0.337936  0.670117  0.726585  1
  Pr  Pr4  1  0.667877  0.329970  0.728107  1
  Dy  Dy5  1  0.665390  0.329233  0.229792  1
  Tl  Tl6  1  0.997744  0.664468  0.493420  1
  Tl  Tl7  1  0.999605  0.335462  0.997325  1
  Tl  Tl8  1  0.336274  0.332945  0.493407  1
  Tl  Tl9  1  0.665652  0.663125  0.997460  1
  Tl  Tl10  1  0.335135  0.001474  0.997137  1
  In  In11  1  0.666854  0.002516  0.494154  1
  O  O12  1  0.001647  0.692582  0.665195  1
  O  O13  1  0.986758  0.629207  0.323979  1
  O  O14  1  0.001258  0.361790  0.824904  1
  O  O15  1  0.989788  0.309930  0.171841  1
  O  O16  1  0.334312  0.667663  0.032145  1
  O  O17  1  0.983923  0.000150  0.461813  1
  O  O18  1  0.348495  0.681864  0.521503  1
  O  O19  1  0.999337  0.999934  0.964316  1
  O  O20  1  0.307832  0.308597  0.665148  1
  O  O21  1  0.370251  0.357467  0.323959  1
  O  O22  1  0.317801  0.010795  0.171555  1
  O  O23  1  0.639333  0.638201  0.824979  1
  O  O24  1  0.690747  0.679593  0.172038  1
  O  O25  1  0.359930  0.999877  0.824611  1
  O  O26  1  0.666900  0.318597  0.527726  1
  O  O27  1  0.666633  0.332195  0.033913  1
  O  O28  1  0.638455  0.013111  0.325276  1
  O  O29  1  0.695202  0.998610  0.665617  1
