# generated using pymatgen
data_Dy6Zn18Pd5S
_symmetry_space_group_name_H-M   'P 1'
_cell_length_a   9.03364424
_cell_length_b   9.05334413
_cell_length_c   9.05334400
_cell_angle_alpha   59.88857524
_cell_angle_beta   59.85529661
_cell_angle_gamma   59.85528492
_symmetry_Int_Tables_number   1
_chemical_formula_structural   Dy6Zn18Pd5S
_chemical_formula_sum   'Dy6 Zn18 Pd5 S1'
_cell_volume   521.97198839
_cell_formula_units_Z   1
loop_
 _symmetry_equiv_pos_site_id
 _symmetry_equiv_pos_as_xyz
  1  'x, y, z'
loop_
 _atom_site_type_symbol
 _atom_site_label
 _atom_site_symmetry_multiplicity
 _atom_site_fract_x
 _atom_site_fract_y
 _atom_site_fract_z
 _atom_site_occupancy
  Dy  Dy0  1  0.714168  0.285088  0.285088  1
  Dy  Dy1  1  0.285832  0.714912  0.714912  1
  Dy  Dy2  1  0.288263  0.711602  0.285229  1
  Dy  Dy3  1  0.711737  0.288398  0.714771  1
  Dy  Dy4  1  0.288263  0.285229  0.711602  1
  Dy  Dy5  1  0.711737  0.714771  0.288398  1
  Zn  Zn6  1  0.126441  0.119430  0.119430  1
  Zn  Zn7  1  0.873559  0.880570  0.880570  1
  Zn  Zn8  1  0.122854  0.123595  0.633459  1
  Zn  Zn9  1  0.122854  0.633459  0.123595  1
  Zn  Zn10  1  0.877146  0.876405  0.366541  1
  Zn  Zn11  1  0.877146  0.366541  0.876405  1
  Zn  Zn12  1  0.632332  0.122331  0.122331  1
  Zn  Zn13  1  0.367668  0.877669  0.877669  1
  Zn  Zn14  1  0.000000  0.500000  0.000000  1
  Zn  Zn15  1  0.000000  0.000000  0.500000  1
  Zn  Zn16  1  0.329637  0.328891  0.328891  1
  Zn  Zn17  1  0.670363  0.671109  0.671109  1
  Zn  Zn18  1  0.328188  0.330660  0.010252  1
  Zn  Zn19  1  0.328188  0.010252  0.330660  1
  Zn  Zn20  1  0.671812  0.669340  0.989748  1
  Zn  Zn21  1  0.671812  0.989748  0.669340  1
  Zn  Zn22  1  0.008721  0.330307  0.330307  1
  Zn  Zn23  1  0.991279  0.669693  0.669693  1
  Pd  Pd24  1  0.500000  0.000000  0.000000  1
  Pd  Pd25  1  0.000000  0.500000  0.500000  1
  Pd  Pd26  1  0.500000  0.000000  0.500000  1
  Pd  Pd27  1  0.500000  0.500000  0.000000  1
  Pd  Pd28  1  0.000000  0.000000  0.000000  1
  S  S29  1  0.500000  0.500000  0.500000  1
