# generated using pymatgen
data_Pr4DySi2Hg
_symmetry_space_group_name_H-M   'P 1'
_cell_length_a   7.68600761
_cell_length_b   7.68600630
_cell_length_c   9.43174365
_cell_angle_alpha   114.04501830
_cell_angle_beta   114.04500815
_cell_angle_gamma   90.00000874
_symmetry_Int_Tables_number   1
_chemical_formula_structural   Pr4DySi2Hg
_chemical_formula_sum   'Pr8 Dy2 Si4 Hg2'
_cell_volume   455.37525911
_cell_formula_units_Z   2
loop_
 _symmetry_equiv_pos_site_id
 _symmetry_equiv_pos_as_xyz
  1  'x, y, z'
loop_
 _atom_site_type_symbol
 _atom_site_label
 _atom_site_symmetry_multiplicity
 _atom_site_fract_x
 _atom_site_fract_y
 _atom_site_fract_z
 _atom_site_occupancy
  Pr  Pr0  1  0.961838  0.813271  0.275109  1
  Pr  Pr1  1  0.313271  0.461838  0.275109  1
  Pr  Pr2  1  0.813271  0.313271  0.275109  1
  Pr  Pr3  1  0.461838  0.961838  0.275109  1
  Pr  Pr4  1  0.038162  0.186729  0.724891  1
  Pr  Pr5  1  0.686729  0.538162  0.724891  1
  Pr  Pr6  1  0.186729  0.686729  0.724891  1
  Pr  Pr7  1  0.538162  0.038162  0.724891  1
  Dy  Dy8  1  0.500000  0.500000  0.000000  1
  Dy  Dy9  1  0.000000  0.000000  0.000000  1
  Si  Si10  1  0.619473  0.880527  0.000000  1
  Si  Si11  1  0.380527  0.119473  0.000000  1
  Si  Si12  1  0.880527  0.380527  0.000000  1
  Si  Si13  1  0.119473  0.619473  0.000000  1
  Hg  Hg14  1  0.750000  0.750000  0.500000  1
  Hg  Hg15  1  0.250000  0.250000  0.500000  1
