# generated using pymatgen
data_LaPr3(Y4Bi3)4
_symmetry_space_group_name_H-M   'P 1'
_cell_length_a   12.25046911
_cell_length_b   9.61320400
_cell_length_c   8.40211908
_cell_angle_alpha   90.00000000
_cell_angle_beta   89.98459552
_cell_angle_gamma   90.00000000
_symmetry_Int_Tables_number   1
_chemical_formula_structural   LaPr3(Y4Bi3)4
_chemical_formula_sum   'La1 Pr3 Y16 Bi12'
_cell_volume   989.48609260
_cell_formula_units_Z   1
loop_
 _symmetry_equiv_pos_site_id
 _symmetry_equiv_pos_as_xyz
  1  'x, y, z'
loop_
 _atom_site_type_symbol
 _atom_site_label
 _atom_site_symmetry_multiplicity
 _atom_site_fract_x
 _atom_site_fract_y
 _atom_site_fract_z
 _atom_site_occupancy
  La  La0  1  0.775779  0.750000  0.170225  1
  Pr  Pr1  1  0.723760  0.250000  0.669801  1
  Pr  Pr2  1  0.223911  0.250000  0.830303  1
  Pr  Pr3  1  0.275994  0.750000  0.330231  1
  Y  Y4  1  0.563789  0.060913  0.310869  1
  Y  Y5  1  0.064034  0.439382  0.189110  1
  Y  Y6  1  0.435906  0.560550  0.689200  1
  Y  Y7  1  0.936232  0.939476  0.810603  1
  Y  Y8  1  0.435906  0.939450  0.689200  1
  Y  Y9  1  0.936232  0.560524  0.810603  1
  Y  Y10  1  0.563789  0.439087  0.310869  1
  Y  Y11  1  0.064034  0.060618  0.189110  1
  Y  Y12  1  0.501985  0.250000  0.977182  1
  Y  Y13  1  0.002207  0.250000  0.522869  1
  Y  Y14  1  0.497700  0.750000  0.022483  1
  Y  Y15  1  0.998221  0.750000  0.477799  1
  Y  Y16  1  0.788966  0.250000  0.163399  1
  Y  Y17  1  0.288976  0.250000  0.336460  1
  Y  Y18  1  0.211194  0.750000  0.836445  1
  Y  Y19  1  0.710985  0.750000  0.663794  1
  Bi  Bi20  1  0.967164  0.250000  0.904888  1
  Bi  Bi21  1  0.467080  0.250000  0.595143  1
  Bi  Bi22  1  0.033812  0.750000  0.095085  1
  Bi  Bi23  1  0.532584  0.750000  0.404771  1
  Bi  Bi24  1  0.829739  0.007023  0.435684  1
  Bi  Bi25  1  0.329526  0.493480  0.064850  1
  Bi  Bi26  1  0.170474  0.506476  0.564728  1
  Bi  Bi27  1  0.670140  0.994308  0.934517  1
  Bi  Bi28  1  0.170474  0.993524  0.564728  1
  Bi  Bi29  1  0.670140  0.505692  0.934517  1
  Bi  Bi30  1  0.829739  0.492977  0.435684  1
  Bi  Bi31  1  0.329526  0.006520  0.064850  1
