# generated using pymatgen
data_KPr6IrBr12
_symmetry_space_group_name_H-M   'P 1'
_cell_length_a   9.66025892
_cell_length_b   9.65133210
_cell_length_c   9.65663335
_cell_angle_alpha   105.65770557
_cell_angle_beta   105.72220935
_cell_angle_gamma   105.71149515
_symmetry_Int_Tables_number   1
_chemical_formula_structural   KPr6IrBr12
_chemical_formula_sum   'K1 Pr6 Ir1 Br12'
_cell_volume   774.90956470
_cell_formula_units_Z   1
loop_
 _symmetry_equiv_pos_site_id
 _symmetry_equiv_pos_as_xyz
  1  'x, y, z'
loop_
 _atom_site_type_symbol
 _atom_site_label
 _atom_site_symmetry_multiplicity
 _atom_site_fract_x
 _atom_site_fract_y
 _atom_site_fract_z
 _atom_site_occupancy
  K  K0  1  0.500000  0.500000  0.500000  1
  Pr  Pr1  1  0.104261  0.313337  0.019084  1
  Pr  Pr2  1  0.313750  0.019057  0.104313  1
  Pr  Pr3  1  0.018927  0.104412  0.313529  1
  Pr  Pr4  1  0.981074  0.895588  0.686472  1
  Pr  Pr5  1  0.686250  0.980944  0.895687  1
  Pr  Pr6  1  0.895739  0.686663  0.980916  1
  Ir  Ir7  1  0.000000  0.000000  0.000000  1
  Br  Br8  1  0.215604  0.677409  0.073613  1
  Br  Br9  1  0.435137  0.349769  0.128228  1
  Br  Br10  1  0.677332  0.073575  0.215492  1
  Br  Br11  1  0.926389  0.784478  0.322583  1
  Br  Br12  1  0.128245  0.435139  0.349787  1
  Br  Br13  1  0.349743  0.128216  0.435129  1
  Br  Br14  1  0.650257  0.871784  0.564872  1
  Br  Br15  1  0.871756  0.564861  0.650213  1
  Br  Br16  1  0.073612  0.215522  0.677418  1
  Br  Br17  1  0.322669  0.926426  0.784508  1
  Br  Br18  1  0.564863  0.650231  0.871773  1
  Br  Br19  1  0.784396  0.322591  0.926387  1
