# generated using pymatgen
data_Pr5MnFeO12
_symmetry_space_group_name_H-M   'P 1'
_cell_length_a   7.06358812
_cell_length_b   7.06358725
_cell_length_c   7.60999712
_cell_angle_alpha   74.56766272
_cell_angle_beta   74.56766260
_cell_angle_gamma   50.35116320
_symmetry_Int_Tables_number   1
_chemical_formula_structural   Pr5MnFeO12
_chemical_formula_sum   'Pr5 Mn1 Fe1 O12'
_cell_volume   279.43061442
_cell_formula_units_Z   1
loop_
 _symmetry_equiv_pos_site_id
 _symmetry_equiv_pos_as_xyz
  1  'x, y, z'
loop_
 _atom_site_type_symbol
 _atom_site_label
 _atom_site_symmetry_multiplicity
 _atom_site_fract_x
 _atom_site_fract_y
 _atom_site_fract_z
 _atom_site_occupancy
  Pr  Pr0  1  0.305321  0.308642  0.355410  1
  Pr  Pr1  1  0.691358  0.694679  0.644590  1
  Pr  Pr2  1  0.696893  0.694664  0.161300  1
  Pr  Pr3  1  0.305336  0.303107  0.838700  1
  Pr  Pr4  1  0.997304  0.002696  0.500000  1
  Mn  Mn5  1  0.243724  0.756276  0.000000  1
  Fe  Fe6  1  0.757914  0.242086  0.000000  1
  O  O7  1  0.094931  0.596271  0.579702  1
  O  O8  1  0.997520  0.000433  0.168619  1
  O  O9  1  0.403729  0.905069  0.420298  1
  O  O10  1  0.501506  0.500166  0.167035  1
  O  O11  1  0.102327  0.583950  0.076184  1
  O  O12  1  0.903480  0.402929  0.422566  1
  O  O13  1  0.999567  0.002480  0.831381  1
  O  O14  1  0.597071  0.096519  0.577434  1
  O  O15  1  0.499834  0.498494  0.832965  1
  O  O16  1  0.590023  0.103887  0.075616  1
  O  O17  1  0.416050  0.897673  0.923816  1
  O  O18  1  0.896113  0.409977  0.924384  1
