# generated using pymatgen
data_NaErPa2Ge6Rh7
_symmetry_space_group_name_H-M   'P 1'
_cell_length_a   7.23127448
_cell_length_b   7.25994539
_cell_length_c   7.28186283
_cell_angle_alpha   109.49445873
_cell_angle_beta   109.33518055
_cell_angle_gamma   109.38195830
_symmetry_Int_Tables_number   1
_chemical_formula_structural   NaErPa2Ge6Rh7
_chemical_formula_sum   'Na1 Er1 Pa2 Ge6 Rh7'
_cell_volume   295.01659730
_cell_formula_units_Z   1
loop_
 _symmetry_equiv_pos_site_id
 _symmetry_equiv_pos_as_xyz
  1  'x, y, z'
loop_
 _atom_site_type_symbol
 _atom_site_label
 _atom_site_symmetry_multiplicity
 _atom_site_fract_x
 _atom_site_fract_y
 _atom_site_fract_z
 _atom_site_occupancy
  Na  Na0  1  0.000000  0.500000  0.000000  1
  Er  Er1  1  0.500000  0.000000  0.000000  1
  Pa  Pa2  1  0.000000  0.000000  0.500000  1
  Pa  Pa3  1  0.500000  0.500000  0.500000  1
  Ge  Ge4  1  0.687958  0.680439  0.000000  1
  Ge  Ge5  1  0.312362  0.987037  0.307488  1
  Ge  Ge6  1  0.995126  0.320451  0.307488  1
  Ge  Ge7  1  0.312042  0.319561  0.000000  1
  Ge  Ge8  1  0.687638  0.012963  0.692512  1
  Ge  Ge9  1  0.004874  0.679549  0.692512  1
  Rh  Rh10  1  0.748614  0.248614  0.497229  1
  Rh  Rh11  1  0.748797  0.504682  0.255808  1
  Rh  Rh12  1  0.492988  0.248873  0.744192  1
  Rh  Rh13  1  0.251203  0.495318  0.744192  1
  Rh  Rh14  1  0.251386  0.751386  0.502771  1
  Rh  Rh15  1  0.507012  0.751127  0.255808  1
  Rh  Rh16  1  0.000000  0.000000  0.000000  1
