# generated using pymatgen
data_Li13Tl3
_symmetry_space_group_name_H-M   'P 1'
_cell_length_a   9.40833000
_cell_length_b   9.40833004
_cell_length_c   9.40833000
_cell_angle_alpha   119.99999986
_cell_angle_beta   90.00000000
_cell_angle_gamma   119.99999986
_symmetry_Int_Tables_number   1
_chemical_formula_structural   Li13Tl3
_chemical_formula_sum   'Li26 Tl6'
_cell_volume   588.87434195
_cell_formula_units_Z   2
loop_
 _symmetry_equiv_pos_site_id
 _symmetry_equiv_pos_as_xyz
  1  'x, y, z'
loop_
 _atom_site_type_symbol
 _atom_site_label
 _atom_site_symmetry_multiplicity
 _atom_site_fract_x
 _atom_site_fract_y
 _atom_site_fract_z
 _atom_site_occupancy
  Li  Li0  1  0.000000  0.000000  0.000000  1
  Li  Li1  1  0.504714  0.500001  0.004714  1
  Li  Li2  1  0.504714  0.009427  0.004714  1
  Li  Li3  1  0.995288  0.500001  0.004714  1
  Li  Li4  1  0.369660  0.739320  0.108979  1
  Li  Li5  1  0.358979  0.239320  0.119660  1
  Li  Li6  1  0.880340  0.760680  0.119660  1
  Li  Li7  1  0.880340  0.239320  0.119660  1
  Li  Li8  1  0.745286  0.000000  0.254713  1
  Li  Li9  1  0.254714  0.000000  0.254714  1
  Li  Li10  1  0.254714  0.509428  0.254714  1
  Li  Li11  1  0.625000  0.250000  0.375000  1
  Li  Li12  1  0.124999  0.749999  0.375000  1
  Li  Li13  1  0.625000  0.749999  0.375000  1
  Li  Li14  1  0.995288  0.500001  0.495287  1
  Li  Li15  1  0.995288  0.990574  0.495287  1
  Li  Li16  1  0.504714  0.500001  0.495287  1
  Li  Li17  1  0.891022  0.260681  0.630340  1
  Li  Li18  1  0.369660  0.739320  0.630341  1
  Li  Li19  1  0.369660  0.260681  0.630341  1
  Li  Li20  1  0.880340  0.760680  0.641021  1
  Li  Li21  1  0.254713  0.000000  0.745286  1
  Li  Li22  1  0.745286  0.490573  0.745286  1
  Li  Li23  1  0.745286  0.000000  0.745286  1
  Li  Li24  1  0.250000  0.500001  0.750001  1
  Li  Li25  1  0.625000  0.250000  0.875000  1
  Tl  Tl26  1  0.750001  0.500001  0.250000  1
  Tl  Tl27  1  0.125000  0.250000  0.375000  1
  Tl  Tl28  1  0.500000  0.000000  0.500000  1
  Tl  Tl29  1  0.125000  0.250000  0.874999  1
  Tl  Tl30  1  0.125000  0.749999  0.874999  1
  Tl  Tl31  1  0.624999  0.749999  0.874999  1
