# generated using pymatgen
data_Ho5Zr3(ReB6)4
_symmetry_space_group_name_H-M   'P 1'
_cell_length_a   3.62336100
_cell_length_b   9.06462007
_cell_length_c   11.44208820
_cell_angle_alpha   89.98244237
_cell_angle_beta   90.00000000
_cell_angle_gamma   90.00000000
_symmetry_Int_Tables_number   1
_chemical_formula_structural   Ho5Zr3(ReB6)4
_chemical_formula_sum   'Ho5 Zr3 Re4 B24'
_cell_volume   375.80839896
_cell_formula_units_Z   1
loop_
 _symmetry_equiv_pos_site_id
 _symmetry_equiv_pos_as_xyz
  1  'x, y, z'
loop_
 _atom_site_type_symbol
 _atom_site_label
 _atom_site_symmetry_multiplicity
 _atom_site_fract_x
 _atom_site_fract_y
 _atom_site_fract_z
 _atom_site_occupancy
  Ho  Ho0  1  0.000000  0.321699  0.412826  1
  Ho  Ho1  1  0.000000  0.677983  0.586256  1
  Ho  Ho2  1  0.000000  0.821478  0.086515  1
  Ho  Ho3  1  0.000000  0.178690  0.914143  1
  Ho  Ho4  1  0.000000  0.944046  0.372273  1
  Zr  Zr5  1  0.000000  0.056789  0.629659  1
  Zr  Zr6  1  0.000000  0.443987  0.127097  1
  Zr  Zr7  1  0.000000  0.556087  0.872570  1
  Re  Re8  1  0.000000  0.635712  0.318268  1
  Re  Re9  1  0.000000  0.360780  0.681888  1
  Re  Re10  1  0.000000  0.142509  0.177936  1
  Re  Re11  1  0.000000  0.860217  0.820186  1
  B  B12  1  0.500000  0.552169  0.433243  1
  B  B13  1  0.500000  0.445993  0.566738  1
  B  B14  1  0.500000  0.054202  0.066249  1
  B  B15  1  0.500000  0.946501  0.933491  1
  B  B16  1  0.500000  0.748847  0.418011  1
  B  B17  1  0.500000  0.248303  0.582165  1
  B  B18  1  0.500000  0.252419  0.080886  1
  B  B19  1  0.500000  0.748209  0.918622  1
  B  B20  1  0.500000  0.792033  0.264136  1
  B  B21  1  0.500000  0.206196  0.735948  1
  B  B22  1  0.500000  0.294424  0.234381  1
  B  B23  1  0.500000  0.705995  0.764662  1
  B  B24  1  0.500000  0.629730  0.183559  1
  B  B25  1  0.500000  0.369823  0.816437  1
  B  B26  1  0.500000  0.132301  0.314766  1
  B  B27  1  0.500000  0.869462  0.684077  1
  B  B28  1  0.500000  0.983463  0.211949  1
  B  B29  1  0.500000  0.017929  0.787338  1
  B  B30  1  0.500000  0.480899  0.286458  1
  B  B31  1  0.500000  0.518412  0.713120  1
  B  B32  1  0.500000  0.600806  0.027041  1
  B  B33  1  0.500000  0.399778  0.972323  1
  B  B34  1  0.500000  0.102796  0.474770  1
  B  B35  1  0.500000  0.899332  0.530016  1
