# generated using pymatgen
data_Y2Tm2B12IrRh
_symmetry_space_group_name_H-M   'P 1'
_cell_length_a   3.63345400
_cell_length_b   9.14686908
_cell_length_c   11.49860107
_cell_angle_alpha   90.09418489
_cell_angle_beta   90.00000000
_cell_angle_gamma   90.00000000
_symmetry_Int_Tables_number   1
_chemical_formula_structural   Y2Tm2B12IrRh
_chemical_formula_sum   'Y4 Tm4 B24 Ir2 Rh2'
_cell_volume   382.15236300
_cell_formula_units_Z   2
loop_
 _symmetry_equiv_pos_site_id
 _symmetry_equiv_pos_as_xyz
  1  'x, y, z'
loop_
 _atom_site_type_symbol
 _atom_site_label
 _atom_site_symmetry_multiplicity
 _atom_site_fract_x
 _atom_site_fract_y
 _atom_site_fract_z
 _atom_site_occupancy
  Y  Y0  1  0.500000  0.322844  0.413881  1
  Y  Y1  1  0.500000  0.677156  0.586119  1
  Y  Y2  1  0.500000  0.179031  0.912811  1
  Y  Y3  1  0.500000  0.820969  0.087189  1
  Tm  Tm4  1  0.500000  0.445183  0.126400  1
  Tm  Tm5  1  0.500000  0.554817  0.873600  1
  Tm  Tm6  1  0.500000  0.056481  0.625787  1
  Tm  Tm7  1  0.500000  0.943519  0.374213  1
  B  B8  1  0.000000  0.108156  0.470519  1
  B  B9  1  0.000000  0.891844  0.529481  1
  B  B10  1  0.000000  0.392458  0.970867  1
  B  B11  1  0.000000  0.607542  0.029133  1
  B  B12  1  0.000000  0.131820  0.316178  1
  B  B13  1  0.000000  0.868180  0.683822  1
  B  B14  1  0.000000  0.367740  0.816264  1
  B  B15  1  0.000000  0.632260  0.183736  1
  B  B16  1  0.000000  0.054275  0.066263  1
  B  B17  1  0.000000  0.945725  0.933737  1
  B  B18  1  0.000000  0.446006  0.565847  1
  B  B19  1  0.000000  0.553994  0.434153  1
  B  B20  1  0.000000  0.482631  0.286252  1
  B  B21  1  0.000000  0.517369  0.713748  1
  B  B22  1  0.000000  0.017539  0.785934  1
  B  B23  1  0.000000  0.982461  0.214066  1
  B  B24  1  0.000000  0.250968  0.079745  1
  B  B25  1  0.000000  0.749032  0.920255  1
  B  B26  1  0.000000  0.250098  0.579948  1
  B  B27  1  0.000000  0.749902  0.420052  1
  B  B28  1  0.000000  0.294172  0.234781  1
  B  B29  1  0.000000  0.705828  0.765219  1
  B  B30  1  0.000000  0.205870  0.735035  1
  B  B31  1  0.000000  0.794130  0.264965  1
  Ir  Ir32  1  0.500000  0.139394  0.178990  1
  Ir  Ir33  1  0.500000  0.860606  0.821010  1
  Rh  Rh34  1  0.500000  0.360188  0.681177  1
  Rh  Rh35  1  0.500000  0.639812  0.318823  1
