# generated using pymatgen
data_Tb6Ho3Tm7(CdPt)4
_symmetry_space_group_name_H-M   'P 1'
_cell_length_a   9.64172929
_cell_length_b   9.63352635
_cell_length_c   9.63352600
_cell_angle_alpha   59.99999432
_cell_angle_beta   60.02813376
_cell_angle_gamma   60.02813706
_symmetry_Int_Tables_number   1
_chemical_formula_structural   Tb6Ho3Tm7(CdPt)4
_chemical_formula_sum   'Tb6 Ho3 Tm7 Cd4 Pt4'
_cell_volume   632.98736429
_cell_formula_units_Z   1
loop_
 _symmetry_equiv_pos_site_id
 _symmetry_equiv_pos_as_xyz
  1  'x, y, z'
loop_
 _atom_site_type_symbol
 _atom_site_label
 _atom_site_symmetry_multiplicity
 _atom_site_fract_x
 _atom_site_fract_y
 _atom_site_fract_z
 _atom_site_occupancy
  Tb  Tb0  1  0.935655  0.564218  0.564218  1
  Tb  Tb1  1  0.564387  0.935607  0.935607  1
  Tb  Tb2  1  0.564387  0.935607  0.564400  1
  Tb  Tb3  1  0.935655  0.564218  0.935910  1
  Tb  Tb4  1  0.564387  0.564400  0.935607  1
  Tb  Tb5  1  0.935655  0.935910  0.564218  1
  Ho  Ho6  1  0.352072  0.352155  0.352155  1
  Ho  Ho7  1  0.352072  0.352155  0.943619  1
  Ho  Ho8  1  0.352072  0.943619  0.352155  1
  Tm  Tm9  1  0.944965  0.351679  0.351679  1
  Tm  Tm10  1  0.812633  0.187520  0.187520  1
  Tm  Tm11  1  0.187190  0.812829  0.812829  1
  Tm  Tm12  1  0.187190  0.812829  0.187152  1
  Tm  Tm13  1  0.812633  0.187520  0.812326  1
  Tm  Tm14  1  0.187190  0.187152  0.812829  1
  Tm  Tm15  1  0.812633  0.812326  0.187520  1
  Cd  Cd16  1  0.581442  0.581401  0.581401  1
  Cd  Cd17  1  0.581442  0.581401  0.255757  1
  Cd  Cd18  1  0.581442  0.255757  0.581401  1
  Cd  Cd19  1  0.255777  0.581408  0.581408  1
  Pt  Pt20  1  0.142365  0.142971  0.142971  1
  Pt  Pt21  1  0.142365  0.142971  0.571696  1
  Pt  Pt22  1  0.142365  0.571696  0.142971  1
  Pt  Pt23  1  0.572034  0.142656  0.142656  1
