# generated using pymatgen
data_Er10InSnSb4
_symmetry_space_group_name_H-M   'P 1'
_cell_length_a   8.90123221
_cell_length_b   8.89512632
_cell_length_c   6.34785500
_cell_angle_alpha   90.00000000
_cell_angle_beta   90.00000000
_cell_angle_gamma   119.89794893
_symmetry_Int_Tables_number   1
_chemical_formula_structural   Er10InSnSb4
_chemical_formula_sum   'Er10 In1 Sn1 Sb4'
_cell_volume   435.71806095
_cell_formula_units_Z   1
loop_
 _symmetry_equiv_pos_site_id
 _symmetry_equiv_pos_as_xyz
  1  'x, y, z'
loop_
 _atom_site_type_symbol
 _atom_site_label
 _atom_site_symmetry_multiplicity
 _atom_site_fract_x
 _atom_site_fract_y
 _atom_site_fract_z
 _atom_site_occupancy
  Er  Er0  1  0.001201  0.759091  0.750000  1
  Er  Er1  1  0.002440  0.242527  0.250000  1
  Er  Er2  1  0.758359  0.759139  0.250000  1
  Er  Er3  1  0.757748  0.998846  0.750000  1
  Er  Er4  1  0.240360  0.238276  0.750000  1
  Er  Er5  1  0.241266  0.002903  0.250000  1
  Er  Er6  1  0.334715  0.666891  0.499789  1
  Er  Er7  1  0.663906  0.332378  0.000247  1
  Er  Er8  1  0.663906  0.332378  0.499753  1
  Er  Er9  1  0.334715  0.666891  0.000211  1
  In  In10  1  0.394711  0.395891  0.250000  1
  Sn  Sn11  1  0.393940  0.998380  0.750000  1
  Sb  Sb12  1  0.999449  0.607654  0.250000  1
  Sb  Sb13  1  0.998825  0.391532  0.750000  1
  Sb  Sb14  1  0.606965  0.606470  0.750000  1
  Sb  Sb15  1  0.607492  0.000753  0.250000  1
