# generated using pymatgen
data_Cs2KGdCl6
_symmetry_space_group_name_H-M   'P 1'
_cell_length_a   8.06974906
_cell_length_b   8.07030806
_cell_length_c   8.07045901
_cell_angle_alpha   120.00433986
_cell_angle_beta   119.99983232
_cell_angle_gamma   60.00356077
_symmetry_Int_Tables_number   1
_chemical_formula_structural   Cs2KGdCl6
_chemical_formula_sum   'Cs2 K1 Gd1 Cl6'
_cell_volume   371.64763229
_cell_formula_units_Z   1
loop_
 _symmetry_equiv_pos_site_id
 _symmetry_equiv_pos_as_xyz
  1  'x, y, z'
loop_
 _atom_site_type_symbol
 _atom_site_label
 _atom_site_symmetry_multiplicity
 _atom_site_fract_x
 _atom_site_fract_y
 _atom_site_fract_z
 _atom_site_occupancy
  Cs  Cs0  1  0.749994  0.750004  0.249999  1
  Cs  Cs1  1  0.250004  0.250001  0.749996  1
  K  K2  1  0.500008  0.499989  0.499998  1
  Gd  Gd3  1  0.000002  0.999999  0.000002  1
  Cl  Cl4  1  0.765977  0.234028  0.234028  1
  Cl  Cl5  1  0.234023  0.765982  0.234023  1
  Cl  Cl6  1  0.234022  0.234026  0.234026  1
  Cl  Cl7  1  0.765973  0.234018  0.765979  1
  Cl  Cl8  1  0.765972  0.765974  0.765972  1
  Cl  Cl9  1  0.234020  0.765973  0.765971  1
