# generated using pymatgen
data_La4Sc(InAu5)2
_symmetry_space_group_name_H-M   'P 1'
_cell_length_a   8.83841215
_cell_length_b   8.83841484
_cell_length_c   10.48228200
_cell_angle_alpha   90.00000000
_cell_angle_beta   90.00000000
_cell_angle_gamma   107.36622994
_symmetry_Int_Tables_number   1
_chemical_formula_structural   La4Sc(InAu5)2
_chemical_formula_sum   'La8 Sc2 In4 Au20'
_cell_volume   781.52409458
_cell_formula_units_Z   2
loop_
 _symmetry_equiv_pos_site_id
 _symmetry_equiv_pos_as_xyz
  1  'x, y, z'
loop_
 _atom_site_type_symbol
 _atom_site_label
 _atom_site_symmetry_multiplicity
 _atom_site_fract_x
 _atom_site_fract_y
 _atom_site_fract_z
 _atom_site_occupancy
  La  La0  1  0.703054  0.296946  0.000000  1
  La  La1  1  0.203054  0.796946  0.500000  1
  La  La2  1  0.799483  0.799483  0.296172  1
  La  La3  1  0.299483  0.299483  0.203828  1
  La  La4  1  0.796946  0.203054  0.500000  1
  La  La5  1  0.296946  0.703054  0.000000  1
  La  La6  1  0.700517  0.700517  0.796172  1
  La  La7  1  0.200517  0.200517  0.703828  1
  Sc  Sc8  1  0.000000  0.000000  0.000000  1
  Sc  Sc9  1  0.500000  0.500000  0.500000  1
  In  In10  1  0.511736  0.011736  0.250000  1
  In  In11  1  0.988264  0.488264  0.750000  1
  In  In12  1  0.011736  0.511736  0.250000  1
  In  In13  1  0.488264  0.988264  0.750000  1
  Au  Au14  1  0.164666  0.431042  0.473957  1
  Au  Au15  1  0.904309  0.904309  0.593775  1
  Au  Au16  1  0.568958  0.835334  0.526043  1
  Au  Au17  1  0.895794  0.165241  0.203642  1
  Au  Au18  1  0.395794  0.665241  0.296358  1
  Au  Au19  1  0.665241  0.395794  0.296358  1
  Au  Au20  1  0.404309  0.404309  0.906225  1
  Au  Au21  1  0.931042  0.664666  0.026043  1
  Au  Au22  1  0.334759  0.604206  0.703642  1
  Au  Au23  1  0.335334  0.068958  0.973957  1
  Au  Au24  1  0.595691  0.595691  0.093775  1
  Au  Au25  1  0.664666  0.931042  0.026043  1
  Au  Au26  1  0.095691  0.095691  0.406225  1
  Au  Au27  1  0.604206  0.334759  0.703642  1
  Au  Au28  1  0.104206  0.834759  0.796358  1
  Au  Au29  1  0.068958  0.335334  0.973957  1
  Au  Au30  1  0.835334  0.568958  0.526043  1
  Au  Au31  1  0.165241  0.895794  0.203642  1
  Au  Au32  1  0.431042  0.164666  0.473957  1
  Au  Au33  1  0.834759  0.104206  0.796358  1
