# generated using pymatgen
data_LaSmFe4(CoB2)4
_symmetry_space_group_name_H-M   'P 1'
_cell_length_a   7.06872237
_cell_length_b   7.05353537
_cell_length_c   3.80417400
_cell_angle_alpha   90.00000000
_cell_angle_beta   90.00000000
_cell_angle_gamma   90.03699291
_symmetry_Int_Tables_number   1
_chemical_formula_structural   LaSmFe4(CoB2)4
_chemical_formula_sum   'La1 Sm1 Fe4 Co4 B8'
_cell_volume   189.67411022
_cell_formula_units_Z   1
loop_
 _symmetry_equiv_pos_site_id
 _symmetry_equiv_pos_as_xyz
  1  'x, y, z'
loop_
 _atom_site_type_symbol
 _atom_site_label
 _atom_site_symmetry_multiplicity
 _atom_site_fract_x
 _atom_site_fract_y
 _atom_site_fract_z
 _atom_site_occupancy
  La  La0  1  0.000000  0.000000  0.001407  1
  Sm  Sm1  1  0.500000  0.500000  0.500315  1
  Fe  Fe2  1  0.386556  0.134596  0.895159  1
  Fe  Fe3  1  0.613444  0.865404  0.895159  1
  Fe  Fe4  1  0.368824  0.885584  0.394190  1
  Fe  Fe5  1  0.631176  0.114416  0.394190  1
  Co  Co6  1  0.115325  0.364216  0.607968  1
  Co  Co7  1  0.884675  0.635784  0.607968  1
  Co  Co8  1  0.140240  0.614214  0.106828  1
  Co  Co9  1  0.859760  0.385786  0.106828  1
  B  B10  1  0.792857  0.662011  0.104818  1
  B  B11  1  0.207143  0.337989  0.104818  1
  B  B12  1  0.834133  0.299210  0.602294  1
  B  B13  1  0.165867  0.700790  0.602294  1
  B  B14  1  0.696883  0.834106  0.395333  1
  B  B15  1  0.303117  0.165894  0.395333  1
  B  B16  1  0.662228  0.202567  0.892550  1
  B  B17  1  0.337772  0.797433  0.892550  1
