# generated using pymatgen
data_Cs11RbCa4Fe4(P2O7)8
_symmetry_space_group_name_H-M   'P 1'
_cell_length_a   9.45464700
_cell_length_b   11.42138700
_cell_length_c   15.32278500
_cell_angle_alpha   90.00000000
_cell_angle_beta   90.00000000
_cell_angle_gamma   90.00000000
_symmetry_Int_Tables_number   1
_chemical_formula_structural   Cs11RbCa4Fe4(P2O7)8
_chemical_formula_sum   'Cs11 Rb1 Ca4 Fe4 P16 O56'
_cell_volume   1654.63373211
_cell_formula_units_Z   1
loop_
 _symmetry_equiv_pos_site_id
 _symmetry_equiv_pos_as_xyz
  1  'x, y, z'
loop_
 _atom_site_type_symbol
 _atom_site_label
 _atom_site_symmetry_multiplicity
 _atom_site_fract_x
 _atom_site_fract_y
 _atom_site_fract_z
 _atom_site_occupancy
  Cs  Cs0  1  0.127375  0.630841  0.871051  1
  Cs  Cs1  1  0.872724  0.130888  0.628859  1
  Cs  Cs2  1  0.627299  0.869186  0.128961  1
  Cs  Cs3  1  0.278991  0.712643  0.304676  1
  Cs  Cs4  1  0.221180  0.286883  0.804506  1
  Cs  Cs5  1  0.778787  0.786812  0.695403  1
  Cs  Cs6  1  0.721180  0.213295  0.195475  1
  Cs  Cs7  1  0.821877  0.488411  0.410658  1
  Cs  Cs8  1  0.677651  0.511403  0.910706  1
  Cs  Cs9  1  0.322289  0.011535  0.589197  1
  Cs  Cs10  1  0.177732  0.988576  0.089308  1
  Rb  Rb11  1  0.376527  0.366801  0.372303  1
  Ca  Ca12  1  0.543948  0.364868  0.616616  1
  Ca  Ca13  1  0.955658  0.635075  0.117118  1
  Ca  Ca14  1  0.044502  0.135307  0.382981  1
  Ca  Ca15  1  0.455678  0.864848  0.882969  1
  Fe  Fe16  1  0.649664  0.876502  0.427020  1
  Fe  Fe17  1  0.850134  0.123745  0.926989  1
  Fe  Fe18  1  0.150013  0.623447  0.572753  1
  Fe  Fe19  1  0.350094  0.376183  0.073538  1
  P  P20  1  0.479151  0.644385  0.521655  1
  P  P21  1  0.020574  0.355154  0.022602  1
  P  P22  1  0.979623  0.855141  0.477783  1
  P  P23  1  0.520305  0.144889  0.977800  1
  P  P24  1  0.416122  0.628212  0.707828  1
  P  P25  1  0.085105  0.371796  0.208736  1
  P  P26  1  0.916068  0.871594  0.292010  1
  P  P27  1  0.583886  0.128450  0.791969  1
  P  P28  1  0.419292  0.039476  0.328488  1
  P  P29  1  0.080401  0.961399  0.828581  1
  P  P30  1  0.919831  0.461311  0.671190  1
  P  P31  1  0.579397  0.537894  0.172023  1
  P  P32  1  0.650549  0.151117  0.437317  1
  P  P33  1  0.848558  0.849775  0.937678  1
  P  P34  1  0.152056  0.349804  0.561763  1
  P  P35  1  0.348545  0.650133  0.062408  1
  O  O36  1  0.571248  0.730012  0.469836  1
  O  O37  1  0.929008  0.269708  0.970296  1
  O  O38  1  0.071051  0.769643  0.530047  1
  O  O39  1  0.428755  0.230309  0.030048  1
  O  O40  1  0.471438  0.504739  0.721114  1
  O  O41  1  0.028931  0.495143  0.221167  1
  O  O42  1  0.971443  0.995073  0.278870  1
  O  O43  1  0.528544  0.004946  0.778873  1
  O  O44  1  0.418895  0.030929  0.230111  1
  O  O45  1  0.080829  0.969172  0.730162  1
  O  O46  1  0.919399  0.469052  0.769622  1
  O  O47  1  0.577632  0.528494  0.270435  1
  O  O48  1  0.287511  0.088310  0.372368  1
  O  O49  1  0.212499  0.913116  0.872424  1
  O  O50  1  0.787498  0.413147  0.627497  1
  O  O51  1  0.712174  0.586594  0.129159  1
  O  O52  1  0.500109  0.686157  0.623304  1
  O  O53  1  0.001540  0.312837  0.124194  1
  O  O54  1  0.999788  0.812762  0.376284  1
  O  O55  1  0.500185  0.187255  0.876267  1
  O  O56  1  0.445103  0.711574  0.782463  1
  O  O57  1  0.055902  0.288832  0.283510  1
  O  O58  1  0.944952  0.788447  0.217260  1
  O  O59  1  0.555029  0.211558  0.717175  1
  O  O60  1  0.548180  0.135017  0.351464  1
  O  O61  1  0.950861  0.866480  0.851853  1
  O  O62  1  0.049521  0.366811  0.647589  1
  O  O63  1  0.450721  0.633406  0.148330  1
  O  O64  1  0.526298  0.518290  0.512289  1
  O  O65  1  0.971582  0.480807  0.013972  1
  O  O66  1  0.028379  0.980852  0.486166  1
  O  O67  1  0.471651  0.019139  0.986146  1
  O  O68  1  0.468228  0.921864  0.371870  1
  O  O69  1  0.031696  0.079150  0.871758  1
  O  O70  1  0.968552  0.579034  0.627981  1
  O  O71  1  0.531748  0.420570  0.127889  1
  O  O72  1  0.756545  0.870552  0.318966  1
  O  O73  1  0.743393  0.129452  0.818897  1
  O  O74  1  0.256606  0.629427  0.680969  1
  O  O75  1  0.245101  0.370751  0.182732  1
  O  O76  1  0.321826  0.664500  0.500836  1
  O  O77  1  0.178000  0.336168  0.001305  1
  O  O78  1  0.822107  0.836210  0.499020  1
  O  O79  1  0.677734  0.163966  0.999054  1
  O  O80  1  0.795074  0.182082  0.400582  1
  O  O81  1  0.704453  0.818314  0.900527  1
  O  O82  1  0.295853  0.318172  0.599255  1
  O  O83  1  0.204433  0.681687  0.099491  1
  O  O84  1  0.584481  0.245250  0.494306  1
  O  O85  1  0.913633  0.756088  0.995453  1
  O  O86  1  0.086680  0.256019  0.504275  1
  O  O87  1  0.413739  0.743783  0.004629  1
  O  O88  1  0.648955  0.030165  0.485202  1
  O  O89  1  0.850291  0.970731  0.985486  1
  O  O90  1  0.151205  0.470538  0.513609  1
  O  O91  1  0.350246  0.529136  0.014696  1
