# generated using pymatgen
data_Er7Lu3(InSb)3
_symmetry_space_group_name_H-M   'P 1'
_cell_length_a   8.87028363
_cell_length_b   8.85689666
_cell_length_c   6.45559953
_cell_angle_alpha   90.03721612
_cell_angle_beta   90.00511829
_cell_angle_gamma   120.09292692
_symmetry_Int_Tables_number   1
_chemical_formula_structural   Er7Lu3(InSb)3
_chemical_formula_sum   'Er7 Lu3 In3 Sb3'
_cell_volume   438.81222964
_cell_formula_units_Z   1
loop_
 _symmetry_equiv_pos_site_id
 _symmetry_equiv_pos_as_xyz
  1  'x, y, z'
loop_
 _atom_site_type_symbol
 _atom_site_label
 _atom_site_symmetry_multiplicity
 _atom_site_fract_x
 _atom_site_fract_y
 _atom_site_fract_z
 _atom_site_occupancy
  Er  Er0  1  0.002303  0.763680  0.749769  1
  Er  Er1  1  0.003910  0.239363  0.250101  1
  Er  Er2  1  0.764078  0.760403  0.250191  1
  Er  Er3  1  0.761313  0.999506  0.749743  1
  Er  Er4  1  0.239421  0.236013  0.749767  1
  Er  Er5  1  0.237672  0.000693  0.250219  1
  Er  Er6  1  0.330519  0.665820  0.001380  1
  Lu  Lu7  1  0.330433  0.665864  0.498321  1
  Lu  Lu8  1  0.664457  0.333748  0.001258  1
  Lu  Lu9  1  0.664594  0.333798  0.498809  1
  In  In10  1  0.399123  0.001334  0.749193  1
  In  In11  1  0.396413  0.398058  0.250941  1
  In  In12  1  0.996831  0.600915  0.250970  1
  Sb  Sb13  1  0.996375  0.392250  0.749441  1
  Sb  Sb14  1  0.605739  0.607775  0.749251  1
  Sb  Sb15  1  0.606819  0.000780  0.250646  1
