# generated using pymatgen
data_LuPa5I24
_symmetry_space_group_name_H-M   'P 1'
_cell_length_a   9.16908000
_cell_length_b   9.23687959
_cell_length_c   19.36836477
_cell_angle_alpha   77.31304539
_cell_angle_beta   90.00000000
_cell_angle_gamma   90.00000000
_symmetry_Int_Tables_number   1
_chemical_formula_structural   LuPa5I24
_chemical_formula_sum   'Lu1 Pa5 I24'
_cell_volume   1600.32770780
_cell_formula_units_Z   1
loop_
 _symmetry_equiv_pos_site_id
 _symmetry_equiv_pos_as_xyz
  1  'x, y, z'
loop_
 _atom_site_type_symbol
 _atom_site_label
 _atom_site_symmetry_multiplicity
 _atom_site_fract_x
 _atom_site_fract_y
 _atom_site_fract_z
 _atom_site_occupancy
  Lu  Lu0  1  0.388295  0.000000  0.250000  1
  Pa  Pa1  1  0.880108  0.826272  0.581837  1
  Pa  Pa2  1  0.121162  0.174447  0.414441  1
  Pa  Pa3  1  0.627201  0.000000  0.750000  1
  Pa  Pa4  1  0.880108  0.173728  0.918163  1
  Pa  Pa5  1  0.121162  0.825553  0.085559  1
  I  I6  1  0.108368  0.395909  0.907858  1
  I  I7  1  0.583306  0.763742  0.258372  1
  I  I8  1  0.119087  0.069885  0.577815  1
  I  I9  1  0.354911  0.376356  0.427769  1
  I  I10  1  0.123819  0.777064  0.243618  1
  I  I11  1  0.123819  0.222936  0.256382  1
  I  I12  1  0.119087  0.930115  0.922185  1
  I  I13  1  0.412060  0.235006  0.740974  1
  I  I14  1  0.894038  0.605006  0.092381  1
  I  I15  1  0.877150  0.229022  0.754900  1
  I  I16  1  0.412060  0.764994  0.759026  1
  I  I17  1  0.894038  0.394994  0.407619  1
  I  I18  1  0.583306  0.236258  0.241628  1
  I  I19  1  0.652488  0.076399  0.587480  1
  I  I20  1  0.341515  0.926941  0.410507  1
  I  I21  1  0.877150  0.770978  0.745100  1
  I  I22  1  0.108368  0.604091  0.592142  1
  I  I23  1  0.644294  0.377860  0.928935  1
  I  I24  1  0.341515  0.073059  0.089493  1
  I  I25  1  0.879947  0.068906  0.079831  1
  I  I26  1  0.644294  0.622140  0.571065  1
  I  I27  1  0.652488  0.923601  0.912520  1
  I  I28  1  0.354911  0.623644  0.072231  1
  I  I29  1  0.879947  0.931094  0.420169  1
