# generated using pymatgen
data_Tb8Sc11Si16Ru
_symmetry_space_group_name_H-M   'P 1'
_cell_length_a   7.03714667
_cell_length_b   7.38309269
_cell_length_c   13.95973300
_cell_angle_alpha   90.00000000
_cell_angle_beta   90.00000000
_cell_angle_gamma   90.04976877
_symmetry_Int_Tables_number   1
_chemical_formula_structural   Tb8Sc11Si16Ru
_chemical_formula_sum   'Tb8 Sc11 Si16 Ru1'
_cell_volume   725.29030381
_cell_formula_units_Z   1
loop_
 _symmetry_equiv_pos_site_id
 _symmetry_equiv_pos_as_xyz
  1  'x, y, z'
loop_
 _atom_site_type_symbol
 _atom_site_label
 _atom_site_symmetry_multiplicity
 _atom_site_fract_x
 _atom_site_fract_y
 _atom_site_fract_z
 _atom_site_occupancy
  Tb  Tb0  1  0.011869  0.177186  0.093558  1
  Tb  Tb1  1  0.993234  0.818970  0.900552  1
  Tb  Tb2  1  0.488189  0.672438  0.901648  1
  Tb  Tb3  1  0.993234  0.818970  0.599448  1
  Tb  Tb4  1  0.511546  0.323946  0.095178  1
  Tb  Tb5  1  0.011869  0.177186  0.406442  1
  Tb  Tb6  1  0.511546  0.323946  0.404822  1
  Tb  Tb7  1  0.488189  0.672438  0.598352  1
  Sc  Sc8  1  0.841151  0.496193  0.250000  1
  Sc  Sc9  1  0.341440  0.002573  0.250000  1
  Sc  Sc10  1  0.658474  0.997301  0.750000  1
  Sc  Sc11  1  0.326130  0.177855  0.627076  1
  Sc  Sc12  1  0.671904  0.824770  0.374658  1
  Sc  Sc13  1  0.172078  0.674502  0.376427  1
  Sc  Sc14  1  0.671904  0.824770  0.125342  1
  Sc  Sc15  1  0.826759  0.331108  0.627924  1
  Sc  Sc16  1  0.326130  0.177855  0.872924  1
  Sc  Sc17  1  0.826759  0.331108  0.872076  1
  Sc  Sc18  1  0.172078  0.674502  0.123573  1
  Si  Si19  1  0.030260  0.120084  0.750000  1
  Si  Si20  1  0.971395  0.883845  0.250000  1
  Si  Si21  1  0.468346  0.617293  0.250000  1
  Si  Si22  1  0.518195  0.392689  0.750000  1
  Si  Si23  1  0.286356  0.869233  0.750000  1
  Si  Si24  1  0.715682  0.127237  0.250000  1
  Si  Si25  1  0.214385  0.372917  0.250000  1
  Si  Si26  1  0.794509  0.627526  0.750000  1
  Si  Si27  1  0.155889  0.464924  0.546510  1
  Si  Si28  1  0.843978  0.536123  0.462916  1
  Si  Si29  1  0.345818  0.964396  0.462979  1
  Si  Si30  1  0.843978  0.536123  0.037084  1
  Si  Si31  1  0.657800  0.034344  0.540007  1
  Si  Si32  1  0.155889  0.464924  0.953490  1
  Si  Si33  1  0.657800  0.034344  0.959993  1
  Si  Si34  1  0.345818  0.964396  0.037021  1
  Ru  Ru35  1  0.149418  0.491986  0.750000  1
