# generated using pymatgen
data_NdThInNi2
_symmetry_space_group_name_H-M   'P 1'
_cell_length_a   7.70157371
_cell_length_b   7.70157371
_cell_length_c   3.71998300
_cell_angle_alpha   90.00000000
_cell_angle_beta   90.00000000
_cell_angle_gamma   92.68352047
_symmetry_Int_Tables_number   1
_chemical_formula_structural   NdThInNi2
_chemical_formula_sum   'Nd2 Th2 In2 Ni4'
_cell_volume   220.40598914
_cell_formula_units_Z   2
loop_
 _symmetry_equiv_pos_site_id
 _symmetry_equiv_pos_as_xyz
  1  'x, y, z'
loop_
 _atom_site_type_symbol
 _atom_site_label
 _atom_site_symmetry_multiplicity
 _atom_site_fract_x
 _atom_site_fract_y
 _atom_site_fract_z
 _atom_site_occupancy
  Nd  Nd0  1  0.174248  0.325752  0.500000  1
  Nd  Nd1  1  0.825752  0.674248  0.500000  1
  Th  Th2  1  0.675257  0.175257  0.500000  1
  Th  Th3  1  0.324743  0.824743  0.500000  1
  In  In4  1  0.500000  0.500000  0.000000  1
  In  In5  1  0.000000  0.000000  0.000000  1
  Ni  Ni6  1  0.128399  0.628399  0.000000  1
  Ni  Ni7  1  0.871601  0.371601  0.000000  1
  Ni  Ni8  1  0.616286  0.883714  0.000000  1
  Ni  Ni9  1  0.383714  0.116286  0.000000  1
