# generated using pymatgen
data_Ho8Ga12OsPd3
_symmetry_space_group_name_H-M   'P 1'
_cell_length_a   7.00609000
_cell_length_b   8.86015585
_cell_length_c   8.86015600
_cell_angle_alpha   120.00000057
_cell_angle_beta   90.00000000
_cell_angle_gamma   90.00000000
_symmetry_Int_Tables_number   1
_chemical_formula_structural   Ho8Ga12OsPd3
_chemical_formula_sum   'Ho8 Ga12 Os1 Pd3'
_cell_volume   476.30931034
_cell_formula_units_Z   1
loop_
 _symmetry_equiv_pos_site_id
 _symmetry_equiv_pos_as_xyz
  1  'x, y, z'
loop_
 _atom_site_type_symbol
 _atom_site_label
 _atom_site_symmetry_multiplicity
 _atom_site_fract_x
 _atom_site_fract_y
 _atom_site_fract_z
 _atom_site_occupancy
  Ho  Ho0  1  0.745046  0.000000  0.000000  1
  Ho  Ho1  1  0.248695  0.000000  0.000000  1
  Ho  Ho2  1  0.750947  0.482309  0.517691  1
  Ho  Ho3  1  0.255134  0.524344  0.475656  1
  Ho  Ho4  1  0.750947  0.035382  0.517691  1
  Ho  Ho5  1  0.255134  0.951313  0.475656  1
  Ho  Ho6  1  0.750947  0.482309  0.964618  1
  Ho  Ho7  1  0.255134  0.524344  0.048687  1
  Ga  Ga8  1  0.956023  0.834164  0.165836  1
  Ga  Ga9  1  0.047257  0.167179  0.832821  1
  Ga  Ga10  1  0.956023  0.331674  0.165836  1
  Ga  Ga11  1  0.453092  0.167681  0.832319  1
  Ga  Ga12  1  0.047257  0.665642  0.832821  1
  Ga  Ga13  1  0.547786  0.830081  0.169919  1
  Ga  Ga14  1  0.956023  0.834164  0.668326  1
  Ga  Ga15  1  0.453092  0.664637  0.832319  1
  Ga  Ga16  1  0.047257  0.167179  0.334358  1
  Ga  Ga17  1  0.547786  0.339840  0.169919  1
  Ga  Ga18  1  0.453092  0.167681  0.335363  1
  Ga  Ga19  1  0.547786  0.830081  0.660160  1
  Os  Os20  1  0.516549  0.666667  0.333333  1
  Pd  Pd21  1  0.956949  0.666667  0.333333  1
  Pd  Pd22  1  0.034061  0.333333  0.666667  1
  Pd  Pd23  1  0.467986  0.333333  0.666667  1
