# generated using pymatgen
data_Tb6Cd23Pb
_symmetry_space_group_name_H-M   'P 1'
_cell_length_a   9.96471046
_cell_length_b   9.96471314
_cell_length_c   9.96710726
_cell_angle_alpha   61.06096959
_cell_angle_beta   61.06084417
_cell_angle_gamma   61.07459634
_symmetry_Int_Tables_number   1
_chemical_formula_structural   Tb6Cd23Pb
_chemical_formula_sum   'Tb6 Cd23 Pb1'
_cell_volume   716.60339473
_cell_formula_units_Z   1
loop_
 _symmetry_equiv_pos_site_id
 _symmetry_equiv_pos_as_xyz
  1  'x, y, z'
loop_
 _atom_site_type_symbol
 _atom_site_label
 _atom_site_symmetry_multiplicity
 _atom_site_fract_x
 _atom_site_fract_y
 _atom_site_fract_z
 _atom_site_occupancy
  Tb  Tb0  1  0.776519  0.776519  0.224624  1
  Tb  Tb1  1  0.223459  0.775397  0.223471  1
  Tb  Tb2  1  0.775397  0.223459  0.223472  1
  Tb  Tb3  1  0.223481  0.223481  0.775376  1
  Tb  Tb4  1  0.776541  0.224603  0.776529  1
  Tb  Tb5  1  0.224603  0.776541  0.776528  1
  Cd  Cd6  1  0.841572  0.841572  0.470772  1
  Cd  Cd7  1  0.841589  0.470747  0.841576  1
  Cd  Cd8  1  0.470748  0.841588  0.841576  1
  Cd  Cd9  1  0.843019  0.843020  0.843016  1
  Cd  Cd10  1  0.158428  0.158428  0.529228  1
  Cd  Cd11  1  0.158411  0.529253  0.158424  1
  Cd  Cd12  1  0.529252  0.158412  0.158424  1
  Cd  Cd13  1  0.156981  0.156980  0.156984  1
  Cd  Cd14  1  0.625980  0.625979  0.124669  1
  Cd  Cd15  1  0.625998  0.124661  0.625979  1
  Cd  Cd16  1  0.124661  0.625998  0.625979  1
  Cd  Cd17  1  0.626122  0.626122  0.626143  1
  Cd  Cd18  1  0.374020  0.374021  0.875331  1
  Cd  Cd19  1  0.374002  0.875339  0.374021  1
  Cd  Cd20  1  0.875339  0.374002  0.374021  1
  Cd  Cd21  1  0.373878  0.373878  0.373857  1
  Cd  Cd22  1  0.000000  0.000000  0.500000  1
  Cd  Cd23  1  0.500000  0.000000  0.500000  1
  Cd  Cd24  1  0.000000  0.500000  0.500000  1
  Cd  Cd25  1  0.500000  0.500000  0.000000  1
  Cd  Cd26  1  0.000000  0.500000  0.000000  1
  Cd  Cd27  1  0.500000  0.000000  0.000000  1
  Cd  Cd28  1  0.500000  0.500000  0.500000  1
  Pb  Pb29  1  0.000000  0.000000  0.000000  1
