# generated using pymatgen
data_Ac3(CdBi3)2
_symmetry_space_group_name_H-M   'P 1'
_cell_length_a   4.60832500
_cell_length_b   11.36765900
_cell_length_c   14.44101000
_cell_angle_alpha   90.00000000
_cell_angle_beta   90.00000000
_cell_angle_gamma   90.00000000
_symmetry_Int_Tables_number   1
_chemical_formula_structural   Ac3(CdBi3)2
_chemical_formula_sum   'Ac6 Cd4 Bi12'
_cell_volume   756.50483153
_cell_formula_units_Z   2
loop_
 _symmetry_equiv_pos_site_id
 _symmetry_equiv_pos_as_xyz
  1  'x, y, z'
loop_
 _atom_site_type_symbol
 _atom_site_label
 _atom_site_symmetry_multiplicity
 _atom_site_fract_x
 _atom_site_fract_y
 _atom_site_fract_z
 _atom_site_occupancy
  Ac  Ac0  1  0.750000  0.253777  0.750000  1
  Ac  Ac1  1  0.750000  0.265282  0.411136  1
  Ac  Ac2  1  0.250000  0.734718  0.911136  1
  Ac  Ac3  1  0.250000  0.734718  0.588864  1
  Ac  Ac4  1  0.250000  0.746223  0.250000  1
  Ac  Ac5  1  0.750000  0.265282  0.088864  1
  Cd  Cd6  1  0.250000  0.001160  0.091257  1
  Cd  Cd7  1  0.250000  0.001160  0.408743  1
  Cd  Cd8  1  0.750000  0.998840  0.591257  1
  Cd  Cd9  1  0.750000  0.998840  0.908743  1
  Bi  Bi10  1  0.750000  0.505109  0.250000  1
  Bi  Bi11  1  0.750000  0.492250  0.916649  1
  Bi  Bi12  1  0.750000  0.829734  0.750000  1
  Bi  Bi13  1  0.750000  0.826951  0.420368  1
  Bi  Bi14  1  0.250000  0.173049  0.920368  1
  Bi  Bi15  1  0.250000  0.173049  0.579632  1
  Bi  Bi16  1  0.250000  0.170266  0.250000  1
  Bi  Bi17  1  0.250000  0.507750  0.083351  1
  Bi  Bi18  1  0.250000  0.494891  0.750000  1
  Bi  Bi19  1  0.250000  0.507750  0.416649  1
  Bi  Bi20  1  0.750000  0.492250  0.583351  1
  Bi  Bi21  1  0.750000  0.826951  0.079632  1
