# generated using pymatgen
data_Hf4TiGaSb2
_symmetry_space_group_name_H-M   'P 1'
_cell_length_a   5.40182901
_cell_length_b   8.18755766
_cell_length_c   8.18755748
_cell_angle_alpha   83.75264157
_cell_angle_beta   70.73848768
_cell_angle_gamma   70.73849273
_symmetry_Int_Tables_number   1
_chemical_formula_structural   Hf4TiGaSb2
_chemical_formula_sum   'Hf8 Ti2 Ga2 Sb4'
_cell_volume   322.71154868
_cell_formula_units_Z   2
loop_
 _symmetry_equiv_pos_site_id
 _symmetry_equiv_pos_as_xyz
  1  'x, y, z'
loop_
 _atom_site_type_symbol
 _atom_site_label
 _atom_site_symmetry_multiplicity
 _atom_site_fract_x
 _atom_site_fract_y
 _atom_site_fract_z
 _atom_site_occupancy
  Hf  Hf0  1  0.078677  0.135110  0.707535  1
  Hf  Hf1  1  0.921323  0.864890  0.292465  1
  Hf  Hf2  1  0.786212  0.292465  0.135110  1
  Hf  Hf3  1  0.421323  0.292465  0.864890  1
  Hf  Hf4  1  0.213788  0.707535  0.864890  1
  Hf  Hf5  1  0.578677  0.707535  0.135110  1
  Hf  Hf6  1  0.713788  0.864890  0.707535  1
  Hf  Hf7  1  0.286212  0.135110  0.292465  1
  Ti  Ti8  1  0.250000  0.500000  0.500000  1
  Ti  Ti9  1  0.750000  0.500000  0.500000  1
  Ga  Ga10  1  0.250000  0.000000  0.000000  1
  Ga  Ga11  1  0.750000  0.000000  0.000000  1
  Sb  Sb12  1  0.157779  0.500000  0.184443  1
  Sb  Sb13  1  0.842221  0.500000  0.815557  1
  Sb  Sb14  1  0.342221  0.815557  0.500000  1
  Sb  Sb15  1  0.657779  0.184443  0.500000  1
