# generated using pymatgen
data_SrDy6Sn23Ir6
_symmetry_space_group_name_H-M   'P 1'
_cell_length_a   9.89407400
_cell_length_b   9.89407313
_cell_length_c   10.11198800
_cell_angle_alpha   90.00000000
_cell_angle_beta   90.00000000
_cell_angle_gamma   119.99999623
_symmetry_Int_Tables_number   1
_chemical_formula_structural   SrDy6Sn23Ir6
_chemical_formula_sum   'Sr1 Dy6 Sn23 Ir6'
_cell_volume   857.26968007
_cell_formula_units_Z   1
loop_
 _symmetry_equiv_pos_site_id
 _symmetry_equiv_pos_as_xyz
  1  'x, y, z'
loop_
 _atom_site_type_symbol
 _atom_site_label
 _atom_site_symmetry_multiplicity
 _atom_site_fract_x
 _atom_site_fract_y
 _atom_site_fract_z
 _atom_site_occupancy
  Sr  Sr0  1  0.000000  0.000000  0.000000  1
  Dy  Dy1  1  0.481460  0.518540  0.306352  1
  Dy  Dy2  1  0.518540  0.481460  0.693648  1
  Dy  Dy3  1  0.481460  0.962920  0.306352  1
  Dy  Dy4  1  0.518540  0.037080  0.693648  1
  Dy  Dy5  1  0.037080  0.518540  0.306352  1
  Dy  Dy6  1  0.962920  0.481460  0.693648  1
  Sn  Sn7  1  0.352845  0.000000  0.000000  1
  Sn  Sn8  1  0.647155  0.000000  0.000000  1
  Sn  Sn9  1  0.000000  0.352845  0.000000  1
  Sn  Sn10  1  0.000000  0.647155  0.000000  1
  Sn  Sn11  1  0.647155  0.647155  0.000000  1
  Sn  Sn12  1  0.352845  0.352845  0.000000  1
  Sn  Sn13  1  0.333333  0.666667  0.826316  1
  Sn  Sn14  1  0.666667  0.333333  0.173684  1
  Sn  Sn15  1  0.000000  0.000000  0.500000  1
  Sn  Sn16  1  0.777391  0.222609  0.457788  1
  Sn  Sn17  1  0.222609  0.777391  0.542212  1
  Sn  Sn18  1  0.777391  0.554784  0.457788  1
  Sn  Sn19  1  0.222609  0.445216  0.542212  1
  Sn  Sn20  1  0.445216  0.222609  0.457788  1
  Sn  Sn21  1  0.554784  0.777391  0.542212  1
  Sn  Sn22  1  0.333333  0.666667  0.122610  1
  Sn  Sn23  1  0.666667  0.333333  0.877390  1
  Sn  Sn24  1  0.118218  0.881782  0.284624  1
  Sn  Sn25  1  0.881782  0.118218  0.715376  1
  Sn  Sn26  1  0.118218  0.236436  0.284624  1
  Sn  Sn27  1  0.881782  0.763564  0.715376  1
  Sn  Sn28  1  0.763564  0.881782  0.284624  1
  Sn  Sn29  1  0.236436  0.118218  0.715376  1
  Ir  Ir30  1  0.829209  0.170791  0.201017  1
  Ir  Ir31  1  0.170791  0.829209  0.798983  1
  Ir  Ir32  1  0.829209  0.658418  0.201017  1
  Ir  Ir33  1  0.170791  0.341582  0.798983  1
  Ir  Ir34  1  0.341582  0.170791  0.201017  1
  Ir  Ir35  1  0.658418  0.829209  0.798983  1
