# generated using pymatgen
data_Tm20Cd3Cu3Ru2
_symmetry_space_group_name_H-M   'P 1'
_cell_length_a   9.36029900
_cell_length_b   9.36029813
_cell_length_c   9.45291500
_cell_angle_alpha   90.00000000
_cell_angle_beta   90.00000000
_cell_angle_gamma   119.99999956
_symmetry_Int_Tables_number   1
_chemical_formula_structural   Tm20Cd3Cu3Ru2
_chemical_formula_sum   'Tm20 Cd3 Cu3 Ru2'
_cell_volume   717.25864174
_cell_formula_units_Z   1
loop_
 _symmetry_equiv_pos_site_id
 _symmetry_equiv_pos_as_xyz
  1  'x, y, z'
loop_
 _atom_site_type_symbol
 _atom_site_label
 _atom_site_symmetry_multiplicity
 _atom_site_fract_x
 _atom_site_fract_y
 _atom_site_fract_z
 _atom_site_occupancy
  Tm  Tm0  1  0.000000  0.000000  0.445617  1
  Tm  Tm1  1  0.000000  0.000000  0.054383  1
  Tm  Tm2  1  0.208558  0.791442  0.441273  1
  Tm  Tm3  1  0.208558  0.417117  0.441273  1
  Tm  Tm4  1  0.582883  0.791442  0.441273  1
  Tm  Tm5  1  0.791966  0.208034  0.553899  1
  Tm  Tm6  1  0.791966  0.583932  0.553899  1
  Tm  Tm7  1  0.416068  0.208034  0.553899  1
  Tm  Tm8  1  0.791966  0.208034  0.946101  1
  Tm  Tm9  1  0.791966  0.583932  0.946101  1
  Tm  Tm10  1  0.416068  0.208034  0.946101  1
  Tm  Tm11  1  0.208558  0.791442  0.058727  1
  Tm  Tm12  1  0.208558  0.417117  0.058727  1
  Tm  Tm13  1  0.582883  0.791442  0.058727  1
  Tm  Tm14  1  0.540035  0.459965  0.250000  1
  Tm  Tm15  1  0.540035  0.080069  0.250000  1
  Tm  Tm16  1  0.919931  0.459965  0.250000  1
  Tm  Tm17  1  0.459850  0.540150  0.750000  1
  Tm  Tm18  1  0.459850  0.919699  0.750000  1
  Tm  Tm19  1  0.080301  0.540150  0.750000  1
  Cd  Cd20  1  0.108749  0.891251  0.750000  1
  Cd  Cd21  1  0.108749  0.217496  0.750000  1
  Cd  Cd22  1  0.782504  0.891251  0.750000  1
  Cu  Cu23  1  0.867497  0.132503  0.250000  1
  Cu  Cu24  1  0.867497  0.734996  0.250000  1
  Cu  Cu25  1  0.265004  0.132503  0.250000  1
  Ru  Ru26  1  0.333333  0.666667  0.250000  1
  Ru  Ru27  1  0.666667  0.333333  0.750000  1
