# generated using pymatgen
data_Nd(BH4)3
_symmetry_space_group_name_H-M   'P 1'
_cell_length_a   8.06599700
_cell_length_b   8.06599638
_cell_length_c   8.06599700
_cell_angle_alpha   119.99999846
_cell_angle_beta   90.00000000
_cell_angle_gamma   119.99999846
_symmetry_Int_Tables_number   1
_chemical_formula_structural   Nd(BH4)3
_chemical_formula_sum   'Nd2 B6 H24'
_cell_volume   371.07283069
_cell_formula_units_Z   2
loop_
 _symmetry_equiv_pos_site_id
 _symmetry_equiv_pos_as_xyz
  1  'x, y, z'
loop_
 _atom_site_type_symbol
 _atom_site_label
 _atom_site_symmetry_multiplicity
 _atom_site_fract_x
 _atom_site_fract_y
 _atom_site_fract_z
 _atom_site_occupancy
  Nd  Nd0  1  0.000000  0.000000  0.000000  1
  Nd  Nd1  1  0.500000  0.000000  0.500000  1
  B  B2  1  0.250000  0.000000  0.250000  1
  B  B3  1  0.750001  0.000000  0.250000  1
  B  B4  1  0.250000  0.500000  0.250000  1
  B  B5  1  0.750000  0.000000  0.750000  1
  B  B6  1  0.250000  0.000000  0.750001  1
  B  B7  1  0.750001  0.500000  0.750001  1
  H  H8  1  0.280795  0.000000  0.100325  1
  H  H9  1  0.100325  0.381120  0.100325  1
  H  H10  1  0.719206  0.819532  0.100325  1
  H  H11  1  0.600326  0.000000  0.219206  1
  H  H12  1  0.399675  0.618881  0.219206  1
  H  H13  1  0.219206  0.819532  0.219206  1
  H  H14  1  0.100325  0.000000  0.280795  1
  H  H15  1  0.899675  0.180469  0.280795  1
  H  H16  1  0.280795  0.381120  0.280795  1
  H  H17  1  0.780794  0.000000  0.399674  1
  H  H18  1  0.399675  0.180469  0.399675  1
  H  H19  1  0.219206  0.618881  0.399675  1
  H  H20  1  0.219206  0.000000  0.600326  1
  H  H21  1  0.780795  0.381120  0.600326  1
  H  H22  1  0.600326  0.819532  0.600326  1
  H  H23  1  0.899674  0.000000  0.719205  1
  H  H24  1  0.719206  0.618881  0.719206  1
  H  H25  1  0.100325  0.819532  0.719206  1
  H  H26  1  0.399674  0.000000  0.780794  1
  H  H27  1  0.780794  0.180469  0.780794  1
  H  H28  1  0.600326  0.381120  0.780795  1
  H  H29  1  0.719205  0.000000  0.899674  1
  H  H30  1  0.899674  0.618881  0.899674  1
  H  H31  1  0.280795  0.180469  0.899675  1
