# generated using pymatgen
data_TbTm2Lu5Ga3Co
_symmetry_space_group_name_H-M   'P 1'
_cell_length_a   9.82681206
_cell_length_b   9.82681153
_cell_length_c   6.86584200
_cell_angle_alpha   90.00268083
_cell_angle_beta   89.99732368
_cell_angle_gamma   120.01283154
_symmetry_Int_Tables_number   1
_chemical_formula_structural   TbTm2Lu5Ga3Co
_chemical_formula_sum   'Tb2 Tm4 Lu10 Ga6 Co2'
_cell_volume   574.10792900
_cell_formula_units_Z   2
loop_
 _symmetry_equiv_pos_site_id
 _symmetry_equiv_pos_as_xyz
  1  'x, y, z'
loop_
 _atom_site_type_symbol
 _atom_site_label
 _atom_site_symmetry_multiplicity
 _atom_site_fract_x
 _atom_site_fract_y
 _atom_site_fract_z
 _atom_site_occupancy
  Tb  Tb0  1  0.999992  0.000008  0.769235  1
  Tb  Tb1  1  0.000018  0.999982  0.269200  1
  Tm  Tm2  1  0.536590  0.463410  0.792604  1
  Tm  Tm3  1  0.463569  0.927149  0.292689  1
  Tm  Tm4  1  0.072851  0.536431  0.292689  1
  Tm  Tm5  1  0.463532  0.536468  0.292686  1
  Lu  Lu6  1  0.825651  0.651023  0.488728  1
  Lu  Lu7  1  0.348977  0.174349  0.488728  1
  Lu  Lu8  1  0.825422  0.174578  0.488909  1
  Lu  Lu9  1  0.174296  0.348907  0.988369  1
  Lu  Lu10  1  0.651093  0.825704  0.988369  1
  Lu  Lu11  1  0.174485  0.825515  0.988220  1
  Lu  Lu12  1  0.666751  0.333249  0.172690  1
  Lu  Lu13  1  0.333248  0.666752  0.673037  1
  Lu  Lu14  1  0.536775  0.073434  0.792684  1
  Lu  Lu15  1  0.926566  0.463225  0.792684  1
  Ga  Ga16  1  0.836033  0.671922  0.040384  1
  Ga  Ga17  1  0.328078  0.163967  0.040384  1
  Ga  Ga18  1  0.835909  0.164091  0.040253  1
  Ga  Ga19  1  0.164005  0.328003  0.540498  1
  Ga  Ga20  1  0.671997  0.835995  0.540498  1
  Ga  Ga21  1  0.163999  0.836001  0.540588  1
  Co  Co22  1  0.666824  0.333176  0.556119  1
  Co  Co23  1  0.333340  0.666660  0.055826  1
