# generated using pymatgen
data_Ca3Y2Ho(Si3Ru)8
_symmetry_space_group_name_H-M   'P 1'
_cell_length_a   10.17370412
_cell_length_b   10.17370347
_cell_length_c   8.15627200
_cell_angle_alpha   89.99124826
_cell_angle_beta   89.99125389
_cell_angle_gamma   132.72009060
_symmetry_Int_Tables_number   1
_chemical_formula_structural   Ca3Y2Ho(Si3Ru)8
_chemical_formula_sum   'Ca3 Y2 Ho1 Si24 Ru8'
_cell_volume   620.22054226
_cell_formula_units_Z   1
loop_
 _symmetry_equiv_pos_site_id
 _symmetry_equiv_pos_as_xyz
  1  'x, y, z'
loop_
 _atom_site_type_symbol
 _atom_site_label
 _atom_site_symmetry_multiplicity
 _atom_site_fract_x
 _atom_site_fract_y
 _atom_site_fract_z
 _atom_site_occupancy
  Ca  Ca0  1  0.500093  0.499907  0.500000  1
  Ca  Ca1  1  0.500990  0.000841  0.749816  1
  Ca  Ca2  1  0.999159  0.499010  0.250184  1
  Y  Y3  1  0.498371  0.998412  0.250139  1
  Y  Y4  1  0.001588  0.501629  0.749861  1
  Ho  Ho5  1  0.999981  0.000019  0.000000  1
  Si  Si6  1  0.795056  0.204944  0.500000  1
  Si  Si7  1  0.294194  0.705806  0.000000  1
  Si  Si8  1  0.205523  0.794477  0.500000  1
  Si  Si9  1  0.705263  0.294737  0.000000  1
  Si  Si10  1  0.331599  0.337054  0.831946  1
  Si  Si11  1  0.662946  0.668401  0.168054  1
  Si  Si12  1  0.170295  0.165120  0.334099  1
  Si  Si13  1  0.834880  0.829705  0.665901  1
  Si  Si14  1  0.122821  0.889495  0.728218  1
  Si  Si15  1  0.110505  0.877179  0.271782  1
  Si  Si16  1  0.608686  0.375782  0.229325  1
  Si  Si17  1  0.624218  0.391314  0.770675  1
  Si  Si18  1  0.875225  0.108444  0.271664  1
  Si  Si19  1  0.891556  0.124775  0.728336  1
  Si  Si20  1  0.389476  0.622640  0.770623  1
  Si  Si21  1  0.377360  0.610524  0.229377  1
  Si  Si22  1  0.346144  0.112803  0.505121  1
  Si  Si23  1  0.887197  0.653856  0.494879  1
  Si  Si24  1  0.388493  0.155441  0.006777  1
  Si  Si25  1  0.844559  0.611507  0.993223  1
  Si  Si26  1  0.653858  0.886454  0.492421  1
  Si  Si27  1  0.113546  0.346142  0.507579  1
  Si  Si28  1  0.610830  0.844482  0.996324  1
  Si  Si29  1  0.155518  0.389170  0.003676  1
  Ru  Ru30  1  0.670647  0.329353  0.500000  1
  Ru  Ru31  1  0.168615  0.831385  0.000000  1
  Ru  Ru32  1  0.330189  0.669811  0.500000  1
  Ru  Ru33  1  0.830494  0.169506  0.000000  1
  Ru  Ru34  1  0.124515  0.125160  0.627549  1
  Ru  Ru35  1  0.874840  0.875485  0.372451  1
  Ru  Ru36  1  0.372486  0.371718  0.124648  1
  Ru  Ru37  1  0.628282  0.627514  0.875352  1
