# generated using pymatgen
data_Tb2Y6Cd2RuPt
_symmetry_space_group_name_H-M   'P 1'
_cell_length_a   9.68532668
_cell_length_b   9.68532737
_cell_length_c   9.72591600
_cell_angle_alpha   59.86127453
_cell_angle_beta   59.86127217
_cell_angle_gamma   59.77135531
_symmetry_Int_Tables_number   1
_chemical_formula_structural   Tb2Y6Cd2RuPt
_chemical_formula_sum   'Tb4 Y12 Cd4 Ru2 Pt2'
_cell_volume   642.65416690
_cell_formula_units_Z   2
loop_
 _symmetry_equiv_pos_site_id
 _symmetry_equiv_pos_as_xyz
  1  'x, y, z'
loop_
 _atom_site_type_symbol
 _atom_site_label
 _atom_site_symmetry_multiplicity
 _atom_site_fract_x
 _atom_site_fract_y
 _atom_site_fract_z
 _atom_site_occupancy
  Tb  Tb0  1  0.349386  0.349386  0.352697  1
  Tb  Tb1  1  0.349386  0.349386  0.948531  1
  Tb  Tb2  1  0.346679  0.953875  0.349723  1
  Tb  Tb3  1  0.953875  0.346679  0.349723  1
  Y  Y4  1  0.814972  0.188304  0.190402  1
  Y  Y5  1  0.188304  0.814972  0.806323  1
  Y  Y6  1  0.188304  0.814972  0.190402  1
  Y  Y7  1  0.814972  0.188304  0.806323  1
  Y  Y8  1  0.188077  0.188077  0.811923  1
  Y  Y9  1  0.808190  0.808190  0.191810  1
  Y  Y10  1  0.937122  0.559347  0.566396  1
  Y  Y11  1  0.559347  0.937122  0.937136  1
  Y  Y12  1  0.559347  0.937122  0.566396  1
  Y  Y13  1  0.937122  0.559347  0.937136  1
  Y  Y14  1  0.563176  0.563176  0.936824  1
  Y  Y15  1  0.937873  0.937873  0.562127  1
  Cd  Cd16  1  0.579963  0.579963  0.581304  1
  Cd  Cd17  1  0.579963  0.579963  0.258769  1
  Cd  Cd18  1  0.580924  0.255694  0.581691  1
  Cd  Cd19  1  0.255694  0.580924  0.581691  1
  Ru  Ru20  1  0.144503  0.144503  0.138558  1
  Ru  Ru21  1  0.144503  0.144503  0.572437  1
  Pt  Pt22  1  0.144923  0.573396  0.140841  1
  Pt  Pt23  1  0.573396  0.144923  0.140841  1
