# generated using pymatgen
data_Nd20Co4SnBi7
_symmetry_space_group_name_H-M   'P 1'
_cell_length_a   8.35123521
_cell_length_b   9.07959430
_cell_length_c   12.80681731
_cell_angle_alpha   90.02673918
_cell_angle_beta   90.11184740
_cell_angle_gamma   90.03424985
_symmetry_Int_Tables_number   1
_chemical_formula_structural   Nd20Co4SnBi7
_chemical_formula_sum   'Nd20 Co4 Sn1 Bi7'
_cell_volume   971.08539133
_cell_formula_units_Z   1
loop_
 _symmetry_equiv_pos_site_id
 _symmetry_equiv_pos_as_xyz
  1  'x, y, z'
loop_
 _atom_site_type_symbol
 _atom_site_label
 _atom_site_symmetry_multiplicity
 _atom_site_fract_x
 _atom_site_fract_y
 _atom_site_fract_z
 _atom_site_occupancy
  Nd  Nd0  1  0.846621  0.746671  0.799032  1
  Nd  Nd1  1  0.149908  0.250261  0.198649  1
  Nd  Nd2  1  0.351375  0.252549  0.702324  1
  Nd  Nd3  1  0.649900  0.750468  0.299971  1
  Nd  Nd4  1  0.381675  0.747276  0.693428  1
  Nd  Nd5  1  0.620999  0.249980  0.308566  1
  Nd  Nd6  1  0.873537  0.252902  0.808183  1
  Nd  Nd7  1  0.121445  0.749882  0.191580  1
  Nd  Nd8  1  0.953489  0.750870  0.502927  1
  Nd  Nd9  1  0.048934  0.249404  0.497133  1
  Nd  Nd10  1  0.455623  0.253486  0.994906  1
  Nd  Nd11  1  0.548676  0.746511  0.001281  1
  Nd  Nd12  1  0.679876  0.032518  0.563756  1
  Nd  Nd13  1  0.320520  0.966996  0.436771  1
  Nd  Nd14  1  0.179344  0.968687  0.936696  1
  Nd  Nd15  1  0.320346  0.532220  0.436290  1
  Nd  Nd16  1  0.819721  0.031058  0.063007  1
  Nd  Nd17  1  0.678212  0.468175  0.567727  1
  Nd  Nd18  1  0.819983  0.467532  0.061057  1
  Nd  Nd19  1  0.182133  0.531801  0.935892  1
  Co  Co20  1  0.565751  0.749816  0.508227  1
  Co  Co21  1  0.434800  0.249683  0.492549  1
  Co  Co22  1  0.062649  0.249975  0.991383  1
  Co  Co23  1  0.936371  0.750066  0.007713  1
  Sn  Sn24  1  0.572475  0.494032  0.826809  1
  Bi  Bi25  1  0.425964  0.506985  0.174876  1
  Bi  Bi26  1  0.074439  0.506749  0.673841  1
  Bi  Bi27  1  0.425787  0.993350  0.173034  1
  Bi  Bi28  1  0.925557  0.492861  0.325861  1
  Bi  Bi29  1  0.573747  0.006444  0.825897  1
  Bi  Bi30  1  0.926236  0.007392  0.325084  1
  Bi  Bi31  1  0.073904  0.993404  0.675550  1
