# generated using pymatgen
data_Hf3Zr10Ta3(Rh2N)4
_symmetry_space_group_name_H-M   'P 1'
_cell_length_a   8.70168238
_cell_length_b   8.70168219
_cell_length_c   8.69170189
_cell_angle_alpha   60.48123882
_cell_angle_beta   60.48123266
_cell_angle_gamma   60.34582980
_symmetry_Int_Tables_number   1
_chemical_formula_structural   Hf3Zr10Ta3(Rh2N)4
_chemical_formula_sum   'Hf3 Zr10 Ta3 Rh8 N4'
_cell_volume   469.95450117
_cell_formula_units_Z   1
loop_
 _symmetry_equiv_pos_site_id
 _symmetry_equiv_pos_as_xyz
  1  'x, y, z'
loop_
 _atom_site_type_symbol
 _atom_site_label
 _atom_site_symmetry_multiplicity
 _atom_site_fract_x
 _atom_site_fract_y
 _atom_site_fract_z
 _atom_site_occupancy
  Hf  Hf0  1  0.625375  0.625375  0.624542  1
  Hf  Hf1  1  0.816391  0.816391  0.182953  1
  Hf  Hf2  1  0.185613  0.185613  0.814286  1
  Zr  Zr3  1  0.815710  0.183935  0.815648  1
  Zr  Zr4  1  0.186281  0.813556  0.186124  1
  Zr  Zr5  1  0.183935  0.815710  0.815648  1
  Zr  Zr6  1  0.813556  0.186281  0.186124  1
  Zr  Zr7  1  0.434219  0.434219  0.066196  1
  Zr  Zr8  1  0.063743  0.063743  0.436599  1
  Zr  Zr9  1  0.435037  0.065483  0.434900  1
  Zr  Zr10  1  0.063179  0.437026  0.063177  1
  Zr  Zr11  1  0.065483  0.435037  0.434900  1
  Zr  Zr12  1  0.437026  0.063179  0.063177  1
  Ta  Ta13  1  0.124707  0.624308  0.625488  1
  Ta  Ta14  1  0.624308  0.124707  0.625488  1
  Ta  Ta15  1  0.625476  0.625476  0.124743  1
  Rh  Rh16  1  0.762177  0.410226  0.409216  1
  Rh  Rh17  1  0.410226  0.762177  0.409216  1
  Rh  Rh18  1  0.409021  0.409021  0.762300  1
  Rh  Rh19  1  0.414858  0.414858  0.415534  1
  Rh  Rh20  1  0.486242  0.842633  0.840021  1
  Rh  Rh21  1  0.842633  0.486242  0.840021  1
  Rh  Rh22  1  0.840189  0.840189  0.486601  1
  Rh  Rh23  1  0.834636  0.834636  0.837034  1
  N  N24  1  0.627486  0.120730  0.125842  1
  N  N25  1  0.120730  0.627486  0.125842  1
  N  N26  1  0.125930  0.125930  0.627375  1
  N  N27  1  0.125832  0.125832  0.121004  1
