# generated using pymatgen
data_Lu5Bi2Te
_symmetry_space_group_name_H-M   'P 1'
_cell_length_a   8.04348200
_cell_length_b   9.32925900
_cell_length_c   11.69319200
_cell_angle_alpha   90.00000000
_cell_angle_beta   90.00000000
_cell_angle_gamma   90.00000000
_symmetry_Int_Tables_number   1
_chemical_formula_structural   Lu5Bi2Te
_chemical_formula_sum   'Lu20 Bi8 Te4'
_cell_volume   877.45393357
_cell_formula_units_Z   4
loop_
 _symmetry_equiv_pos_site_id
 _symmetry_equiv_pos_as_xyz
  1  'x, y, z'
loop_
 _atom_site_type_symbol
 _atom_site_label
 _atom_site_symmetry_multiplicity
 _atom_site_fract_x
 _atom_site_fract_y
 _atom_site_fract_z
 _atom_site_occupancy
  Lu  Lu0  1  0.189243  0.566064  0.442397  1
  Lu  Lu1  1  0.689243  0.933936  0.057603  1
  Lu  Lu2  1  0.810757  0.066064  0.557603  1
  Lu  Lu3  1  0.310757  0.433936  0.942397  1
  Lu  Lu4  1  0.810757  0.433936  0.557603  1
  Lu  Lu5  1  0.310757  0.066064  0.942397  1
  Lu  Lu6  1  0.189243  0.933936  0.442397  1
  Lu  Lu7  1  0.689243  0.566064  0.057603  1
  Lu  Lu8  1  0.022944  0.750000  0.989716  1
  Lu  Lu9  1  0.522944  0.750000  0.510284  1
  Lu  Lu10  1  0.977056  0.250000  0.010284  1
  Lu  Lu11  1  0.477056  0.250000  0.489716  1
  Lu  Lu12  1  0.182261  0.750000  0.715297  1
  Lu  Lu13  1  0.682261  0.750000  0.784703  1
  Lu  Lu14  1  0.817739  0.250000  0.284703  1
  Lu  Lu15  1  0.317739  0.250000  0.215297  1
  Lu  Lu16  1  0.855229  0.750000  0.284496  1
  Lu  Lu17  1  0.355229  0.750000  0.215504  1
  Lu  Lu18  1  0.144771  0.250000  0.715504  1
  Lu  Lu19  1  0.644771  0.250000  0.784496  1
  Bi  Bi20  1  0.931909  0.496669  0.824822  1
  Bi  Bi21  1  0.431909  0.003331  0.675178  1
  Bi  Bi22  1  0.068091  0.996669  0.175178  1
  Bi  Bi23  1  0.568091  0.503331  0.324822  1
  Bi  Bi24  1  0.068091  0.503331  0.175178  1
  Bi  Bi25  1  0.568091  0.996669  0.324822  1
  Bi  Bi26  1  0.931909  0.003331  0.824822  1
  Bi  Bi27  1  0.431909  0.496669  0.675178  1
  Te  Te28  1  0.901924  0.750000  0.542688  1
  Te  Te29  1  0.401924  0.750000  0.957312  1
  Te  Te30  1  0.098076  0.250000  0.457312  1
  Te  Te31  1  0.598076  0.250000  0.042688  1
