# generated using pymatgen
data_DyTm3(Ga2Ag)4
_symmetry_space_group_name_H-M   'P 1'
_cell_length_a   4.36028200
_cell_length_b   6.90580747
_cell_length_c   10.21386540
_cell_angle_alpha   90.12171109
_cell_angle_beta   90.00000000
_cell_angle_gamma   90.00000000
_symmetry_Int_Tables_number   1
_chemical_formula_structural   DyTm3(Ga2Ag)4
_chemical_formula_sum   'Dy1 Tm3 Ga8 Ag4'
_cell_volume   307.55174464
_cell_formula_units_Z   1
loop_
 _symmetry_equiv_pos_site_id
 _symmetry_equiv_pos_as_xyz
  1  'x, y, z'
loop_
 _atom_site_type_symbol
 _atom_site_label
 _atom_site_symmetry_multiplicity
 _atom_site_fract_x
 _atom_site_fract_y
 _atom_site_fract_z
 _atom_site_occupancy
  Dy  Dy0  1  0.250000  0.278544  0.676656  1
  Tm  Tm1  1  0.250000  0.777484  0.824379  1
  Tm  Tm2  1  0.750000  0.221562  0.176026  1
  Tm  Tm3  1  0.750000  0.722301  0.323998  1
  Ga  Ga4  1  0.250000  0.702276  0.535724  1
  Ga  Ga5  1  0.750000  0.299982  0.463195  1
  Ga  Ga6  1  0.750000  0.799273  0.036312  1
  Ga  Ga7  1  0.250000  0.198402  0.965358  1
  Ga  Ga8  1  0.250000  0.929765  0.155681  1
  Ga  Ga9  1  0.750000  0.067965  0.845436  1
  Ga  Ga10  1  0.750000  0.571610  0.654930  1
  Ga  Ga11  1  0.250000  0.431404  0.344314  1
  Ag  Ag12  1  0.250000  0.544878  0.094906  1
  Ag  Ag13  1  0.750000  0.454434  0.904645  1
  Ag  Ag14  1  0.750000  0.954655  0.594856  1
  Ag  Ag15  1  0.250000  0.045466  0.403582  1
