# generated using pymatgen
data_HoEr11GaCo4Pb
_symmetry_space_group_name_H-M   'P 1'
_cell_length_a   8.26333530
_cell_length_b   8.26333584
_cell_length_c   8.26237276
_cell_angle_alpha   111.98265917
_cell_angle_beta   109.31011051
_cell_angle_gamma   107.16204537
_symmetry_Int_Tables_number   1
_chemical_formula_structural   HoEr11GaCo4Pb
_chemical_formula_sum   'Ho1 Er11 Ga1 Co4 Pb1'
_cell_volume   433.50351940
_cell_formula_units_Z   1
loop_
 _symmetry_equiv_pos_site_id
 _symmetry_equiv_pos_as_xyz
  1  'x, y, z'
loop_
 _atom_site_type_symbol
 _atom_site_label
 _atom_site_symmetry_multiplicity
 _atom_site_fract_x
 _atom_site_fract_y
 _atom_site_fract_z
 _atom_site_occupancy
  Ho  Ho0  1  0.820480  0.219752  0.040232  1
  Er  Er1  1  0.969337  0.267467  0.701696  1
  Er  Er2  1  0.030823  0.732755  0.298266  1
  Er  Er3  1  0.675156  0.859786  0.184753  1
  Er  Er4  1  0.324968  0.509598  0.184753  1
  Er  Er5  1  0.324637  0.140078  0.815214  1
  Er  Er6  1  0.675136  0.490577  0.815214  1
  Er  Er7  1  0.565511  0.267443  0.298266  1
  Er  Er8  1  0.434229  0.732358  0.701696  1
  Er  Er9  1  0.179354  0.780137  0.959491  1
  Er  Er10  1  0.820669  0.780134  0.600804  1
  Er  Er11  1  0.179516  0.219912  0.399427  1
  Ga  Ga12  1  0.000080  0.500180  0.500259  1
  Co  Co13  1  0.114747  0.114502  0.999942  1
  Co  Co14  1  0.885440  0.885196  0.999942  1
  Co  Co15  1  0.661235  0.500124  0.161359  1
  Co  Co16  1  0.338674  0.500006  0.838680  1
  Pb  Pb17  1  0.500009  0.999995  0.500004  1
