# generated using pymatgen
data_Li3Tm4Co11(NiP2)6
_symmetry_space_group_name_H-M   'P 1'
_cell_length_a   3.68116900
_cell_length_b   10.24825858
_cell_length_c   11.92200791
_cell_angle_alpha   90.41613133
_cell_angle_beta   90.00000000
_cell_angle_gamma   90.00000000
_symmetry_Int_Tables_number   1
_chemical_formula_structural   Li3Tm4Co11(NiP2)6
_chemical_formula_sum   'Li3 Tm4 Co11 Ni6 P12'
_cell_volume   449.75270269
_cell_formula_units_Z   1
loop_
 _symmetry_equiv_pos_site_id
 _symmetry_equiv_pos_as_xyz
  1  'x, y, z'
loop_
 _atom_site_type_symbol
 _atom_site_label
 _atom_site_symmetry_multiplicity
 _atom_site_fract_x
 _atom_site_fract_y
 _atom_site_fract_z
 _atom_site_occupancy
  Li  Li0  1  0.250000  0.701851  0.991731  1
  Li  Li1  1  0.250000  0.797260  0.492156  1
  Li  Li2  1  0.750000  0.296045  0.006639  1
  Tm  Tm3  1  0.250000  0.579488  0.705642  1
  Tm  Tm4  1  0.250000  0.919622  0.206041  1
  Tm  Tm5  1  0.750000  0.420049  0.293235  1
  Tm  Tm6  1  0.750000  0.079275  0.796139  1
  Co  Co7  1  0.250000  0.276099  0.671683  1
  Co  Co8  1  0.750000  0.780465  0.826292  1
  Co  Co9  1  0.750000  0.720648  0.326784  1
  Co  Co10  1  0.250000  0.880943  0.698559  1
  Co  Co11  1  0.250000  0.621352  0.199149  1
  Co  Co12  1  0.750000  0.119963  0.303196  1
  Co  Co13  1  0.750000  0.378392  0.797605  1
  Co  Co14  1  0.250000  0.465325  0.931006  1
  Co  Co15  1  0.250000  0.034968  0.433617  1
  Co  Co16  1  0.750000  0.533316  0.066790  1
  Co  Co17  1  0.750000  0.966856  0.567106  1
  Ni  Ni18  1  0.750000  0.211246  0.510467  1
  Ni  Ni19  1  0.250000  0.407802  0.483009  1
  Ni  Ni20  1  0.250000  0.092452  0.986892  1
  Ni  Ni21  1  0.750000  0.592018  0.514452  1
  Ni  Ni22  1  0.750000  0.906106  0.016333  1
  Ni  Ni23  1  0.250000  0.221439  0.175919  1
  P  P24  1  0.250000  0.426063  0.113564  1
  P  P25  1  0.250000  0.075977  0.614019  1
  P  P26  1  0.750000  0.577332  0.884358  1
  P  P27  1  0.750000  0.922898  0.385406  1
  P  P28  1  0.250000  0.270015  0.858054  1
  P  P29  1  0.250000  0.230163  0.365077  1
  P  P30  1  0.750000  0.728618  0.141018  1
  P  P31  1  0.750000  0.771632  0.641478  1
  P  P32  1  0.250000  0.603237  0.386668  1
  P  P33  1  0.250000  0.895446  0.887722  1
  P  P34  1  0.750000  0.396083  0.609856  1
  P  P35  1  0.750000  0.099560  0.112338  1
