# generated using pymatgen
data_La7NdNp4O24
_symmetry_space_group_name_H-M   'P 1'
_cell_length_a   5.67218100
_cell_length_b   9.65412887
_cell_length_c   10.72788210
_cell_angle_alpha   90.09861451
_cell_angle_beta   90.01845826
_cell_angle_gamma   90.09441671
_symmetry_Int_Tables_number   1
_chemical_formula_structural   La7NdNp4O24
_chemical_formula_sum   'La7 Nd1 Np4 O24'
_cell_volume   587.45676363
_cell_formula_units_Z   1
loop_
 _symmetry_equiv_pos_site_id
 _symmetry_equiv_pos_as_xyz
  1  'x, y, z'
loop_
 _atom_site_type_symbol
 _atom_site_label
 _atom_site_symmetry_multiplicity
 _atom_site_fract_x
 _atom_site_fract_y
 _atom_site_fract_z
 _atom_site_occupancy
  La  La0  1  0.472763  0.601278  0.536169  1
  La  La1  1  0.972822  0.898461  0.462955  1
  La  La2  1  0.527300  0.101644  0.963940  1
  La  La3  1  0.026804  0.398246  0.036610  1
  La  La4  1  0.963635  0.783741  0.866497  1
  La  La5  1  0.463601  0.716789  0.133936  1
  La  La6  1  0.036934  0.283311  0.633158  1
  Nd  Nd7  1  0.539706  0.216536  0.368660  1
  Np  Np8  1  0.462110  0.995711  0.647610  1
  Np  Np9  1  0.961330  0.503419  0.351560  1
  Np  Np10  1  0.538039  0.494932  0.851571  1
  Np  Np11  1  0.038540  0.006084  0.149403  1
  O  O12  1  0.256711  0.086264  0.505789  1
  O  O13  1  0.752890  0.412344  0.492173  1
  O  O14  1  0.745291  0.585754  0.992643  1
  O  O15  1  0.245500  0.914862  0.007994  1
  O  O16  1  0.732540  0.116115  0.563094  1
  O  O17  1  0.234465  0.383934  0.433455  1
  O  O18  1  0.267228  0.614873  0.934823  1
  O  O19  1  0.767580  0.885566  0.065391  1
  O  O20  1  0.587501  0.843389  0.531620  1
  O  O21  1  0.087145  0.655891  0.468274  1
  O  O22  1  0.412365  0.343207  0.968323  1
  O  O23  1  0.913700  0.156853  0.031662  1
  O  O24  1  0.176137  0.858478  0.259945  1
  O  O25  1  0.677260  0.641651  0.740249  1
  O  O26  1  0.819154  0.356807  0.240794  1
  O  O27  1  0.322825  0.141788  0.759352  1
  O  O28  1  0.826200  0.049483  0.301187  1
  O  O29  1  0.328068  0.451391  0.698789  1
  O  O30  1  0.170478  0.548424  0.199067  1
  O  O31  1  0.671525  0.951894  0.800488  1
  O  O32  1  0.326200  0.137104  0.183649  1
  O  O33  1  0.824629  0.363703  0.819461  1
  O  O34  1  0.675791  0.635778  0.319689  1
  O  O35  1  0.175234  0.864294  0.680021  1
