# generated using pymatgen
data_Dy3ErThAl2Ru3
_symmetry_space_group_name_H-M   'P 1'
_cell_length_a   8.39902167
_cell_length_b   8.39561756
_cell_length_c   8.37428114
_cell_angle_alpha   109.67750036
_cell_angle_beta   109.67105518
_cell_angle_gamma   109.36645150
_symmetry_Int_Tables_number   1
_chemical_formula_structural   Dy3ErThAl2Ru3
_chemical_formula_sum   'Dy6 Er2 Th2 Al4 Ru6'
_cell_volume   452.87479368
_cell_formula_units_Z   2
loop_
 _symmetry_equiv_pos_site_id
 _symmetry_equiv_pos_as_xyz
  1  'x, y, z'
loop_
 _atom_site_type_symbol
 _atom_site_label
 _atom_site_symmetry_multiplicity
 _atom_site_fract_x
 _atom_site_fract_y
 _atom_site_fract_z
 _atom_site_occupancy
  Dy  Dy0  1  0.781721  0.784764  0.779676  1
  Dy  Dy1  1  0.318325  0.567742  0.751268  1
  Dy  Dy2  1  0.748609  0.316088  0.568049  1
  Dy  Dy3  1  0.567692  0.747992  0.314996  1
  Dy  Dy4  1  0.714616  0.499293  0.997094  1
  Dy  Dy5  1  0.999593  0.718789  0.504923  1
  Er  Er6  1  0.499128  0.994892  0.713941  1
  Er  Er7  1  0.252941  0.184538  0.931655  1
  Th  Th8  1  0.940796  0.252884  0.192185  1
  Th  Th9  1  0.189181  0.937982  0.249818  1
  Al  Al10  1  0.416708  0.413105  0.409688  1
  Al  Al11  1  0.093640  0.494072  0.994130  1
  Al  Al12  1  0.997494  0.093561  0.508268  1
  Al  Al13  1  0.499914  0.003296  0.090344  1
  Ru  Ru14  1  0.871236  0.122230  0.751420  1
  Ru  Ru15  1  0.755577  0.890860  0.126086  1
  Ru  Ru16  1  0.126467  0.755550  0.891804  1
  Ru  Ru17  1  0.236861  0.611311  0.367077  1
  Ru  Ru18  1  0.362401  0.233588  0.608383  1
  Ru  Ru19  1  0.627103  0.377464  0.249190  1
