# generated using pymatgen
data_Zr3Sc3(PbC2)2
_symmetry_space_group_name_H-M   'P 1'
_cell_length_a   3.37719000
_cell_length_b   3.37718971
_cell_length_c   20.65641400
_cell_angle_alpha   90.00000000
_cell_angle_beta   90.00000000
_cell_angle_gamma   120.00000283
_symmetry_Int_Tables_number   1
_chemical_formula_structural   Zr3Sc3(PbC2)2
_chemical_formula_sum   'Zr3 Sc3 Pb2 C4'
_cell_volume   204.03116093
_cell_formula_units_Z   1
loop_
 _symmetry_equiv_pos_site_id
 _symmetry_equiv_pos_as_xyz
  1  'x, y, z'
loop_
 _atom_site_type_symbol
 _atom_site_label
 _atom_site_symmetry_multiplicity
 _atom_site_fract_x
 _atom_site_fract_y
 _atom_site_fract_z
 _atom_site_occupancy
  Zr  Zr0  1  0.000000  0.000000  0.000918  1
  Zr  Zr1  1  0.000000  0.000000  0.500007  1
  Zr  Zr2  1  0.333334  0.666667  0.874885  1
  Sc  Sc3  1  0.666667  0.333332  0.122907  1
  Sc  Sc4  1  0.666667  0.333332  0.376550  1
  Sc  Sc5  1  0.333334  0.666667  0.623635  1
  Pb  Pb6  1  0.000000  0.000000  0.250094  1
  Pb  Pb7  1  0.000000  0.000000  0.750624  1
  C  C8  1  0.333334  0.666667  0.067631  1
  C  C9  1  0.333334  0.666667  0.432836  1
  C  C10  1  0.666667  0.333332  0.568534  1
  C  C11  1  0.666667  0.333332  0.931377  1
