# generated using pymatgen
data_Sc5(Hg2Pt)2
_symmetry_space_group_name_H-M   'P 1'
_cell_length_a   3.30743800
_cell_length_b   7.77515500
_cell_length_c   17.69335200
_cell_angle_alpha   90.00000000
_cell_angle_beta   90.00000000
_cell_angle_gamma   90.00000000
_symmetry_Int_Tables_number   1
_chemical_formula_structural   Sc5(Hg2Pt)2
_chemical_formula_sum   'Sc10 Hg8 Pt4'
_cell_volume   454.99946400
_cell_formula_units_Z   2
loop_
 _symmetry_equiv_pos_site_id
 _symmetry_equiv_pos_as_xyz
  1  'x, y, z'
loop_
 _atom_site_type_symbol
 _atom_site_label
 _atom_site_symmetry_multiplicity
 _atom_site_fract_x
 _atom_site_fract_y
 _atom_site_fract_z
 _atom_site_occupancy
  Sc  Sc0  1  0.000000  0.115170  0.416543  1
  Sc  Sc1  1  0.000000  0.884830  0.583457  1
  Sc  Sc2  1  0.000000  0.384830  0.916543  1
  Sc  Sc3  1  0.000000  0.615170  0.083457  1
  Sc  Sc4  1  0.000000  0.240823  0.216189  1
  Sc  Sc5  1  0.000000  0.759177  0.783811  1
  Sc  Sc6  1  0.000000  0.259177  0.716189  1
  Sc  Sc7  1  0.000000  0.740823  0.283811  1
  Sc  Sc8  1  0.000000  0.000000  0.000000  1
  Sc  Sc9  1  0.000000  0.500000  0.500000  1
  Hg  Hg10  1  0.500000  0.419504  0.355270  1
  Hg  Hg11  1  0.500000  0.580496  0.644730  1
  Hg  Hg12  1  0.500000  0.080496  0.855270  1
  Hg  Hg13  1  0.500000  0.919504  0.144730  1
  Hg  Hg14  1  0.500000  0.289471  0.061942  1
  Hg  Hg15  1  0.500000  0.710529  0.938058  1
  Hg  Hg16  1  0.500000  0.210529  0.561942  1
  Hg  Hg17  1  0.500000  0.789471  0.438058  1
  Pt  Pt18  1  0.500000  0.028301  0.303429  1
  Pt  Pt19  1  0.500000  0.971699  0.696571  1
  Pt  Pt20  1  0.500000  0.471699  0.803429  1
  Pt  Pt21  1  0.500000  0.528301  0.196571  1
