# generated using pymatgen
data_Y17Ho3(Ir2Rh)4
_symmetry_space_group_name_H-M   'P 1'
_cell_length_a   10.91942200
_cell_length_b   10.91942200
_cell_length_c   6.40879900
_cell_angle_alpha   90.00000000
_cell_angle_beta   90.00000000
_cell_angle_gamma   90.00000000
_symmetry_Int_Tables_number   1
_chemical_formula_structural   Y17Ho3(Ir2Rh)4
_chemical_formula_sum   'Y17 Ho3 Ir8 Rh4'
_cell_volume   764.14530961
_cell_formula_units_Z   1
loop_
 _symmetry_equiv_pos_site_id
 _symmetry_equiv_pos_as_xyz
  1  'x, y, z'
loop_
 _atom_site_type_symbol
 _atom_site_label
 _atom_site_symmetry_multiplicity
 _atom_site_fract_x
 _atom_site_fract_y
 _atom_site_fract_z
 _atom_site_occupancy
  Y  Y0  1  0.290184  0.089073  0.380071  1
  Y  Y1  1  0.290202  0.911056  0.880130  1
  Y  Y2  1  0.709798  0.088944  0.880130  1
  Y  Y3  1  0.709816  0.910927  0.380071  1
  Y  Y4  1  0.588979  0.790267  0.880026  1
  Y  Y5  1  0.589214  0.209544  0.380035  1
  Y  Y6  1  0.410786  0.790456  0.380035  1
  Y  Y7  1  0.411021  0.209733  0.880026  1
  Y  Y8  1  0.209544  0.410786  0.619965  1
  Y  Y9  1  0.209733  0.588979  0.119974  1
  Y  Y10  1  0.790267  0.411021  0.119974  1
  Y  Y11  1  0.790456  0.589214  0.619965  1
  Y  Y12  1  0.911056  0.709798  0.119870  1
  Y  Y13  1  0.910927  0.290184  0.619929  1
  Y  Y14  1  0.089073  0.709816  0.619929  1
  Y  Y15  1  0.088944  0.290202  0.119870  1
  Y  Y16  1  0.500000  0.500000  0.500000  1
  Ho  Ho17  1  0.000000  0.000000  0.500000  1
  Ho  Ho18  1  0.000000  0.000000  0.000000  1
  Ho  Ho19  1  0.500000  0.500000  0.000000  1
  Ir  Ir20  1  0.847371  0.152602  0.249998  1
  Ir  Ir21  1  0.847398  0.847371  0.750002  1
  Ir  Ir22  1  0.152602  0.152629  0.750002  1
  Ir  Ir23  1  0.152629  0.847398  0.249998  1
  Ir  Ir24  1  0.653342  0.346545  0.751313  1
  Ir  Ir25  1  0.653455  0.653342  0.248687  1
  Ir  Ir26  1  0.346545  0.346658  0.248687  1
  Ir  Ir27  1  0.346658  0.653455  0.751313  1
  Rh  Rh28  1  0.500000  0.000000  0.125638  1
  Rh  Rh29  1  0.500000  0.000000  0.625591  1
  Rh  Rh30  1  0.000000  0.500000  0.874362  1
  Rh  Rh31  1  0.000000  0.500000  0.374409  1
