# generated using pymatgen
data_Pr6Cd17Ag6P
_symmetry_space_group_name_H-M   'P 1'
_cell_length_a   9.97870782
_cell_length_b   9.97870785
_cell_length_c   9.97870700
_cell_angle_alpha   60.00000615
_cell_angle_beta   60.00000605
_cell_angle_gamma   59.99999839
_symmetry_Int_Tables_number   1
_chemical_formula_structural   Pr6Cd17Ag6P
_chemical_formula_sum   'Pr6 Cd17 Ag6 P1'
_cell_volume   702.59963926
_cell_formula_units_Z   1
loop_
 _symmetry_equiv_pos_site_id
 _symmetry_equiv_pos_as_xyz
  1  'x, y, z'
loop_
 _atom_site_type_symbol
 _atom_site_label
 _atom_site_symmetry_multiplicity
 _atom_site_fract_x
 _atom_site_fract_y
 _atom_site_fract_z
 _atom_site_occupancy
  Pr  Pr0  1  0.794285  0.794285  0.205715  1
  Pr  Pr1  1  0.205715  0.794285  0.205715  1
  Pr  Pr2  1  0.794285  0.205715  0.205715  1
  Pr  Pr3  1  0.205715  0.205715  0.794285  1
  Pr  Pr4  1  0.794285  0.205715  0.794285  1
  Pr  Pr5  1  0.205715  0.794285  0.794285  1
  Cd  Cd6  1  0.831965  0.831965  0.504103  1
  Cd  Cd7  1  0.831965  0.504103  0.831965  1
  Cd  Cd8  1  0.504103  0.831965  0.831965  1
  Cd  Cd9  1  0.831965  0.831965  0.831965  1
  Cd  Cd10  1  0.168035  0.168035  0.495897  1
  Cd  Cd11  1  0.168035  0.495897  0.168035  1
  Cd  Cd12  1  0.495897  0.168035  0.168035  1
  Cd  Cd13  1  0.168035  0.168035  0.168035  1
  Cd  Cd14  1  0.622008  0.622008  0.133977  1
  Cd  Cd15  1  0.622008  0.133977  0.622008  1
  Cd  Cd16  1  0.133977  0.622008  0.622008  1
  Cd  Cd17  1  0.622008  0.622008  0.622008  1
  Cd  Cd18  1  0.377992  0.377992  0.866023  1
  Cd  Cd19  1  0.377992  0.866023  0.377992  1
  Cd  Cd20  1  0.866023  0.377992  0.377992  1
  Cd  Cd21  1  0.377992  0.377992  0.377992  1
  Cd  Cd22  1  0.500000  0.500000  0.500000  1
  Ag  Ag23  1  0.000000  0.000000  0.500000  1
  Ag  Ag24  1  0.500000  0.000000  0.500000  1
  Ag  Ag25  1  0.000000  0.500000  0.500000  1
  Ag  Ag26  1  0.500000  0.500000  0.000000  1
  Ag  Ag27  1  0.000000  0.500000  0.000000  1
  Ag  Ag28  1  0.500000  0.000000  0.000000  1
  P  P29  1  0.000000  0.000000  0.000000  1
