# generated using pymatgen
data_Zr10Sn2Sb5
_symmetry_space_group_name_H-M   'P 1'
_cell_length_a   5.92053111
_cell_length_b   8.67395921
_cell_length_c   8.66401333
_cell_angle_alpha   120.03798638
_cell_angle_beta   89.92771855
_cell_angle_gamma   90.14438381
_symmetry_Int_Tables_number   1
_chemical_formula_structural   Zr10Sn2Sb5
_chemical_formula_sum   'Zr10 Sn2 Sb5'
_cell_volume   385.17673057
_cell_formula_units_Z   1
loop_
 _symmetry_equiv_pos_site_id
 _symmetry_equiv_pos_as_xyz
  1  'x, y, z'
loop_
 _atom_site_type_symbol
 _atom_site_label
 _atom_site_symmetry_multiplicity
 _atom_site_fract_x
 _atom_site_fract_y
 _atom_site_fract_z
 _atom_site_occupancy
  Zr  Zr0  1  0.499840  0.333553  0.667785  1
  Zr  Zr1  1  0.499840  0.665768  0.332215  1
  Zr  Zr2  1  0.001432  0.666104  0.332584  1
  Zr  Zr3  1  0.001432  0.333520  0.667416  1
  Zr  Zr4  1  0.770806  0.268625  0.000000  1
  Zr  Zr5  1  0.772897  0.733208  0.732770  1
  Zr  Zr6  1  0.772897  0.000436  0.267230  1
  Zr  Zr7  1  0.227023  0.729873  0.000000  1
  Zr  Zr8  1  0.226887  0.268300  0.268299  1
  Zr  Zr9  1  0.226887  0.000001  0.731701  1
  Sn  Sn10  1  0.257278  0.614207  0.614125  1
  Sn  Sn11  1  0.257278  0.000082  0.385875  1
  Sb  Sb12  1  0.744154  0.613763  0.000000  1
  Sb  Sb13  1  0.744649  0.388102  0.388723  1
  Sb  Sb14  1  0.744649  0.999379  0.611277  1
  Sb  Sb15  1  0.254553  0.385679  0.000000  1
  Sb  Sb16  1  0.497495  0.999402  0.000000  1
