# generated using pymatgen
data_Y3LuBe8(B5O11)4
_symmetry_space_group_name_H-M   'P 1'
_cell_length_a   4.36034064
_cell_length_b   6.72891576
_cell_length_c   25.73222923
_cell_angle_alpha   90.02826025
_cell_angle_beta   89.85932950
_cell_angle_gamma   90.04663688
_symmetry_Int_Tables_number   1
_chemical_formula_structural   Y3LuBe8(B5O11)4
_chemical_formula_sum   'Y3 Lu1 Be8 B20 O44'
_cell_volume   754.99037671
_cell_formula_units_Z   1
loop_
 _symmetry_equiv_pos_site_id
 _symmetry_equiv_pos_as_xyz
  1  'x, y, z'
loop_
 _atom_site_type_symbol
 _atom_site_label
 _atom_site_symmetry_multiplicity
 _atom_site_fract_x
 _atom_site_fract_y
 _atom_site_fract_z
 _atom_site_occupancy
  Y  Y0  1  0.132166  0.867499  0.080275  1
  Y  Y1  1  0.365501  0.867884  0.580809  1
  Y  Y2  1  0.634522  0.368166  0.419347  1
  Lu  Lu3  1  0.873169  0.364181  0.919457  1
  Be  Be4  1  0.164786  0.452578  0.791768  1
  Be  Be5  1  0.834673  0.952690  0.209100  1
  Be  Be6  1  0.666423  0.952572  0.709866  1
  Be  Be7  1  0.333334  0.452409  0.290494  1
  Be  Be8  1  0.663377  0.228876  0.793900  1
  Be  Be9  1  0.338051  0.728269  0.206467  1
  Be  Be10  1  0.163117  0.728709  0.707610  1
  Be  Be11  1  0.836445  0.228543  0.292983  1
  B  B12  1  0.373603  0.040481  0.870542  1
  B  B13  1  0.627607  0.539492  0.129026  1
  B  B14  1  0.873455  0.539827  0.630449  1
  B  B15  1  0.126251  0.039791  0.369813  1
  B  B16  1  0.143785  0.709093  0.872121  1
  B  B17  1  0.854031  0.209920  0.128503  1
  B  B18  1  0.646619  0.209607  0.629518  1
  B  B19  1  0.353031  0.709791  0.370677  1
  B  B20  1  0.021623  0.940826  0.943835  1
  B  B21  1  0.976469  0.435890  0.054702  1
  B  B22  1  0.525764  0.437927  0.556750  1
  B  B23  1  0.474581  0.938254  0.443425  1
  B  B24  1  0.534450  0.961168  0.998237  1
  B  B25  1  0.466273  0.455650  0.999696  1
  B  B26  1  0.037790  0.457976  0.501967  1
  B  B27  1  0.962288  0.958172  0.498151  1
  B  B28  1  0.177844  0.088209  0.752275  1
  B  B29  1  0.822651  0.587714  0.247983  1
  B  B30  1  0.676939  0.588397  0.749249  1
  B  B31  1  0.322605  0.087617  0.251563  1
  O  O32  1  0.349987  0.845997  0.851060  1
  O  O33  1  0.649681  0.347125  0.149446  1
  O  O34  1  0.851959  0.346527  0.650279  1
  O  O35  1  0.147487  0.846418  0.349951  1
  O  O36  1  0.625194  0.926926  0.047675  1
  O  O37  1  0.377960  0.424794  0.949941  1
  O  O38  1  0.128922  0.426830  0.452304  1
  O  O39  1  0.871197  0.926814  0.547806  1
  O  O40  1  0.990473  0.746319  0.918537  1
  O  O41  1  0.004577  0.243784  0.081507  1
  O  O42  1  0.493796  0.245038  0.582955  1
  O  O43  1  0.506421  0.745456  0.417182  1
  O  O44  1  0.217988  0.930712  0.990924  1
  O  O45  1  0.784034  0.424237  0.007000  1
  O  O46  1  0.721208  0.426531  0.509386  1
  O  O47  1  0.278660  0.926410  0.490683  1
  O  O48  1  0.150434  0.089897  0.907676  1
  O  O49  1  0.844293  0.585329  0.090499  1
  O  O50  1  0.655745  0.587227  0.592540  1
  O  O51  1  0.344599  0.087268  0.407621  1
  O  O52  1  0.080216  0.526478  0.851231  1
  O  O53  1  0.915707  0.029495  0.150279  1
  O  O54  1  0.585968  0.028423  0.650960  1
  O  O55  1  0.413473  0.528456  0.349296  1
  O  O56  1  0.581969  0.178576  0.855032  1
  O  O57  1  0.423895  0.678862  0.145367  1
  O  O58  1  0.077608  0.678832  0.646629  1
  O  O59  1  0.921888  0.178812  0.353812  1
  O  O60  1  0.719877  0.022092  0.957480  1
  O  O61  1  0.280995  0.513310  0.040928  1
  O  O62  1  0.222818  0.517096  0.542912  1
  O  O63  1  0.777362  0.017573  0.457265  1
  O  O64  1  0.027985  0.224255  0.783690  1
  O  O65  1  0.972751  0.723819  0.216515  1
  O  O66  1  0.528233  0.723750  0.717576  1
  O  O67  1  0.471588  0.223636  0.283049  1
  O  O68  1  0.492804  0.086693  0.752761  1
  O  O69  1  0.507715  0.586404  0.247622  1
  O  O70  1  0.992058  0.587990  0.749109  1
  O  O71  1  0.007696  0.086756  0.251872  1
  O  O72  1  0.027744  0.954056  0.721193  1
  O  O73  1  0.972353  0.453795  0.279111  1
  O  O74  1  0.526063  0.454058  0.780290  1
  O  O75  1  0.473402  0.953404  0.220491  1
