# generated using pymatgen
data_TbLu(Fe5P3)2
_symmetry_space_group_name_H-M   'P 1'
_cell_length_a   3.64471800
_cell_length_b   10.28167200
_cell_length_c   11.80371500
_cell_angle_alpha   90.00000000
_cell_angle_beta   90.00000000
_cell_angle_gamma   90.00000000
_symmetry_Int_Tables_number   1
_chemical_formula_structural   TbLu(Fe5P3)2
_chemical_formula_sum   'Tb2 Lu2 Fe20 P12'
_cell_volume   442.32999625
_cell_formula_units_Z   2
loop_
 _symmetry_equiv_pos_site_id
 _symmetry_equiv_pos_as_xyz
  1  'x, y, z'
loop_
 _atom_site_type_symbol
 _atom_site_label
 _atom_site_symmetry_multiplicity
 _atom_site_fract_x
 _atom_site_fract_y
 _atom_site_fract_z
 _atom_site_occupancy
  Tb  Tb0  1  0.250000  0.580558  0.704525  1
  Tb  Tb1  1  0.250000  0.919442  0.204525  1
  Lu  Lu2  1  0.750000  0.419564  0.295598  1
  Lu  Lu3  1  0.750000  0.080436  0.795598  1
  Fe  Fe4  1  0.250000  0.708062  0.988825  1
  Fe  Fe5  1  0.250000  0.791938  0.488825  1
  Fe  Fe6  1  0.750000  0.291693  0.010898  1
  Fe  Fe7  1  0.750000  0.208307  0.510898  1
  Fe  Fe8  1  0.250000  0.405268  0.488777  1
  Fe  Fe9  1  0.250000  0.094732  0.988777  1
  Fe  Fe10  1  0.750000  0.594378  0.508769  1
  Fe  Fe11  1  0.750000  0.905622  0.008769  1
  Fe  Fe12  1  0.250000  0.220272  0.176663  1
  Fe  Fe13  1  0.250000  0.279728  0.676663  1
  Fe  Fe14  1  0.750000  0.781526  0.823439  1
  Fe  Fe15  1  0.750000  0.718474  0.323439  1
  Fe  Fe16  1  0.250000  0.877174  0.702084  1
  Fe  Fe17  1  0.250000  0.622826  0.202084  1
  Fe  Fe18  1  0.750000  0.125760  0.298952  1
  Fe  Fe19  1  0.750000  0.374240  0.798952  1
  Fe  Fe20  1  0.250000  0.462113  0.932993  1
  Fe  Fe21  1  0.250000  0.037887  0.432993  1
  Fe  Fe22  1  0.750000  0.535558  0.068553  1
  Fe  Fe23  1  0.750000  0.964442  0.568553  1
  P  P24  1  0.250000  0.421850  0.114192  1
  P  P25  1  0.250000  0.078150  0.614192  1
  P  P26  1  0.750000  0.577984  0.888401  1
  P  P27  1  0.750000  0.922016  0.388401  1
  P  P28  1  0.250000  0.264269  0.870960  1
  P  P29  1  0.250000  0.235731  0.370960  1
  P  P30  1  0.750000  0.733290  0.127645  1
  P  P31  1  0.750000  0.766710  0.627645  1
  P  P32  1  0.250000  0.599450  0.395640  1
  P  P33  1  0.250000  0.900550  0.895640  1
  P  P34  1  0.750000  0.398317  0.603085  1
  P  P35  1  0.750000  0.101683  0.103085  1
