# generated using pymatgen
data_Gd3Er7Si5Sn
_symmetry_space_group_name_H-M   'P 1'
_cell_length_a   8.46256900
_cell_length_b   8.48993361
_cell_length_c   6.33581400
_cell_angle_alpha   90.00000000
_cell_angle_beta   90.00000000
_cell_angle_gamma   119.89343121
_symmetry_Int_Tables_number   1
_chemical_formula_structural   Gd3Er7Si5Sn
_chemical_formula_sum   'Gd3 Er7 Si5 Sn1'
_cell_volume   394.64348493
_cell_formula_units_Z   1
loop_
 _symmetry_equiv_pos_site_id
 _symmetry_equiv_pos_as_xyz
  1  'x, y, z'
loop_
 _atom_site_type_symbol
 _atom_site_label
 _atom_site_symmetry_multiplicity
 _atom_site_fract_x
 _atom_site_fract_y
 _atom_site_fract_z
 _atom_site_occupancy
  Gd  Gd0  1  0.998017  0.242227  0.250000  1
  Gd  Gd1  1  0.755790  0.757773  0.250000  1
  Gd  Gd2  1  0.240900  0.000000  0.250000  1
  Er  Er3  1  0.990358  0.749186  0.750000  1
  Er  Er4  1  0.765496  0.000000  0.750000  1
  Er  Er5  1  0.241173  0.250814  0.750000  1
  Er  Er6  1  0.331265  0.657542  0.497304  1
  Er  Er7  1  0.673724  0.342458  0.002696  1
  Er  Er8  1  0.673724  0.342458  0.497304  1
  Er  Er9  1  0.331265  0.657542  0.002696  1
  Si  Si10  1  0.395093  0.393588  0.250000  1
  Si  Si11  1  0.001505  0.606412  0.250000  1
  Si  Si12  1  0.998761  0.394319  0.750000  1
  Si  Si13  1  0.604443  0.605681  0.750000  1
  Si  Si14  1  0.602624  0.000000  0.250000  1
  Sn  Sn15  1  0.395864  0.000000  0.750000  1
