# generated using pymatgen
data_Mg4Ni2Ge2As4Ir5
_symmetry_space_group_name_H-M   'P 1'
_cell_length_a   7.03171944
_cell_length_b   6.98782481
_cell_length_c   6.98782392
_cell_angle_alpha   109.14307883
_cell_angle_beta   109.98093715
_cell_angle_gamma   109.03640663
_symmetry_Int_Tables_number   1
_chemical_formula_structural   Mg4Ni2Ge2As4Ir5
_chemical_formula_sum   'Mg4 Ni2 Ge2 As4 Ir5'
_cell_volume   265.12268133
_cell_formula_units_Z   1
loop_
 _symmetry_equiv_pos_site_id
 _symmetry_equiv_pos_as_xyz
  1  'x, y, z'
loop_
 _atom_site_type_symbol
 _atom_site_label
 _atom_site_symmetry_multiplicity
 _atom_site_fract_x
 _atom_site_fract_y
 _atom_site_fract_z
 _atom_site_occupancy
  Mg  Mg0  1  0.999893  0.993132  0.500132  1
  Mg  Mg1  1  0.500326  0.003268  0.997874  1
  Mg  Mg2  1  0.999893  0.499760  0.006761  1
  Mg  Mg3  1  0.500326  0.502453  0.497059  1
  Ni  Ni4  1  0.244420  0.495831  0.748589  1
  Ni  Ni5  1  0.757783  0.251964  0.505819  1
  Ge  Ge6  1  0.685813  0.689124  0.996689  1
  Ge  Ge7  1  0.310321  0.314581  0.995740  1
  As  As8  1  0.999673  0.678397  0.690301  1
  As  As9  1  0.999673  0.309372  0.321276  1
  As  As10  1  0.689002  0.004075  0.684927  1
  As  As11  1  0.312821  0.002676  0.310145  1
  Ir  Ir12  1  0.998888  0.001561  0.997326  1
  Ir  Ir13  1  0.500517  0.255545  0.742685  1
  Ir  Ir14  1  0.500517  0.757833  0.244972  1
  Ir  Ir15  1  0.746064  0.493525  0.252539  1
  Ir  Ir16  1  0.254070  0.746905  0.507165  1
