# generated using pymatgen
data_Ho8Er2Ir5Pt
_symmetry_space_group_name_H-M   'P 1'
_cell_length_a   10.87053297
_cell_length_b   10.87432500
_cell_length_c   6.31174600
_cell_angle_alpha   90.00000000
_cell_angle_beta   89.95176716
_cell_angle_gamma   90.00000000
_symmetry_Int_Tables_number   1
_chemical_formula_structural   Ho8Er2Ir5Pt
_chemical_formula_sum   'Ho16 Er4 Ir10 Pt2'
_cell_volume   746.10939030
_cell_formula_units_Z   2
loop_
 _symmetry_equiv_pos_site_id
 _symmetry_equiv_pos_as_xyz
  1  'x, y, z'
loop_
 _atom_site_type_symbol
 _atom_site_label
 _atom_site_symmetry_multiplicity
 _atom_site_fract_x
 _atom_site_fract_y
 _atom_site_fract_z
 _atom_site_occupancy
  Ho  Ho0  1  0.291114  0.088052  0.375873  1
  Ho  Ho1  1  0.291114  0.911948  0.875873  1
  Ho  Ho2  1  0.705747  0.089683  0.874124  1
  Ho  Ho3  1  0.705747  0.910317  0.374124  1
  Ho  Ho4  1  0.584648  0.790785  0.878036  1
  Ho  Ho5  1  0.584648  0.209215  0.378036  1
  Ho  Ho6  1  0.411226  0.791238  0.377068  1
  Ho  Ho7  1  0.411226  0.208762  0.877068  1
  Ho  Ho8  1  0.209010  0.411816  0.622576  1
  Ho  Ho9  1  0.209010  0.588184  0.122576  1
  Ho  Ho10  1  0.790743  0.414637  0.122935  1
  Ho  Ho11  1  0.790743  0.585363  0.622935  1
  Ho  Ho12  1  0.913531  0.707276  0.126625  1
  Ho  Ho13  1  0.913531  0.292724  0.626625  1
  Ho  Ho14  1  0.091023  0.707126  0.622859  1
  Ho  Ho15  1  0.091023  0.292874  0.122859  1
  Er  Er16  1  0.002711  0.999725  0.500019  1
  Er  Er17  1  0.002711  0.000275  0.000019  1
  Er  Er18  1  0.499971  0.499654  0.999864  1
  Er  Er19  1  0.499971  0.500346  0.499864  1
  Ir  Ir20  1  0.152561  0.153496  0.750105  1
  Ir  Ir21  1  0.152561  0.846504  0.250105  1
  Ir  Ir22  1  0.654556  0.346144  0.749593  1
  Ir  Ir23  1  0.654556  0.653856  0.249593  1
  Ir  Ir24  1  0.346941  0.346543  0.250293  1
  Ir  Ir25  1  0.346941  0.653457  0.750293  1
  Ir  Ir26  1  0.500708  0.999819  0.123355  1
  Ir  Ir27  1  0.500708  0.000181  0.623355  1
  Ir  Ir28  1  0.999591  0.500184  0.876911  1
  Ir  Ir29  1  0.999591  0.499816  0.376911  1
  Pt  Pt30  1  0.845918  0.152923  0.249762  1
  Pt  Pt31  1  0.845918  0.847077  0.749762  1
