# generated using pymatgen
data_RbCuP2Se5
_symmetry_space_group_name_H-M   'P 1'
_cell_length_a   7.97495200
_cell_length_b   11.09110999
_cell_length_c   13.54366800
_cell_angle_alpha   58.89828940
_cell_angle_beta   90.00000000
_cell_angle_gamma   90.00000000
_symmetry_Int_Tables_number   1
_chemical_formula_structural   RbCuP2Se5
_chemical_formula_sum   'Rb4 Cu4 P8 Se20'
_cell_volume   1025.74832586
_cell_formula_units_Z   4
loop_
 _symmetry_equiv_pos_site_id
 _symmetry_equiv_pos_as_xyz
  1  'x, y, z'
loop_
 _atom_site_type_symbol
 _atom_site_label
 _atom_site_symmetry_multiplicity
 _atom_site_fract_x
 _atom_site_fract_y
 _atom_site_fract_z
 _atom_site_occupancy
  Rb  Rb0  1  0.627020  0.622630  0.779331  1
  Rb  Rb1  1  0.372980  0.377370  0.220669  1
  Rb  Rb2  1  0.872980  0.622630  0.279331  1
  Rb  Rb3  1  0.127020  0.377370  0.720669  1
  Cu  Cu4  1  0.328785  0.858026  0.324503  1
  Cu  Cu5  1  0.828785  0.141974  0.175497  1
  Cu  Cu6  1  0.171215  0.858026  0.824503  1
  Cu  Cu7  1  0.671215  0.141974  0.675497  1
  P  P8  1  0.657397  0.188933  0.924717  1
  P  P9  1  0.938970  0.834415  0.457227  1
  P  P10  1  0.061030  0.165585  0.542773  1
  P  P11  1  0.842603  0.188933  0.424717  1
  P  P12  1  0.342603  0.811067  0.075283  1
  P  P13  1  0.157397  0.811067  0.575283  1
  P  P14  1  0.561030  0.834415  0.957227  1
  P  P15  1  0.438970  0.165585  0.042773  1
  Se  Se16  1  0.684519  0.632802  0.032611  1
  Se  Se17  1  0.582103  0.299217  0.744132  1
  Se  Se18  1  0.130599  0.723175  0.029353  1
  Se  Se19  1  0.468939  0.935953  0.777128  1
  Se  Se20  1  0.184519  0.367198  0.467389  1
  Se  Se21  1  0.369401  0.723175  0.529353  1
  Se  Se22  1  0.315481  0.367198  0.967389  1
  Se  Se23  1  0.968939  0.064047  0.722872  1
  Se  Se24  1  0.752183  0.962831  0.992564  1
  Se  Se25  1  0.252183  0.037169  0.507436  1
  Se  Se26  1  0.869401  0.276825  0.970647  1
  Se  Se27  1  0.747817  0.962831  0.492564  1
  Se  Se28  1  0.082103  0.700783  0.755868  1
  Se  Se29  1  0.031061  0.935953  0.277128  1
  Se  Se30  1  0.630599  0.276825  0.470647  1
  Se  Se31  1  0.417897  0.700783  0.255868  1
  Se  Se32  1  0.917897  0.299217  0.244132  1
  Se  Se33  1  0.531061  0.064047  0.222872  1
  Se  Se34  1  0.247817  0.037169  0.007436  1
  Se  Se35  1  0.815481  0.632802  0.532611  1
