# generated using pymatgen
data_CsRb2CuF5
_symmetry_space_group_name_H-M   'P 1'
_cell_length_a   7.64823900
_cell_length_b   7.64823900
_cell_length_c   6.42356800
_cell_angle_alpha   90.00000000
_cell_angle_beta   90.00000000
_cell_angle_gamma   90.00000000
_symmetry_Int_Tables_number   1
_chemical_formula_structural   CsRb2CuF5
_chemical_formula_sum   'Cs2 Rb4 Cu2 F10'
_cell_volume   375.75020608
_cell_formula_units_Z   2
loop_
 _symmetry_equiv_pos_site_id
 _symmetry_equiv_pos_as_xyz
  1  'x, y, z'
loop_
 _atom_site_type_symbol
 _atom_site_label
 _atom_site_symmetry_multiplicity
 _atom_site_fract_x
 _atom_site_fract_y
 _atom_site_fract_z
 _atom_site_occupancy
  Cs  Cs0  1  0.500000  0.500000  0.000000  1
  Cs  Cs1  1  0.000000  0.000000  0.000000  1
  Rb  Rb2  1  0.176759  0.323241  0.500000  1
  Rb  Rb3  1  0.676759  0.176759  0.500000  1
  Rb  Rb4  1  0.823241  0.676759  0.500000  1
  Rb  Rb5  1  0.323241  0.823241  0.500000  1
  Cu  Cu6  1  0.000000  0.500000  0.000000  1
  Cu  Cu7  1  0.500000  0.000000  0.000000  1
  F  F8  1  0.125076  0.625076  0.792548  1
  F  F9  1  0.874924  0.374924  0.792548  1
  F  F10  1  0.374924  0.125076  0.792548  1
  F  F11  1  0.625076  0.874924  0.792548  1
  F  F12  1  0.125076  0.625076  0.207452  1
  F  F13  1  0.625076  0.874924  0.207452  1
  F  F14  1  0.374924  0.125076  0.207452  1
  F  F15  1  0.874924  0.374924  0.207452  1
  F  F16  1  0.000000  0.000000  0.500000  1
  F  F17  1  0.500000  0.500000  0.500000  1
