# generated using pymatgen
data_Dy5GaSnBi
_symmetry_space_group_name_H-M   'P 1'
_cell_length_a   8.92179300
_cell_length_b   8.88885465
_cell_length_c   6.53016900
_cell_angle_alpha   90.00000000
_cell_angle_beta   90.00000000
_cell_angle_gamma   119.87794831
_symmetry_Int_Tables_number   1
_chemical_formula_structural   Dy5GaSnBi
_chemical_formula_sum   'Dy10 Ga2 Sn2 Bi2'
_cell_volume   449.04081206
_cell_formula_units_Z   2
loop_
 _symmetry_equiv_pos_site_id
 _symmetry_equiv_pos_as_xyz
  1  'x, y, z'
loop_
 _atom_site_type_symbol
 _atom_site_label
 _atom_site_symmetry_multiplicity
 _atom_site_fract_x
 _atom_site_fract_y
 _atom_site_fract_z
 _atom_site_occupancy
  Dy  Dy0  1  0.994079  0.753805  0.750000  1
  Dy  Dy1  1  0.994079  0.240274  0.250000  1
  Dy  Dy2  1  0.771501  0.760452  0.250000  1
  Dy  Dy3  1  0.771501  0.011049  0.750000  1
  Dy  Dy4  1  0.228512  0.246220  0.750000  1
  Dy  Dy5  1  0.228512  0.982290  0.250000  1
  Dy  Dy6  1  0.315399  0.657701  0.500000  1
  Dy  Dy7  1  0.691422  0.345711  0.000000  1
  Dy  Dy8  1  0.691422  0.345711  0.500000  1
  Dy  Dy9  1  0.315399  0.657701  0.000000  1
  Ga  Ga10  1  0.001550  0.602153  0.250000  1
  Ga  Ga11  1  0.001550  0.399397  0.750000  1
  Sn  Sn12  1  0.603054  0.608780  0.750000  1
  Sn  Sn13  1  0.603054  0.994275  0.250000  1
  Bi  Bi14  1  0.394483  0.006848  0.750000  1
  Bi  Bi15  1  0.394483  0.387636  0.250000  1
