# generated using pymatgen
data_Ho5SnBi2
_symmetry_space_group_name_H-M   'P 1'
_cell_length_a   9.09798279
_cell_length_b   9.05252731
_cell_length_c   6.41033300
_cell_angle_alpha   90.00000000
_cell_angle_beta   90.00000000
_cell_angle_gamma   119.83485838
_symmetry_Int_Tables_number   1
_chemical_formula_structural   Ho5SnBi2
_chemical_formula_sum   'Ho10 Sn2 Bi4'
_cell_volume   457.97995871
_cell_formula_units_Z   2
loop_
 _symmetry_equiv_pos_site_id
 _symmetry_equiv_pos_as_xyz
  1  'x, y, z'
loop_
 _atom_site_type_symbol
 _atom_site_label
 _atom_site_symmetry_multiplicity
 _atom_site_fract_x
 _atom_site_fract_y
 _atom_site_fract_z
 _atom_site_occupancy
  Ho  Ho0  1  0.994399  0.758697  0.750000  1
  Ho  Ho1  1  0.994399  0.235702  0.250000  1
  Ho  Ho2  1  0.756752  0.761915  0.250000  1
  Ho  Ho3  1  0.756752  0.994837  0.750000  1
  Ho  Ho4  1  0.244977  0.245096  0.750000  1
  Ho  Ho5  1  0.244977  0.999881  0.250000  1
  Ho  Ho6  1  0.340901  0.670451  0.500000  1
  Ho  Ho7  1  0.664952  0.332475  0.000000  1
  Ho  Ho8  1  0.664952  0.332475  0.500000  1
  Ho  Ho9  1  0.340901  0.670451  0.000000  1
  Sn  Sn10  1  0.608252  0.606333  0.750000  1
  Sn  Sn11  1  0.608252  0.001920  0.250000  1
  Bi  Bi12  1  0.388595  0.998845  0.750000  1
  Bi  Bi13  1  0.388595  0.389750  0.250000  1
  Bi  Bi14  1  0.001172  0.609474  0.250000  1
  Bi  Bi15  1  0.001172  0.391698  0.750000  1
