# generated using pymatgen
data_NaEu(InAu)2
_symmetry_space_group_name_H-M   'P 1'
_cell_length_a   4.48798500
_cell_length_b   7.78886900
_cell_length_c   8.77041100
_cell_angle_alpha   90.00000000
_cell_angle_beta   90.00000000
_cell_angle_gamma   90.00000000
_symmetry_Int_Tables_number   1
_chemical_formula_structural   NaEu(InAu)2
_chemical_formula_sum   'Na2 Eu2 In4 Au4'
_cell_volume   306.58135694
_cell_formula_units_Z   2
loop_
 _symmetry_equiv_pos_site_id
 _symmetry_equiv_pos_as_xyz
  1  'x, y, z'
loop_
 _atom_site_type_symbol
 _atom_site_label
 _atom_site_symmetry_multiplicity
 _atom_site_fract_x
 _atom_site_fract_y
 _atom_site_fract_z
 _atom_site_occupancy
  Na  Na0  1  0.750000  0.473944  0.819509  1
  Na  Na1  1  0.250000  0.026056  0.319509  1
  Eu  Eu2  1  0.750000  0.970277  0.674228  1
  Eu  Eu3  1  0.250000  0.529723  0.174228  1
  In  In4  1  0.250000  0.642900  0.569025  1
  In  In5  1  0.250000  0.155223  0.936571  1
  In  In6  1  0.750000  0.344777  0.436571  1
  In  In7  1  0.750000  0.857100  0.069025  1
  Au  Au8  1  0.250000  0.775832  0.873086  1
  Au  Au9  1  0.250000  0.268592  0.627580  1
  Au  Au10  1  0.750000  0.724168  0.373086  1
  Au  Au11  1  0.750000  0.231408  0.127580  1
