# generated using pymatgen
data_SmY2Tm17Pt16
_symmetry_space_group_name_H-M   'P 1'
_cell_length_a   7.41421101
_cell_length_b   7.49363209
_cell_length_c   14.59915311
_cell_angle_alpha   89.99958465
_cell_angle_beta   89.99321037
_cell_angle_gamma   89.93779825
_symmetry_Int_Tables_number   1
_chemical_formula_structural   SmY2Tm17Pt16
_chemical_formula_sum   'Sm1 Y2 Tm17 Pt16'
_cell_volume   811.11925870
_cell_formula_units_Z   1
loop_
 _symmetry_equiv_pos_site_id
 _symmetry_equiv_pos_as_xyz
  1  'x, y, z'
loop_
 _atom_site_type_symbol
 _atom_site_label
 _atom_site_symmetry_multiplicity
 _atom_site_fract_x
 _atom_site_fract_y
 _atom_site_fract_z
 _atom_site_occupancy
  Sm  Sm0  1  0.499998  0.321660  0.907576  1
  Y  Y1  1  0.499018  0.678938  0.407622  1
  Y  Y2  1  0.999221  0.821196  0.092405  1
  Tm  Tm3  1  0.680905  0.989610  0.250132  1
  Tm  Tm4  1  0.181034  0.510568  0.250121  1
  Tm  Tm5  1  0.819446  0.489569  0.749239  1
  Tm  Tm6  1  0.318623  0.010151  0.749506  1
  Tm  Tm7  1  0.656938  0.833323  0.622299  1
  Tm  Tm8  1  0.155406  0.667800  0.877065  1
  Tm  Tm9  1  0.844459  0.332407  0.377755  1
  Tm  Tm10  1  0.343375  0.166846  0.122864  1
  Tm  Tm11  1  0.343993  0.167475  0.378005  1
  Tm  Tm12  1  0.844348  0.332212  0.122288  1
  Tm  Tm13  1  0.155904  0.667877  0.621937  1
  Tm  Tm14  1  0.656401  0.832340  0.877648  1
  Tm  Tm15  1  0.997967  0.820186  0.406986  1
  Tm  Tm16  1  0.497403  0.681019  0.093592  1
  Tm  Tm17  1  0.502629  0.319187  0.593221  1
  Tm  Tm18  1  0.002289  0.180387  0.906734  1
  Tm  Tm19  1  0.001958  0.179896  0.592744  1
  Pt  Pt20  1  0.817178  0.642773  0.250976  1
  Pt  Pt21  1  0.317161  0.857112  0.249396  1
  Pt  Pt22  1  0.684263  0.142236  0.747966  1
  Pt  Pt23  1  0.180665  0.356074  0.749011  1
  Pt  Pt24  1  0.546441  0.385467  0.249463  1
  Pt  Pt25  1  0.046302  0.114525  0.250660  1
  Pt  Pt26  1  0.954200  0.886213  0.749939  1
  Pt  Pt27  1  0.453156  0.614841  0.748886  1
  Pt  Pt28  1  0.816317  0.531191  0.542692  1
  Pt  Pt29  1  0.315066  0.964727  0.958545  1
  Pt  Pt30  1  0.685018  0.034357  0.458868  1
  Pt  Pt31  1  0.184094  0.466902  0.042298  1
  Pt  Pt32  1  0.181679  0.465771  0.458648  1
  Pt  Pt33  1  0.682154  0.032321  0.042151  1
  Pt  Pt34  1  0.315029  0.968852  0.542540  1
  Pt  Pt35  1  0.819963  0.533993  0.958224  1
