# generated using pymatgen
data_CeHo9Os4
_symmetry_space_group_name_H-M   'P 1'
_cell_length_a   8.50333317
_cell_length_b   8.47581007
_cell_length_c   7.28343604
_cell_angle_alpha   82.88951219
_cell_angle_beta   83.79320759
_cell_angle_gamma   44.18308586
_symmetry_Int_Tables_number   1
_chemical_formula_structural   CeHo9Os4
_chemical_formula_sum   'Ce1 Ho9 Os4'
_cell_volume   362.90043333
_cell_formula_units_Z   1
loop_
 _symmetry_equiv_pos_site_id
 _symmetry_equiv_pos_as_xyz
  1  'x, y, z'
loop_
 _atom_site_type_symbol
 _atom_site_label
 _atom_site_symmetry_multiplicity
 _atom_site_fract_x
 _atom_site_fract_y
 _atom_site_fract_z
 _atom_site_occupancy
  Ce  Ce0  1  0.197730  0.989011  0.596589  1
  Ho  Ho1  1  0.021282  0.790420  0.917786  1
  Ho  Ho2  1  0.211378  0.355197  0.313515  1
  Ho  Ho3  1  0.644560  0.792211  0.184029  1
  Ho  Ho4  1  0.798430  0.639992  0.681265  1
  Ho  Ho5  1  0.359277  0.206754  0.816442  1
  Ho  Ho6  1  0.972310  0.207514  0.082678  1
  Ho  Ho7  1  0.791709  0.025430  0.416934  1
  Ho  Ho8  1  0.570962  0.426840  0.750355  1
  Ho  Ho9  1  0.423652  0.577803  0.250474  1
  Os  Os10  1  0.175304  0.604852  0.574512  1
  Os  Os11  1  0.388702  0.831149  0.911097  1
  Os  Os12  1  0.842134  0.375206  0.429194  1
  Os  Os13  1  0.602571  0.177621  0.075130  1
