# generated using pymatgen
data_HoTm3Al6(Ga2Ir)6
_symmetry_space_group_name_H-M   'P 1'
_cell_length_a   7.54762195
_cell_length_b   7.54565363
_cell_length_c   9.49158796
_cell_angle_alpha   90.21019732
_cell_angle_beta   89.89792067
_cell_angle_gamma   119.74025588
_symmetry_Int_Tables_number   1
_chemical_formula_structural   HoTm3Al6(Ga2Ir)6
_chemical_formula_sum   'Ho1 Tm3 Al6 Ga12 Ir6'
_cell_volume   469.35813819
_cell_formula_units_Z   1
loop_
 _symmetry_equiv_pos_site_id
 _symmetry_equiv_pos_as_xyz
  1  'x, y, z'
loop_
 _atom_site_type_symbol
 _atom_site_label
 _atom_site_symmetry_multiplicity
 _atom_site_fract_x
 _atom_site_fract_y
 _atom_site_fract_z
 _atom_site_occupancy
  Ho  Ho0  1  0.998786  0.667530  0.251055  1
  Tm  Tm1  1  0.001122  0.332306  0.748908  1
  Tm  Tm2  1  0.672386  0.000749  0.254905  1
  Tm  Tm3  1  0.327502  0.999236  0.745066  1
  Al  Al4  1  0.664005  0.998214  0.927766  1
  Al  Al5  1  0.336346  0.002267  0.071756  1
  Al  Al6  1  0.332011  0.332144  0.554212  1
  Al  Al7  1  0.667733  0.667947  0.446690  1
  Al  Al8  1  0.668095  0.667860  0.054895  1
  Al  Al9  1  0.331594  0.332121  0.944165  1
  Ga  Ga10  1  0.128975  0.125856  0.249292  1
  Ga  Ga11  1  0.871004  0.874649  0.750701  1
  Ga  Ga12  1  0.998520  0.333144  0.078439  1
  Ga  Ga13  1  0.001597  0.666421  0.920520  1
  Ga  Ga14  1  0.998603  0.664302  0.581157  1
  Ga  Ga15  1  0.335807  0.000145  0.417757  1
  Ga  Ga16  1  0.001405  0.335134  0.419915  1
  Ga  Ga17  1  0.664650  0.000453  0.582751  1
  Ga  Ga18  1  0.346338  0.551585  0.250047  1
  Ga  Ga19  1  0.653844  0.448190  0.749969  1
  Ga  Ga20  1  0.548367  0.343891  0.248996  1
  Ga  Ga21  1  0.450924  0.655577  0.750991  1
  Ir  Ir22  1  0.667707  0.325818  0.998931  1
  Ir  Ir23  1  0.332387  0.674207  0.000739  1
  Ir  Ir24  1  0.330092  0.669840  0.500953  1
  Ir  Ir25  1  0.669925  0.330190  0.499384  1
  Ir  Ir26  1  0.000118  0.000101  0.999735  1
  Ir  Ir27  1  0.000155  0.000123  0.500304  1
