# generated using pymatgen
data_Ta4SiB2Mo
_symmetry_space_group_name_H-M   'P 1'
_cell_length_a   7.25103045
_cell_length_b   7.25103064
_cell_length_c   7.25102940
_cell_angle_alpha   129.52764594
_cell_angle_beta   129.52764917
_cell_angle_gamma   74.16303857
_symmetry_Int_Tables_number   1
_chemical_formula_structural   Ta4SiB2Mo
_chemical_formula_sum   'Ta8 Si2 B4 Mo2'
_cell_volume   221.14391829
_cell_formula_units_Z   2
loop_
 _symmetry_equiv_pos_site_id
 _symmetry_equiv_pos_as_xyz
  1  'x, y, z'
loop_
 _atom_site_type_symbol
 _atom_site_label
 _atom_site_symmetry_multiplicity
 _atom_site_fract_x
 _atom_site_fract_y
 _atom_site_fract_z
 _atom_site_occupancy
  Ta  Ta0  1  0.806560  0.971177  0.500000  1
  Ta  Ta1  1  0.306560  0.806560  0.835383  1
  Ta  Ta2  1  0.193440  0.028823  0.500000  1
  Ta  Ta3  1  0.528823  0.693440  0.500000  1
  Ta  Ta4  1  0.028823  0.528823  0.835383  1
  Ta  Ta5  1  0.693440  0.193440  0.164617  1
  Ta  Ta6  1  0.971177  0.471177  0.164617  1
  Ta  Ta7  1  0.471177  0.306560  0.500000  1
  Si  Si8  1  0.750000  0.750000  0.000000  1
  Si  Si9  1  0.250000  0.250000  0.000000  1
  B  B10  1  0.380346  0.880346  0.260692  1
  B  B11  1  0.880346  0.619654  0.500000  1
  B  B12  1  0.619654  0.119654  0.739308  1
  B  B13  1  0.119654  0.380346  0.500000  1
  Mo  Mo14  1  0.000000  0.000000  0.000000  1
  Mo  Mo15  1  0.500000  0.500000  0.000000  1
