# generated using pymatgen
data_TbY(AuCl6)2
_symmetry_space_group_name_H-M   'P 1'
_cell_length_a   8.01347330
_cell_length_b   9.94166385
_cell_length_c   14.10772509
_cell_angle_alpha   102.87481554
_cell_angle_beta   97.38681447
_cell_angle_gamma   113.06372448
_symmetry_Int_Tables_number   1
_chemical_formula_structural   TbY(AuCl6)2
_chemical_formula_sum   'Tb2 Y2 Au4 Cl24'
_cell_volume   978.46170357
_cell_formula_units_Z   2
loop_
 _symmetry_equiv_pos_site_id
 _symmetry_equiv_pos_as_xyz
  1  'x, y, z'
loop_
 _atom_site_type_symbol
 _atom_site_label
 _atom_site_symmetry_multiplicity
 _atom_site_fract_x
 _atom_site_fract_y
 _atom_site_fract_z
 _atom_site_occupancy
  Tb  Tb0  1  0.579290  0.928735  0.623114  1
  Tb  Tb1  1  0.420710  0.071265  0.376886  1
  Y  Y2  1  0.969768  0.314851  0.871973  1
  Y  Y3  1  0.030232  0.685149  0.128027  1
  Au  Au4  1  0.288986  0.633572  0.763348  1
  Au  Au5  1  0.711014  0.366428  0.236652  1
  Au  Au6  1  0.500000  0.500000  0.500000  1
  Au  Au7  1  0.000000  0.000000  0.000000  1
  Cl  Cl8  1  0.597163  0.734573  0.749950  1
  Cl  Cl9  1  0.402837  0.265427  0.250050  1
  Cl  Cl10  1  0.278170  0.849131  0.731335  1
  Cl  Cl11  1  0.721830  0.150869  0.268665  1
  Cl  Cl12  1  0.978545  0.534078  0.772938  1
  Cl  Cl13  1  0.021455  0.465922  0.227062  1
  Cl  Cl14  1  0.298167  0.414099  0.791326  1
  Cl  Cl15  1  0.701833  0.585901  0.208674  1
  Cl  Cl16  1  0.686089  0.369716  0.500860  1
  Cl  Cl17  1  0.313911  0.630284  0.499140  1
  Cl  Cl18  1  0.756071  0.735270  0.533227  1
  Cl  Cl19  1  0.243929  0.264730  0.466773  1
  Cl  Cl20  1  0.790725  0.105400  0.975205  1
  Cl  Cl21  1  0.209275  0.894600  0.024795  1
  Cl  Cl22  1  0.777748  0.789834  0.030647  1
  Cl  Cl23  1  0.222252  0.210166  0.969353  1
  Cl  Cl24  1  0.623355  0.194417  0.745468  1
  Cl  Cl25  1  0.376645  0.805583  0.254532  1
  Cl  Cl26  1  0.936670  0.060592  0.731558  1
  Cl  Cl27  1  0.063330  0.939408  0.268442  1
  Cl  Cl28  1  0.715229  0.047009  0.483088  1
  Cl  Cl29  1  0.284771  0.952991  0.516912  1
  Cl  Cl30  1  0.773272  0.436272  0.977555  1
  Cl  Cl31  1  0.226728  0.563728  0.022445  1
