# generated using pymatgen
data_Zr3CdPt12
_symmetry_space_group_name_H-M   'P 1'
_cell_length_a   5.73337500
_cell_length_b   5.73337577
_cell_length_c   9.36563600
_cell_angle_alpha   90.00000000
_cell_angle_beta   90.00000000
_cell_angle_gamma   120.00000133
_symmetry_Int_Tables_number   1
_chemical_formula_structural   Zr3CdPt12
_chemical_formula_sum   'Zr3 Cd1 Pt12'
_cell_volume   266.61750237
_cell_formula_units_Z   1
loop_
 _symmetry_equiv_pos_site_id
 _symmetry_equiv_pos_as_xyz
  1  'x, y, z'
loop_
 _atom_site_type_symbol
 _atom_site_label
 _atom_site_symmetry_multiplicity
 _atom_site_fract_x
 _atom_site_fract_y
 _atom_site_fract_z
 _atom_site_occupancy
  Zr  Zr0  1  0.000000  0.000000  0.499011  1
  Zr  Zr1  1  0.000000  0.000000  0.000989  1
  Zr  Zr2  1  0.666667  0.333333  0.750000  1
  Cd  Cd3  1  0.333333  0.666667  0.250000  1
  Pt  Pt4  1  0.501664  0.498336  0.502727  1
  Pt  Pt5  1  0.501664  0.003328  0.502727  1
  Pt  Pt6  1  0.996672  0.498336  0.502727  1
  Pt  Pt7  1  0.501664  0.498336  0.997273  1
  Pt  Pt8  1  0.501664  0.003328  0.997273  1
  Pt  Pt9  1  0.996672  0.498336  0.997273  1
  Pt  Pt10  1  0.829396  0.658790  0.250000  1
  Pt  Pt11  1  0.341210  0.170604  0.250000  1
  Pt  Pt12  1  0.829396  0.170604  0.250000  1
  Pt  Pt13  1  0.170435  0.340872  0.750000  1
  Pt  Pt14  1  0.659128  0.829565  0.750000  1
  Pt  Pt15  1  0.170435  0.829565  0.750000  1
