# generated using pymatgen
data_Zr2PdCl12
_symmetry_space_group_name_H-M   'P 1'
_cell_length_a   9.14313172
_cell_length_b   9.14313175
_cell_length_c   6.90448670
_cell_angle_alpha   72.05714376
_cell_angle_beta   72.05713789
_cell_angle_gamma   81.79727462
_symmetry_Int_Tables_number   1
_chemical_formula_structural   Zr2PdCl12
_chemical_formula_sum   'Zr2 Pd1 Cl12'
_cell_volume   521.68608199
_cell_formula_units_Z   1
loop_
 _symmetry_equiv_pos_site_id
 _symmetry_equiv_pos_as_xyz
  1  'x, y, z'
loop_
 _atom_site_type_symbol
 _atom_site_label
 _atom_site_symmetry_multiplicity
 _atom_site_fract_x
 _atom_site_fract_y
 _atom_site_fract_z
 _atom_site_occupancy
  Zr  Zr0  1  0.271262  0.271262  0.732992  1
  Zr  Zr1  1  0.728738  0.728738  0.267008  1
  Pd  Pd2  1  0.000000  0.000000  0.000000  1
  Cl  Cl3  1  0.972795  0.241604  0.759810  1
  Cl  Cl4  1  0.241604  0.972795  0.759810  1
  Cl  Cl5  1  0.027205  0.758396  0.240190  1
  Cl  Cl6  1  0.758396  0.027205  0.240190  1
  Cl  Cl7  1  0.209744  0.514664  0.791889  1
  Cl  Cl8  1  0.514664  0.209744  0.791889  1
  Cl  Cl9  1  0.790256  0.485336  0.208111  1
  Cl  Cl10  1  0.485336  0.790256  0.208111  1
  Cl  Cl11  1  0.128442  0.128442  0.142828  1
  Cl  Cl12  1  0.871558  0.871558  0.857172  1
  Cl  Cl13  1  0.664562  0.664562  0.639390  1
  Cl  Cl14  1  0.335438  0.335438  0.360610  1
