# generated using pymatgen
data_Er5Tm3B24(RhW)2
_symmetry_space_group_name_H-M   'P 1'
_cell_length_a   3.61624900
_cell_length_b   9.15284533
_cell_length_c   11.55868609
_cell_angle_alpha   90.43077041
_cell_angle_beta   90.00000000
_cell_angle_gamma   90.00000000
_symmetry_Int_Tables_number   1
_chemical_formula_structural   Er5Tm3B24(RhW)2
_chemical_formula_sum   'Er5 Tm3 B24 Rh2 W2'
_cell_volume   382.56976553
_cell_formula_units_Z   1
loop_
 _symmetry_equiv_pos_site_id
 _symmetry_equiv_pos_as_xyz
  1  'x, y, z'
loop_
 _atom_site_type_symbol
 _atom_site_label
 _atom_site_symmetry_multiplicity
 _atom_site_fract_x
 _atom_site_fract_y
 _atom_site_fract_z
 _atom_site_occupancy
  Er  Er0  1  0.500000  0.319433  0.411999  1
  Er  Er1  1  0.500000  0.680553  0.588061  1
  Er  Er2  1  0.500000  0.175506  0.916555  1
  Er  Er3  1  0.500000  0.824443  0.083368  1
  Er  Er4  1  0.500000  0.444540  0.126999  1
  Tm  Tm5  1  0.500000  0.555566  0.872890  1
  Tm  Tm6  1  0.500000  0.055331  0.627373  1
  Tm  Tm7  1  0.500000  0.944652  0.372655  1
  B  B8  1  0.000000  0.107446  0.471871  1
  B  B9  1  0.000000  0.892542  0.528143  1
  B  B10  1  0.000000  0.395582  0.970150  1
  B  B11  1  0.000000  0.604684  0.029384  1
  B  B12  1  0.000000  0.132870  0.318480  1
  B  B13  1  0.000000  0.867091  0.681552  1
  B  B14  1  0.000000  0.367672  0.815784  1
  B  B15  1  0.000000  0.632611  0.184293  1
  B  B16  1  0.000000  0.051399  0.065421  1
  B  B17  1  0.000000  0.948549  0.934550  1
  B  B18  1  0.000000  0.446250  0.565505  1
  B  B19  1  0.000000  0.553765  0.434531  1
  B  B20  1  0.000000  0.483886  0.288827  1
  B  B21  1  0.000000  0.516186  0.711351  1
  B  B22  1  0.000000  0.021235  0.785567  1
  B  B23  1  0.000000  0.978745  0.214439  1
  B  B24  1  0.000000  0.251398  0.078697  1
  B  B25  1  0.000000  0.748305  0.921269  1
  B  B26  1  0.000000  0.250798  0.578939  1
  B  B27  1  0.000000  0.749213  0.421086  1
  B  B28  1  0.000000  0.297105  0.237334  1
  B  B29  1  0.000000  0.702631  0.762772  1
  B  B30  1  0.000000  0.208803  0.734177  1
  B  B31  1  0.000000  0.791270  0.265827  1
  Rh  Rh32  1  0.500000  0.361182  0.678529  1
  Rh  Rh33  1  0.500000  0.638972  0.321618  1
  W  W34  1  0.500000  0.139443  0.181104  1
  W  W35  1  0.500000  0.860339  0.818902  1
