# generated using pymatgen
data_Ti3Nb2Sn3B
_symmetry_space_group_name_H-M   'P 1'
_cell_length_a   8.16365626
_cell_length_b   8.16365610
_cell_length_c   5.45033100
_cell_angle_alpha   90.00000000
_cell_angle_beta   90.00000000
_cell_angle_gamma   120.06373374
_symmetry_Int_Tables_number   1
_chemical_formula_structural   Ti3Nb2Sn3B
_chemical_formula_sum   'Ti6 Nb4 Sn6 B2'
_cell_volume   314.37184845
_cell_formula_units_Z   2
loop_
 _symmetry_equiv_pos_site_id
 _symmetry_equiv_pos_as_xyz
  1  'x, y, z'
loop_
 _atom_site_type_symbol
 _atom_site_label
 _atom_site_symmetry_multiplicity
 _atom_site_fract_x
 _atom_site_fract_y
 _atom_site_fract_z
 _atom_site_occupancy
  Ti  Ti0  1  0.665862  0.333089  0.000310  1
  Ti  Ti1  1  0.333089  0.665862  0.000310  1
  Ti  Ti2  1  0.333089  0.665862  0.499690  1
  Ti  Ti3  1  0.665862  0.333089  0.499690  1
  Ti  Ti4  1  0.772163  0.999801  0.250000  1
  Ti  Ti5  1  0.999801  0.772163  0.250000  1
  Nb  Nb6  1  0.772130  0.772130  0.750000  1
  Nb  Nb7  1  0.230120  0.000050  0.750000  1
  Nb  Nb8  1  0.000050  0.230120  0.750000  1
  Nb  Nb9  1  0.228586  0.228586  0.250000  1
  Sn  Sn10  1  0.403935  0.403935  0.750000  1
  Sn  Sn11  1  0.597643  0.000030  0.750000  1
  Sn  Sn12  1  0.000030  0.597643  0.750000  1
  Sn  Sn13  1  0.600460  0.600460  0.250000  1
  Sn  Sn14  1  0.401869  0.997611  0.250000  1
  Sn  Sn15  1  0.997611  0.401869  0.250000  1
  B  B16  1  0.998850  0.998850  0.003037  1
  B  B17  1  0.998850  0.998850  0.496963  1
