# generated using pymatgen
data_DyHo3Hf3O12
_symmetry_space_group_name_H-M   'P 1'
_cell_length_a   6.31020582
_cell_length_b   6.35487850
_cell_length_c   6.56789001
_cell_angle_alpha   99.95552829
_cell_angle_beta   98.22781214
_cell_angle_gamma   99.72734885
_symmetry_Int_Tables_number   1
_chemical_formula_structural   DyHo3Hf3O12
_chemical_formula_sum   'Dy1 Ho3 Hf3 O12'
_cell_volume   251.62056072
_cell_formula_units_Z   1
loop_
 _symmetry_equiv_pos_site_id
 _symmetry_equiv_pos_as_xyz
  1  'x, y, z'
loop_
 _atom_site_type_symbol
 _atom_site_label
 _atom_site_symmetry_multiplicity
 _atom_site_fract_x
 _atom_site_fract_y
 _atom_site_fract_z
 _atom_site_occupancy
  Dy  Dy0  1  0.386000  0.699170  0.866648  1
  Ho  Ho1  1  0.696543  0.865326  0.389447  1
  Ho  Ho2  1  0.614189  0.300531  0.133694  1
  Ho  Ho3  1  0.303782  0.134652  0.610586  1
  Hf  Hf4  1  0.000092  0.000270  0.000143  1
  Hf  Hf5  1  0.848187  0.397342  0.667792  1
  Hf  Hf6  1  0.151508  0.602418  0.331836  1
  O  O7  1  0.019335  0.679005  0.879358  1
  O  O8  1  0.686621  0.934186  0.060174  1
  O  O9  1  0.919830  0.087760  0.698255  1
  O  O10  1  0.979351  0.321532  0.120097  1
  O  O11  1  0.313855  0.067486  0.941052  1
  O  O12  1  0.080276  0.911998  0.301340  1
  O  O13  1  0.590416  0.190025  0.435090  1
  O  O14  1  0.169584  0.427937  0.572746  1
  O  O15  1  0.413482  0.582224  0.181219  1
  O  O16  1  0.409522  0.810556  0.564036  1
  O  O17  1  0.830229  0.571789  0.426749  1
  O  O18  1  0.587199  0.415793  0.819739  1
