# generated using pymatgen
data_Tb4ZrIr2Rh
_symmetry_space_group_name_H-M   'P 1'
_cell_length_a   10.86938100
_cell_length_b   10.86938100
_cell_length_c   6.28178100
_cell_angle_alpha   90.00000000
_cell_angle_beta   90.00000000
_cell_angle_gamma   90.00000000
_symmetry_Int_Tables_number   1
_chemical_formula_structural   Tb4ZrIr2Rh
_chemical_formula_sum   'Tb16 Zr4 Ir8 Rh4'
_cell_volume   742.15123754
_cell_formula_units_Z   4
loop_
 _symmetry_equiv_pos_site_id
 _symmetry_equiv_pos_as_xyz
  1  'x, y, z'
loop_
 _atom_site_type_symbol
 _atom_site_label
 _atom_site_symmetry_multiplicity
 _atom_site_fract_x
 _atom_site_fract_y
 _atom_site_fract_z
 _atom_site_occupancy
  Tb  Tb0  1  0.288892  0.087409  0.375171  1
  Tb  Tb1  1  0.288892  0.912591  0.875171  1
  Tb  Tb2  1  0.711108  0.087409  0.875171  1
  Tb  Tb3  1  0.711108  0.912591  0.375171  1
  Tb  Tb4  1  0.587409  0.788892  0.875171  1
  Tb  Tb5  1  0.587409  0.211108  0.375171  1
  Tb  Tb6  1  0.412591  0.788892  0.375171  1
  Tb  Tb7  1  0.412591  0.211108  0.875171  1
  Tb  Tb8  1  0.211108  0.412591  0.624829  1
  Tb  Tb9  1  0.211108  0.587409  0.124829  1
  Tb  Tb10  1  0.788892  0.412591  0.124829  1
  Tb  Tb11  1  0.788892  0.587409  0.624829  1
  Tb  Tb12  1  0.912591  0.711108  0.124829  1
  Tb  Tb13  1  0.912591  0.288892  0.624829  1
  Tb  Tb14  1  0.087409  0.711108  0.624829  1
  Tb  Tb15  1  0.087409  0.288892  0.124829  1
  Zr  Zr16  1  0.000000  0.000000  0.500000  1
  Zr  Zr17  1  0.000000  0.000000  0.000000  1
  Zr  Zr18  1  0.500000  0.500000  0.000000  1
  Zr  Zr19  1  0.500000  0.500000  0.500000  1
  Ir  Ir20  1  0.854858  0.145142  0.250000  1
  Ir  Ir21  1  0.854858  0.854858  0.750000  1
  Ir  Ir22  1  0.145142  0.145142  0.750000  1
  Ir  Ir23  1  0.145142  0.854858  0.250000  1
  Ir  Ir24  1  0.645142  0.354858  0.750000  1
  Ir  Ir25  1  0.645142  0.645142  0.250000  1
  Ir  Ir26  1  0.354858  0.354858  0.250000  1
  Ir  Ir27  1  0.354858  0.645142  0.750000  1
  Rh  Rh28  1  0.500000  0.000000  0.119135  1
  Rh  Rh29  1  0.500000  0.000000  0.619135  1
  Rh  Rh30  1  0.000000  0.500000  0.880865  1
  Rh  Rh31  1  0.000000  0.500000  0.380865  1
