# generated using pymatgen
data_SrEr(SnPd)2
_symmetry_space_group_name_H-M   'P 1'
_cell_length_a   4.71865800
_cell_length_b   7.73842077
_cell_length_c   8.21714406
_cell_angle_alpha   90.07767090
_cell_angle_beta   90.00000000
_cell_angle_gamma   90.00000000
_symmetry_Int_Tables_number   1
_chemical_formula_structural   SrEr(SnPd)2
_chemical_formula_sum   'Sr2 Er2 Sn4 Pd4'
_cell_volume   300.04842007
_cell_formula_units_Z   2
loop_
 _symmetry_equiv_pos_site_id
 _symmetry_equiv_pos_as_xyz
  1  'x, y, z'
loop_
 _atom_site_type_symbol
 _atom_site_label
 _atom_site_symmetry_multiplicity
 _atom_site_fract_x
 _atom_site_fract_y
 _atom_site_fract_z
 _atom_site_occupancy
  Sr  Sr0  1  0.250000  0.498975  0.249797  1
  Sr  Sr1  1  0.750000  0.501025  0.750203  1
  Er  Er2  1  0.250000  0.999215  0.250071  1
  Er  Er3  1  0.750000  0.000785  0.749929  1
  Sn  Sn4  1  0.250000  0.791654  0.584558  1
  Sn  Sn5  1  0.750000  0.790338  0.084457  1
  Sn  Sn6  1  0.250000  0.209662  0.915543  1
  Sn  Sn7  1  0.750000  0.208346  0.415442  1
  Pd  Pd8  1  0.750000  0.173751  0.083713  1
  Pd  Pd9  1  0.250000  0.175943  0.583532  1
  Pd  Pd10  1  0.750000  0.824057  0.416468  1
  Pd  Pd11  1  0.250000  0.826249  0.916287  1
