# generated using pymatgen
data_Pr3In3SnPd2
_symmetry_space_group_name_H-M   'P 1'
_cell_length_a   7.78683500
_cell_length_b   7.78683358
_cell_length_c   4.32639900
_cell_angle_alpha   90.00000000
_cell_angle_beta   90.00000000
_cell_angle_gamma   120.00001027
_symmetry_Int_Tables_number   1
_chemical_formula_structural   Pr3In3SnPd2
_chemical_formula_sum   'Pr3 In3 Sn1 Pd2'
_cell_volume   227.18466955
_cell_formula_units_Z   1
loop_
 _symmetry_equiv_pos_site_id
 _symmetry_equiv_pos_as_xyz
  1  'x, y, z'
loop_
 _atom_site_type_symbol
 _atom_site_label
 _atom_site_symmetry_multiplicity
 _atom_site_fract_x
 _atom_site_fract_y
 _atom_site_fract_z
 _atom_site_occupancy
  Pr  Pr0  1  0.399883  0.414843  0.500000  1
  Pr  Pr1  1  0.585157  0.985040  0.500000  1
  Pr  Pr2  1  0.014960  0.600117  0.500000  1
  In  In3  1  0.748608  0.762808  0.000000  1
  In  In4  1  0.237192  0.985801  0.000000  1
  In  In5  1  0.014199  0.251392  0.000000  1
  Sn  Sn6  1  0.666667  0.333333  0.000000  1
  Pd  Pd7  1  0.333333  0.666667  0.000000  1
  Pd  Pd8  1  0.000000  0.000000  0.500000  1
