# generated using pymatgen
data_Dy2Ho10ZnCo4Bi
_symmetry_space_group_name_H-M   'P 1'
_cell_length_a   8.33489692
_cell_length_b   8.33508176
_cell_length_c   8.33883880
_cell_angle_alpha   111.49857039
_cell_angle_beta   109.53134248
_cell_angle_gamma   107.38636164
_symmetry_Int_Tables_number   1
_chemical_formula_structural   Dy2Ho10ZnCo4Bi
_chemical_formula_sum   'Dy2 Ho10 Zn1 Co4 Bi1'
_cell_volume   445.51275825
_cell_formula_units_Z   1
loop_
 _symmetry_equiv_pos_site_id
 _symmetry_equiv_pos_as_xyz
  1  'x, y, z'
loop_
 _atom_site_type_symbol
 _atom_site_label
 _atom_site_symmetry_multiplicity
 _atom_site_fract_x
 _atom_site_fract_y
 _atom_site_fract_z
 _atom_site_occupancy
  Dy  Dy0  1  0.817717  0.714284  0.532057  1
  Dy  Dy1  1  0.182283  0.285716  0.467943  1
  Ho  Ho2  1  0.182021  0.713932  0.895984  1
  Ho  Ho3  1  0.817979  0.286068  0.104016  1
  Ho  Ho4  1  0.685838  0.377498  0.692205  1
  Ho  Ho5  1  0.314162  0.622502  0.307795  1
  Ho  Ho6  1  0.685324  0.993648  0.307829  1
  Ho  Ho7  1  0.314676  0.006352  0.692171  1
  Ho  Ho8  1  0.574580  0.781519  0.793733  1
  Ho  Ho9  1  0.425420  0.218481  0.206267  1
  Ho  Ho10  1  0.987773  0.780867  0.206272  1
  Ho  Ho11  1  0.012227  0.219133  0.793728  1
  Zn  Zn12  1  0.000000  0.000000  0.000000  1
  Co  Co13  1  0.624426  0.000872  0.625283  1
  Co  Co14  1  0.375574  0.999128  0.374717  1
  Co  Co15  1  0.112567  0.612563  0.500008  1
  Co  Co16  1  0.887433  0.387437  0.499992  1
  Bi  Bi17  1  0.500000  0.500000  0.000000  1
