# generated using pymatgen
data_Nd4TlIn(AgRh)2
_symmetry_space_group_name_H-M   'P 1'
_cell_length_a   8.09144002
_cell_length_b   7.95051094
_cell_length_c   3.87661300
_cell_angle_alpha   90.00000000
_cell_angle_beta   90.00000000
_cell_angle_gamma   90.12772862
_symmetry_Int_Tables_number   1
_chemical_formula_structural   Nd4TlIn(AgRh)2
_chemical_formula_sum   'Nd4 Tl1 In1 Ag2 Rh2'
_cell_volume   249.38609081
_cell_formula_units_Z   1
loop_
 _symmetry_equiv_pos_site_id
 _symmetry_equiv_pos_as_xyz
  1  'x, y, z'
loop_
 _atom_site_type_symbol
 _atom_site_label
 _atom_site_symmetry_multiplicity
 _atom_site_fract_x
 _atom_site_fract_y
 _atom_site_fract_z
 _atom_site_occupancy
  Nd  Nd0  1  0.696351  0.170809  0.500000  1
  Nd  Nd1  1  0.357492  0.821269  0.500000  1
  Nd  Nd2  1  0.803853  0.673086  0.500000  1
  Nd  Nd3  1  0.142395  0.319970  0.500000  1
  Tl  Tl4  1  0.501133  0.496211  0.000000  1
  In  In5  1  0.996066  0.997490  0.000000  1
  Ag  Ag6  1  0.379984  0.131916  0.000000  1
  Ag  Ag7  1  0.115002  0.637032  0.000000  1
  Rh  Rh8  1  0.882046  0.372348  0.000000  1
  Rh  Rh9  1  0.625677  0.879871  0.000000  1
