# generated using pymatgen
data_V6Co6Si
_symmetry_space_group_name_H-M   'P 1'
_cell_length_a   8.47352212
_cell_length_b   8.47352244
_cell_length_c   8.47352199
_cell_angle_alpha   32.23164562
_cell_angle_beta   32.23164059
_cell_angle_gamma   32.23164162
_symmetry_Int_Tables_number   1
_chemical_formula_structural   V6Co6Si
_chemical_formula_sum   'V6 Co6 Si1'
_cell_volume   153.82229084
_cell_formula_units_Z   1
loop_
 _symmetry_equiv_pos_site_id
 _symmetry_equiv_pos_as_xyz
  1  'x, y, z'
loop_
 _atom_site_type_symbol
 _atom_site_label
 _atom_site_symmetry_multiplicity
 _atom_site_fract_x
 _atom_site_fract_y
 _atom_site_fract_z
 _atom_site_occupancy
  V  V0  1  0.831562  0.831562  0.831562  1
  V  V1  1  0.649403  0.649403  0.649403  1
  V  V2  1  0.452838  0.452838  0.452838  1
  V  V3  1  0.547162  0.547162  0.547162  1
  V  V4  1  0.168438  0.168438  0.168438  1
  V  V5  1  0.350597  0.350597  0.350597  1
  Co  Co6  1  0.090604  0.090604  0.584946  1
  Co  Co7  1  0.415054  0.909396  0.909396  1
  Co  Co8  1  0.584946  0.090604  0.090604  1
  Co  Co9  1  0.909396  0.909396  0.415054  1
  Co  Co10  1  0.909396  0.415054  0.909396  1
  Co  Co11  1  0.090604  0.584946  0.090604  1
  Si  Si12  1  0.000000  0.000000  0.000000  1
