# generated using pymatgen
data_Sr2Cd3Rh2
_symmetry_space_group_name_H-M   'P 1'
_cell_length_a   5.88105107
_cell_length_b   5.88105084
_cell_length_c   7.55615629
_cell_angle_alpha   67.05109909
_cell_angle_beta   67.05109694
_cell_angle_gamma   45.95520414
_symmetry_Int_Tables_number   1
_chemical_formula_structural   Sr2Cd3Rh2
_chemical_formula_sum   'Sr2 Cd3 Rh2'
_cell_volume   170.17365518
_cell_formula_units_Z   1
loop_
 _symmetry_equiv_pos_site_id
 _symmetry_equiv_pos_as_xyz
  1  'x, y, z'
loop_
 _atom_site_type_symbol
 _atom_site_label
 _atom_site_symmetry_multiplicity
 _atom_site_fract_x
 _atom_site_fract_y
 _atom_site_fract_z
 _atom_site_occupancy
  Sr  Sr0  1  0.142602  0.142602  0.218780  1
  Sr  Sr1  1  0.857398  0.857398  0.781220  1
  Cd  Cd2  1  0.500000  0.500000  0.000000  1
  Cd  Cd3  1  0.360045  0.360045  0.437056  1
  Cd  Cd4  1  0.639955  0.639955  0.562944  1
  Rh  Rh5  1  0.131535  0.131535  0.801640  1
  Rh  Rh6  1  0.868465  0.868465  0.198360  1
