# generated using pymatgen
data_La2ZnSiBr
_symmetry_space_group_name_H-M   'P 1'
_cell_length_a   4.15207700
_cell_length_b   4.15207661
_cell_length_c   8.61111800
_cell_angle_alpha   90.00000000
_cell_angle_beta   90.00000000
_cell_angle_gamma   119.99999513
_symmetry_Int_Tables_number   1
_chemical_formula_structural   La2ZnSiBr
_chemical_formula_sum   'La2 Zn1 Si1 Br1'
_cell_volume   128.56446608
_cell_formula_units_Z   1
loop_
 _symmetry_equiv_pos_site_id
 _symmetry_equiv_pos_as_xyz
  1  'x, y, z'
loop_
 _atom_site_type_symbol
 _atom_site_label
 _atom_site_symmetry_multiplicity
 _atom_site_fract_x
 _atom_site_fract_y
 _atom_site_fract_z
 _atom_site_occupancy
  La  La0  1  0.000000  0.000000  0.242978  1
  La  La1  1  0.000000  0.000000  0.757022  1
  Zn  Zn2  1  0.666667  0.333333  0.000000  1
  Si  Si3  1  0.333333  0.666667  0.000000  1
  Br  Br4  1  0.666667  0.333333  0.500000  1
