# generated using pymatgen
data_La4Dy2Sn7Hg3
_symmetry_space_group_name_H-M   'P 1'
_cell_length_a   6.62031992
_cell_length_b   6.62031923
_cell_length_c   10.45140718
_cell_angle_alpha   90.47559204
_cell_angle_beta   90.47559582
_cell_angle_gamma   102.49121683
_symmetry_Int_Tables_number   1
_chemical_formula_structural   La4Dy2Sn7Hg3
_chemical_formula_sum   'La4 Dy2 Sn7 Hg3'
_cell_volume   447.18863621
_cell_formula_units_Z   1
loop_
 _symmetry_equiv_pos_site_id
 _symmetry_equiv_pos_as_xyz
  1  'x, y, z'
loop_
 _atom_site_type_symbol
 _atom_site_label
 _atom_site_symmetry_multiplicity
 _atom_site_fract_x
 _atom_site_fract_y
 _atom_site_fract_z
 _atom_site_occupancy
  La  La0  1  0.205935  0.797267  0.499923  1
  La  La1  1  0.206399  0.791880  0.000209  1
  La  La2  1  0.797267  0.205935  0.499923  1
  La  La3  1  0.791880  0.206399  0.000209  1
  Dy  Dy4  1  0.629765  0.629765  0.251144  1
  Dy  Dy5  1  0.370131  0.370131  0.745028  1
  Sn  Sn6  1  0.015067  0.015067  0.246561  1
  Sn  Sn7  1  0.984730  0.984730  0.752264  1
  Sn  Sn8  1  0.687575  0.687575  0.545349  1
  Sn  Sn9  1  0.490287  0.070371  0.248635  1
  Sn  Sn10  1  0.931835  0.509304  0.752487  1
  Sn  Sn11  1  0.509304  0.931835  0.752487  1
  Sn  Sn12  1  0.070371  0.490287  0.248635  1
  Hg  Hg13  1  0.314060  0.314060  0.037573  1
  Hg  Hg14  1  0.685237  0.685237  0.962123  1
  Hg  Hg15  1  0.310157  0.310157  0.457450  1
