# generated using pymatgen
data_HoEr4Lu3Au4
_symmetry_space_group_name_H-M   'P 1'
_cell_length_a   4.85220200
_cell_length_b   7.05373962
_cell_length_c   8.83510900
_cell_angle_alpha   90.15740289
_cell_angle_beta   90.00000000
_cell_angle_gamma   90.00000000
_symmetry_Int_Tables_number   1
_chemical_formula_structural   HoEr4Lu3Au4
_chemical_formula_sum   'Ho1 Er4 Lu3 Au4'
_cell_volume   302.39079692
_cell_formula_units_Z   1
loop_
 _symmetry_equiv_pos_site_id
 _symmetry_equiv_pos_as_xyz
  1  'x, y, z'
loop_
 _atom_site_type_symbol
 _atom_site_label
 _atom_site_symmetry_multiplicity
 _atom_site_fract_x
 _atom_site_fract_y
 _atom_site_fract_z
 _atom_site_occupancy
  Ho  Ho0  1  0.750000  0.017457  0.678732  1
  Er  Er1  1  0.750000  0.649166  0.422008  1
  Er  Er2  1  0.250000  0.482730  0.177744  1
  Er  Er3  1  0.250000  0.984585  0.322124  1
  Er  Er4  1  0.750000  0.517041  0.822378  1
  Lu  Lu5  1  0.250000  0.850885  0.922852  1
  Lu  Lu6  1  0.250000  0.350936  0.577937  1
  Lu  Lu7  1  0.750000  0.149334  0.077155  1
  Au  Au8  1  0.250000  0.253784  0.898274  1
  Au  Au9  1  0.250000  0.754076  0.603161  1
  Au  Au10  1  0.750000  0.746417  0.099549  1
  Au  Au11  1  0.750000  0.243587  0.398089  1
