# generated using pymatgen
data_Yb2Co(PtO4)2
_symmetry_space_group_name_H-M   'P 1'
_cell_length_a   6.06951252
_cell_length_b   6.18948299
_cell_length_c   6.18948348
_cell_angle_alpha   60.97614140
_cell_angle_beta   59.07533589
_cell_angle_gamma   59.07532869
_symmetry_Int_Tables_number   1
_chemical_formula_structural   Yb2Co(PtO4)2
_chemical_formula_sum   'Yb2 Co1 Pt2 O8'
_cell_volume   163.20785792
_cell_formula_units_Z   1
loop_
 _symmetry_equiv_pos_site_id
 _symmetry_equiv_pos_as_xyz
  1  'x, y, z'
loop_
 _atom_site_type_symbol
 _atom_site_label
 _atom_site_symmetry_multiplicity
 _atom_site_fract_x
 _atom_site_fract_y
 _atom_site_fract_z
 _atom_site_occupancy
  Yb  Yb0  1  0.866462  0.846722  0.846722  1
  Yb  Yb1  1  0.133538  0.153278  0.153278  1
  Co  Co2  1  0.000000  0.500000  0.500000  1
  Pt  Pt3  1  0.500000  0.000000  0.500000  1
  Pt  Pt4  1  0.500000  0.500000  0.000000  1
  O  O5  1  0.607585  0.598995  0.598995  1
  O  O6  1  0.392415  0.401005  0.401005  1
  O  O7  1  0.092677  0.137870  0.560871  1
  O  O8  1  0.561709  0.109811  0.109811  1
  O  O9  1  0.092677  0.560871  0.137870  1
  O  O10  1  0.438291  0.890189  0.890189  1
  O  O11  1  0.907323  0.862130  0.439129  1
  O  O12  1  0.907323  0.439129  0.862130  1
