# generated using pymatgen
data_Dy4Ho2Al24Ru7Pt
_symmetry_space_group_name_H-M   'P 1'
_cell_length_a   8.81621778
_cell_length_b   8.81804234
_cell_length_c   9.55001201
_cell_angle_alpha   90.17049577
_cell_angle_beta   89.82582535
_cell_angle_gamma   119.86415216
_symmetry_Int_Tables_number   1
_chemical_formula_structural   Dy4Ho2Al24Ru7Pt
_chemical_formula_sum   'Dy4 Ho2 Al24 Ru7 Pt1'
_cell_volume   643.84198146
_cell_formula_units_Z   1
loop_
 _symmetry_equiv_pos_site_id
 _symmetry_equiv_pos_as_xyz
  1  'x, y, z'
loop_
 _atom_site_type_symbol
 _atom_site_label
 _atom_site_symmetry_multiplicity
 _atom_site_fract_x
 _atom_site_fract_y
 _atom_site_fract_z
 _atom_site_occupancy
  Dy  Dy0  1  0.613334  0.807921  0.249775  1
  Dy  Dy1  1  0.805555  0.194420  0.750231  1
  Dy  Dy2  1  0.807955  0.613392  0.750218  1
  Dy  Dy3  1  0.386578  0.192028  0.750215  1
  Ho  Ho4  1  0.194535  0.805426  0.249778  1
  Ho  Ho5  1  0.192118  0.386846  0.249740  1
  Al  Al6  1  0.561805  0.437965  0.247836  1
  Al  Al7  1  0.560596  0.121956  0.251214  1
  Al  Al8  1  0.878236  0.439371  0.251207  1
  Al  Al9  1  0.437988  0.561996  0.752181  1
  Al  Al10  1  0.439194  0.877875  0.748787  1
  Al  Al11  1  0.122150  0.560811  0.748778  1
  Al  Al12  1  0.323562  0.157733  0.422125  1
  Al  Al13  1  0.837558  0.162613  0.422217  1
  Al  Al14  1  0.842318  0.676421  0.422152  1
  Al  Al15  1  0.676353  0.842207  0.577743  1
  Al  Al16  1  0.162563  0.837433  0.577571  1
  Al  Al17  1  0.157794  0.323649  0.577651  1
  Al  Al18  1  0.675817  0.837376  0.921703  1
  Al  Al19  1  0.162649  0.837350  0.922030  1
  Al  Al20  1  0.162608  0.324178  0.921792  1
  Al  Al21  1  0.324089  0.162596  0.078424  1
  Al  Al22  1  0.837473  0.162702  0.078166  1
  Al  Al23  1  0.837481  0.675883  0.078395  1
  Al  Al24  1  0.669177  0.330806  0.519483  1
  Al  Al25  1  0.330666  0.669128  0.480318  1
  Al  Al26  1  0.333038  0.666764  0.016851  1
  Al  Al27  1  0.666817  0.333171  0.983328  1
  Al  Al28  1  0.999839  0.000428  0.249995  1
  Al  Al29  1  0.000332  0.999659  0.750006  1
  Ru  Ru30  1  0.999997  0.999998  0.499998  1
  Ru  Ru31  1  0.999994  0.999998  0.000002  1
  Ru  Ru32  1  0.499896  0.999913  0.499926  1
  Ru  Ru33  1  0.000108  0.500047  0.499882  1
  Ru  Ru34  1  0.499880  0.499990  0.000088  1
  Ru  Ru35  1  0.499871  0.999894  0.000093  1
  Ru  Ru36  1  0.000102  0.500060  0.000117  1
  Pt  Pt37  1  0.499974  0.499996  0.499984  1
