# generated using pymatgen
data_Mg2VRh3
_symmetry_space_group_name_H-M   'P 1'
_cell_length_a   3.08217500
_cell_length_b   4.41278562
_cell_length_c   6.85882314
_cell_angle_alpha   71.37081368
_cell_angle_beta   90.00000000
_cell_angle_gamma   90.00000000
_symmetry_Int_Tables_number   1
_chemical_formula_structural   Mg2VRh3
_chemical_formula_sum   'Mg2 V1 Rh3'
_cell_volume   88.39901828
_cell_formula_units_Z   1
loop_
 _symmetry_equiv_pos_site_id
 _symmetry_equiv_pos_as_xyz
  1  'x, y, z'
loop_
 _atom_site_type_symbol
 _atom_site_label
 _atom_site_symmetry_multiplicity
 _atom_site_fract_x
 _atom_site_fract_y
 _atom_site_fract_z
 _atom_site_occupancy
  Mg  Mg0  1  0.000000  0.334829  0.326881  1
  Mg  Mg1  1  0.000000  0.998544  0.006521  1
  V  V2  1  0.000000  0.666561  0.666659  1
  Rh  Rh3  1  0.500000  0.515083  0.973670  1
  Rh  Rh4  1  0.500000  0.818351  0.359588  1
  Rh  Rh5  1  0.500000  0.166632  0.666680  1
