# generated using pymatgen
data_Pr4NdSi12Ir19
_symmetry_space_group_name_H-M   'P 1'
_cell_length_a   12.94239000
_cell_length_b   12.94239091
_cell_length_c   4.03517700
_cell_angle_alpha   90.00000000
_cell_angle_beta   90.00000000
_cell_angle_gamma   120.00000278
_symmetry_Int_Tables_number   1
_chemical_formula_structural   Pr4NdSi12Ir19
_chemical_formula_sum   'Pr4 Nd1 Si12 Ir19'
_cell_volume   585.35887125
_cell_formula_units_Z   1
loop_
 _symmetry_equiv_pos_site_id
 _symmetry_equiv_pos_as_xyz
  1  'x, y, z'
loop_
 _atom_site_type_symbol
 _atom_site_label
 _atom_site_symmetry_multiplicity
 _atom_site_fract_x
 _atom_site_fract_y
 _atom_site_fract_z
 _atom_site_occupancy
  Pr  Pr0  1  0.999997  0.814408  0.500000  1
  Pr  Pr1  1  0.185592  0.185589  0.500000  1
  Pr  Pr2  1  0.814411  0.000003  0.500000  1
  Pr  Pr3  1  0.333333  0.666667  0.000000  1
  Nd  Nd4  1  0.666667  0.333333  0.000000  1
  Si  Si5  1  0.999964  0.184077  0.000000  1
  Si  Si6  1  0.815923  0.815886  0.000000  1
  Si  Si7  1  0.184114  0.000036  0.000000  1
  Si  Si8  1  0.520674  0.688577  0.500000  1
  Si  Si9  1  0.311423  0.832097  0.500000  1
  Si  Si10  1  0.167903  0.479326  0.500000  1
  Si  Si11  1  0.479680  0.168225  0.500000  1
  Si  Si12  1  0.688545  0.520320  0.500000  1
  Si  Si13  1  0.831775  0.311455  0.500000  1
  Si  Si14  1  0.999992  0.629460  0.000000  1
  Si  Si15  1  0.370540  0.370532  0.000000  1
  Si  Si16  1  0.629468  0.000008  0.000000  1
  Ir  Ir17  1  0.999930  0.284853  0.500000  1
  Ir  Ir18  1  0.715147  0.715076  0.500000  1
  Ir  Ir19  1  0.284924  0.000070  0.500000  1
  Ir  Ir20  1  0.621724  0.804249  0.000000  1
  Ir  Ir21  1  0.195751  0.817475  0.000000  1
  Ir  Ir22  1  0.182525  0.378276  0.000000  1
  Ir  Ir23  1  0.378535  0.182667  0.000000  1
  Ir  Ir24  1  0.804132  0.621465  0.000000  1
  Ir  Ir25  1  0.817333  0.195868  0.000000  1
  Ir  Ir26  1  0.512868  0.875077  0.500000  1
  Ir  Ir27  1  0.124923  0.637792  0.500000  1
  Ir  Ir28  1  0.362208  0.487132  0.500000  1
  Ir  Ir29  1  0.487494  0.362193  0.500000  1
  Ir  Ir30  1  0.874700  0.512506  0.500000  1
  Ir  Ir31  1  0.637807  0.125300  0.500000  1
  Ir  Ir32  1  0.000000  0.000000  0.000000  1
  Ir  Ir33  1  0.999990  0.446904  0.000000  1
  Ir  Ir34  1  0.553096  0.553086  0.000000  1
  Ir  Ir35  1  0.446914  0.000010  0.000000  1
