# generated using pymatgen
data_Tb5Y11Cd4(CoOs)2
_symmetry_space_group_name_H-M   'P 1'
_cell_length_a   9.65901550
_cell_length_b   9.66904742
_cell_length_c   9.58237982
_cell_angle_alpha   59.76380880
_cell_angle_beta   59.87023579
_cell_angle_gamma   60.19771443
_symmetry_Int_Tables_number   1
_chemical_formula_structural   Tb5Y11Cd4(CoOs)2
_chemical_formula_sum   'Tb5 Y11 Cd4 Co2 Os2'
_cell_volume   631.98767924
_cell_formula_units_Z   1
loop_
 _symmetry_equiv_pos_site_id
 _symmetry_equiv_pos_as_xyz
  1  'x, y, z'
loop_
 _atom_site_type_symbol
 _atom_site_label
 _atom_site_symmetry_multiplicity
 _atom_site_fract_x
 _atom_site_fract_y
 _atom_site_fract_z
 _atom_site_occupancy
  Tb  Tb0  1  0.594038  0.595090  0.604496  1
  Tb  Tb1  1  0.595488  0.593788  0.209914  1
  Tb  Tb2  1  0.590691  0.212523  0.600589  1
  Tb  Tb3  1  0.211365  0.590777  0.602109  1
  Tb  Tb4  1  0.064995  0.440519  0.436874  1
  Y  Y5  1  0.439230  0.063460  0.056388  1
  Y  Y6  1  0.440614  0.064064  0.436789  1
  Y  Y7  1  0.064140  0.438097  0.056451  1
  Y  Y8  1  0.438910  0.438581  0.060031  1
  Y  Y9  1  0.060666  0.060327  0.434963  1
  Y  Y10  1  0.189745  0.815902  0.804823  1
  Y  Y11  1  0.813653  0.188745  0.188759  1
  Y  Y12  1  0.815439  0.191327  0.803711  1
  Y  Y13  1  0.190010  0.812780  0.189659  1
  Y  Y14  1  0.807852  0.807251  0.192496  1
  Y  Y15  1  0.186301  0.186121  0.812117  1
  Cd  Cd16  1  0.830228  0.830256  0.828907  1
  Cd  Cd17  1  0.830096  0.831388  0.508994  1
  Cd  Cd18  1  0.830512  0.508442  0.830336  1
  Cd  Cd19  1  0.508526  0.830551  0.829481  1
  Co  Co20  1  0.386535  0.390574  0.392696  1
  Co  Co21  1  0.391906  0.391257  0.830413  1
  Os  Os22  1  0.390467  0.827061  0.393729  1
  Os  Os23  1  0.828592  0.391117  0.395277  1
