# generated using pymatgen
data_Dy2Ho14CdCo4Hg3
_symmetry_space_group_name_H-M   'P 1'
_cell_length_a   9.43939741
_cell_length_b   9.45402991
_cell_length_c   9.44046330
_cell_angle_alpha   59.98984487
_cell_angle_beta   59.90491123
_cell_angle_gamma   59.98881448
_symmetry_Int_Tables_number   1
_chemical_formula_structural   Dy2Ho14CdCo4Hg3
_chemical_formula_sum   'Dy2 Ho14 Cd1 Co4 Hg3'
_cell_volume   595.19122573
_cell_formula_units_Z   1
loop_
 _symmetry_equiv_pos_site_id
 _symmetry_equiv_pos_as_xyz
  1  'x, y, z'
loop_
 _atom_site_type_symbol
 _atom_site_label
 _atom_site_symmetry_multiplicity
 _atom_site_fract_x
 _atom_site_fract_y
 _atom_site_fract_z
 _atom_site_occupancy
  Dy  Dy0  1  0.938958  0.937649  0.561861  1
  Dy  Dy1  1  0.811105  0.187544  0.187897  1
  Ho  Ho2  1  0.938919  0.561294  0.562305  1
  Ho  Ho3  1  0.938485  0.561229  0.938526  1
  Ho  Ho4  1  0.811607  0.810847  0.187178  1
  Ho  Ho5  1  0.346091  0.346695  0.346361  1
  Ho  Ho6  1  0.561347  0.937730  0.939334  1
  Ho  Ho7  1  0.561570  0.937844  0.562200  1
  Ho  Ho8  1  0.187420  0.811071  0.811799  1
  Ho  Ho9  1  0.188439  0.187320  0.810944  1
  Ho  Ho10  1  0.347494  0.348213  0.958710  1
  Ho  Ho11  1  0.348982  0.955482  0.348604  1
  Ho  Ho12  1  0.812136  0.186113  0.812161  1
  Ho  Ho13  1  0.562127  0.561695  0.938914  1
  Ho  Ho14  1  0.189007  0.810011  0.188255  1
  Ho  Ho15  1  0.958831  0.348509  0.347343  1
  Cd  Cd16  1  0.579236  0.261174  0.579799  1
  Co  Co17  1  0.576661  0.141121  0.141969  1
  Co  Co18  1  0.141864  0.140967  0.141442  1
  Co  Co19  1  0.141640  0.576746  0.141714  1
  Co  Co20  1  0.142012  0.141222  0.576895  1
  Hg  Hg21  1  0.584639  0.583551  0.246923  1
  Hg  Hg22  1  0.247282  0.582966  0.584731  1
  Hg  Hg23  1  0.584152  0.583006  0.584141  1
