# generated using pymatgen
data_Sc2GaB2RuRh4
_symmetry_space_group_name_H-M   'P 1'
_cell_length_a   9.40332900
_cell_length_b   9.40332900
_cell_length_c   3.03241100
_cell_angle_alpha   90.00000000
_cell_angle_beta   90.00000000
_cell_angle_gamma   90.00000000
_symmetry_Int_Tables_number   1
_chemical_formula_structural   Sc2GaB2RuRh4
_chemical_formula_sum   'Sc4 Ga2 B4 Ru2 Rh8'
_cell_volume   268.13365361
_cell_formula_units_Z   2
loop_
 _symmetry_equiv_pos_site_id
 _symmetry_equiv_pos_as_xyz
  1  'x, y, z'
loop_
 _atom_site_type_symbol
 _atom_site_label
 _atom_site_symmetry_multiplicity
 _atom_site_fract_x
 _atom_site_fract_y
 _atom_site_fract_z
 _atom_site_occupancy
  Sc  Sc0  1  0.673508  0.173508  0.000000  1
  Sc  Sc1  1  0.326492  0.826492  0.000000  1
  Sc  Sc2  1  0.173508  0.326492  0.000000  1
  Sc  Sc3  1  0.826492  0.673508  0.000000  1
  Ga  Ga4  1  0.500000  0.500000  0.000000  1
  Ga  Ga5  1  0.000000  0.000000  0.000000  1
  B  B6  1  0.122659  0.622659  0.000000  1
  B  B7  1  0.877341  0.377341  0.000000  1
  B  B8  1  0.622659  0.877341  0.000000  1
  B  B9  1  0.377341  0.122659  0.000000  1
  Ru  Ru10  1  0.500000  0.000000  0.500000  1
  Ru  Ru11  1  0.000000  0.500000  0.500000  1
  Rh  Rh12  1  0.572305  0.715204  0.500000  1
  Rh  Rh13  1  0.427695  0.284796  0.500000  1
  Rh  Rh14  1  0.072305  0.784796  0.500000  1
  Rh  Rh15  1  0.927695  0.215204  0.500000  1
  Rh  Rh16  1  0.284796  0.572305  0.500000  1
  Rh  Rh17  1  0.715204  0.427695  0.500000  1
  Rh  Rh18  1  0.215204  0.072305  0.500000  1
  Rh  Rh19  1  0.784796  0.927695  0.500000  1
