# generated using pymatgen
data_Zr10AlGeBiPb5
_symmetry_space_group_name_H-M   'P 1'
_cell_length_a   8.87170241
_cell_length_b   8.87170412
_cell_length_c   5.96382501
_cell_angle_alpha   90.00392581
_cell_angle_beta   90.00392862
_cell_angle_gamma   119.81623336
_symmetry_Int_Tables_number   1
_chemical_formula_structural   Zr10AlGeBiPb5
_chemical_formula_sum   'Zr10 Al1 Ge1 Bi1 Pb5'
_cell_volume   407.25907172
_cell_formula_units_Z   1
loop_
 _symmetry_equiv_pos_site_id
 _symmetry_equiv_pos_as_xyz
  1  'x, y, z'
loop_
 _atom_site_type_symbol
 _atom_site_label
 _atom_site_symmetry_multiplicity
 _atom_site_fract_x
 _atom_site_fract_y
 _atom_site_fract_z
 _atom_site_occupancy
  Zr  Zr0  1  0.666947  0.333263  0.000242  1
  Zr  Zr1  1  0.333263  0.666947  0.000242  1
  Zr  Zr2  1  0.333306  0.666667  0.499879  1
  Zr  Zr3  1  0.666667  0.333306  0.499879  1
  Zr  Zr4  1  0.735752  0.735752  0.753140  1
  Zr  Zr5  1  0.263741  0.998845  0.753184  1
  Zr  Zr6  1  0.998845  0.263741  0.753184  1
  Zr  Zr7  1  0.263484  0.263484  0.246984  1
  Zr  Zr8  1  0.735570  0.999706  0.246809  1
  Zr  Zr9  1  0.999706  0.735570  0.246809  1
  Al  Al10  1  0.999622  0.999622  0.499877  1
  Ge  Ge11  1  0.999838  0.999838  0.000211  1
  Bi  Bi12  1  0.391640  0.391640  0.747576  1
  Pb  Pb13  1  0.610901  0.000118  0.747640  1
  Pb  Pb14  1  0.000118  0.610901  0.747640  1
  Pb  Pb15  1  0.611725  0.611725  0.252121  1
  Pb  Pb16  1  0.389342  0.999533  0.252289  1
  Pb  Pb17  1  0.999533  0.389342  0.252289  1
