# generated using pymatgen
data_Li2Pr3(CdSn2)2
_symmetry_space_group_name_H-M   'P 1'
_cell_length_a   4.73571696
_cell_length_b   7.54053589
_cell_length_c   8.95708153
_cell_angle_alpha   114.13767599
_cell_angle_beta   105.32870229
_cell_angle_gamma   90.00000581
_symmetry_Int_Tables_number   1
_chemical_formula_structural   Li2Pr3(CdSn2)2
_chemical_formula_sum   'Li2 Pr3 Cd2 Sn4'
_cell_volume   279.37392478
_cell_formula_units_Z   1
loop_
 _symmetry_equiv_pos_site_id
 _symmetry_equiv_pos_as_xyz
  1  'x, y, z'
loop_
 _atom_site_type_symbol
 _atom_site_label
 _atom_site_symmetry_multiplicity
 _atom_site_fract_x
 _atom_site_fract_y
 _atom_site_fract_z
 _atom_site_occupancy
  Li  Li0  1  0.326629  0.637340  0.653257  1
  Li  Li1  1  0.673371  0.362660  0.346743  1
  Pr  Pr2  1  0.875077  0.374824  0.750155  1
  Pr  Pr3  1  0.124923  0.625176  0.249845  1
  Pr  Pr4  1  0.000000  0.000000  0.000000  1
  Cd  Cd5  1  0.334929  0.019250  0.669859  1
  Cd  Cd6  1  0.665071  0.980750  0.330141  1
  Sn  Sn7  1  0.217703  0.233646  0.435407  1
  Sn  Sn8  1  0.782297  0.766354  0.564593  1
  Sn  Sn9  1  0.491314  0.688773  0.982629  1
  Sn  Sn10  1  0.508686  0.311227  0.017371  1
