# generated using pymatgen
data_Nd2Tm4Zn4Pt13
_symmetry_space_group_name_H-M   'P 1'
_cell_length_a   8.28122930
_cell_length_b   8.28123048
_cell_length_c   8.27480496
_cell_angle_alpha   109.42800846
_cell_angle_beta   109.42800944
_cell_angle_gamma   109.58906662
_symmetry_Int_Tables_number   1
_chemical_formula_structural   Nd2Tm4Zn4Pt13
_chemical_formula_sum   'Nd2 Tm4 Zn4 Pt13'
_cell_volume   436.67282524
_cell_formula_units_Z   1
loop_
 _symmetry_equiv_pos_site_id
 _symmetry_equiv_pos_as_xyz
  1  'x, y, z'
loop_
 _atom_site_type_symbol
 _atom_site_label
 _atom_site_symmetry_multiplicity
 _atom_site_fract_x
 _atom_site_fract_y
 _atom_site_fract_z
 _atom_site_occupancy
  Nd  Nd0  1  0.704403  0.999884  0.704287  1
  Nd  Nd1  1  0.999884  0.704403  0.704287  1
  Tm  Tm2  1  0.697914  0.697914  0.000425  1
  Tm  Tm3  1  0.306948  0.999151  0.306099  1
  Tm  Tm4  1  0.999151  0.306948  0.306099  1
  Tm  Tm5  1  0.302511  0.302511  0.000425  1
  Zn  Zn6  1  0.999314  0.999314  0.492810  1
  Zn  Zn7  1  0.999096  0.499096  0.998193  1
  Zn  Zn8  1  0.499096  0.999096  0.998193  1
  Zn  Zn9  1  0.493497  0.493497  0.492810  1
  Pt  Pt10  1  0.333222  0.333222  0.666443  1
  Pt  Pt11  1  0.670827  0.000375  0.327116  1
  Pt  Pt12  1  0.000375  0.670827  0.327116  1
  Pt  Pt13  1  0.664159  0.337080  0.001239  1
  Pt  Pt14  1  0.326741  0.656288  0.327116  1
  Pt  Pt15  1  0.001215  0.331062  0.667777  1
  Pt  Pt16  1  0.337080  0.664159  0.001239  1
  Pt  Pt17  1  0.331062  0.001215  0.667777  1
  Pt  Pt18  1  0.656288  0.326741  0.327116  1
  Pt  Pt19  1  0.661668  0.661668  0.323337  1
  Pt  Pt20  1  0.666562  0.336716  0.667777  1
  Pt  Pt21  1  0.336716  0.666562  0.667777  1
  Pt  Pt22  1  0.012271  0.012271  0.024543  1
