# generated using pymatgen
data_Ho2Sn4Pd3
_symmetry_space_group_name_H-M   'P 1'
_cell_length_a   7.26927080
_cell_length_b   7.58954884
_cell_length_c   4.14058800
_cell_angle_alpha   90.00000000
_cell_angle_beta   90.00000000
_cell_angle_gamma   121.46847650
_symmetry_Int_Tables_number   1
_chemical_formula_structural   Ho2Sn4Pd3
_chemical_formula_sum   'Ho2 Sn4 Pd3'
_cell_volume   194.84126840
_cell_formula_units_Z   1
loop_
 _symmetry_equiv_pos_site_id
 _symmetry_equiv_pos_as_xyz
  1  'x, y, z'
loop_
 _atom_site_type_symbol
 _atom_site_label
 _atom_site_symmetry_multiplicity
 _atom_site_fract_x
 _atom_site_fract_y
 _atom_site_fract_z
 _atom_site_occupancy
  Ho  Ho0  1  0.414302  0.411350  0.500000  1
  Ho  Ho1  1  0.585698  0.997049  0.500000  1
  Sn  Sn2  1  0.000000  0.596322  0.500000  1
  Sn  Sn3  1  0.728206  0.743092  0.000000  1
  Sn  Sn4  1  0.271794  0.014886  0.000000  1
  Sn  Sn5  1  0.000000  0.241021  0.000000  1
  Pd  Pd6  1  0.690395  0.351159  0.000000  1
  Pd  Pd7  1  0.309605  0.660765  0.000000  1
  Pd  Pd8  1  0.000000  0.984358  0.500000  1
