# generated using pymatgen
data_Tm16CdIn3Ir4
_symmetry_space_group_name_H-M   'P 1'
_cell_length_a   9.54644027
_cell_length_b   9.55864514
_cell_length_c   9.55860077
_cell_angle_alpha   59.83011228
_cell_angle_beta   59.87635598
_cell_angle_gamma   59.87633639
_symmetry_Int_Tables_number   1
_chemical_formula_structural   Tm16CdIn3Ir4
_chemical_formula_sum   'Tm16 Cd1 In3 Ir4'
_cell_volume   614.81473024
_cell_formula_units_Z   1
loop_
 _symmetry_equiv_pos_site_id
 _symmetry_equiv_pos_as_xyz
  1  'x, y, z'
loop_
 _atom_site_type_symbol
 _atom_site_label
 _atom_site_symmetry_multiplicity
 _atom_site_fract_x
 _atom_site_fract_y
 _atom_site_fract_z
 _atom_site_occupancy
  Tm  Tm0  1  0.599420  0.598156  0.598153  1
  Tm  Tm1  1  0.600108  0.600505  0.202216  1
  Tm  Tm2  1  0.600105  0.202215  0.600506  1
  Tm  Tm3  1  0.201424  0.600420  0.600422  1
  Tm  Tm4  1  0.056791  0.441923  0.441924  1
  Tm  Tm5  1  0.439900  0.059163  0.059161  1
  Tm  Tm6  1  0.441599  0.057488  0.441176  1
  Tm  Tm7  1  0.057033  0.441560  0.057134  1
  Tm  Tm8  1  0.441599  0.441177  0.057488  1
  Tm  Tm9  1  0.057030  0.057134  0.441561  1
  Tm  Tm10  1  0.190566  0.811952  0.811952  1
  Tm  Tm11  1  0.810426  0.189582  0.189581  1
  Tm  Tm12  1  0.812213  0.188740  0.810419  1
  Tm  Tm13  1  0.192236  0.810076  0.188174  1
  Tm  Tm14  1  0.812216  0.810423  0.188736  1
  Tm  Tm15  1  0.192235  0.188174  0.810078  1
  Cd  Cd16  1  0.500914  0.832828  0.832829  1
  In  In17  1  0.831709  0.834165  0.834167  1
  In  In18  1  0.831161  0.834165  0.500354  1
  In  In19  1  0.831160  0.500356  0.834165  1
  Ir  Ir20  1  0.390894  0.390523  0.390521  1
  Ir  Ir21  1  0.391191  0.391199  0.826884  1
  Ir  Ir22  1  0.391189  0.826882  0.391199  1
  Ir  Ir23  1  0.826880  0.391194  0.391199  1
