# generated using pymatgen
data_YbLu(Si7Ir3)2
_symmetry_space_group_name_H-M   'P 1'
_cell_length_a   8.02033462
_cell_length_b   8.02033381
_cell_length_c   8.02033455
_cell_angle_alpha   56.75367995
_cell_angle_beta   56.75368090
_cell_angle_gamma   56.75368358
_symmetry_Int_Tables_number   1
_chemical_formula_structural   YbLu(Si7Ir3)2
_chemical_formula_sum   'Yb1 Lu1 Si14 Ir6'
_cell_volume   337.46670780
_cell_formula_units_Z   1
loop_
 _symmetry_equiv_pos_site_id
 _symmetry_equiv_pos_as_xyz
  1  'x, y, z'
loop_
 _atom_site_type_symbol
 _atom_site_label
 _atom_site_symmetry_multiplicity
 _atom_site_fract_x
 _atom_site_fract_y
 _atom_site_fract_z
 _atom_site_occupancy
  Yb  Yb0  1  0.500000  0.500000  0.500000  1
  Lu  Lu1  1  0.000000  0.000000  0.000000  1
  Si  Si2  1  0.849426  0.065569  0.672083  1
  Si  Si3  1  0.672083  0.849426  0.065569  1
  Si  Si4  1  0.065569  0.672083  0.849426  1
  Si  Si5  1  0.648524  0.826743  0.435520  1
  Si  Si6  1  0.249810  0.249810  0.249810  1
  Si  Si7  1  0.750190  0.750190  0.750190  1
  Si  Si8  1  0.173257  0.564480  0.351476  1
  Si  Si9  1  0.564480  0.351476  0.173257  1
  Si  Si10  1  0.351476  0.173257  0.564480  1
  Si  Si11  1  0.934431  0.327917  0.150574  1
  Si  Si12  1  0.327917  0.150574  0.934431  1
  Si  Si13  1  0.150574  0.934431  0.327917  1
  Si  Si14  1  0.826743  0.435520  0.648524  1
  Si  Si15  1  0.435520  0.648524  0.826743  1
  Ir  Ir16  1  0.752107  0.069619  0.426112  1
  Ir  Ir17  1  0.426112  0.752107  0.069619  1
  Ir  Ir18  1  0.069619  0.426112  0.752107  1
  Ir  Ir19  1  0.247893  0.930381  0.573888  1
  Ir  Ir20  1  0.573888  0.247893  0.930381  1
  Ir  Ir21  1  0.930381  0.573888  0.247893  1
