# generated using pymatgen
data_Rb10Zn4Sn4Se17
_symmetry_space_group_name_H-M   'P 1'
_cell_length_a   10.79918100
_cell_length_b   10.79918077
_cell_length_c   10.79918017
_cell_angle_alpha   90.50235456
_cell_angle_beta   90.50235678
_cell_angle_gamma   90.50235721
_symmetry_Int_Tables_number   1
_chemical_formula_structural   Rb10Zn4Sn4Se17
_chemical_formula_sum   'Rb10 Zn4 Sn4 Se17'
_cell_volume   1259.27923577
_cell_formula_units_Z   1
loop_
 _symmetry_equiv_pos_site_id
 _symmetry_equiv_pos_as_xyz
  1  'x, y, z'
loop_
 _atom_site_type_symbol
 _atom_site_label
 _atom_site_symmetry_multiplicity
 _atom_site_fract_x
 _atom_site_fract_y
 _atom_site_fract_z
 _atom_site_occupancy
  Rb  Rb0  1  0.999572  0.500690  0.999572  1
  Rb  Rb1  1  0.999572  0.999572  0.500690  1
  Rb  Rb2  1  0.500690  0.999572  0.999572  1
  Rb  Rb3  1  0.040975  0.501496  0.501496  1
  Rb  Rb4  1  0.501496  0.040975  0.501496  1
  Rb  Rb5  1  0.501496  0.501496  0.040975  1
  Rb  Rb6  1  0.330706  0.682962  0.330706  1
  Rb  Rb7  1  0.330706  0.330706  0.682962  1
  Rb  Rb8  1  0.682962  0.330706  0.330706  1
  Rb  Rb9  1  0.668269  0.668269  0.668269  1
  Zn  Zn10  1  0.868605  0.868605  0.868605  1
  Zn  Zn11  1  0.130763  0.868762  0.130763  1
  Zn  Zn12  1  0.868762  0.130763  0.130763  1
  Zn  Zn13  1  0.130763  0.130763  0.868762  1
  Sn  Sn14  1  0.220510  0.778370  0.778370  1
  Sn  Sn15  1  0.778370  0.220510  0.778370  1
  Sn  Sn16  1  0.778370  0.778370  0.220510  1
  Sn  Sn17  1  0.222301  0.222301  0.222301  1
  Se  Se18  1  0.000558  0.000558  0.000558  1
  Se  Se19  1  0.348356  0.641728  0.641728  1
  Se  Se20  1  0.641728  0.348356  0.641728  1
  Se  Se21  1  0.641728  0.641728  0.348356  1
  Se  Se22  1  0.358276  0.358276  0.358276  1
  Se  Se23  1  0.991140  0.730309  0.730309  1
  Se  Se24  1  0.730309  0.991140  0.730309  1
  Se  Se25  1  0.730309  0.730309  0.991140  1
  Se  Se26  1  0.007382  0.731444  0.269514  1
  Se  Se27  1  0.270302  0.994825  0.270302  1
  Se  Se28  1  0.269514  0.731444  0.007382  1
  Se  Se29  1  0.994825  0.270302  0.270302  1
  Se  Se30  1  0.731444  0.007382  0.269514  1
  Se  Se31  1  0.731444  0.269514  0.007382  1
  Se  Se32  1  0.007382  0.269514  0.731444  1
  Se  Se33  1  0.269514  0.007382  0.731444  1
  Se  Se34  1  0.270302  0.270302  0.994825  1
