# generated using pymatgen
data_TbHo2Cd3AgGe2
_symmetry_space_group_name_H-M   'P 1'
_cell_length_a   7.28519400
_cell_length_b   7.28519462
_cell_length_c   4.37470500
_cell_angle_alpha   90.00000000
_cell_angle_beta   90.00000000
_cell_angle_gamma   120.02576434
_symmetry_Int_Tables_number   1
_chemical_formula_structural   TbHo2Cd3AgGe2
_chemical_formula_sum   'Tb1 Ho2 Cd3 Ag1 Ge2'
_cell_volume   201.02444617
_cell_formula_units_Z   1
loop_
 _symmetry_equiv_pos_site_id
 _symmetry_equiv_pos_as_xyz
  1  'x, y, z'
loop_
 _atom_site_type_symbol
 _atom_site_label
 _atom_site_symmetry_multiplicity
 _atom_site_fract_x
 _atom_site_fract_y
 _atom_site_fract_z
 _atom_site_occupancy
  Tb  Tb0  1  0.422404  0.422404  0.500000  1
  Ho  Ho1  1  0.577823  0.000306  0.500000  1
  Ho  Ho2  1  0.000306  0.577823  0.500000  1
  Cd  Cd3  1  0.752259  0.752259  0.000000  1
  Cd  Cd4  1  0.247976  0.999854  0.000000  1
  Cd  Cd5  1  0.999854  0.247976  0.000000  1
  Ag  Ag6  1  0.998959  0.998959  0.500000  1
  Ge  Ge7  1  0.667542  0.332877  0.000000  1
  Ge  Ge8  1  0.332877  0.667542  0.000000  1
