# generated using pymatgen
data_Y2HoTm7Cd3Ru
_symmetry_space_group_name_H-M   'P 1'
_cell_length_a   9.51563900
_cell_length_b   9.51563866
_cell_length_c   9.73063900
_cell_angle_alpha   90.00000000
_cell_angle_beta   90.00000000
_cell_angle_gamma   119.99999772
_symmetry_Int_Tables_number   1
_chemical_formula_structural   Y2HoTm7Cd3Ru
_chemical_formula_sum   'Y4 Ho2 Tm14 Cd6 Ru2'
_cell_volume   763.04104892
_cell_formula_units_Z   2
loop_
 _symmetry_equiv_pos_site_id
 _symmetry_equiv_pos_as_xyz
  1  'x, y, z'
loop_
 _atom_site_type_symbol
 _atom_site_label
 _atom_site_symmetry_multiplicity
 _atom_site_fract_x
 _atom_site_fract_y
 _atom_site_fract_z
 _atom_site_occupancy
  Y  Y0  1  0.918647  0.459324  0.250000  1
  Y  Y1  1  0.459324  0.540676  0.750000  1
  Y  Y2  1  0.459324  0.918647  0.750000  1
  Y  Y3  1  0.081353  0.540676  0.750000  1
  Ho  Ho4  1  0.540676  0.459324  0.250000  1
  Ho  Ho5  1  0.540676  0.081353  0.250000  1
  Tm  Tm6  1  0.000000  0.000000  0.500000  1
  Tm  Tm7  1  0.000000  0.000000  0.000000  1
  Tm  Tm8  1  0.209950  0.790050  0.440032  1
  Tm  Tm9  1  0.209950  0.419901  0.440032  1
  Tm  Tm10  1  0.580099  0.790050  0.440032  1
  Tm  Tm11  1  0.790050  0.209950  0.559968  1
  Tm  Tm12  1  0.790050  0.580099  0.559968  1
  Tm  Tm13  1  0.419901  0.209950  0.559968  1
  Tm  Tm14  1  0.790050  0.209950  0.940032  1
  Tm  Tm15  1  0.790050  0.580099  0.940032  1
  Tm  Tm16  1  0.419901  0.209950  0.940032  1
  Tm  Tm17  1  0.209950  0.790050  0.059968  1
  Tm  Tm18  1  0.209950  0.419901  0.059968  1
  Tm  Tm19  1  0.580099  0.790050  0.059968  1
  Cd  Cd20  1  0.885848  0.114152  0.250000  1
  Cd  Cd21  1  0.885848  0.771697  0.250000  1
  Cd  Cd22  1  0.228303  0.114152  0.250000  1
  Cd  Cd23  1  0.114152  0.885848  0.750000  1
  Cd  Cd24  1  0.114152  0.228303  0.750000  1
  Cd  Cd25  1  0.771697  0.885848  0.750000  1
  Ru  Ru26  1  0.333333  0.666667  0.250000  1
  Ru  Ru27  1  0.666667  0.333333  0.750000  1
