# generated using pymatgen
data_CeZr3Fe2(CoP)6
_symmetry_space_group_name_H-M   'P 1'
_cell_length_a   12.24025565
_cell_length_b   12.25656912
_cell_length_c   3.71981900
_cell_angle_alpha   90.00000000
_cell_angle_beta   90.00000000
_cell_angle_gamma   120.04409927
_symmetry_Int_Tables_number   1
_chemical_formula_structural   CeZr3Fe2(CoP)6
_chemical_formula_sum   'Ce2 Zr6 Fe4 Co12 P12'
_cell_volume   483.07958754
_cell_formula_units_Z   2
loop_
 _symmetry_equiv_pos_site_id
 _symmetry_equiv_pos_as_xyz
  1  'x, y, z'
loop_
 _atom_site_type_symbol
 _atom_site_label
 _atom_site_symmetry_multiplicity
 _atom_site_fract_x
 _atom_site_fract_y
 _atom_site_fract_z
 _atom_site_occupancy
  Ce  Ce0  1  0.820429  0.821099  0.500000  1
  Ce  Ce1  1  0.179571  0.000671  0.500000  1
  Zr  Zr2  1  0.438653  0.439329  0.000000  1
  Zr  Zr3  1  0.561347  0.000676  0.000000  1
  Zr  Zr4  1  0.000000  0.557489  0.000000  1
  Zr  Zr5  1  0.666959  0.333500  0.000000  1
  Zr  Zr6  1  0.333041  0.666541  0.000000  1
  Zr  Zr7  1  0.000000  0.189465  0.500000  1
  Fe  Fe8  1  0.193434  0.374569  0.000000  1
  Fe  Fe9  1  0.181748  0.803355  0.000000  1
  Fe  Fe10  1  0.818252  0.621608  0.000000  1
  Fe  Fe11  1  0.806566  0.181134  0.000000  1
  Co  Co12  1  0.374813  0.194712  0.000000  1
  Co  Co13  1  0.126278  0.481903  0.500000  1
  Co  Co14  1  0.358455  0.873991  0.500000  1
  Co  Co15  1  0.516627  0.643738  0.500000  1
  Co  Co16  1  0.641545  0.515536  0.500000  1
  Co  Co17  1  0.873722  0.355625  0.500000  1
  Co  Co18  1  0.483373  0.127110  0.500000  1
  Co  Co19  1  0.000000  0.000107  0.000000  1
  Co  Co20  1  0.723700  0.002032  0.500000  1
  Co  Co21  1  0.000000  0.718322  0.500000  1
  Co  Co22  1  0.625187  0.819899  0.000000  1
  Co  Co23  1  0.276300  0.278333  0.500000  1
  P  P24  1  0.648164  0.645086  0.000000  1
  P  P25  1  0.351836  0.996923  0.000000  1
  P  P26  1  0.000000  0.349706  0.000000  1
  P  P27  1  0.481217  0.306711  0.500000  1
  P  P28  1  0.694525  0.176125  0.500000  1
  P  P29  1  0.825014  0.518001  0.500000  1
  P  P30  1  0.518783  0.825495  0.500000  1
  P  P31  1  0.174986  0.692987  0.500000  1
  P  P32  1  0.824561  0.008694  0.000000  1
  P  P33  1  0.000000  0.813798  0.000000  1
  P  P34  1  0.305475  0.481599  0.500000  1
  P  P35  1  0.175439  0.184133  0.000000  1
