# generated using pymatgen
data_Nd3Y(Ni12P5)2
_symmetry_space_group_name_H-M   'P 1'
_cell_length_a   3.67402700
_cell_length_b   10.79499044
_cell_length_c   13.15943404
_cell_angle_alpha   71.73121074
_cell_angle_beta   90.00000000
_cell_angle_gamma   90.00000000
_symmetry_Int_Tables_number   1
_chemical_formula_structural   Nd3Y(Ni12P5)2
_chemical_formula_sum   'Nd3 Y1 Ni24 P10'
_cell_volume   495.61091979
_cell_formula_units_Z   1
loop_
 _symmetry_equiv_pos_site_id
 _symmetry_equiv_pos_as_xyz
  1  'x, y, z'
loop_
 _atom_site_type_symbol
 _atom_site_label
 _atom_site_symmetry_multiplicity
 _atom_site_fract_x
 _atom_site_fract_y
 _atom_site_fract_z
 _atom_site_occupancy
  Nd  Nd0  1  0.750000  0.719334  0.317415  1
  Nd  Nd1  1  0.250000  0.246933  0.187132  1
  Nd  Nd2  1  0.750000  0.754853  0.812366  1
  Y  Y3  1  0.250000  0.280387  0.682490  1
  Ni  Ni4  1  0.250000  0.840599  0.136442  1
  Ni  Ni5  1  0.750000  0.163041  0.860322  1
  Ni  Ni6  1  0.250000  0.286369  0.440665  1
  Ni  Ni7  1  0.750000  0.711225  0.562594  1
  Ni  Ni8  1  0.250000  0.071111  0.014956  1
  Ni  Ni9  1  0.750000  0.930732  0.984180  1
  Ni  Ni10  1  0.250000  0.064369  0.447270  1
  Ni  Ni11  1  0.750000  0.935145  0.553179  1
  Ni  Ni12  1  0.250000  0.595686  0.696438  1
  Ni  Ni13  1  0.750000  0.402744  0.304946  1
  Ni  Ni14  1  0.250000  0.582951  0.007554  1
  Ni  Ni15  1  0.750000  0.417208  0.991649  1
  Ni  Ni16  1  0.250000  0.576024  0.511334  1
  Ni  Ni17  1  0.750000  0.418435  0.491863  1
  Ni  Ni18  1  0.250000  0.298293  0.915985  1
  Ni  Ni19  1  0.750000  0.701930  0.081286  1
  Ni  Ni20  1  0.250000  0.994913  0.659756  1
  Ni  Ni21  1  0.750000  0.007112  0.339670  1
  Ni  Ni22  1  0.250000  0.839708  0.438230  1
  Ni  Ni23  1  0.750000  0.161858  0.563565  1
  Ni  Ni24  1  0.250000  0.991947  0.848235  1
  Ni  Ni25  1  0.750000  0.011521  0.150780  1
  Ni  Ni26  1  0.250000  0.562722  0.203790  1
  Ni  Ni27  1  0.750000  0.433607  0.795634  1
  P  P28  1  0.250000  0.508970  0.870884  1
  P  P29  1  0.750000  0.490384  0.129405  1
  P  P30  1  0.250000  0.800933  0.983174  1
  P  P31  1  0.750000  0.200412  0.014974  1
  P  P32  1  0.250000  0.494151  0.378410  1
  P  P33  1  0.750000  0.501593  0.622678  1
  P  P34  1  0.250000  0.811935  0.611329  1
  P  P35  1  0.750000  0.187288  0.390148  1
  P  P36  1  0.250000  0.949403  0.259642  1
  P  P37  1  0.750000  0.054174  0.739630  1
