# generated using pymatgen
data_K8Ag9S8(O18F)2
_symmetry_space_group_name_H-M   'P 1'
_cell_length_a   10.14912771
_cell_length_b   10.46200282
_cell_length_c   10.46370590
_cell_angle_alpha   86.69058787
_cell_angle_beta   104.09815336
_cell_angle_gamma   103.98386883
_symmetry_Int_Tables_number   1
_chemical_formula_structural   K8Ag9S8(O18F)2
_chemical_formula_sum   'K8 Ag9 S8 O36 F2'
_cell_volume   1045.63783633
_cell_formula_units_Z   1
loop_
 _symmetry_equiv_pos_site_id
 _symmetry_equiv_pos_as_xyz
  1  'x, y, z'
loop_
 _atom_site_type_symbol
 _atom_site_label
 _atom_site_symmetry_multiplicity
 _atom_site_fract_x
 _atom_site_fract_y
 _atom_site_fract_z
 _atom_site_occupancy
  K  K0  1  0.944009  0.720158  0.923632  1
  K  K1  1  0.430722  0.725930  0.927325  1
  K  K2  1  0.119983  0.280451  0.074289  1
  K  K3  1  0.607692  0.273774  0.074474  1
  K  K4  1  0.470516  0.074586  0.725423  1
  K  K5  1  0.979747  0.074743  0.718990  1
  K  K6  1  0.570718  0.922383  0.279262  1
  K  K7  1  0.083359  0.928037  0.276359  1
  Ag  Ag8  1  0.781404  0.000820  0.999468  1
  Ag  Ag9  1  0.465448  0.534880  0.337947  1
  Ag  Ag10  1  0.960385  0.544537  0.328736  1
  Ag  Ag11  1  0.524572  0.456043  0.671467  1
  Ag  Ag12  1  0.026344  0.463968  0.661237  1
  Ag  Ag13  1  0.296543  0.670639  0.544449  1
  Ag  Ag14  1  0.794217  0.662184  0.535600  1
  Ag  Ag15  1  0.689080  0.328517  0.456408  1
  Ag  Ag16  1  0.195915  0.338703  0.463229  1
  S  S17  1  0.791972  0.324692  0.813451  1
  S  S18  1  0.292937  0.323821  0.813324  1
  S  S19  1  0.222022  0.670270  0.187787  1
  S  S20  1  0.726138  0.681126  0.186076  1
  S  S21  1  0.386935  0.186164  0.324123  1
  S  S22  1  0.884319  0.186444  0.323385  1
  S  S23  1  0.629532  0.813163  0.676447  1
  S  S24  1  0.131184  0.813632  0.675877  1
  O  O25  1  0.395855  0.457069  0.807420  1
  O  O26  1  0.890581  0.456680  0.809916  1
  O  O27  1  0.255345  0.537157  0.195023  1
  O  O28  1  0.764391  0.547943  0.189925  1
  O  O29  1  0.491960  0.192709  0.458057  1
  O  O30  1  0.986235  0.189250  0.454701  1
  O  O31  1  0.662113  0.810127  0.544238  1
  O  O32  1  0.167583  0.807218  0.542786  1
  O  O33  1  0.834106  0.256230  0.939181  1
  O  O34  1  0.340031  0.255470  0.936041  1
  O  O35  1  0.235849  0.736791  0.062753  1
  O  O36  1  0.747010  0.749867  0.062458  1
  O  O37  1  0.372483  0.062797  0.256675  1
  O  O38  1  0.863268  0.061307  0.253538  1
  O  O39  1  0.705786  0.938908  0.745226  1
  O  O40  1  0.212419  0.936331  0.744440  1
  O  O41  1  0.622429  0.482162  0.517105  1
  O  O42  1  0.122060  0.517598  0.483898  1
  O  O43  1  0.380882  0.515989  0.518521  1
  O  O44  1  0.862859  0.484689  0.481210  1
  O  O45  1  0.781714  0.244586  0.698113  1
  O  O46  1  0.280660  0.246194  0.694844  1
  O  O47  1  0.308694  0.750968  0.303470  1
  O  O48  1  0.813122  0.758450  0.303956  1
  O  O49  1  0.435138  0.303861  0.246321  1
  O  O50  1  0.930384  0.302449  0.243953  1
  O  O51  1  0.659752  0.697830  0.755949  1
  O  O52  1  0.157650  0.695304  0.753581  1
  O  O53  1  0.647777  0.347338  0.812756  1
  O  O54  1  0.154182  0.352126  0.814044  1
  O  O55  1  0.573283  0.654340  0.185016  1
  O  O56  1  0.066409  0.649048  0.187492  1
  O  O57  1  0.247398  0.186568  0.350703  1
  O  O58  1  0.741062  0.186275  0.347782  1
  O  O59  1  0.474014  0.812257  0.653793  1
  O  O60  1  0.978347  0.814597  0.647393  1
  F  F61  1  0.570753  0.999133  0.999463  1
  F  F62  1  0.991917  0.002716  0.999498  1
