# generated using pymatgen
data_Pr9SmCdSi4Ge
_symmetry_space_group_name_H-M   'P 1'
_cell_length_a   7.82320300
_cell_length_b   9.26372337
_cell_length_c   7.82320300
_cell_angle_alpha   114.97669249
_cell_angle_beta   90.00000000
_cell_angle_gamma   114.97668566
_symmetry_Int_Tables_number   1
_chemical_formula_structural   Pr9SmCdSi4Ge
_chemical_formula_sum   'Pr9 Sm1 Cd1 Si4 Ge1'
_cell_volume   454.77745524
_cell_formula_units_Z   1
loop_
 _symmetry_equiv_pos_site_id
 _symmetry_equiv_pos_as_xyz
  1  'x, y, z'
loop_
 _atom_site_type_symbol
 _atom_site_label
 _atom_site_symmetry_multiplicity
 _atom_site_fract_x
 _atom_site_fract_y
 _atom_site_fract_z
 _atom_site_occupancy
  Pr  Pr0  1  0.524743  0.049487  0.524743  1
  Pr  Pr1  1  0.523650  0.720312  0.672357  1
  Pr  Pr2  1  0.196662  0.720312  0.047956  1
  Pr  Pr3  1  0.672357  0.720312  0.196662  1
  Pr  Pr4  1  0.047956  0.720312  0.523650  1
  Pr  Pr5  1  0.452416  0.278628  0.303165  1
  Pr  Pr6  1  0.826211  0.278628  0.975462  1
  Pr  Pr7  1  0.303165  0.278628  0.826211  1
  Pr  Pr8  1  0.975462  0.278628  0.452416  1
  Sm  Sm9  1  0.979704  0.959408  0.979704  1
  Cd  Cd10  1  0.753295  0.506590  0.753295  1
  Si  Si11  1  0.884330  0.998502  0.616729  1
  Si  Si12  1  0.114172  0.998502  0.381773  1
  Si  Si13  1  0.616729  0.998502  0.114172  1
  Si  Si14  1  0.381773  0.998502  0.884330  1
  Ge  Ge15  1  0.247375  0.494750  0.247375  1
