# generated using pymatgen
data_Sc4Be8GaRu9
_symmetry_space_group_name_H-M   'P 1'
_cell_length_a   3.24515000
_cell_length_b   8.54279088
_cell_length_c   10.16024978
_cell_angle_alpha   91.24515471
_cell_angle_beta   90.00000000
_cell_angle_gamma   90.00000000
_symmetry_Int_Tables_number   1
_chemical_formula_structural   Sc4Be8GaRu9
_chemical_formula_sum   'Sc4 Be8 Ga1 Ru9'
_cell_volume   281.60241377
_cell_formula_units_Z   1
loop_
 _symmetry_equiv_pos_site_id
 _symmetry_equiv_pos_as_xyz
  1  'x, y, z'
loop_
 _atom_site_type_symbol
 _atom_site_label
 _atom_site_symmetry_multiplicity
 _atom_site_fract_x
 _atom_site_fract_y
 _atom_site_fract_z
 _atom_site_occupancy
  Sc  Sc0  1  0.500000  0.833783  0.192813  1
  Sc  Sc1  1  0.500000  0.166217  0.807187  1
  Sc  Sc2  1  0.500000  0.659440  0.678692  1
  Sc  Sc3  1  0.500000  0.340560  0.321308  1
  Be  Be4  1  0.500000  0.965020  0.595040  1
  Be  Be5  1  0.500000  0.034980  0.404960  1
  Be  Be6  1  0.500000  0.835228  0.896880  1
  Be  Be7  1  0.500000  0.164772  0.103120  1
  Be  Be8  1  0.500000  0.655384  0.406516  1
  Be  Be9  1  0.500000  0.344616  0.593484  1
  Be  Be10  1  0.500000  0.468754  0.902655  1
  Be  Be11  1  0.500000  0.531246  0.097345  1
  Ga  Ga12  1  0.000000  0.000000  0.000000  1
  Ru  Ru13  1  0.000000  0.662849  0.961527  1
  Ru  Ru14  1  0.000000  0.337151  0.038473  1
  Ru  Ru15  1  0.000000  0.840123  0.458261  1
  Ru  Ru16  1  0.000000  0.159877  0.541739  1
  Ru  Ru17  1  0.000000  0.406244  0.754691  1
  Ru  Ru18  1  0.000000  0.593756  0.245309  1
  Ru  Ru19  1  0.000000  0.500000  0.500000  1
  Ru  Ru20  1  0.000000  0.910398  0.749158  1
  Ru  Ru21  1  0.000000  0.089602  0.250842  1
