# generated using pymatgen
data_SmY5Cd23S
_symmetry_space_group_name_H-M   'P 1'
_cell_length_a   9.96121205
_cell_length_b   9.94082309
_cell_length_c   9.94082200
_cell_angle_alpha   60.13573956
_cell_angle_beta   59.93213189
_cell_angle_gamma   59.93212965
_symmetry_Int_Tables_number   1
_chemical_formula_structural   SmY5Cd23S
_chemical_formula_sum   'Sm1 Y5 Cd23 S1'
_cell_volume   696.04636850
_cell_formula_units_Z   1
loop_
 _symmetry_equiv_pos_site_id
 _symmetry_equiv_pos_as_xyz
  1  'x, y, z'
loop_
 _atom_site_type_symbol
 _atom_site_label
 _atom_site_symmetry_multiplicity
 _atom_site_fract_x
 _atom_site_fract_y
 _atom_site_fract_z
 _atom_site_occupancy
  Sm  Sm0  1  0.200939  0.799061  0.799061  1
  Y  Y1  1  0.802068  0.802021  0.197932  1
  Y  Y2  1  0.197979  0.802021  0.197932  1
  Y  Y3  1  0.800451  0.199549  0.199549  1
  Y  Y4  1  0.197979  0.197932  0.802021  1
  Y  Y5  1  0.802068  0.197932  0.802021  1
  Cd  Cd6  1  0.835987  0.837119  0.490908  1
  Cd  Cd7  1  0.835987  0.490908  0.837119  1
  Cd  Cd8  1  0.493413  0.835685  0.835685  1
  Cd  Cd9  1  0.835217  0.835685  0.835685  1
  Cd  Cd10  1  0.164315  0.164783  0.506587  1
  Cd  Cd11  1  0.164315  0.506587  0.164783  1
  Cd  Cd12  1  0.509092  0.164013  0.164013  1
  Cd  Cd13  1  0.162881  0.164013  0.164013  1
  Cd  Cd14  1  0.620847  0.621798  0.136510  1
  Cd  Cd15  1  0.620847  0.136510  0.621798  1
  Cd  Cd16  1  0.134695  0.620658  0.620658  1
  Cd  Cd17  1  0.623991  0.620658  0.620658  1
  Cd  Cd18  1  0.379342  0.376009  0.865305  1
  Cd  Cd19  1  0.379342  0.865305  0.376009  1
  Cd  Cd20  1  0.863490  0.379153  0.379153  1
  Cd  Cd21  1  0.378202  0.379153  0.379153  1
  Cd  Cd22  1  0.999877  0.000123  0.500027  1
  Cd  Cd23  1  0.499973  0.000123  0.500027  1
  Cd  Cd24  1  0.999530  0.500470  0.500470  1
  Cd  Cd25  1  0.499973  0.500027  0.000123  1
  Cd  Cd26  1  0.999877  0.500027  0.000123  1
  Cd  Cd27  1  0.499530  0.000470  0.000470  1
  Cd  Cd28  1  0.498999  0.501001  0.501001  1
  S  S29  1  0.998799  0.001201  0.001201  1
