# generated using pymatgen
data_Ho7ErSi8Pd5Pt3
_symmetry_space_group_name_H-M   'P 1'
_cell_length_a   4.28571800
_cell_length_b   7.49604807
_cell_length_c   13.96343301
_cell_angle_alpha   90.00619091
_cell_angle_beta   90.00000000
_cell_angle_gamma   90.00000000
_symmetry_Int_Tables_number   1
_chemical_formula_structural   Ho7ErSi8Pd5Pt3
_chemical_formula_sum   'Ho7 Er1 Si8 Pd5 Pt3'
_cell_volume   448.58852228
_cell_formula_units_Z   1
loop_
 _symmetry_equiv_pos_site_id
 _symmetry_equiv_pos_as_xyz
  1  'x, y, z'
loop_
 _atom_site_type_symbol
 _atom_site_label
 _atom_site_symmetry_multiplicity
 _atom_site_fract_x
 _atom_site_fract_y
 _atom_site_fract_z
 _atom_site_occupancy
  Ho  Ho0  1  0.000000  0.299586  0.000066  1
  Ho  Ho1  1  0.500000  0.701740  0.500310  1
  Ho  Ho2  1  0.000000  0.291907  0.499954  1
  Ho  Ho3  1  0.500000  0.708316  0.999712  1
  Ho  Ho4  1  0.000000  0.205208  0.250337  1
  Ho  Ho5  1  0.500000  0.793470  0.250189  1
  Ho  Ho6  1  0.000000  0.204866  0.749794  1
  Er  Er7  1  0.500000  0.794775  0.750370  1
  Si  Si8  1  0.000000  0.908303  0.592586  1
  Si  Si9  1  0.500000  0.091317  0.908729  1
  Si  Si10  1  0.000000  0.908120  0.407188  1
  Si  Si11  1  0.500000  0.093778  0.093384  1
  Si  Si12  1  0.000000  0.593050  0.143882  1
  Si  Si13  1  0.500000  0.405608  0.356836  1
  Si  Si14  1  0.000000  0.594750  0.856633  1
  Si  Si15  1  0.500000  0.405365  0.642948  1
  Pd  Pd16  1  0.000000  0.923887  0.107112  1
  Pd  Pd17  1  0.500000  0.421582  0.157704  1
  Pd  Pd18  1  0.000000  0.579354  0.341713  1
  Pd  Pd19  1  0.500000  0.421350  0.842268  1
  Pd  Pd20  1  0.000000  0.579338  0.658359  1
  Pt  Pt21  1  0.500000  0.074517  0.609353  1
  Pt  Pt22  1  0.000000  0.924897  0.890143  1
  Pt  Pt23  1  0.500000  0.074916  0.390430  1
