# generated using pymatgen
data_CdIn11Ir4
_symmetry_space_group_name_H-M   'P 1'
_cell_length_a   7.10345284
_cell_length_b   7.17055038
_cell_length_c   7.25787400
_cell_angle_alpha   90.00000000
_cell_angle_beta   90.00000000
_cell_angle_gamma   90.14364417
_symmetry_Int_Tables_number   1
_chemical_formula_structural   CdIn11Ir4
_chemical_formula_sum   'Cd1 In11 Ir4'
_cell_volume   369.68348738
_cell_formula_units_Z   1
loop_
 _symmetry_equiv_pos_site_id
 _symmetry_equiv_pos_as_xyz
  1  'x, y, z'
loop_
 _atom_site_type_symbol
 _atom_site_label
 _atom_site_symmetry_multiplicity
 _atom_site_fract_x
 _atom_site_fract_y
 _atom_site_fract_z
 _atom_site_occupancy
  Cd  Cd0  1  0.500000  0.000000  0.000000  1
  In  In1  1  0.000000  0.500000  0.000000  1
  In  In2  1  0.650165  0.341343  0.236516  1
  In  In3  1  0.349835  0.658657  0.236516  1
  In  In4  1  0.154522  0.150735  0.257879  1
  In  In5  1  0.845478  0.849265  0.257879  1
  In  In6  1  0.500000  0.000000  0.499999  1
  In  In7  1  0.000000  0.500000  0.499999  1
  In  In8  1  0.154522  0.150735  0.742121  1
  In  In9  1  0.845478  0.849265  0.742121  1
  In  In10  1  0.650165  0.341343  0.763482  1
  In  In11  1  0.349835  0.658657  0.763482  1
  Ir  Ir12  1  0.341860  0.348729  0.000000  1
  Ir  Ir13  1  0.658140  0.651271  0.000000  1
  Ir  Ir14  1  0.843234  0.159345  0.499999  1
  Ir  Ir15  1  0.156766  0.840655  0.499999  1
