# generated using pymatgen
data_Ta6Nb9Ni8WN4
_symmetry_space_group_name_H-M   'P 1'
_cell_length_a   8.23250700
_cell_length_b   8.20248251
_cell_length_c   8.21364364
_cell_angle_alpha   59.99038425
_cell_angle_beta   60.18380131
_cell_angle_gamma   60.19993471
_symmetry_Int_Tables_number   1
_chemical_formula_structural   Ta6Nb9Ni8WN4
_chemical_formula_sum   'Ta6 Nb9 Ni8 W1 N4'
_cell_volume   393.29636508
_cell_formula_units_Z   1
loop_
 _symmetry_equiv_pos_site_id
 _symmetry_equiv_pos_as_xyz
  1  'x, y, z'
loop_
 _atom_site_type_symbol
 _atom_site_label
 _atom_site_symmetry_multiplicity
 _atom_site_fract_x
 _atom_site_fract_y
 _atom_site_fract_z
 _atom_site_occupancy
  Ta  Ta0  1  0.625883  0.125102  0.624318  1
  Ta  Ta1  1  0.625160  0.624198  0.125224  1
  Ta  Ta2  1  0.624345  0.624877  0.625682  1
  Ta  Ta3  1  0.066539  0.435255  0.063088  1
  Ta  Ta4  1  0.066467  0.435282  0.435599  1
  Ta  Ta5  1  0.433645  0.066435  0.066908  1
  Nb  Nb6  1  0.816009  0.816971  0.183512  1
  Nb  Nb7  1  0.184018  0.186278  0.814647  1
  Nb  Nb8  1  0.816503  0.183158  0.816965  1
  Nb  Nb9  1  0.182527  0.816241  0.185189  1
  Nb  Nb10  1  0.182497  0.816534  0.815891  1
  Nb  Nb11  1  0.817596  0.181883  0.181995  1
  Nb  Nb12  1  0.433561  0.432887  0.067079  1
  Nb  Nb13  1  0.066801  0.063345  0.435115  1
  Nb  Nb14  1  0.433388  0.066819  0.433094  1
  Ni  Ni15  1  0.743307  0.420621  0.418238  1
  Ni  Ni16  1  0.418741  0.737752  0.420671  1
  Ni  Ni17  1  0.417253  0.420370  0.739368  1
  Ni  Ni18  1  0.416691  0.422553  0.423074  1
  Ni  Ni19  1  0.510035  0.830609  0.830505  1
  Ni  Ni20  1  0.832220  0.512829  0.827450  1
  Ni  Ni21  1  0.832156  0.826570  0.513254  1
  Ni  Ni22  1  0.831162  0.827157  0.828516  1
  W  W23  1  0.124996  0.624737  0.625730  1
  N  N24  1  0.622519  0.124817  0.124709  1
  N  N25  1  0.124266  0.621096  0.127261  1
  N  N26  1  0.124601  0.128036  0.622653  1
  N  N27  1  0.127115  0.127591  0.124265  1
