# generated using pymatgen
data_Yb4Pr5Ni6
_symmetry_space_group_name_H-M   'P 1'
_cell_length_a   7.34978595
_cell_length_b   7.38218564
_cell_length_c   7.38576390
_cell_angle_alpha   73.45729190
_cell_angle_beta   73.17212111
_cell_angle_gamma   73.26353247
_symmetry_Int_Tables_number   1
_chemical_formula_structural   Yb4Pr5Ni6
_chemical_formula_sum   'Yb4 Pr5 Ni6'
_cell_volume   358.35190060
_cell_formula_units_Z   1
loop_
 _symmetry_equiv_pos_site_id
 _symmetry_equiv_pos_as_xyz
  1  'x, y, z'
loop_
 _atom_site_type_symbol
 _atom_site_label
 _atom_site_symmetry_multiplicity
 _atom_site_fract_x
 _atom_site_fract_y
 _atom_site_fract_z
 _atom_site_occupancy
  Yb  Yb0  1  0.004748  0.996327  0.998903  1
  Yb  Yb1  1  0.797028  0.798110  0.795765  1
  Yb  Yb2  1  0.203499  0.205384  0.202955  1
  Yb  Yb3  1  0.330305  0.618746  0.832476  1
  Pr  Pr4  1  0.836193  0.330941  0.619432  1
  Pr  Pr5  1  0.614940  0.832517  0.329628  1
  Pr  Pr6  1  0.663335  0.383081  0.165134  1
  Pr  Pr7  1  0.164036  0.668641  0.384861  1
  Pr  Pr8  1  0.385263  0.169134  0.670134  1
  Ni  Ni9  1  0.139662  0.968083  0.579615  1
  Ni  Ni10  1  0.585290  0.133646  0.963622  1
  Ni  Ni11  1  0.963926  0.581126  0.133992  1
  Ni  Ni12  1  0.857962  0.036227  0.420993  1
  Ni  Ni13  1  0.417221  0.856238  0.039725  1
  Ni  Ni14  1  0.036592  0.421798  0.862763  1
