# generated using pymatgen
data_Ni2BRhO5
_symmetry_space_group_name_H-M   'P 1'
_cell_length_a   3.12054600
_cell_length_b   9.31807900
_cell_length_c   12.24940200
_cell_angle_alpha   90.00000000
_cell_angle_beta   90.00000000
_cell_angle_gamma   90.00000000
_symmetry_Int_Tables_number   1
_chemical_formula_structural   Ni2BRhO5
_chemical_formula_sum   'Ni8 B4 Rh4 O20'
_cell_volume   356.18191501
_cell_formula_units_Z   4
loop_
 _symmetry_equiv_pos_site_id
 _symmetry_equiv_pos_as_xyz
  1  'x, y, z'
loop_
 _atom_site_type_symbol
 _atom_site_label
 _atom_site_symmetry_multiplicity
 _atom_site_fract_x
 _atom_site_fract_y
 _atom_site_fract_z
 _atom_site_occupancy
  Ni  Ni0  1  0.500000  0.000000  0.500000  1
  Ni  Ni1  1  0.500000  0.500000  0.000000  1
  Ni  Ni2  1  0.000000  0.000000  0.000000  1
  Ni  Ni3  1  0.000000  0.500000  0.500000  1
  Ni  Ni4  1  0.500000  0.002623  0.219293  1
  Ni  Ni5  1  0.500000  0.997377  0.780707  1
  Ni  Ni6  1  0.500000  0.497377  0.719293  1
  Ni  Ni7  1  0.500000  0.502623  0.280707  1
  B  B8  1  0.000000  0.271110  0.139046  1
  B  B9  1  0.000000  0.728890  0.860954  1
  B  B10  1  0.000000  0.228890  0.639046  1
  B  B11  1  0.000000  0.771110  0.360954  1
  Rh  Rh12  1  0.000000  0.243569  0.387175  1
  Rh  Rh13  1  0.000000  0.756431  0.612825  1
  Rh  Rh14  1  0.000000  0.256431  0.887175  1
  Rh  Rh15  1  0.000000  0.743569  0.112825  1
  O  O16  1  0.000000  0.351123  0.042188  1
  O  O17  1  0.000000  0.648877  0.957812  1
  O  O18  1  0.000000  0.148877  0.542188  1
  O  O19  1  0.000000  0.851123  0.457812  1
  O  O20  1  0.500000  0.107419  0.358539  1
  O  O21  1  0.500000  0.892581  0.641461  1
  O  O22  1  0.500000  0.392581  0.858539  1
  O  O23  1  0.500000  0.607419  0.141461  1
  O  O24  1  0.000000  0.348998  0.236177  1
  O  O25  1  0.000000  0.651002  0.763823  1
  O  O26  1  0.000000  0.151002  0.736177  1
  O  O27  1  0.000000  0.848998  0.263823  1
  O  O28  1  0.500000  0.388375  0.419260  1
  O  O29  1  0.500000  0.611625  0.580740  1
  O  O30  1  0.500000  0.111625  0.919260  1
  O  O31  1  0.500000  0.888375  0.080740  1
  O  O32  1  0.000000  0.123502  0.140343  1
  O  O33  1  0.000000  0.876498  0.859657  1
  O  O34  1  0.000000  0.376498  0.640343  1
  O  O35  1  0.000000  0.623502  0.359657  1
