# generated using pymatgen
data_Zr3Sc3Zn23C
_symmetry_space_group_name_H-M   'P 1'
_cell_length_a   8.70346520
_cell_length_b   8.71481456
_cell_length_c   8.73644233
_cell_angle_alpha   59.83186205
_cell_angle_beta   59.96065951
_cell_angle_gamma   60.20746885
_symmetry_Int_Tables_number   1
_chemical_formula_structural   Zr3Sc3Zn23C
_chemical_formula_sum   'Zr3 Sc3 Zn23 C1'
_cell_volume   468.55468239
_cell_formula_units_Z   1
loop_
 _symmetry_equiv_pos_site_id
 _symmetry_equiv_pos_as_xyz
  1  'x, y, z'
loop_
 _atom_site_type_symbol
 _atom_site_label
 _atom_site_symmetry_multiplicity
 _atom_site_fract_x
 _atom_site_fract_y
 _atom_site_fract_z
 _atom_site_occupancy
  Zr  Zr0  1  0.688930  0.311070  0.688930  1
  Zr  Zr1  1  0.314153  0.312674  0.687326  1
  Zr  Zr2  1  0.687326  0.685847  0.314153  1
  Sc  Sc3  1  0.689682  0.310318  0.311067  1
  Sc  Sc4  1  0.311067  0.688933  0.689682  1
  Sc  Sc5  1  0.312714  0.687286  0.312714  1
  Zn  Zn6  1  0.120584  0.121037  0.120542  1
  Zn  Zn7  1  0.878943  0.879595  0.878694  1
  Zn  Zn8  1  0.120405  0.121057  0.637233  1
  Zn  Zn9  1  0.120542  0.637839  0.120584  1
  Zn  Zn10  1  0.878963  0.879416  0.362161  1
  Zn  Zn11  1  0.878694  0.362767  0.878943  1
  Zn  Zn12  1  0.637233  0.121306  0.120405  1
  Zn  Zn13  1  0.362161  0.879458  0.878963  1
  Zn  Zn14  1  0.500223  0.000297  0.999703  1
  Zn  Zn15  1  0.999703  0.499777  0.500223  1
  Zn  Zn16  1  0.999823  0.500177  0.999823  1
  Zn  Zn17  1  0.499823  0.000177  0.499823  1
  Zn  Zn18  1  0.999454  0.000546  0.500385  1
  Zn  Zn19  1  0.500385  0.499615  0.999454  1
  Zn  Zn20  1  0.331428  0.331383  0.331560  1
  Zn  Zn21  1  0.668557  0.668761  0.668476  1
  Zn  Zn22  1  0.331239  0.331443  0.005795  1
  Zn  Zn23  1  0.331560  0.005630  0.331428  1
  Zn  Zn24  1  0.668617  0.668572  0.994370  1
  Zn  Zn25  1  0.668476  0.994205  0.668557  1
  Zn  Zn26  1  0.005795  0.331524  0.331239  1
  Zn  Zn27  1  0.994370  0.668440  0.668617  1
  Zn  Zn28  1  0.999770  0.000230  0.999770  1
  C  C29  1  0.499378  0.500622  0.499378  1
