# generated using pymatgen
data_Ho2Sc8SiBi5
_symmetry_space_group_name_H-M   'P 1'
_cell_length_a   7.74697300
_cell_length_b   8.97346000
_cell_length_c   11.45944400
_cell_angle_alpha   90.00000000
_cell_angle_beta   90.00000000
_cell_angle_gamma   90.00000000
_symmetry_Int_Tables_number   1
_chemical_formula_structural   Ho2Sc8SiBi5
_chemical_formula_sum   'Ho4 Sc16 Si2 Bi10'
_cell_volume   796.62791424
_cell_formula_units_Z   2
loop_
 _symmetry_equiv_pos_site_id
 _symmetry_equiv_pos_as_xyz
  1  'x, y, z'
loop_
 _atom_site_type_symbol
 _atom_site_label
 _atom_site_symmetry_multiplicity
 _atom_site_fract_x
 _atom_site_fract_y
 _atom_site_fract_z
 _atom_site_occupancy
  Ho  Ho0  1  0.315556  0.250000  0.220012  1
  Ho  Ho1  1  0.815556  0.250000  0.279988  1
  Ho  Ho2  1  0.672279  0.750000  0.787868  1
  Ho  Ho3  1  0.172279  0.750000  0.712132  1
  Sc  Sc4  1  0.350846  0.750000  0.205517  1
  Sc  Sc5  1  0.850846  0.750000  0.294483  1
  Sc  Sc6  1  0.654621  0.250000  0.778301  1
  Sc  Sc7  1  0.154621  0.250000  0.721699  1
  Sc  Sc8  1  0.680392  0.575749  0.058498  1
  Sc  Sc9  1  0.180392  0.924251  0.441502  1
  Sc  Sc10  1  0.311380  0.047312  0.939208  1
  Sc  Sc11  1  0.811380  0.452688  0.560792  1
  Sc  Sc12  1  0.311380  0.452688  0.939208  1
  Sc  Sc13  1  0.811380  0.047312  0.560792  1
  Sc  Sc14  1  0.680392  0.924251  0.058498  1
  Sc  Sc15  1  0.180392  0.575749  0.441502  1
  Sc  Sc16  1  0.487002  0.250000  0.490404  1
  Sc  Sc17  1  0.987002  0.250000  0.009596  1
  Sc  Sc18  1  0.535159  0.750000  0.512727  1
  Sc  Sc19  1  0.035159  0.750000  0.987273  1
  Si  Si20  1  0.408425  0.750000  0.969319  1
  Si  Si21  1  0.908425  0.750000  0.530681  1
  Bi  Bi22  1  0.597574  0.250000  0.032396  1
  Bi  Bi23  1  0.097574  0.250000  0.467604  1
  Bi  Bi24  1  0.560653  0.989152  0.327890  1
  Bi  Bi25  1  0.060653  0.510848  0.172110  1
  Bi  Bi26  1  0.436844  0.492257  0.672495  1
  Bi  Bi27  1  0.936844  0.007743  0.827505  1
  Bi  Bi28  1  0.436844  0.007743  0.672495  1
  Bi  Bi29  1  0.936844  0.492257  0.827505  1
  Bi  Bi30  1  0.560653  0.510848  0.327890  1
  Bi  Bi31  1  0.060653  0.989152  0.172110  1
