# generated using pymatgen
data_BaSnPt2Pb
_symmetry_space_group_name_H-M   'P 1'
_cell_length_a   5.02450383
_cell_length_b   4.87734700
_cell_length_c   10.63681400
_cell_angle_alpha   90.00000000
_cell_angle_beta   92.57510970
_cell_angle_gamma   90.00000000
_symmetry_Int_Tables_number   1
_chemical_formula_structural   BaSnPt2Pb
_chemical_formula_sum   'Ba2 Sn2 Pt4 Pb2'
_cell_volume   260.40518164
_cell_formula_units_Z   2
loop_
 _symmetry_equiv_pos_site_id
 _symmetry_equiv_pos_as_xyz
  1  'x, y, z'
loop_
 _atom_site_type_symbol
 _atom_site_label
 _atom_site_symmetry_multiplicity
 _atom_site_fract_x
 _atom_site_fract_y
 _atom_site_fract_z
 _atom_site_occupancy
  Ba  Ba0  1  0.259960  0.750000  0.257613  1
  Ba  Ba1  1  0.740040  0.250001  0.742386  1
  Sn  Sn2  1  0.802217  0.250001  0.394496  1
  Sn  Sn3  1  0.197783  0.750000  0.605504  1
  Pt  Pt4  1  0.764747  0.250001  0.141078  1
  Pt  Pt5  1  0.683307  0.750000  0.496460  1
  Pt  Pt6  1  0.316692  0.250001  0.503540  1
  Pt  Pt7  1  0.235253  0.750000  0.858922  1
  Pb  Pb8  1  0.252947  0.250001  0.001456  1
  Pb  Pb9  1  0.747052  0.750000  0.998544  1
