# generated using pymatgen
data_Ho3Zn3Ni2Rh
_symmetry_space_group_name_H-M   'P 1'
_cell_length_a   7.05122500
_cell_length_b   7.05122614
_cell_length_c   3.77724500
_cell_angle_alpha   90.00000000
_cell_angle_beta   90.00000000
_cell_angle_gamma   119.99999937
_symmetry_Int_Tables_number   1
_chemical_formula_structural   Ho3Zn3Ni2Rh
_chemical_formula_sum   'Ho3 Zn3 Ni2 Rh1'
_cell_volume   162.64286102
_cell_formula_units_Z   1
loop_
 _symmetry_equiv_pos_site_id
 _symmetry_equiv_pos_as_xyz
  1  'x, y, z'
loop_
 _atom_site_type_symbol
 _atom_site_label
 _atom_site_symmetry_multiplicity
 _atom_site_fract_x
 _atom_site_fract_y
 _atom_site_fract_z
 _atom_site_occupancy
  Ho  Ho0  1  0.407955  0.408717  0.500000  1
  Ho  Ho1  1  0.591283  0.999237  0.500000  1
  Ho  Ho2  1  0.000763  0.592045  0.500000  1
  Zn  Zn3  1  0.755266  0.759318  0.000000  1
  Zn  Zn4  1  0.240682  0.995947  0.000000  1
  Zn  Zn5  1  0.004053  0.244734  0.000000  1
  Ni  Ni6  1  0.333333  0.666667  0.000000  1
  Ni  Ni7  1  0.000000  0.000000  0.500000  1
  Rh  Rh8  1  0.666667  0.333333  0.000000  1
