# generated using pymatgen
data_Tb2Al16Pt9
_symmetry_space_group_name_H-M   'P 1'
_cell_length_a   11.15218324
_cell_length_b   11.15218400
_cell_length_c   11.15218425
_cell_angle_alpha   158.57410714
_cell_angle_beta   115.10045578
_cell_angle_gamma   69.20058497
_symmetry_Int_Tables_number   1
_chemical_formula_structural   Tb2Al16Pt9
_chemical_formula_sum   'Tb2 Al16 Pt9'
_cell_volume   455.49246194
_cell_formula_units_Z   1
loop_
 _symmetry_equiv_pos_site_id
 _symmetry_equiv_pos_as_xyz
  1  'x, y, z'
loop_
 _atom_site_type_symbol
 _atom_site_label
 _atom_site_symmetry_multiplicity
 _atom_site_fract_x
 _atom_site_fract_y
 _atom_site_fract_z
 _atom_site_occupancy
  Tb  Tb0  1  0.228337  0.228337  0.000000  1
  Tb  Tb1  1  0.771663  0.771663  0.000000  1
  Al  Al2  1  0.271970  0.391576  0.880394  1
  Al  Al3  1  0.092008  0.920308  0.171700  1
  Al  Al4  1  0.512891  0.204260  0.308633  1
  Al  Al5  1  0.251392  0.079692  0.171700  1
  Al  Al6  1  0.912943  0.412943  0.500000  1
  Al  Al7  1  0.728030  0.608424  0.119606  1
  Al  Al8  1  0.895627  0.204260  0.691367  1
  Al  Al9  1  0.487109  0.795740  0.691367  1
  Al  Al10  1  0.385855  0.000000  0.385855  1
  Al  Al11  1  0.614145  0.000000  0.614145  1
  Al  Al12  1  0.488818  0.608424  0.880394  1
  Al  Al13  1  0.104373  0.795740  0.308633  1
  Al  Al14  1  0.907992  0.079692  0.828300  1
  Al  Al15  1  0.748608  0.920308  0.828300  1
  Al  Al16  1  0.511182  0.391576  0.119606  1
  Al  Al17  1  0.087057  0.587057  0.500000  1
  Pt  Pt18  1  0.748242  0.500000  0.248242  1
  Pt  Pt19  1  0.023128  0.339181  0.683946  1
  Pt  Pt20  1  0.626259  0.126259  0.500000  1
  Pt  Pt21  1  0.251758  0.500000  0.751758  1
  Pt  Pt22  1  0.373741  0.873741  0.500000  1
  Pt  Pt23  1  0.000000  0.000000  0.000000  1
  Pt  Pt24  1  0.655235  0.339181  0.316054  1
  Pt  Pt25  1  0.344765  0.660819  0.683946  1
  Pt  Pt26  1  0.976872  0.660819  0.316054  1
