# generated using pymatgen
data_K2Ba2ZnSb7Au8
_symmetry_space_group_name_H-M   'P 1'
_cell_length_a   4.80054800
_cell_length_b   9.00330930
_cell_length_c   12.44094602
_cell_angle_alpha   89.31766759
_cell_angle_beta   90.00000000
_cell_angle_gamma   90.00000000
_symmetry_Int_Tables_number   1
_chemical_formula_structural   K2Ba2ZnSb7Au8
_chemical_formula_sum   'K2 Ba2 Zn1 Sb7 Au8'
_cell_volume   537.66973972
_cell_formula_units_Z   1
loop_
 _symmetry_equiv_pos_site_id
 _symmetry_equiv_pos_as_xyz
  1  'x, y, z'
loop_
 _atom_site_type_symbol
 _atom_site_label
 _atom_site_symmetry_multiplicity
 _atom_site_fract_x
 _atom_site_fract_y
 _atom_site_fract_z
 _atom_site_occupancy
  K  K0  1  0.750000  0.744230  0.329934  1
  K  K1  1  0.250000  0.758469  0.839870  1
  Ba  Ba2  1  0.250000  0.253569  0.669005  1
  Ba  Ba3  1  0.750000  0.240347  0.161317  1
  Zn  Zn4  1  0.250000  0.393399  0.952119  1
  Sb  Sb5  1  0.250000  0.406311  0.344645  1
  Sb  Sb6  1  0.250000  0.914365  0.155469  1
  Sb  Sb7  1  0.750000  0.601563  0.033826  1
  Sb  Sb8  1  0.750000  0.597780  0.661441  1
  Sb  Sb9  1  0.750000  0.096585  0.847663  1
  Sb  Sb10  1  0.250000  0.891579  0.541519  1
  Sb  Sb11  1  0.750000  0.112275  0.460526  1
  Au  Au12  1  0.250000  0.096939  0.966158  1
  Au  Au13  1  0.750000  0.420185  0.850840  1
  Au  Au14  1  0.750000  0.927962  0.661085  1
  Au  Au15  1  0.250000  0.547756  0.144421  1
  Au  Au16  1  0.250000  0.081528  0.340590  1
  Au  Au17  1  0.750000  0.907630  0.035587  1
  Au  Au18  1  0.250000  0.583864  0.536885  1
  Au  Au19  1  0.750000  0.423666  0.467099  1
