# generated using pymatgen
data_Tb13Y3(C2Cl3)4
_symmetry_space_group_name_H-M   'P 1'
_cell_length_a   3.67209600
_cell_length_b   10.56656200
_cell_length_c   19.80649300
_cell_angle_alpha   90.00126794
_cell_angle_beta   90.00000000
_cell_angle_gamma   90.00000000
_symmetry_Int_Tables_number   1
_chemical_formula_structural   Tb13Y3(C2Cl3)4
_chemical_formula_sum   'Tb13 Y3 C8 Cl12'
_cell_volume   768.52025266
_cell_formula_units_Z   1
loop_
 _symmetry_equiv_pos_site_id
 _symmetry_equiv_pos_as_xyz
  1  'x, y, z'
loop_
 _atom_site_type_symbol
 _atom_site_label
 _atom_site_symmetry_multiplicity
 _atom_site_fract_x
 _atom_site_fract_y
 _atom_site_fract_z
 _atom_site_occupancy
  Tb  Tb0  1  0.250000  0.138543  0.573190  1
  Tb  Tb1  1  0.250000  0.638537  0.926830  1
  Tb  Tb2  1  0.750000  0.861445  0.426880  1
  Tb  Tb3  1  0.750000  0.361509  0.073118  1
  Tb  Tb4  1  0.250000  0.637514  0.755981  1
  Tb  Tb5  1  0.250000  0.137515  0.744028  1
  Tb  Tb6  1  0.750000  0.362528  0.244259  1
  Tb  Tb7  1  0.750000  0.862621  0.255891  1
  Tb  Tb8  1  0.250000  0.101083  0.332479  1
  Tb  Tb9  1  0.250000  0.601027  0.167763  1
  Tb  Tb10  1  0.750000  0.899140  0.667879  1
  Tb  Tb11  1  0.750000  0.399068  0.832126  1
  Tb  Tb12  1  0.250000  0.124136  0.164342  1
  Y  Y13  1  0.250000  0.624567  0.335468  1
  Y  Y14  1  0.750000  0.875330  0.835417  1
  Y  Y15  1  0.750000  0.375309  0.664594  1
  C  C16  1  0.250000  0.863813  0.348008  1
  C  C17  1  0.250000  0.364023  0.152059  1
  C  C18  1  0.750000  0.136079  0.652119  1
  C  C19  1  0.750000  0.636129  0.847893  1
  C  C20  1  0.250000  0.388110  0.750037  1
  C  C21  1  0.250000  0.888073  0.749974  1
  C  C22  1  0.750000  0.611991  0.249983  1
  C  C23  1  0.750000  0.111964  0.250202  1
  Cl  Cl24  1  0.250000  0.377464  0.952665  1
  Cl  Cl25  1  0.250000  0.877421  0.547345  1
  Cl  Cl26  1  0.750000  0.622610  0.047332  1
  Cl  Cl27  1  0.750000  0.122577  0.452689  1
  Cl  Cl28  1  0.250000  0.887540  0.944284  1
  Cl  Cl29  1  0.250000  0.387561  0.555719  1
  Cl  Cl30  1  0.750000  0.112729  0.055161  1
  Cl  Cl31  1  0.750000  0.612464  0.444236  1
  Cl  Cl32  1  0.250000  0.361436  0.354070  1
  Cl  Cl33  1  0.250000  0.860863  0.145977  1
  Cl  Cl34  1  0.750000  0.638649  0.645898  1
  Cl  Cl35  1  0.750000  0.138634  0.854103  1
