# generated using pymatgen
data_Hf8Zr2Ga3Sb5
_symmetry_space_group_name_H-M   'P 1'
_cell_length_a   8.59794795
_cell_length_b   8.59794746
_cell_length_c   5.80683100
_cell_angle_alpha   90.00000000
_cell_angle_beta   90.00000000
_cell_angle_gamma   120.33197526
_symmetry_Int_Tables_number   1
_chemical_formula_structural   Hf8Zr2Ga3Sb5
_chemical_formula_sum   'Hf8 Zr2 Ga3 Sb5'
_cell_volume   370.50738788
_cell_formula_units_Z   1
loop_
 _symmetry_equiv_pos_site_id
 _symmetry_equiv_pos_as_xyz
  1  'x, y, z'
loop_
 _atom_site_type_symbol
 _atom_site_label
 _atom_site_symmetry_multiplicity
 _atom_site_fract_x
 _atom_site_fract_y
 _atom_site_fract_z
 _atom_site_occupancy
  Hf  Hf0  1  0.277955  0.277955  0.750000  1
  Hf  Hf1  1  0.735616  0.735616  0.250000  1
  Hf  Hf2  1  0.722520  0.986506  0.750000  1
  Hf  Hf3  1  0.337947  0.665507  0.503339  1
  Hf  Hf4  1  0.665507  0.337947  0.503339  1
  Hf  Hf5  1  0.986506  0.722520  0.750000  1
  Hf  Hf6  1  0.337947  0.665507  0.996661  1
  Hf  Hf7  1  0.665507  0.337947  0.996661  1
  Zr  Zr8  1  0.001408  0.266704  0.250000  1
  Zr  Zr9  1  0.266704  0.001408  0.250000  1
  Ga  Ga10  1  0.000667  0.000667  0.509394  1
  Ga  Ga11  1  0.611347  0.611347  0.750000  1
  Ga  Ga12  1  0.000667  0.000667  0.990606  1
  Sb  Sb13  1  0.384896  0.998593  0.750000  1
  Sb  Sb14  1  0.610410  0.000439  0.250000  1
  Sb  Sb15  1  0.395361  0.395361  0.250000  1
  Sb  Sb16  1  0.998593  0.384896  0.750000  1
  Sb  Sb17  1  0.000439  0.610410  0.250000  1
