# generated using pymatgen
data_Ho10CdCoPd2
_symmetry_space_group_name_H-M   'P 1'
_cell_length_a   9.41568364
_cell_length_b   9.41568403
_cell_length_c   9.36637800
_cell_angle_alpha   90.00000000
_cell_angle_beta   90.00000000
_cell_angle_gamma   119.83600183
_symmetry_Int_Tables_number   1
_chemical_formula_structural   Ho10CdCoPd2
_chemical_formula_sum   'Ho20 Cd2 Co2 Pd4'
_cell_volume   720.31319814
_cell_formula_units_Z   2
loop_
 _symmetry_equiv_pos_site_id
 _symmetry_equiv_pos_as_xyz
  1  'x, y, z'
loop_
 _atom_site_type_symbol
 _atom_site_label
 _atom_site_symmetry_multiplicity
 _atom_site_fract_x
 _atom_site_fract_y
 _atom_site_fract_z
 _atom_site_occupancy
  Ho  Ho0  1  0.003241  0.996759  0.457905  1
  Ho  Ho1  1  0.003241  0.996759  0.042095  1
  Ho  Ho2  1  0.542086  0.457914  0.250000  1
  Ho  Ho3  1  0.542220  0.084792  0.250000  1
  Ho  Ho4  1  0.915208  0.457780  0.250000  1
  Ho  Ho5  1  0.454506  0.545494  0.750000  1
  Ho  Ho6  1  0.446611  0.917183  0.750000  1
  Ho  Ho7  1  0.082817  0.553389  0.750000  1
  Ho  Ho8  1  0.209824  0.790176  0.438730  1
  Ho  Ho9  1  0.210254  0.421744  0.437801  1
  Ho  Ho10  1  0.578256  0.789746  0.437801  1
  Ho  Ho11  1  0.791125  0.208875  0.559231  1
  Ho  Ho12  1  0.789225  0.581805  0.559712  1
  Ho  Ho13  1  0.418195  0.210775  0.559712  1
  Ho  Ho14  1  0.791125  0.208875  0.940769  1
  Ho  Ho15  1  0.789225  0.581805  0.940288  1
  Ho  Ho16  1  0.418195  0.210775  0.940288  1
  Ho  Ho17  1  0.209824  0.790176  0.061270  1
  Ho  Ho18  1  0.210254  0.421744  0.062199  1
  Ho  Ho19  1  0.578256  0.789746  0.062199  1
  Cd  Cd20  1  0.110456  0.215838  0.750000  1
  Cd  Cd21  1  0.784162  0.889544  0.750000  1
  Co  Co22  1  0.332176  0.667824  0.250000  1
  Co  Co23  1  0.668367  0.331633  0.750000  1
  Pd  Pd24  1  0.872250  0.127750  0.250000  1
  Pd  Pd25  1  0.868410  0.739447  0.250000  1
  Pd  Pd26  1  0.260553  0.131590  0.250000  1
  Pd  Pd27  1  0.119939  0.880061  0.750000  1
