# generated using pymatgen
data_Lu12Si12IrRh3
_symmetry_space_group_name_H-M   'P 1'
_cell_length_a   4.17225700
_cell_length_b   10.49015932
_cell_length_c   12.07931237
_cell_angle_alpha   89.97150588
_cell_angle_beta   90.00000000
_cell_angle_gamma   90.00000000
_symmetry_Int_Tables_number   1
_chemical_formula_structural   Lu12Si12IrRh3
_chemical_formula_sum   'Lu12 Si12 Ir1 Rh3'
_cell_volume   528.68293815
_cell_formula_units_Z   1
loop_
 _symmetry_equiv_pos_site_id
 _symmetry_equiv_pos_as_xyz
  1  'x, y, z'
loop_
 _atom_site_type_symbol
 _atom_site_label
 _atom_site_symmetry_multiplicity
 _atom_site_fract_x
 _atom_site_fract_y
 _atom_site_fract_z
 _atom_site_occupancy
  Lu  Lu0  1  0.250000  0.878888  0.019523  1
  Lu  Lu1  1  0.250000  0.621353  0.520279  1
  Lu  Lu2  1  0.750000  0.120776  0.980059  1
  Lu  Lu3  1  0.750000  0.378721  0.480001  1
  Lu  Lu4  1  0.250000  0.920518  0.603746  1
  Lu  Lu5  1  0.250000  0.579772  0.102785  1
  Lu  Lu6  1  0.750000  0.079369  0.397046  1
  Lu  Lu7  1  0.750000  0.420475  0.896884  1
  Lu  Lu8  1  0.250000  0.660088  0.799951  1
  Lu  Lu9  1  0.250000  0.839882  0.300156  1
  Lu  Lu10  1  0.750000  0.340242  0.199783  1
  Lu  Lu11  1  0.750000  0.160180  0.699858  1
  Si  Si12  1  0.250000  0.013700  0.821721  1
  Si  Si13  1  0.250000  0.485199  0.322122  1
  Si  Si14  1  0.750000  0.985306  0.178189  1
  Si  Si15  1  0.750000  0.514612  0.677732  1
  Si  Si16  1  0.250000  0.248471  0.841912  1
  Si  Si17  1  0.250000  0.250966  0.341658  1
  Si  Si18  1  0.750000  0.751303  0.157893  1
  Si  Si19  1  0.750000  0.748759  0.658783  1
  Si  Si20  1  0.250000  0.197024  0.543554  1
  Si  Si21  1  0.250000  0.302587  0.043489  1
  Si  Si22  1  0.750000  0.803329  0.456933  1
  Si  Si23  1  0.750000  0.698514  0.955385  1
  Ir  Ir24  1  0.750000  0.891249  0.820315  1
  Rh  Rh25  1  0.250000  0.390880  0.680517  1
  Rh  Rh26  1  0.250000  0.108941  0.180088  1
  Rh  Rh27  1  0.750000  0.608896  0.319638  1
