# generated using pymatgen
data_Nb6AlCo6
_symmetry_space_group_name_H-M   'P 1'
_cell_length_a   4.94795616
_cell_length_b   4.94795759
_cell_length_c   9.12339675
_cell_angle_alpha   74.26618649
_cell_angle_beta   74.26618385
_cell_angle_gamma   60.00000297
_symmetry_Int_Tables_number   1
_chemical_formula_structural   Nb6AlCo6
_chemical_formula_sum   'Nb6 Al1 Co6'
_cell_volume   183.70961603
_cell_formula_units_Z   1
loop_
 _symmetry_equiv_pos_site_id
 _symmetry_equiv_pos_as_xyz
  1  'x, y, z'
loop_
 _atom_site_type_symbol
 _atom_site_label
 _atom_site_symmetry_multiplicity
 _atom_site_fract_x
 _atom_site_fract_y
 _atom_site_fract_z
 _atom_site_occupancy
  Nb  Nb0  1  0.169226  0.169226  0.492320  1
  Nb  Nb1  1  0.830774  0.830774  0.507680  1
  Nb  Nb2  1  0.345420  0.345420  0.963741  1
  Nb  Nb3  1  0.654580  0.654580  0.036259  1
  Nb  Nb4  1  0.449422  0.449422  0.651736  1
  Nb  Nb5  1  0.550578  0.550578  0.348264  1
  Al  Al6  1  0.000000  0.000000  0.000000  1
  Co  Co7  1  0.588336  0.090270  0.231124  1
  Co  Co8  1  0.090270  0.090270  0.231124  1
  Co  Co9  1  0.090270  0.588336  0.231124  1
  Co  Co10  1  0.411664  0.909730  0.768876  1
  Co  Co11  1  0.909730  0.909730  0.768876  1
  Co  Co12  1  0.909730  0.411664  0.768876  1
