# generated using pymatgen
data_TbDy2Er5Au4
_symmetry_space_group_name_H-M   'P 1'
_cell_length_a   4.91950600
_cell_length_b   7.13527653
_cell_length_c   8.92746103
_cell_angle_alpha   89.87985872
_cell_angle_beta   90.00000000
_cell_angle_gamma   90.00000000
_symmetry_Int_Tables_number   1
_chemical_formula_structural   TbDy2Er5Au4
_chemical_formula_sum   'Tb1 Dy2 Er5 Au4'
_cell_volume   313.37136673
_cell_formula_units_Z   1
loop_
 _symmetry_equiv_pos_site_id
 _symmetry_equiv_pos_as_xyz
  1  'x, y, z'
loop_
 _atom_site_type_symbol
 _atom_site_label
 _atom_site_symmetry_multiplicity
 _atom_site_fract_x
 _atom_site_fract_y
 _atom_site_fract_z
 _atom_site_occupancy
  Tb  Tb0  1  0.250000  0.985831  0.322816  1
  Dy  Dy1  1  0.750000  0.514272  0.823556  1
  Dy  Dy2  1  0.750000  0.014374  0.676687  1
  Er  Er3  1  0.250000  0.851632  0.920363  1
  Er  Er4  1  0.250000  0.352279  0.579775  1
  Er  Er5  1  0.750000  0.148519  0.079938  1
  Er  Er6  1  0.750000  0.647833  0.419370  1
  Er  Er7  1  0.250000  0.485084  0.176222  1
  Au  Au8  1  0.250000  0.255720  0.901166  1
  Au  Au9  1  0.250000  0.755104  0.600226  1
  Au  Au10  1  0.750000  0.743953  0.099947  1
  Au  Au11  1  0.750000  0.245402  0.399932  1
