# generated using pymatgen
data_Pr4Ho3Tm(ReB6)4
_symmetry_space_group_name_H-M   'P 1'
_cell_length_a   3.73357900
_cell_length_b   9.25282001
_cell_length_c   11.73304801
_cell_angle_alpha   90.00543219
_cell_angle_beta   90.00000000
_cell_angle_gamma   90.00000000
_symmetry_Int_Tables_number   1
_chemical_formula_structural   Pr4Ho3Tm(ReB6)4
_chemical_formula_sum   'Pr4 Ho3 Tm1 Re4 B24'
_cell_volume   405.33145272
_cell_formula_units_Z   1
loop_
 _symmetry_equiv_pos_site_id
 _symmetry_equiv_pos_as_xyz
  1  'x, y, z'
loop_
 _atom_site_type_symbol
 _atom_site_label
 _atom_site_symmetry_multiplicity
 _atom_site_fract_x
 _atom_site_fract_y
 _atom_site_fract_z
 _atom_site_occupancy
  Pr  Pr0  1  0.000000  0.322715  0.414672  1
  Pr  Pr1  1  0.000000  0.677268  0.585514  1
  Pr  Pr2  1  0.000000  0.822535  0.085281  1
  Pr  Pr3  1  0.000000  0.177395  0.914617  1
  Ho  Ho4  1  0.000000  0.942778  0.369112  1
  Ho  Ho5  1  0.000000  0.057217  0.630991  1
  Ho  Ho6  1  0.000000  0.442907  0.130543  1
  Tm  Tm7  1  0.000000  0.557304  0.868896  1
  Re  Re8  1  0.000000  0.639738  0.318671  1
  Re  Re9  1  0.000000  0.360607  0.681666  1
  Re  Re10  1  0.000000  0.139850  0.181155  1
  Re  Re11  1  0.000000  0.859621  0.818832  1
  B  B12  1  0.500000  0.555797  0.429599  1
  B  B13  1  0.500000  0.444226  0.570556  1
  B  B14  1  0.500000  0.055751  0.070383  1
  B  B15  1  0.500000  0.944052  0.929535  1
  B  B16  1  0.500000  0.750272  0.414873  1
  B  B17  1  0.500000  0.249827  0.585211  1
  B  B18  1  0.500000  0.250270  0.085115  1
  B  B19  1  0.500000  0.749001  0.914926  1
  B  B20  1  0.500000  0.791399  0.265810  1
  B  B21  1  0.500000  0.208802  0.734217  1
  B  B22  1  0.500000  0.291465  0.234171  1
  B  B23  1  0.500000  0.708012  0.765944  1
  B  B24  1  0.500000  0.629490  0.186285  1
  B  B25  1  0.500000  0.371016  0.814080  1
  B  B26  1  0.500000  0.129496  0.313697  1
  B  B27  1  0.500000  0.870387  0.686423  1
  B  B28  1  0.500000  0.984319  0.213489  1
  B  B29  1  0.500000  0.015549  0.786560  1
  B  B30  1  0.500000  0.484279  0.286479  1
  B  B31  1  0.500000  0.516075  0.713868  1
  B  B32  1  0.500000  0.595177  0.025422  1
  B  B33  1  0.500000  0.405397  0.973382  1
  B  B34  1  0.500000  0.095223  0.473923  1
  B  B35  1  0.500000  0.904783  0.526101  1
