# generated using pymatgen
data_Tb2YbY3(Si3Ru)8
_symmetry_space_group_name_H-M   'P 1'
_cell_length_a   10.13939985
_cell_length_b   10.13940062
_cell_length_c   8.14978800
_cell_angle_alpha   89.91414776
_cell_angle_beta   90.08584921
_cell_angle_gamma   132.61095549
_symmetry_Int_Tables_number   1
_chemical_formula_structural   Tb2YbY3(Si3Ru)8
_chemical_formula_sum   'Tb2 Yb1 Y3 Si24 Ru8'
_cell_volume   616.63615817
_cell_formula_units_Z   1
loop_
 _symmetry_equiv_pos_site_id
 _symmetry_equiv_pos_as_xyz
  1  'x, y, z'
loop_
 _atom_site_type_symbol
 _atom_site_label
 _atom_site_symmetry_multiplicity
 _atom_site_fract_x
 _atom_site_fract_y
 _atom_site_fract_z
 _atom_site_occupancy
  Tb  Tb0  1  0.497011  0.997011  0.250000  1
  Tb  Tb1  1  0.002944  0.502944  0.750000  1
  Yb  Yb2  1  0.502454  0.002454  0.750000  1
  Y  Y3  1  0.500200  0.500277  0.500390  1
  Y  Y4  1  0.000277  0.000200  0.999610  1
  Y  Y5  1  0.997796  0.497796  0.250000  1
  Si  Si6  1  0.793747  0.204020  0.500542  1
  Si  Si7  1  0.295716  0.706197  0.998723  1
  Si  Si8  1  0.206197  0.795716  0.501277  1
  Si  Si9  1  0.704020  0.293747  0.999458  1
  Si  Si10  1  0.332862  0.333934  0.833173  1
  Si  Si11  1  0.666874  0.667891  0.166737  1
  Si  Si12  1  0.167891  0.166874  0.333263  1
  Si  Si13  1  0.833934  0.832862  0.666827  1
  Si  Si14  1  0.121744  0.887369  0.728136  1
  Si  Si15  1  0.111203  0.877426  0.272005  1
  Si  Si16  1  0.611485  0.377825  0.228577  1
  Si  Si17  1  0.623141  0.389032  0.772082  1
  Si  Si18  1  0.877825  0.111485  0.271423  1
  Si  Si19  1  0.889032  0.123141  0.727918  1
  Si  Si20  1  0.387369  0.621744  0.771864  1
  Si  Si21  1  0.377426  0.611203  0.227995  1
  Si  Si22  1  0.344814  0.111298  0.504352  1
  Si  Si23  1  0.888309  0.654947  0.494205  1
  Si  Si24  1  0.388595  0.154785  0.005821  1
  Si  Si25  1  0.844871  0.611791  0.994350  1
  Si  Si26  1  0.654785  0.888595  0.494179  1
  Si  Si27  1  0.111791  0.344871  0.505650  1
  Si  Si28  1  0.611298  0.844814  0.995648  1
  Si  Si29  1  0.154947  0.388309  0.005795  1
  Ru  Ru30  1  0.669898  0.330455  0.500139  1
  Ru  Ru31  1  0.168654  0.829696  0.000892  1
  Ru  Ru32  1  0.329696  0.668654  0.499108  1
  Ru  Ru33  1  0.830455  0.169898  0.999861  1
  Ru  Ru34  1  0.126802  0.126769  0.626994  1
  Ru  Ru35  1  0.873345  0.873824  0.373102  1
  Ru  Ru36  1  0.373824  0.373345  0.126898  1
  Ru  Ru37  1  0.626769  0.626802  0.873006  1
