# generated using pymatgen
data_Lu12GaCo4Ru
_symmetry_space_group_name_H-M   'P 1'
_cell_length_a   8.03205228
_cell_length_b   8.03205341
_cell_length_c   8.03205156
_cell_angle_alpha   111.12592687
_cell_angle_beta   111.18390635
_cell_angle_gamma   106.15389248
_symmetry_Int_Tables_number   1
_chemical_formula_structural   Lu12GaCo4Ru
_chemical_formula_sum   'Lu12 Ga1 Co4 Ru1'
_cell_volume   397.89867718
_cell_formula_units_Z   1
loop_
 _symmetry_equiv_pos_site_id
 _symmetry_equiv_pos_as_xyz
  1  'x, y, z'
loop_
 _atom_site_type_symbol
 _atom_site_label
 _atom_site_symmetry_multiplicity
 _atom_site_fract_x
 _atom_site_fract_y
 _atom_site_fract_z
 _atom_site_occupancy
  Lu  Lu0  1  0.421611  0.230655  0.190957  1
  Lu  Lu1  1  0.578389  0.769345  0.809043  1
  Lu  Lu2  1  0.039697  0.230655  0.809043  1
  Lu  Lu3  1  0.960303  0.769345  0.190957  1
  Lu  Lu4  1  0.181752  0.277163  0.458916  1
  Lu  Lu5  1  0.818248  0.722837  0.541084  1
  Lu  Lu6  1  0.181752  0.722837  0.904589  1
  Lu  Lu7  1  0.818248  0.277163  0.095411  1
  Lu  Lu8  1  0.318935  0.625560  0.306625  1
  Lu  Lu9  1  0.681065  0.374440  0.693375  1
  Lu  Lu10  1  0.318935  0.012310  0.693375  1
  Lu  Lu11  1  0.681065  0.987690  0.306625  1
  Ga  Ga12  1  0.500000  0.500000  0.000000  1
  Co  Co13  1  0.363490  0.000000  0.363490  1
  Co  Co14  1  0.636510  0.000000  0.636510  1
  Co  Co15  1  0.113878  0.613878  0.500000  1
  Co  Co16  1  0.886122  0.386122  0.500000  1
  Ru  Ru17  1  0.000000  0.000000  0.000000  1
