# generated using pymatgen
data_KP2RuRh
_symmetry_space_group_name_H-M   'P 1'
_cell_length_a   7.17219132
_cell_length_b   7.17219171
_cell_length_c   7.17219172
_cell_angle_alpha   147.78503023
_cell_angle_beta   147.78503183
_cell_angle_gamma   46.20279966
_symmetry_Int_Tables_number   1
_chemical_formula_structural   KP2RuRh
_chemical_formula_sum   'K1 P2 Ru1 Rh1'
_cell_volume   104.48484628
_cell_formula_units_Z   1
loop_
 _symmetry_equiv_pos_site_id
 _symmetry_equiv_pos_as_xyz
  1  'x, y, z'
loop_
 _atom_site_type_symbol
 _atom_site_label
 _atom_site_symmetry_multiplicity
 _atom_site_fract_x
 _atom_site_fract_y
 _atom_site_fract_z
 _atom_site_occupancy
  K  K0  1  0.000000  0.000000  0.000000  1
  P  P1  1  0.342598  0.342598  0.000000  1
  P  P2  1  0.657402  0.657402  0.000000  1
  Ru  Ru3  1  0.250000  0.750000  0.500000  1
  Rh  Rh4  1  0.750000  0.250000  0.500000  1
