# generated using pymatgen
data_Dy8Lu2Zn3Bi2Au
_symmetry_space_group_name_H-M   'P 1'
_cell_length_a   8.63803976
_cell_length_b   8.63804044
_cell_length_c   8.64346409
_cell_angle_alpha   123.99847673
_cell_angle_beta   123.99848410
_cell_angle_gamma   83.16307143
_symmetry_Int_Tables_number   1
_chemical_formula_structural   Dy8Lu2Zn3Bi2Au
_chemical_formula_sum   'Dy8 Lu2 Zn3 Bi2 Au1'
_cell_volume   425.33079123
_cell_formula_units_Z   1
loop_
 _symmetry_equiv_pos_site_id
 _symmetry_equiv_pos_as_xyz
  1  'x, y, z'
loop_
 _atom_site_type_symbol
 _atom_site_label
 _atom_site_symmetry_multiplicity
 _atom_site_fract_x
 _atom_site_fract_y
 _atom_site_fract_z
 _atom_site_occupancy
  Dy  Dy0  1  0.510517  0.011839  0.806533  1
  Dy  Dy1  1  0.203985  0.705307  0.193467  1
  Dy  Dy2  1  0.012556  0.204586  0.500000  1
  Dy  Dy3  1  0.704757  0.512034  0.500000  1
  Dy  Dy4  1  0.488161  0.989483  0.193467  1
  Dy  Dy5  1  0.794693  0.296015  0.806533  1
  Dy  Dy6  1  0.987966  0.795243  0.500000  1
  Dy  Dy7  1  0.295414  0.487444  0.500000  1
  Lu  Lu8  1  0.499684  0.499733  0.999417  1
  Lu  Lu9  1  0.000267  0.000316  0.000583  1
  Zn  Zn10  1  0.138433  0.640240  0.778673  1
  Zn  Zn11  1  0.859760  0.361567  0.221327  1
  Zn  Zn12  1  0.640351  0.859649  0.500000  1
  Bi  Bi13  1  0.249185  0.250815  0.000000  1
  Bi  Bi14  1  0.749185  0.750815  0.000000  1
  Au  Au15  1  0.365085  0.134915  0.500000  1
