# generated using pymatgen
data_Nd4AlRu
_symmetry_space_group_name_H-M   'P 1'
_cell_length_a   9.82339421
_cell_length_b   9.82339443
_cell_length_c   9.82339400
_cell_angle_alpha   60.00000146
_cell_angle_beta   60.00000071
_cell_angle_gamma   59.99999928
_symmetry_Int_Tables_number   1
_chemical_formula_structural   Nd4AlRu
_chemical_formula_sum   'Nd16 Al4 Ru4'
_cell_volume   670.30078072
_cell_formula_units_Z   4
loop_
 _symmetry_equiv_pos_site_id
 _symmetry_equiv_pos_as_xyz
  1  'x, y, z'
loop_
 _atom_site_type_symbol
 _atom_site_label
 _atom_site_symmetry_multiplicity
 _atom_site_fract_x
 _atom_site_fract_y
 _atom_site_fract_z
 _atom_site_occupancy
  Nd  Nd0  1  0.553845  0.553845  0.946155  1
  Nd  Nd1  1  0.189189  0.810811  0.189189  1
  Nd  Nd2  1  0.810811  0.810811  0.189189  1
  Nd  Nd3  1  0.189189  0.189189  0.810811  1
  Nd  Nd4  1  0.400335  0.798995  0.400335  1
  Nd  Nd5  1  0.810811  0.189189  0.810811  1
  Nd  Nd6  1  0.946155  0.946155  0.553845  1
  Nd  Nd7  1  0.810811  0.189189  0.189189  1
  Nd  Nd8  1  0.946155  0.553845  0.946155  1
  Nd  Nd9  1  0.798995  0.400335  0.400335  1
  Nd  Nd10  1  0.553845  0.946155  0.946155  1
  Nd  Nd11  1  0.189189  0.810811  0.810811  1
  Nd  Nd12  1  0.553845  0.946155  0.553845  1
  Nd  Nd13  1  0.400335  0.400335  0.400335  1
  Nd  Nd14  1  0.946155  0.553845  0.553845  1
  Nd  Nd15  1  0.400335  0.400335  0.798995  1
  Al  Al16  1  0.175280  0.474162  0.175280  1
  Al  Al17  1  0.175280  0.175280  0.474162  1
  Al  Al18  1  0.474162  0.175280  0.175280  1
  Al  Al19  1  0.175280  0.175280  0.175280  1
  Ru  Ru20  1  0.162645  0.612451  0.612451  1
  Ru  Ru21  1  0.612451  0.612451  0.162645  1
  Ru  Ru22  1  0.612451  0.612451  0.612451  1
  Ru  Ru23  1  0.612451  0.162645  0.612451  1
