# generated using pymatgen
data_TbTm11(GaCo2)2
_symmetry_space_group_name_H-M   'P 1'
_cell_length_a   8.16895606
_cell_length_b   8.14889735
_cell_length_c   8.14889752
_cell_angle_alpha   111.99690359
_cell_angle_beta   109.76187755
_cell_angle_gamma   106.60643280
_symmetry_Int_Tables_number   1
_chemical_formula_structural   TbTm11(GaCo2)2
_chemical_formula_sum   'Tb1 Tm11 Ga2 Co4'
_cell_volume   417.13430425
_cell_formula_units_Z   1
loop_
 _symmetry_equiv_pos_site_id
 _symmetry_equiv_pos_as_xyz
  1  'x, y, z'
loop_
 _atom_site_type_symbol
 _atom_site_label
 _atom_site_symmetry_multiplicity
 _atom_site_fract_x
 _atom_site_fract_y
 _atom_site_fract_z
 _atom_site_occupancy
  Tb  Tb0  1  0.565925  0.262271  0.303654  1
  Tm  Tm1  1  0.179706  0.219665  0.399357  1
  Tm  Tm2  1  0.179706  0.780349  0.960041  1
  Tm  Tm3  1  0.673278  0.484242  0.812789  1
  Tm  Tm4  1  0.673278  0.860490  0.189036  1
  Tm  Tm5  1  0.958514  0.259954  0.698561  1
  Tm  Tm6  1  0.042286  0.739990  0.302295  1
  Tm  Tm7  1  0.325596  0.137305  0.809747  1
  Tm  Tm8  1  0.325596  0.515849  0.188291  1
  Tm  Tm9  1  0.819709  0.218932  0.038575  1
  Tm  Tm10  1  0.819709  0.781133  0.600776  1
  Tm  Tm11  1  0.437887  0.739017  0.698870  1
  Ga  Ga12  1  0.005489  0.502768  0.502722  1
  Ga  Ga13  1  0.500804  0.998938  0.501866  1
  Co  Co14  1  0.885639  0.883556  0.002083  1
  Co  Co15  1  0.334986  0.499291  0.835696  1
  Co  Co16  1  0.662275  0.500865  0.161410  1
  Co  Co17  1  0.109616  0.115386  0.994230  1
