# generated using pymatgen
data_TbHo7(Lu3Pt4)4
_symmetry_space_group_name_H-M   'P 1'
_cell_length_a   7.42292501
_cell_length_b   7.51426509
_cell_length_c   14.62561200
_cell_angle_alpha   89.99720927
_cell_angle_beta   89.99779243
_cell_angle_gamma   90.00866182
_symmetry_Int_Tables_number   1
_chemical_formula_structural   TbHo7(Lu3Pt4)4
_chemical_formula_sum   'Tb1 Ho7 Lu12 Pt16'
_cell_volume   815.78483433
_cell_formula_units_Z   1
loop_
 _symmetry_equiv_pos_site_id
 _symmetry_equiv_pos_as_xyz
  1  'x, y, z'
loop_
 _atom_site_type_symbol
 _atom_site_label
 _atom_site_symmetry_multiplicity
 _atom_site_fract_x
 _atom_site_fract_y
 _atom_site_fract_z
 _atom_site_occupancy
  Tb  Tb0  1  0.500810  0.679093  0.592693  1
  Ho  Ho1  1  0.001275  0.820518  0.907252  1
  Ho  Ho2  1  0.498715  0.320527  0.092805  1
  Ho  Ho3  1  0.998755  0.179478  0.407203  1
  Ho  Ho4  1  0.498627  0.320126  0.407034  1
  Ho  Ho5  1  0.998788  0.179507  0.092782  1
  Ho  Ho6  1  0.501334  0.679452  0.907197  1
  Ho  Ho7  1  0.001230  0.820665  0.592859  1
  Lu  Lu8  1  0.656469  0.167642  0.622739  1
  Lu  Lu9  1  0.156354  0.332306  0.877344  1
  Lu  Lu10  1  0.343627  0.832344  0.122715  1
  Lu  Lu11  1  0.843740  0.667725  0.377224  1
  Lu  Lu12  1  0.343297  0.832603  0.377093  1
  Lu  Lu13  1  0.843603  0.667600  0.122752  1
  Lu  Lu14  1  0.656414  0.167593  0.877342  1
  Lu  Lu15  1  0.155994  0.332116  0.622802  1
  Lu  Lu16  1  0.819341  0.509988  0.750169  1
  Lu  Lu17  1  0.319093  0.990084  0.750150  1
  Lu  Lu18  1  0.180830  0.489892  0.249980  1
  Lu  Lu19  1  0.680806  0.010064  0.249976  1
  Pt  Pt20  1  0.683142  0.966688  0.457959  1
  Pt  Pt21  1  0.183051  0.533790  0.041852  1
  Pt  Pt22  1  0.316884  0.033798  0.958165  1
  Pt  Pt23  1  0.818093  0.465456  0.541664  1
  Pt  Pt24  1  0.316665  0.034758  0.541556  1
  Pt  Pt25  1  0.816968  0.466325  0.958157  1
  Pt  Pt26  1  0.683016  0.966201  0.041860  1
  Pt  Pt27  1  0.182810  0.533436  0.457833  1
  Pt  Pt28  1  0.453893  0.384375  0.750270  1
  Pt  Pt29  1  0.954157  0.115404  0.750072  1
  Pt  Pt30  1  0.545994  0.615224  0.249968  1
  Pt  Pt31  1  0.045949  0.884769  0.249937  1
  Pt  Pt32  1  0.682767  0.857782  0.750544  1
  Pt  Pt33  1  0.181852  0.642672  0.750289  1
  Pt  Pt34  1  0.317784  0.142693  0.249871  1
  Pt  Pt35  1  0.817874  0.357304  0.249894  1
