# generated using pymatgen
data_Ti5NbCo2(BRu2)4
_symmetry_space_group_name_H-M   'P 1'
_cell_length_a   9.10372582
_cell_length_b   9.10372582
_cell_length_c   3.02994300
_cell_angle_alpha   90.00000000
_cell_angle_beta   90.00000000
_cell_angle_gamma   89.81534386
_symmetry_Int_Tables_number   1
_chemical_formula_structural   Ti5NbCo2(BRu2)4
_chemical_formula_sum   'Ti5 Nb1 Co2 B4 Ru8'
_cell_volume   251.11377794
_cell_formula_units_Z   1
loop_
 _symmetry_equiv_pos_site_id
 _symmetry_equiv_pos_as_xyz
  1  'x, y, z'
loop_
 _atom_site_type_symbol
 _atom_site_label
 _atom_site_symmetry_multiplicity
 _atom_site_fract_x
 _atom_site_fract_y
 _atom_site_fract_z
 _atom_site_occupancy
  Ti  Ti0  1  0.824758  0.676204  0.000000  1
  Ti  Ti1  1  0.176204  0.324758  0.000000  1
  Ti  Ti2  1  0.322469  0.822469  0.000000  1
  Ti  Ti3  1  0.499157  0.501716  0.000000  1
  Ti  Ti4  1  0.001716  0.999157  0.000000  1
  Nb  Nb5  1  0.676130  0.176130  0.000000  1
  Co  Co6  1  0.499319  0.999319  0.500000  1
  Co  Co7  1  0.000179  0.500179  0.500000  1
  B  B8  1  0.613493  0.884689  0.000000  1
  B  B9  1  0.384689  0.113493  0.000000  1
  B  B10  1  0.114196  0.614196  0.000000  1
  B  B11  1  0.887421  0.387421  0.000000  1
  Ru  Ru12  1  0.563874  0.721844  0.500000  1
  Ru  Ru13  1  0.434848  0.278543  0.500000  1
  Ru  Ru14  1  0.063406  0.777841  0.500000  1
  Ru  Ru15  1  0.937669  0.222244  0.500000  1
  Ru  Ru16  1  0.277841  0.563406  0.500000  1
  Ru  Ru17  1  0.722244  0.437669  0.500000  1
  Ru  Ru18  1  0.221844  0.063874  0.500000  1
  Ru  Ru19  1  0.778543  0.934848  0.500000  1
