# generated using pymatgen
data_Er3MgCd2Ge2Au
_symmetry_space_group_name_H-M   'P 1'
_cell_length_a   7.23874256
_cell_length_b   7.23874172
_cell_length_c   4.36172400
_cell_angle_alpha   90.00000000
_cell_angle_beta   90.00000000
_cell_angle_gamma   120.57320685
_symmetry_Int_Tables_number   1
_chemical_formula_structural   Er3MgCd2Ge2Au
_chemical_formula_sum   'Er3 Mg1 Cd2 Ge2 Au1'
_cell_volume   196.77840890
_cell_formula_units_Z   1
loop_
 _symmetry_equiv_pos_site_id
 _symmetry_equiv_pos_as_xyz
  1  'x, y, z'
loop_
 _atom_site_type_symbol
 _atom_site_label
 _atom_site_symmetry_multiplicity
 _atom_site_fract_x
 _atom_site_fract_y
 _atom_site_fract_z
 _atom_site_occupancy
  Er  Er0  1  0.581479  0.001215  0.000000  1
  Er  Er1  1  0.001215  0.581479  0.000000  1
  Er  Er2  1  0.415944  0.415944  0.000000  1
  Mg  Mg3  1  0.760875  0.760875  0.500000  1
  Cd  Cd4  1  0.248389  0.998449  0.500000  1
  Cd  Cd5  1  0.998449  0.248389  0.500000  1
  Ge  Ge6  1  0.339281  0.666955  0.500000  1
  Ge  Ge7  1  0.666955  0.339281  0.500000  1
  Au  Au8  1  0.987413  0.987413  0.000000  1
