# generated using pymatgen
data_Tb7HoTm2(In2Ni)4
_symmetry_space_group_name_H-M   'P 1'
_cell_length_a   3.60846200
_cell_length_b   8.01441539
_cell_length_c   17.95555200
_cell_angle_alpha   89.94776266
_cell_angle_beta   90.00000000
_cell_angle_gamma   90.00000000
_symmetry_Int_Tables_number   1
_chemical_formula_structural   Tb7HoTm2(In2Ni)4
_chemical_formula_sum   'Tb7 Ho1 Tm2 In8 Ni4'
_cell_volume   519.26920154
_cell_formula_units_Z   1
loop_
 _symmetry_equiv_pos_site_id
 _symmetry_equiv_pos_as_xyz
  1  'x, y, z'
loop_
 _atom_site_type_symbol
 _atom_site_label
 _atom_site_symmetry_multiplicity
 _atom_site_fract_x
 _atom_site_fract_y
 _atom_site_fract_z
 _atom_site_occupancy
  Tb  Tb0  1  0.000000  0.500036  0.500034  1
  Tb  Tb1  1  0.000000  0.000078  0.000018  1
  Tb  Tb2  1  0.000000  0.745935  0.278863  1
  Tb  Tb3  1  0.000000  0.254380  0.721304  1
  Tb  Tb4  1  0.000000  0.754547  0.778099  1
  Tb  Tb5  1  0.000000  0.245187  0.222020  1
  Tb  Tb6  1  0.000000  0.617530  0.087722  1
  Ho  Ho7  1  0.000000  0.382951  0.911619  1
  Tm  Tm8  1  0.000000  0.883160  0.588555  1
  Tm  Tm9  1  0.000000  0.116883  0.411430  1
  In  In10  1  0.500000  0.704423  0.930708  1
  In  In11  1  0.500000  0.294259  0.068859  1
  In  In12  1  0.500000  0.797872  0.431972  1
  In  In13  1  0.500000  0.202156  0.568041  1
  In  In14  1  0.500000  0.574805  0.651441  1
  In  In15  1  0.500000  0.425176  0.348600  1
  In  In16  1  0.500000  0.928053  0.152461  1
  In  In17  1  0.500000  0.073093  0.847818  1
  Ni  Ni18  1  0.500000  0.523039  0.195888  1
  Ni  Ni19  1  0.500000  0.476388  0.804578  1
  Ni  Ni20  1  0.500000  0.975644  0.694211  1
  Ni  Ni21  1  0.500000  0.024405  0.305757  1
