# generated using pymatgen
data_YHo3Fe2(CoI)2
_symmetry_space_group_name_H-M   'P 1'
_cell_length_a   3.95606600
_cell_length_b   3.95606580
_cell_length_c   17.02169200
_cell_angle_alpha   90.00000000
_cell_angle_beta   90.00000000
_cell_angle_gamma   119.99998496
_symmetry_Int_Tables_number   1
_chemical_formula_structural   YHo3Fe2(CoI)2
_chemical_formula_sum   'Y1 Ho3 Fe2 Co2 I2'
_cell_volume   230.70683441
_cell_formula_units_Z   1
loop_
 _symmetry_equiv_pos_site_id
 _symmetry_equiv_pos_as_xyz
  1  'x, y, z'
loop_
 _atom_site_type_symbol
 _atom_site_label
 _atom_site_symmetry_multiplicity
 _atom_site_fract_x
 _atom_site_fract_y
 _atom_site_fract_z
 _atom_site_occupancy
  Y  Y0  1  0.000000  0.000000  0.103092  1
  Ho  Ho1  1  0.000000  0.000000  0.897244  1
  Ho  Ho2  1  0.000000  0.000000  0.603887  1
  Ho  Ho3  1  0.000000  0.000000  0.397127  1
  Fe  Fe4  1  0.333333  0.666667  0.505809  1
  Fe  Fe5  1  0.666667  0.333333  0.495211  1
  Co  Co6  1  0.666667  0.333333  0.000707  1
  Co  Co7  1  0.333333  0.666667  0.996842  1
  I  I8  1  0.333333  0.666667  0.248036  1
  I  I9  1  0.666667  0.333333  0.752045  1
