# generated using pymatgen
data_Tb2Yb2TmIr2
_symmetry_space_group_name_H-M   'P 1'
_cell_length_a   6.52141678
_cell_length_b   7.27612584
_cell_length_c   8.49322690
_cell_angle_alpha   97.10144012
_cell_angle_beta   112.57662647
_cell_angle_gamma   89.99999914
_symmetry_Int_Tables_number   1
_chemical_formula_structural   Tb2Yb2TmIr2
_chemical_formula_sum   'Tb4 Yb4 Tm2 Ir4'
_cell_volume   368.77492711
_cell_formula_units_Z   2
loop_
 _symmetry_equiv_pos_site_id
 _symmetry_equiv_pos_as_xyz
  1  'x, y, z'
loop_
 _atom_site_type_symbol
 _atom_site_label
 _atom_site_symmetry_multiplicity
 _atom_site_fract_x
 _atom_site_fract_y
 _atom_site_fract_z
 _atom_site_occupancy
  Tb  Tb0  1  0.647873  0.817368  0.438989  1
  Tb  Tb1  1  0.208884  0.682632  0.561011  1
  Tb  Tb2  1  0.352127  0.182632  0.561011  1
  Tb  Tb3  1  0.791116  0.317368  0.438989  1
  Yb  Yb4  1  0.974012  0.920824  0.182621  1
  Yb  Yb5  1  0.791391  0.579176  0.817379  1
  Yb  Yb6  1  0.025988  0.079176  0.817379  1
  Yb  Yb7  1  0.208609  0.420824  0.182621  1
  Tm  Tm8  1  0.432546  0.750000  0.000000  1
  Tm  Tm9  1  0.567454  0.250000  0.000000  1
  Ir  Ir10  1  0.811389  0.572592  0.223881  1
  Ir  Ir11  1  0.587508  0.927408  0.776119  1
  Ir  Ir12  1  0.188612  0.427408  0.776119  1
  Ir  Ir13  1  0.412492  0.072592  0.223881  1
