# generated using pymatgen
data_LiTb6Y2In7
_symmetry_space_group_name_H-M   'P 1'
_cell_length_a   6.50882962
_cell_length_b   6.50862775
_cell_length_c   10.78657200
_cell_angle_alpha   90.00000000
_cell_angle_beta   90.00000000
_cell_angle_gamma   110.68287658
_symmetry_Int_Tables_number   1
_chemical_formula_structural   LiTb6Y2In7
_chemical_formula_sum   'Li1 Tb6 Y2 In7'
_cell_volume   427.50639398
_cell_formula_units_Z   1
loop_
 _symmetry_equiv_pos_site_id
 _symmetry_equiv_pos_as_xyz
  1  'x, y, z'
loop_
 _atom_site_type_symbol
 _atom_site_label
 _atom_site_symmetry_multiplicity
 _atom_site_fract_x
 _atom_site_fract_y
 _atom_site_fract_z
 _atom_site_occupancy
  Li  Li0  1  0.497952  0.000986  0.250000  1
  Tb  Tb1  1  0.501463  0.500895  0.250000  1
  Tb  Tb2  1  0.498647  0.498728  0.750000  1
  Tb  Tb3  1  0.249447  0.748315  0.499481  1
  Tb  Tb4  1  0.249447  0.748315  0.000519  1
  Tb  Tb5  1  0.750367  0.251781  0.499518  1
  Tb  Tb6  1  0.750367  0.251781  0.000482  1
  Y  Y7  1  0.998283  0.997683  0.250000  1
  Y  Y8  1  0.002283  0.002413  0.750000  1
  In  In9  1  0.253143  0.242905  0.007472  1
  In  In10  1  0.746803  0.757068  0.005307  1
  In  In11  1  0.253143  0.242905  0.492528  1
  In  In12  1  0.746803  0.757068  0.494693  1
  In  In13  1  0.999177  0.501668  0.750000  1
  In  In14  1  0.501563  0.999227  0.750000  1
  In  In15  1  0.001113  0.498263  0.250000  1
