# generated using pymatgen
data_Zr6Al4CoCuC2
_symmetry_space_group_name_H-M   'P 1'
_cell_length_a   8.64169461
_cell_length_b   8.64169434
_cell_length_c   8.64762800
_cell_angle_alpha   59.97729146
_cell_angle_beta   59.97729251
_cell_angle_gamma   59.97538002
_symmetry_Int_Tables_number   1
_chemical_formula_structural   Zr6Al4CoCuC2
_chemical_formula_sum   'Zr12 Al8 Co2 Cu2 C4'
_cell_volume   456.40443008
_cell_formula_units_Z   2
loop_
 _symmetry_equiv_pos_site_id
 _symmetry_equiv_pos_as_xyz
  1  'x, y, z'
loop_
 _atom_site_type_symbol
 _atom_site_label
 _atom_site_symmetry_multiplicity
 _atom_site_fract_x
 _atom_site_fract_y
 _atom_site_fract_z
 _atom_site_occupancy
  Zr  Zr0  1  0.558654  0.944187  0.554071  1
  Zr  Zr1  1  0.305813  0.691346  0.695929  1
  Zr  Zr2  1  0.691346  0.305813  0.306912  1
  Zr  Zr3  1  0.305813  0.691346  0.306912  1
  Zr  Zr4  1  0.694296  0.694296  0.305704  1
  Zr  Zr5  1  0.307111  0.307111  0.692889  1
  Zr  Zr6  1  0.555704  0.555704  0.944296  1
  Zr  Zr7  1  0.944187  0.558654  0.554071  1
  Zr  Zr8  1  0.558654  0.944187  0.943088  1
  Zr  Zr9  1  0.942889  0.942889  0.557111  1
  Zr  Zr10  1  0.691346  0.305813  0.695929  1
  Zr  Zr11  1  0.944187  0.558654  0.943088  1
  Al  Al12  1  0.917543  0.917543  0.927967  1
  Al  Al13  1  0.012727  0.336475  0.325399  1
  Al  Al14  1  0.336475  0.012727  0.325399  1
  Al  Al15  1  0.332457  0.332457  0.013052  1
  Al  Al16  1  0.913525  0.237273  0.924601  1
  Al  Al17  1  0.917543  0.917543  0.236948  1
  Al  Al18  1  0.237273  0.913525  0.924601  1
  Al  Al19  1  0.332457  0.332457  0.322033  1
  Co  Co20  1  0.625000  0.125000  0.125000  1
  Co  Co21  1  0.125000  0.625000  0.125000  1
  Cu  Cu22  1  0.125000  0.125000  0.125000  1
  Cu  Cu23  1  0.125000  0.125000  0.625000  1
  C  C24  1  0.625000  0.625000  0.625000  1
  C  C25  1  0.125000  0.625000  0.625000  1
  C  C26  1  0.625000  0.125000  0.625000  1
  C  C27  1  0.625000  0.625000  0.125000  1
