# generated using pymatgen
data_Pr16Er4Si15Tc
_symmetry_space_group_name_H-M   'P 1'
_cell_length_a   7.89183626
_cell_length_b   7.84859186
_cell_length_c   15.09804214
_cell_angle_alpha   90.17814598
_cell_angle_beta   89.93688804
_cell_angle_gamma   90.02562370
_symmetry_Int_Tables_number   1
_chemical_formula_structural   Pr16Er4Si15Tc
_chemical_formula_sum   'Pr16 Er4 Si15 Tc1'
_cell_volume   935.16455832
_cell_formula_units_Z   1
loop_
 _symmetry_equiv_pos_site_id
 _symmetry_equiv_pos_as_xyz
  1  'x, y, z'
loop_
 _atom_site_type_symbol
 _atom_site_label
 _atom_site_symmetry_multiplicity
 _atom_site_fract_x
 _atom_site_fract_y
 _atom_site_fract_z
 _atom_site_occupancy
  Pr  Pr0  1  0.371034  0.012441  0.451738  1
  Pr  Pr1  1  0.485240  0.880053  0.697822  1
  Pr  Pr2  1  0.511415  0.124536  0.199481  1
  Pr  Pr3  1  0.875834  0.487683  0.301098  1
  Pr  Pr4  1  0.128333  0.500948  0.797159  1
  Pr  Pr5  1  0.626212  0.987802  0.949046  1
  Pr  Pr6  1  0.007833  0.377253  0.551326  1
  Pr  Pr7  1  0.988561  0.625922  0.050829  1
  Pr  Pr8  1  0.131910  0.983468  0.871446  1
  Pr  Pr9  1  0.518886  0.629672  0.127089  1
  Pr  Pr10  1  0.471210  0.361144  0.630144  1
  Pr  Pr11  1  0.628652  0.517817  0.874140  1
  Pr  Pr12  1  0.374538  0.481574  0.373209  1
  Pr  Pr13  1  0.873366  0.022327  0.377077  1
  Pr  Pr14  1  0.980425  0.127527  0.123673  1
  Pr  Pr15  1  0.026674  0.881494  0.626875  1
  Er  Er16  1  0.309464  0.307921  0.998426  1
  Er  Er17  1  0.188862  0.810213  0.250936  1
  Er  Er18  1  0.821539  0.189927  0.748078  1
  Er  Er19  1  0.692752  0.689949  0.502471  1
  Si  Si20  1  0.330220  0.689975  0.953115  1
  Si  Si21  1  0.665959  0.305937  0.453819  1
  Si  Si22  1  0.693346  0.331439  0.048175  1
  Si  Si23  1  0.307753  0.669392  0.545506  1
  Si  Si24  1  0.810001  0.829803  0.205088  1
  Si  Si25  1  0.170574  0.192106  0.295847  1
  Si  Si26  1  0.829086  0.806424  0.797332  1
  Si  Si27  1  0.287513  0.923298  0.061714  1
  Si  Si28  1  0.578606  0.786485  0.313838  1
  Si  Si29  1  0.424204  0.211797  0.815665  1
  Si  Si30  1  0.777157  0.582666  0.687479  1
  Si  Si31  1  0.212219  0.424466  0.186760  1
  Si  Si32  1  0.707644  0.072616  0.561293  1
  Si  Si33  1  0.922950  0.286339  0.938137  1
  Si  Si34  1  0.078268  0.716542  0.437310  1
  Tc  Tc35  1  0.191757  0.171040  0.696860  1
