# generated using pymatgen
data_HfPa3Rh4
_symmetry_space_group_name_H-M   'P 1'
_cell_length_a   3.63513300
_cell_length_b   4.20582000
_cell_length_c   10.80099600
_cell_angle_alpha   90.00000000
_cell_angle_beta   90.00000000
_cell_angle_gamma   90.00000000
_symmetry_Int_Tables_number   1
_chemical_formula_structural   HfPa3Rh4
_chemical_formula_sum   'Hf1 Pa3 Rh4'
_cell_volume   165.13335036
_cell_formula_units_Z   1
loop_
 _symmetry_equiv_pos_site_id
 _symmetry_equiv_pos_as_xyz
  1  'x, y, z'
loop_
 _atom_site_type_symbol
 _atom_site_label
 _atom_site_symmetry_multiplicity
 _atom_site_fract_x
 _atom_site_fract_y
 _atom_site_fract_z
 _atom_site_occupancy
  Hf  Hf0  1  0.500000  0.750000  0.359793  1
  Pa  Pa1  1  0.000000  0.750000  0.862588  1
  Pa  Pa2  1  0.000000  0.250000  0.150414  1
  Pa  Pa3  1  0.500000  0.250000  0.626198  1
  Rh  Rh4  1  0.500000  0.750000  0.103797  1
  Rh  Rh5  1  0.000000  0.750000  0.592143  1
  Rh  Rh6  1  0.000000  0.250000  0.402046  1
  Rh  Rh7  1  0.500000  0.250000  0.903020  1
