# generated using pymatgen
data_Hf6Mn15Si7Ni
_symmetry_space_group_name_H-M   'P 1'
_cell_length_a   8.19414412
_cell_length_b   8.21536420
_cell_length_c   8.19414600
_cell_angle_alpha   60.08540790
_cell_angle_beta   60.00000047
_cell_angle_gamma   60.08540542
_symmetry_Int_Tables_number   1
_chemical_formula_structural   Hf6Mn15Si7Ni
_chemical_formula_sum   'Hf6 Mn15 Si7 Ni1'
_cell_volume   390.55172113
_cell_formula_units_Z   1
loop_
 _symmetry_equiv_pos_site_id
 _symmetry_equiv_pos_as_xyz
  1  'x, y, z'
loop_
 _atom_site_type_symbol
 _atom_site_label
 _atom_site_symmetry_multiplicity
 _atom_site_fract_x
 _atom_site_fract_y
 _atom_site_fract_z
 _atom_site_occupancy
  Hf  Hf0  1  0.800014  0.195713  0.800014  1
  Hf  Hf1  1  0.800495  0.804925  0.197289  1
  Hf  Hf2  1  0.197289  0.804925  0.800495  1
  Hf  Hf3  1  0.204258  0.195713  0.800014  1
  Hf  Hf4  1  0.800014  0.195713  0.204258  1
  Hf  Hf5  1  0.197289  0.804925  0.197289  1
  Mn  Mn6  1  0.175280  0.176448  0.175280  1
  Mn  Mn7  1  0.618559  0.624778  0.138105  1
  Mn  Mn8  1  0.376329  0.381091  0.376329  1
  Mn  Mn9  1  0.174655  0.476036  0.174655  1
  Mn  Mn10  1  0.175280  0.176448  0.472993  1
  Mn  Mn11  1  0.138105  0.624778  0.618559  1
  Mn  Mn12  1  0.621422  0.135735  0.621422  1
  Mn  Mn13  1  0.824369  0.822878  0.824369  1
  Mn  Mn14  1  0.866249  0.381091  0.376329  1
  Mn  Mn15  1  0.376329  0.381091  0.866249  1
  Mn  Mn16  1  0.379604  0.861188  0.379604  1
  Mn  Mn17  1  0.528384  0.822878  0.824369  1
  Mn  Mn18  1  0.618559  0.624778  0.618559  1
  Mn  Mn19  1  0.824369  0.822878  0.528384  1
  Mn  Mn20  1  0.472993  0.176448  0.175280  1
  Si  Si21  1  0.998821  0.497654  0.998821  1
  Si  Si22  1  0.501556  0.495334  0.501556  1
  Si  Si23  1  0.504702  0.497654  0.998821  1
  Si  Si24  1  0.498999  0.002519  0.498999  1
  Si  Si25  1  0.998821  0.497654  0.504702  1
  Si  Si26  1  0.999483  0.002519  0.498999  1
  Si  Si27  1  0.498999  0.002519  0.999483  1
  Ni  Ni28  1  0.828772  0.513684  0.828772  1
