# generated using pymatgen
data_Sc3In3Ag2Ru
_symmetry_space_group_name_H-M   'P 1'
_cell_length_a   7.93971700
_cell_length_b   7.93971621
_cell_length_c   3.41648100
_cell_angle_alpha   90.00000000
_cell_angle_beta   90.00000000
_cell_angle_gamma   119.99999190
_symmetry_Int_Tables_number   1
_chemical_formula_structural   Sc3In3Ag2Ru
_chemical_formula_sum   'Sc3 In3 Ag2 Ru1'
_cell_volume   186.51754035
_cell_formula_units_Z   1
loop_
 _symmetry_equiv_pos_site_id
 _symmetry_equiv_pos_as_xyz
  1  'x, y, z'
loop_
 _atom_site_type_symbol
 _atom_site_label
 _atom_site_symmetry_multiplicity
 _atom_site_fract_x
 _atom_site_fract_y
 _atom_site_fract_z
 _atom_site_occupancy
  Sc  Sc0  1  0.582029  0.953191  0.000000  1
  Sc  Sc1  1  0.371161  0.417971  0.000000  1
  Sc  Sc2  1  0.046809  0.628839  0.000000  1
  In  In3  1  0.721515  0.710334  0.500000  1
  In  In4  1  0.988818  0.278485  0.500000  1
  In  In5  1  0.289666  0.011182  0.500000  1
  Ag  Ag6  1  0.666667  0.333333  0.500000  1
  Ag  Ag7  1  0.000000  0.000000  0.000000  1
  Ru  Ru8  1  0.333333  0.666667  0.500000  1
