# generated using pymatgen
data_Cs6Lu(NpBr6)3
_symmetry_space_group_name_H-M   'P 1'
_cell_length_a   10.53113422
_cell_length_b   10.53113183
_cell_length_c   10.53113295
_cell_angle_alpha   83.45795502
_cell_angle_beta   83.45796023
_cell_angle_gamma   83.45795598
_symmetry_Int_Tables_number   1
_chemical_formula_structural   Cs6Lu(NpBr6)3
_chemical_formula_sum   'Cs6 Lu1 Np3 Br18'
_cell_volume   1146.74655462
_cell_formula_units_Z   1
loop_
 _symmetry_equiv_pos_site_id
 _symmetry_equiv_pos_as_xyz
  1  'x, y, z'
loop_
 _atom_site_type_symbol
 _atom_site_label
 _atom_site_symmetry_multiplicity
 _atom_site_fract_x
 _atom_site_fract_y
 _atom_site_fract_z
 _atom_site_occupancy
  Cs  Cs0  1  0.089658  0.748588  0.410977  1
  Cs  Cs1  1  0.748588  0.410977  0.089658  1
  Cs  Cs2  1  0.250028  0.589123  0.911581  1
  Cs  Cs3  1  0.410977  0.089658  0.748588  1
  Cs  Cs4  1  0.911581  0.250028  0.589123  1
  Cs  Cs5  1  0.589123  0.911581  0.250028  1
  Lu  Lu6  1  0.347012  0.347012  0.347012  1
  Np  Np7  1  0.651253  0.651253  0.651253  1
  Np  Np8  1  0.848861  0.848861  0.848861  1
  Np  Np9  1  0.151721  0.151721  0.151721  1
  Br  Br10  1  0.268099  0.912650  0.079280  1
  Br  Br11  1  0.732069  0.086998  0.920944  1
  Br  Br12  1  0.908254  0.591800  0.750257  1
  Br  Br13  1  0.086998  0.920944  0.732069  1
  Br  Br14  1  0.591800  0.750257  0.908254  1
  Br  Br15  1  0.416527  0.574253  0.238393  1
  Br  Br16  1  0.253239  0.100367  0.408231  1
  Br  Br17  1  0.912650  0.079280  0.268099  1
  Br  Br18  1  0.579082  0.412980  0.767776  1
  Br  Br19  1  0.079280  0.268099  0.912650  1
  Br  Br20  1  0.920944  0.732069  0.086998  1
  Br  Br21  1  0.412980  0.767776  0.579082  1
  Br  Br22  1  0.238393  0.416527  0.574253  1
  Br  Br23  1  0.750257  0.908254  0.591800  1
  Br  Br24  1  0.100367  0.408231  0.253239  1
  Br  Br25  1  0.767776  0.579082  0.412980  1
  Br  Br26  1  0.408231  0.253239  0.100367  1
  Br  Br27  1  0.574253  0.238393  0.416527  1
