# generated using pymatgen
data_La6Er4Tl3In3Br2
_symmetry_space_group_name_H-M   'P 1'
_cell_length_a   9.57931875
_cell_length_b   9.57943584
_cell_length_c   6.83224700
_cell_angle_alpha   90.00000000
_cell_angle_beta   90.00000000
_cell_angle_gamma   119.93036426
_symmetry_Int_Tables_number   1
_chemical_formula_structural   La6Er4Tl3In3Br2
_chemical_formula_sum   'La6 Er4 Tl3 In3 Br2'
_cell_volume   543.34173225
_cell_formula_units_Z   1
loop_
 _symmetry_equiv_pos_site_id
 _symmetry_equiv_pos_as_xyz
  1  'x, y, z'
loop_
 _atom_site_type_symbol
 _atom_site_label
 _atom_site_symmetry_multiplicity
 _atom_site_fract_x
 _atom_site_fract_y
 _atom_site_fract_z
 _atom_site_occupancy
  La  La0  1  0.730762  0.730782  0.250000  1
  La  La1  1  0.999600  0.730728  0.750000  1
  La  La2  1  0.731036  0.999919  0.750000  1
  La  La3  1  0.268912  0.269394  0.750000  1
  La  La4  1  0.000526  0.269549  0.250000  1
  La  La5  1  0.269137  0.000362  0.250000  1
  Er  Er6  1  0.333282  0.665699  0.500450  1
  Er  Er7  1  0.666701  0.333771  0.500409  1
  Er  Er8  1  0.333282  0.665699  0.999550  1
  Er  Er9  1  0.666701  0.333771  0.999591  1
  Tl  Tl10  1  0.393660  0.000063  0.750000  1
  Tl  Tl11  1  0.999883  0.606131  0.250000  1
  Tl  Tl12  1  0.606310  0.000075  0.250000  1
  In  In13  1  0.000032  0.393803  0.750000  1
  In  In14  1  0.394146  0.394203  0.250000  1
  In  In15  1  0.606035  0.605997  0.750000  1
  Br  Br16  1  0.999998  0.000027  0.499984  1
  Br  Br17  1  0.999998  0.000027  0.000016  1
