# generated using pymatgen
data_TbLu3Fe4(WO6)4
_symmetry_space_group_name_H-M   'P 1'
_cell_length_a   5.17238285
_cell_length_b   7.39576570
_cell_length_c   11.08675956
_cell_angle_alpha   89.88224087
_cell_angle_beta   89.91890845
_cell_angle_gamma   89.94761488
_symmetry_Int_Tables_number   1
_chemical_formula_structural   TbLu3Fe4(WO6)4
_chemical_formula_sum   'Tb1 Lu3 Fe4 W4 O24'
_cell_volume   424.10842845
_cell_formula_units_Z   1
loop_
 _symmetry_equiv_pos_site_id
 _symmetry_equiv_pos_as_xyz
  1  'x, y, z'
loop_
 _atom_site_type_symbol
 _atom_site_label
 _atom_site_symmetry_multiplicity
 _atom_site_fract_x
 _atom_site_fract_y
 _atom_site_fract_z
 _atom_site_occupancy
  Tb  Tb0  1  0.042106  0.753433  0.955358  1
  Lu  Lu1  1  0.952727  0.253479  0.045193  1
  Lu  Lu2  1  0.454532  0.753416  0.455103  1
  Lu  Lu3  1  0.545698  0.253420  0.544645  1
  Fe  Fe4  1  0.456974  0.507331  0.139596  1
  Fe  Fe5  1  0.956510  0.009096  0.361684  1
  Fe  Fe6  1  0.042698  0.508640  0.637617  1
  Fe  Fe7  1  0.541771  0.010881  0.861114  1
  W  W8  1  0.447236  0.998355  0.143604  1
  W  W9  1  0.947639  0.497356  0.357811  1
  W  W10  1  0.052648  0.997583  0.641189  1
  W  W11  1  0.551257  0.495054  0.856980  1
  O  O12  1  0.745267  0.540000  0.020883  1
  O  O13  1  0.736722  0.960698  0.029317  1
  O  O14  1  0.322946  0.755539  0.117294  1
  O  O15  1  0.573543  0.246495  0.144618  1
  O  O16  1  0.119446  0.074460  0.205675  1
  O  O17  1  0.103872  0.434133  0.211231  1
  O  O18  1  0.605257  0.934688  0.289753  1
  O  O19  1  0.621699  0.574548  0.294693  1
  O  O20  1  0.073685  0.745813  0.357592  1
  O  O21  1  0.815482  0.255730  0.385895  1
  O  O22  1  0.239829  0.455779  0.471281  1
  O  O23  1  0.249712  0.045717  0.479170  1
  O  O24  1  0.750264  0.545504  0.520194  1
  O  O25  1  0.760238  0.955915  0.528228  1
  O  O26  1  0.185169  0.755448  0.614310  1
  O  O27  1  0.926352  0.245815  0.641544  1
  O  O28  1  0.378097  0.074545  0.705401  1
  O  O29  1  0.393974  0.432783  0.711104  1
  O  O30  1  0.892565  0.935844  0.786706  1
  O  O31  1  0.877375  0.570420  0.792178  1
  O  O32  1  0.436665  0.745694  0.856727  1
  O  O33  1  0.686923  0.254568  0.885014  1
  O  O34  1  0.260577  0.453642  0.970976  1
  O  O35  1  0.252550  0.048589  0.980324  1
