# generated using pymatgen
data_CaMgAs4F24
_symmetry_space_group_name_H-M   'P 1'
_cell_length_a   9.55754671
_cell_length_b   9.55754630
_cell_length_c   9.55754612
_cell_angle_alpha   132.38714202
_cell_angle_beta   132.38713808
_cell_angle_gamma   69.61826849
_symmetry_Int_Tables_number   1
_chemical_formula_structural   CaMgAs4F24
_chemical_formula_sum   'Ca1 Mg1 As4 F24'
_cell_volume   467.17407988
_cell_formula_units_Z   1
loop_
 _symmetry_equiv_pos_site_id
 _symmetry_equiv_pos_as_xyz
  1  'x, y, z'
loop_
 _atom_site_type_symbol
 _atom_site_label
 _atom_site_symmetry_multiplicity
 _atom_site_fract_x
 _atom_site_fract_y
 _atom_site_fract_z
 _atom_site_occupancy
  Ca  Ca0  1  0.750000  0.250000  0.500000  1
  Mg  Mg1  1  0.000000  0.000000  0.000000  1
  As  As2  1  0.785008  0.785008  0.000000  1
  As  As3  1  0.214992  0.214992  0.000000  1
  As  As4  1  0.975375  0.475375  0.500000  1
  As  As5  1  0.524625  0.024625  0.500000  1
  F  F6  1  0.869178  0.758218  0.206112  1
  F  F7  1  0.552105  0.663066  0.793888  1
  F  F8  1  0.419658  0.788320  0.307582  1
  F  F9  1  0.336934  0.130822  0.889040  1
  F  F10  1  0.241782  0.447895  0.110960  1
  F  F11  1  0.211680  0.519261  0.631337  1
  F  F12  1  0.638919  0.262027  0.682292  1
  F  F13  1  0.737973  0.420265  0.376893  1
  F  F14  1  0.043373  0.361081  0.623107  1
  F  F15  1  0.088121  0.277136  0.106960  1
  F  F16  1  0.170175  0.981161  0.893040  1
  F  F17  1  0.579735  0.956627  0.317708  1
  F  F18  1  0.722864  0.829825  0.810987  1
  F  F19  1  0.018839  0.911879  0.189013  1
  F  F20  1  0.293854  0.071312  0.309900  1
  F  F21  1  0.928688  0.238588  0.222543  1
  F  F22  1  0.016046  0.706146  0.777457  1
  F  F23  1  0.436686  0.280664  0.290764  1
  F  F24  1  0.989900  0.145922  0.709236  1
  F  F25  1  0.761412  0.983954  0.690100  1
  F  F26  1  0.719336  0.010100  0.156021  1
  F  F27  1  0.854078  0.563314  0.843979  1
  F  F28  1  0.480739  0.112075  0.692418  1
  F  F29  1  0.887925  0.580342  0.368663  1
