# generated using pymatgen
data_Ta4V7Ga
_symmetry_space_group_name_H-M   'P 1'
_cell_length_a   5.01062100
_cell_length_b   5.01062155
_cell_length_c   8.38634400
_cell_angle_alpha   90.00000000
_cell_angle_beta   90.00000000
_cell_angle_gamma   119.99998976
_symmetry_Int_Tables_number   1
_chemical_formula_structural   Ta4V7Ga
_chemical_formula_sum   'Ta4 V7 Ga1'
_cell_volume   182.34191249
_cell_formula_units_Z   1
loop_
 _symmetry_equiv_pos_site_id
 _symmetry_equiv_pos_as_xyz
  1  'x, y, z'
loop_
 _atom_site_type_symbol
 _atom_site_label
 _atom_site_symmetry_multiplicity
 _atom_site_fract_x
 _atom_site_fract_y
 _atom_site_fract_z
 _atom_site_occupancy
  Ta  Ta0  1  0.333333  0.666667  0.054145  1
  Ta  Ta1  1  0.666667  0.333333  0.563474  1
  Ta  Ta2  1  0.666667  0.333333  0.945855  1
  Ta  Ta3  1  0.333333  0.666667  0.436526  1
  V  V4  1  0.000000  0.000000  0.500000  1
  V  V5  1  0.828713  0.657426  0.254504  1
  V  V6  1  0.171287  0.828713  0.745496  1
  V  V7  1  0.657426  0.828713  0.745496  1
  V  V8  1  0.342574  0.171287  0.254504  1
  V  V9  1  0.828713  0.171287  0.254504  1
  V  V10  1  0.171287  0.342574  0.745496  1
  Ga  Ga11  1  0.000000  0.000000  0.000000  1
