# generated using pymatgen
data_Cs4HoUBr12
_symmetry_space_group_name_H-M   'P 1'
_cell_length_a   8.00815400
_cell_length_b   8.00815400
_cell_length_c   11.96995000
_cell_angle_alpha   90.00000000
_cell_angle_beta   90.00000000
_cell_angle_gamma   90.00000000
_symmetry_Int_Tables_number   1
_chemical_formula_structural   Cs4HoUBr12
_chemical_formula_sum   'Cs4 Ho1 U1 Br12'
_cell_volume   767.63924342
_cell_formula_units_Z   1
loop_
 _symmetry_equiv_pos_site_id
 _symmetry_equiv_pos_as_xyz
  1  'x, y, z'
loop_
 _atom_site_type_symbol
 _atom_site_label
 _atom_site_symmetry_multiplicity
 _atom_site_fract_x
 _atom_site_fract_y
 _atom_site_fract_z
 _atom_site_occupancy
  Cs  Cs0  1  0.500000  0.000000  0.794505  1
  Cs  Cs1  1  0.500000  0.000000  0.205495  1
  Cs  Cs2  1  0.000000  0.500000  0.205495  1
  Cs  Cs3  1  0.000000  0.500000  0.794505  1
  Ho  Ho4  1  0.000000  0.000000  0.000000  1
  U  U5  1  0.500000  0.500000  0.500000  1
  Br  Br6  1  0.752569  0.246837  0.000000  1
  Br  Br7  1  0.247431  0.753163  0.000000  1
  Br  Br8  1  0.500000  0.500000  0.272170  1
  Br  Br9  1  0.322137  0.213992  0.500000  1
  Br  Br10  1  0.246837  0.247431  0.000000  1
  Br  Br11  1  0.786008  0.322137  0.500000  1
  Br  Br12  1  0.000000  0.000000  0.234391  1
  Br  Br13  1  0.677863  0.786008  0.500000  1
  Br  Br14  1  0.213992  0.677863  0.500000  1
  Br  Br15  1  0.500000  0.500000  0.727830  1
  Br  Br16  1  0.753163  0.752569  0.000000  1
  Br  Br17  1  0.000000  0.000000  0.765609  1
