# generated using pymatgen
data_Ce3Al3OsAu2
_symmetry_space_group_name_H-M   'P 1'
_cell_length_a   7.29123600
_cell_length_b   7.29123585
_cell_length_c   4.15619100
_cell_angle_alpha   90.00000000
_cell_angle_beta   90.00000000
_cell_angle_gamma   119.99999163
_symmetry_Int_Tables_number   1
_chemical_formula_structural   Ce3Al3OsAu2
_chemical_formula_sum   'Ce3 Al3 Os1 Au2'
_cell_volume   191.35000055
_cell_formula_units_Z   1
loop_
 _symmetry_equiv_pos_site_id
 _symmetry_equiv_pos_as_xyz
  1  'x, y, z'
loop_
 _atom_site_type_symbol
 _atom_site_label
 _atom_site_symmetry_multiplicity
 _atom_site_fract_x
 _atom_site_fract_y
 _atom_site_fract_z
 _atom_site_occupancy
  Ce  Ce0  1  0.016051  0.582574  0.500000  1
  Ce  Ce1  1  0.417426  0.433477  0.500000  1
  Ce  Ce2  1  0.566523  0.983949  0.500000  1
  Al  Al3  1  0.012246  0.248523  0.000000  1
  Al  Al4  1  0.751477  0.763723  0.000000  1
  Al  Al5  1  0.236277  0.987754  0.000000  1
  Os  Os6  1  0.333333  0.666667  0.000000  1
  Au  Au7  1  0.000000  0.000000  0.500000  1
  Au  Au8  1  0.666667  0.333333  0.000000  1
