# generated using pymatgen
data_Na3Y2P12Ru8Rh11
_symmetry_space_group_name_H-M   'P 1'
_cell_length_a   12.54305900
_cell_length_b   12.57901786
_cell_length_c   3.95653600
_cell_angle_alpha   90.00000000
_cell_angle_beta   90.00000000
_cell_angle_gamma   120.09486852
_symmetry_Int_Tables_number   1
_chemical_formula_structural   Na3Y2P12Ru8Rh11
_chemical_formula_sum   'Na3 Y2 P12 Ru8 Rh11'
_cell_volume   540.10722971
_cell_formula_units_Z   1
loop_
 _symmetry_equiv_pos_site_id
 _symmetry_equiv_pos_as_xyz
  1  'x, y, z'
loop_
 _atom_site_type_symbol
 _atom_site_label
 _atom_site_symmetry_multiplicity
 _atom_site_fract_x
 _atom_site_fract_y
 _atom_site_fract_z
 _atom_site_occupancy
  Na  Na0  1  0.000000  0.182518  0.500000  1
  Na  Na1  1  0.817581  0.818276  0.500000  1
  Na  Na2  1  0.182419  0.000694  0.500000  1
  Y  Y3  1  0.666284  0.332481  0.000000  1
  Y  Y4  1  0.333716  0.666198  0.000000  1
  P  P5  1  0.000000  0.820009  0.000000  1
  P  P6  1  0.181969  0.182296  0.000000  1
  P  P7  1  0.818031  0.000326  0.000000  1
  P  P8  1  0.689265  0.168541  0.500000  1
  P  P9  1  0.828636  0.517393  0.500000  1
  P  P10  1  0.479423  0.310089  0.500000  1
  P  P11  1  0.171364  0.688756  0.500000  1
  P  P12  1  0.520577  0.830666  0.500000  1
  P  P13  1  0.310735  0.479276  0.500000  1
  P  P14  1  0.000000  0.370092  0.000000  1
  P  P15  1  0.630177  0.630993  0.000000  1
  P  P16  1  0.369823  0.000816  0.000000  1
  Ru  Ru17  1  0.282789  0.282973  0.500000  1
  Ru  Ru18  1  0.717211  0.000183  0.500000  1
  Ru  Ru19  1  0.873162  0.361953  0.500000  1
  Ru  Ru20  1  0.638216  0.511251  0.500000  1
  Ru  Ru21  1  0.487682  0.125572  0.500000  1
  Ru  Ru22  1  0.361784  0.873035  0.500000  1
  Ru  Ru23  1  0.512318  0.637890  0.500000  1
  Ru  Ru24  1  0.126838  0.488790  0.500000  1
  Rh  Rh25  1  0.000000  0.550111  0.000000  1
  Rh  Rh26  1  0.450291  0.450402  0.000000  1
  Rh  Rh27  1  0.549709  0.000112  0.000000  1
  Rh  Rh28  1  0.000000  0.716233  0.500000  1
  Rh  Rh29  1  0.807153  0.184559  0.000000  1
  Rh  Rh30  1  0.816747  0.624078  0.000000  1
  Rh  Rh31  1  0.377320  0.193287  0.000000  1
  Rh  Rh32  1  0.183253  0.807330  0.000000  1
  Rh  Rh33  1  0.622680  0.815966  0.000000  1
  Rh  Rh34  1  0.192847  0.377404  0.000000  1
  Rh  Rh35  1  0.000000  0.999450  0.000000  1
