# generated using pymatgen
data_Ho2Tm3Os2
_symmetry_space_group_name_H-M   'P 1'
_cell_length_a   6.29349037
_cell_length_b   7.32213736
_cell_length_c   8.32145548
_cell_angle_alpha   97.02260574
_cell_angle_beta   112.21903761
_cell_angle_gamma   90.00000666
_symmetry_Int_Tables_number   1
_chemical_formula_structural   Ho2Tm3Os2
_chemical_formula_sum   'Ho4 Tm6 Os4'
_cell_volume   351.88376855
_cell_formula_units_Z   2
loop_
 _symmetry_equiv_pos_site_id
 _symmetry_equiv_pos_as_xyz
  1  'x, y, z'
loop_
 _atom_site_type_symbol
 _atom_site_label
 _atom_site_symmetry_multiplicity
 _atom_site_fract_x
 _atom_site_fract_y
 _atom_site_fract_z
 _atom_site_occupancy
  Ho  Ho0  1  0.791850  0.083389  0.816384  1
  Ho  Ho1  1  0.975466  0.416611  0.183616  1
  Ho  Ho2  1  0.208150  0.916611  0.183616  1
  Ho  Ho3  1  0.024534  0.583389  0.816384  1
  Tm  Tm4  1  0.203377  0.182585  0.564423  1
  Tm  Tm5  1  0.638955  0.317415  0.435577  1
  Tm  Tm6  1  0.796623  0.817415  0.435577  1
  Tm  Tm7  1  0.361045  0.682585  0.564423  1
  Tm  Tm8  1  0.420600  0.250000  0.000000  1
  Tm  Tm9  1  0.579400  0.750000  0.000000  1
  Os  Os10  1  0.601093  0.422203  0.780028  1
  Os  Os11  1  0.821064  0.077797  0.219972  1
  Os  Os12  1  0.398907  0.577797  0.219972  1
  Os  Os13  1  0.178936  0.922203  0.780028  1
