# generated using pymatgen
data_Y20TcHg6Pd
_symmetry_space_group_name_H-M   'P 1'
_cell_length_a   9.69603400
_cell_length_b   9.69603274
_cell_length_c   9.70969600
_cell_angle_alpha   90.00000000
_cell_angle_beta   90.00000000
_cell_angle_gamma   120.00003158
_symmetry_Int_Tables_number   1
_chemical_formula_structural   Y20TcHg6Pd
_chemical_formula_sum   'Y20 Tc1 Hg6 Pd1'
_cell_volume   790.54087392
_cell_formula_units_Z   1
loop_
 _symmetry_equiv_pos_site_id
 _symmetry_equiv_pos_as_xyz
  1  'x, y, z'
loop_
 _atom_site_type_symbol
 _atom_site_label
 _atom_site_symmetry_multiplicity
 _atom_site_fract_x
 _atom_site_fract_y
 _atom_site_fract_z
 _atom_site_occupancy
  Y  Y0  1  0.208966  0.791034  0.939839  1
  Y  Y1  1  0.208966  0.417932  0.939838  1
  Y  Y2  1  0.582068  0.791034  0.939838  1
  Y  Y3  1  0.792984  0.207016  0.058115  1
  Y  Y4  1  0.792984  0.585967  0.058115  1
  Y  Y5  1  0.414033  0.207016  0.058115  1
  Y  Y6  1  0.792984  0.207016  0.441885  1
  Y  Y7  1  0.792984  0.585967  0.441885  1
  Y  Y8  1  0.414033  0.207016  0.441885  1
  Y  Y9  1  0.208966  0.791034  0.560161  1
  Y  Y10  1  0.208966  0.417932  0.560162  1
  Y  Y11  1  0.582068  0.791034  0.560162  1
  Y  Y12  1  0.539528  0.460472  0.750000  1
  Y  Y13  1  0.539528  0.079056  0.750000  1
  Y  Y14  1  0.920944  0.460472  0.750000  1
  Y  Y15  1  0.457238  0.542762  0.250000  1
  Y  Y16  1  0.457239  0.914477  0.250000  1
  Y  Y17  1  0.085522  0.542761  0.250000  1
  Y  Y18  1  0.000000  0.000000  0.000507  1
  Y  Y19  1  0.000000  0.000000  0.499493  1
  Tc  Tc20  1  0.333333  0.666667  0.750000  1
  Hg  Hg21  1  0.880742  0.119259  0.750000  1
  Hg  Hg22  1  0.880741  0.761483  0.750000  1
  Hg  Hg23  1  0.238517  0.119259  0.750000  1
  Hg  Hg24  1  0.119214  0.880786  0.250000  1
  Hg  Hg25  1  0.119214  0.238427  0.250000  1
  Hg  Hg26  1  0.761573  0.880786  0.250000  1
  Pd  Pd27  1  0.666666  0.333333  0.250000  1
