# generated using pymatgen
data_Ta5Nb7(Zn6N)2
_symmetry_space_group_name_H-M   'P 1'
_cell_length_a   8.18773013
_cell_length_b   8.18639113
_cell_length_c   8.18102857
_cell_angle_alpha   60.03424551
_cell_angle_beta   59.96535359
_cell_angle_gamma   60.05956647
_symmetry_Int_Tables_number   1
_chemical_formula_structural   Ta5Nb7(Zn6N)2
_chemical_formula_sum   'Ta5 Nb7 Zn12 N2'
_cell_volume   387.92022069
_cell_formula_units_Z   1
loop_
 _symmetry_equiv_pos_site_id
 _symmetry_equiv_pos_as_xyz
  1  'x, y, z'
loop_
 _atom_site_type_symbol
 _atom_site_label
 _atom_site_symmetry_multiplicity
 _atom_site_fract_x
 _atom_site_fract_y
 _atom_site_fract_z
 _atom_site_occupancy
  Ta  Ta0  1  0.060903  0.438039  0.440234  1
  Ta  Ta1  1  0.189278  0.189303  0.810160  1
  Ta  Ta2  1  0.811183  0.189240  0.189522  1
  Ta  Ta3  1  0.811829  0.189307  0.809397  1
  Ta  Ta4  1  0.060847  0.061132  0.438923  1
  Nb  Nb5  1  0.189324  0.810081  0.189773  1
  Nb  Nb6  1  0.440679  0.059858  0.440018  1
  Nb  Nb7  1  0.439364  0.061084  0.060569  1
  Nb  Nb8  1  0.440758  0.437955  0.060621  1
  Nb  Nb9  1  0.189309  0.810809  0.810343  1
  Nb  Nb10  1  0.059582  0.439349  0.059379  1
  Nb  Nb11  1  0.811374  0.809508  0.189658  1
  Zn  Zn12  1  0.833254  0.500332  0.833039  1
  Zn  Zn13  1  0.417242  0.416941  0.748561  1
  Zn  Zn14  1  0.749326  0.416600  0.417196  1
  Zn  Zn15  1  0.416827  0.416937  0.417245  1
  Zn  Zn16  1  0.833121  0.833178  0.500957  1
  Zn  Zn17  1  0.416766  0.748753  0.417253  1
  Zn  Zn18  1  0.832842  0.833484  0.832596  1
  Zn  Zn19  1  0.501176  0.833229  0.832864  1
  Zn  Zn20  1  0.625175  0.124949  0.624894  1
  Zn  Zn21  1  0.625127  0.624834  0.124926  1
  Zn  Zn22  1  0.124843  0.624939  0.624993  1
  Zn  Zn23  1  0.625314  0.624774  0.625033  1
  N  N24  1  0.998088  0.004848  0.998700  1
  N  N25  1  0.246469  0.250536  0.253147  1
