# generated using pymatgen
data_Ho10In3Fe
_symmetry_space_group_name_H-M   'P 1'
_cell_length_a   9.64188300
_cell_length_b   9.64188445
_cell_length_c   9.68060600
_cell_angle_alpha   90.00000000
_cell_angle_beta   90.00000000
_cell_angle_gamma   119.99999847
_symmetry_Int_Tables_number   1
_chemical_formula_structural   Ho10In3Fe
_chemical_formula_sum   'Ho20 In6 Fe2'
_cell_volume   779.39382871
_cell_formula_units_Z   2
loop_
 _symmetry_equiv_pos_site_id
 _symmetry_equiv_pos_as_xyz
  1  'x, y, z'
loop_
 _atom_site_type_symbol
 _atom_site_label
 _atom_site_symmetry_multiplicity
 _atom_site_fract_x
 _atom_site_fract_y
 _atom_site_fract_z
 _atom_site_occupancy
  Ho  Ho0  1  0.000000  0.000000  0.500000  1
  Ho  Ho1  1  0.000000  0.000000  0.000000  1
  Ho  Ho2  1  0.540050  0.459950  0.250000  1
  Ho  Ho3  1  0.540050  0.080098  0.250000  1
  Ho  Ho4  1  0.919902  0.459950  0.250000  1
  Ho  Ho5  1  0.459950  0.540050  0.750000  1
  Ho  Ho6  1  0.459950  0.919902  0.750000  1
  Ho  Ho7  1  0.080098  0.540050  0.750000  1
  Ho  Ho8  1  0.211867  0.788133  0.435507  1
  Ho  Ho9  1  0.211867  0.423736  0.435507  1
  Ho  Ho10  1  0.576264  0.788133  0.435507  1
  Ho  Ho11  1  0.788133  0.211867  0.564493  1
  Ho  Ho12  1  0.788133  0.576264  0.564493  1
  Ho  Ho13  1  0.423736  0.211867  0.564493  1
  Ho  Ho14  1  0.788133  0.211867  0.935507  1
  Ho  Ho15  1  0.788133  0.576264  0.935507  1
  Ho  Ho16  1  0.423736  0.211867  0.935507  1
  Ho  Ho17  1  0.211867  0.788133  0.064493  1
  Ho  Ho18  1  0.211867  0.423736  0.064493  1
  Ho  Ho19  1  0.576264  0.788133  0.064493  1
  In  In20  1  0.883692  0.116308  0.250000  1
  In  In21  1  0.883692  0.767384  0.250000  1
  In  In22  1  0.232616  0.116308  0.250000  1
  In  In23  1  0.116308  0.883692  0.750000  1
  In  In24  1  0.116308  0.232616  0.750000  1
  In  In25  1  0.767384  0.883692  0.750000  1
  Fe  Fe26  1  0.333333  0.666667  0.250000  1
  Fe  Fe27  1  0.666667  0.333333  0.750000  1
