# generated using pymatgen
data_Rb2TaOsBr12
_symmetry_space_group_name_H-M   'P 1'
_cell_length_a   7.32134631
_cell_length_b   7.32033476
_cell_length_c   13.07823677
_cell_angle_alpha   79.62327737
_cell_angle_beta   79.25983822
_cell_angle_gamma   56.20750842
_symmetry_Int_Tables_number   1
_chemical_formula_structural   Rb2TaOsBr12
_chemical_formula_sum   'Rb2 Ta1 Os1 Br12'
_cell_volume   569.78855069
_cell_formula_units_Z   1
loop_
 _symmetry_equiv_pos_site_id
 _symmetry_equiv_pos_as_xyz
  1  'x, y, z'
loop_
 _atom_site_type_symbol
 _atom_site_label
 _atom_site_symmetry_multiplicity
 _atom_site_fract_x
 _atom_site_fract_y
 _atom_site_fract_z
 _atom_site_occupancy
  Rb  Rb0  1  0.915539  0.086173  0.748365  1
  Rb  Rb1  1  0.084461  0.913827  0.251635  1
  Ta  Ta2  1  0.000000  0.500000  0.000000  1
  Os  Os3  1  0.500000  0.000000  0.500000  1
  Br  Br4  1  0.529040  0.306717  0.398119  1
  Br  Br5  1  0.314547  0.525923  0.894922  1
  Br  Br6  1  0.685453  0.474077  0.105078  1
  Br  Br7  1  0.382536  0.190180  0.661830  1
  Br  Br8  1  0.617464  0.809820  0.338170  1
  Br  Br9  1  0.106395  0.198875  0.466969  1
  Br  Br10  1  0.893605  0.801125  0.533031  1
  Br  Br11  1  0.470960  0.693283  0.601881  1
  Br  Br12  1  0.202564  0.098611  0.965994  1
  Br  Br13  1  0.808358  0.618311  0.835678  1
  Br  Br14  1  0.191642  0.381689  0.164322  1
  Br  Br15  1  0.797436  0.901389  0.034006  1
