# generated using pymatgen
data_HgPt3RhPb3O14
_symmetry_space_group_name_H-M   'P 1'
_cell_length_a   7.40161162
_cell_length_b   7.29317552
_cell_length_c   7.40161100
_cell_angle_alpha   59.50692343
_cell_angle_beta   59.99998934
_cell_angle_gamma   59.50692705
_symmetry_Int_Tables_number   1
_chemical_formula_structural   HgPt3RhPb3O14
_chemical_formula_sum   'Hg1 Pt3 Rh1 Pb3 O14'
_cell_volume   280.39930624
_cell_formula_units_Z   1
loop_
 _symmetry_equiv_pos_site_id
 _symmetry_equiv_pos_as_xyz
  1  'x, y, z'
loop_
 _atom_site_type_symbol
 _atom_site_label
 _atom_site_symmetry_multiplicity
 _atom_site_fract_x
 _atom_site_fract_y
 _atom_site_fract_z
 _atom_site_occupancy
  Hg  Hg0  1  0.125000  0.625000  0.125000  1
  Pt  Pt1  1  0.625000  0.625000  0.125000  1
  Pt  Pt2  1  0.625000  0.625000  0.625000  1
  Pt  Pt3  1  0.125000  0.625000  0.625000  1
  Rh  Rh4  1  0.625000  0.125000  0.625000  1
  Pb  Pb5  1  0.125000  0.125000  0.125000  1
  Pb  Pb6  1  0.625000  0.125000  0.125000  1
  Pb  Pb7  1  0.125000  0.125000  0.625000  1
  O  O8  1  0.708476  0.289651  0.293398  1
  O  O9  1  0.708476  0.289651  0.708476  1
  O  O10  1  0.996779  0.009663  0.996779  1
  O  O11  1  0.293342  0.709269  0.293342  1
  O  O12  1  0.704048  0.709269  0.293342  1
  O  O13  1  0.956658  0.540731  0.545952  1
  O  O14  1  0.293342  0.709269  0.704048  1
  O  O15  1  0.253221  0.240337  0.253221  1
  O  O16  1  0.956658  0.540731  0.956658  1
  O  O17  1  0.541524  0.960349  0.541524  1
  O  O18  1  0.545952  0.540731  0.956658  1
  O  O19  1  0.956602  0.960349  0.541524  1
  O  O20  1  0.541524  0.960349  0.956602  1
  O  O21  1  0.293398  0.289651  0.708476  1
