# generated using pymatgen
data_Th4Nb3WC8
_symmetry_space_group_name_H-M   'P 1'
_cell_length_a   3.52726600
_cell_length_b   5.97508100
_cell_length_c   11.31980701
_cell_angle_alpha   89.99726660
_cell_angle_beta   90.00000000
_cell_angle_gamma   90.00000000
_symmetry_Int_Tables_number   1
_chemical_formula_structural   Th4Nb3WC8
_chemical_formula_sum   'Th4 Nb3 W1 C8'
_cell_volume   238.57285694
_cell_formula_units_Z   1
loop_
 _symmetry_equiv_pos_site_id
 _symmetry_equiv_pos_as_xyz
  1  'x, y, z'
loop_
 _atom_site_type_symbol
 _atom_site_label
 _atom_site_symmetry_multiplicity
 _atom_site_fract_x
 _atom_site_fract_y
 _atom_site_fract_z
 _atom_site_occupancy
  Th  Th0  1  0.250000  0.582774  0.859553  1
  Th  Th1  1  0.750000  0.416745  0.140698  1
  Th  Th2  1  0.750000  0.916485  0.361180  1
  Th  Th3  1  0.250000  0.081905  0.638196  1
  Nb  Nb4  1  0.250000  0.914976  0.108777  1
  Nb  Nb5  1  0.750000  0.084821  0.893947  1
  Nb  Nb6  1  0.750000  0.584621  0.604843  1
  W  W7  1  0.250000  0.414617  0.393081  1
  C  C8  1  0.250000  0.659383  0.253178  1
  C  C9  1  0.750000  0.334176  0.750800  1
  C  C10  1  0.750000  0.835446  0.745190  1
  C  C11  1  0.250000  0.170599  0.258724  1
  C  C12  1  0.250000  0.717022  0.512233  1
  C  C13  1  0.750000  0.286223  0.476780  1
  C  C14  1  0.750000  0.778832  0.016227  1
  C  C15  1  0.250000  0.221374  0.986592  1
