# generated using pymatgen
data_CeDy(PuB8)2
_symmetry_space_group_name_H-M   'P 1'
_cell_length_a   7.12226875
_cell_length_b   7.12395467
_cell_length_c   4.02997000
_cell_angle_alpha   90.00000000
_cell_angle_beta   90.00000000
_cell_angle_gamma   90.34990747
_symmetry_Int_Tables_number   1
_chemical_formula_structural   CeDy(PuB8)2
_chemical_formula_sum   'Ce1 Dy1 Pu2 B16'
_cell_volume   204.47170528
_cell_formula_units_Z   1
loop_
 _symmetry_equiv_pos_site_id
 _symmetry_equiv_pos_as_xyz
  1  'x, y, z'
loop_
 _atom_site_type_symbol
 _atom_site_label
 _atom_site_symmetry_multiplicity
 _atom_site_fract_x
 _atom_site_fract_y
 _atom_site_fract_z
 _atom_site_occupancy
  Ce  Ce0  1  0.813205  0.313822  0.000000  1
  Dy  Dy1  1  0.315356  0.184253  0.000000  1
  Pu  Pu2  1  0.187216  0.687387  0.000000  1
  Pu  Pu3  1  0.686747  0.813229  0.000000  1
  B  B4  1  0.321378  0.462877  0.500000  1
  B  B5  1  0.675245  0.539683  0.500000  1
  B  B6  1  0.537317  0.324613  0.500000  1
  B  B7  1  0.460037  0.677888  0.500000  1
  B  B8  1  0.001885  0.999088  0.201467  1
  B  B9  1  0.498023  0.500624  0.798506  1
  B  B10  1  0.001885  0.999088  0.798533  1
  B  B11  1  0.498023  0.500624  0.201494  1
  B  B12  1  0.588424  0.087992  0.500000  1
  B  B13  1  0.086274  0.413531  0.500000  1
  B  B14  1  0.912395  0.587216  0.500000  1
  B  B15  1  0.413124  0.912861  0.500000  1
  B  B16  1  0.039179  0.175851  0.500000  1
  B  B17  1  0.177783  0.960091  0.500000  1
  B  B18  1  0.824369  0.037157  0.500000  1
  B  B19  1  0.962135  0.822124  0.500000  1
