# generated using pymatgen
data_CeEr3CdFe
_symmetry_space_group_name_H-M   'P 1'
_cell_length_a   9.41014867
_cell_length_b   9.41014782
_cell_length_c   9.41014800
_cell_angle_alpha   59.99999936
_cell_angle_beta   60.00000237
_cell_angle_gamma   59.99999248
_symmetry_Int_Tables_number   1
_chemical_formula_structural   CeEr3CdFe
_chemical_formula_sum   'Ce4 Er12 Cd4 Fe4'
_cell_volume   589.21577781
_cell_formula_units_Z   4
loop_
 _symmetry_equiv_pos_site_id
 _symmetry_equiv_pos_as_xyz
  1  'x, y, z'
loop_
 _atom_site_type_symbol
 _atom_site_label
 _atom_site_symmetry_multiplicity
 _atom_site_fract_x
 _atom_site_fract_y
 _atom_site_fract_z
 _atom_site_occupancy
  Ce  Ce0  1  0.591626  0.591626  0.591626  1
  Ce  Ce1  1  0.591626  0.591626  0.225121  1
  Ce  Ce2  1  0.591626  0.225121  0.591626  1
  Ce  Ce3  1  0.225121  0.591626  0.591626  1
  Er  Er4  1  0.062413  0.437587  0.437587  1
  Er  Er5  1  0.437587  0.062413  0.062413  1
  Er  Er6  1  0.437587  0.062413  0.437587  1
  Er  Er7  1  0.062413  0.437587  0.062413  1
  Er  Er8  1  0.437587  0.437587  0.062413  1
  Er  Er9  1  0.062413  0.062413  0.437587  1
  Er  Er10  1  0.188364  0.811636  0.811636  1
  Er  Er11  1  0.811636  0.188364  0.188364  1
  Er  Er12  1  0.811636  0.188364  0.811636  1
  Er  Er13  1  0.188364  0.811636  0.188364  1
  Er  Er14  1  0.811636  0.811636  0.188364  1
  Er  Er15  1  0.188364  0.188364  0.811636  1
  Cd  Cd16  1  0.830784  0.830784  0.830784  1
  Cd  Cd17  1  0.830784  0.830784  0.507647  1
  Cd  Cd18  1  0.830784  0.507647  0.830784  1
  Cd  Cd19  1  0.507647  0.830784  0.830784  1
  Fe  Fe20  1  0.397303  0.397303  0.397303  1
  Fe  Fe21  1  0.397303  0.397303  0.808089  1
  Fe  Fe22  1  0.397303  0.808089  0.397303  1
  Fe  Fe23  1  0.808089  0.397303  0.397303  1
