# generated using pymatgen
data_Ta5Nb5Si5Pt
_symmetry_space_group_name_H-M   'P 1'
_cell_length_a   7.56860274
_cell_length_b   7.56735287
_cell_length_c   7.57456595
_cell_angle_alpha   127.84731074
_cell_angle_beta   127.83502844
_cell_angle_gamma   76.85744355
_symmetry_Int_Tables_number   1
_chemical_formula_structural   Ta5Nb5Si5Pt
_chemical_formula_sum   'Ta5 Nb5 Si5 Pt1'
_cell_volume   262.72347708
_cell_formula_units_Z   1
loop_
 _symmetry_equiv_pos_site_id
 _symmetry_equiv_pos_as_xyz
  1  'x, y, z'
loop_
 _atom_site_type_symbol
 _atom_site_label
 _atom_site_symmetry_multiplicity
 _atom_site_fract_x
 _atom_site_fract_y
 _atom_site_fract_z
 _atom_site_occupancy
  Ta  Ta0  1  0.310007  0.479943  0.492063  1
  Ta  Ta1  1  0.480841  0.988169  0.170922  1
  Ta  Ta2  1  0.817093  0.310243  0.829392  1
  Ta  Ta3  1  0.998571  0.998662  0.000400  1
  Ta  Ta4  1  0.501476  0.501263  0.999687  1
  Nb  Nb5  1  0.020601  0.190926  0.509313  1
  Nb  Nb6  1  0.681768  0.511212  0.490166  1
  Nb  Nb7  1  0.512203  0.021542  0.829741  1
  Nb  Nb8  1  0.191651  0.682126  0.170265  1
  Nb  Nb9  1  0.988031  0.817595  0.509280  1
  Si  Si10  1  0.249727  0.249816  0.000506  1
  Si  Si11  1  0.369942  0.129359  0.499580  1
  Si  Si12  1  0.629693  0.870543  0.500153  1
  Si  Si13  1  0.870617  0.370245  0.240847  1
  Si  Si14  1  0.129583  0.629487  0.759202  1
  Pt  Pt15  1  0.748196  0.748868  0.998484  1
