# generated using pymatgen
data_NaSn3SbSe5
_symmetry_space_group_name_H-M   'P 1'
_cell_length_a   17.91810437
_cell_length_b   17.91810454
_cell_length_c   17.91810564
_cell_angle_alpha   13.61159618
_cell_angle_beta   13.61159425
_cell_angle_gamma   13.61159355
_symmetry_Int_Tables_number   1
_chemical_formula_structural   NaSn3SbSe5
_chemical_formula_sum   'Na1 Sn3 Sb1 Se5'
_cell_volume   277.22447943
_cell_formula_units_Z   1
loop_
 _symmetry_equiv_pos_site_id
 _symmetry_equiv_pos_as_xyz
  1  'x, y, z'
loop_
 _atom_site_type_symbol
 _atom_site_label
 _atom_site_symmetry_multiplicity
 _atom_site_fract_x
 _atom_site_fract_y
 _atom_site_fract_z
 _atom_site_occupancy
  Na  Na0  1  0.102136  0.102136  0.102136  1
  Sn  Sn1  1  0.299525  0.299525  0.299525  1
  Sn  Sn2  1  0.898261  0.898261  0.898261  1
  Sn  Sn3  1  0.497831  0.497831  0.497831  1
  Sb  Sb4  1  0.702507  0.702507  0.702507  1
  Se  Se5  1  0.004582  0.004582  0.004582  1
  Se  Se6  1  0.603525  0.603525  0.603525  1
  Se  Se7  1  0.203563  0.203563  0.203563  1
  Se  Se8  1  0.803675  0.803675  0.803675  1
  Se  Se9  1  0.398197  0.398197  0.398197  1
