# generated using pymatgen
data_K5FeS4
_symmetry_space_group_name_H-M   'P 1'
_cell_length_a   12.14334000
_cell_length_b   12.39480000
_cell_length_c   15.11355900
_cell_angle_alpha   90.00000000
_cell_angle_beta   90.00000000
_cell_angle_gamma   90.00000000
_symmetry_Int_Tables_number   1
_chemical_formula_structural   K5FeS4
_chemical_formula_sum   'K40 Fe8 S32'
_cell_volume   2274.80630954
_cell_formula_units_Z   8
loop_
 _symmetry_equiv_pos_site_id
 _symmetry_equiv_pos_as_xyz
  1  'x, y, z'
loop_
 _atom_site_type_symbol
 _atom_site_label
 _atom_site_symmetry_multiplicity
 _atom_site_fract_x
 _atom_site_fract_y
 _atom_site_fract_z
 _atom_site_occupancy
  K  K0  1  0.053981  0.339103  0.279592  1
  K  K1  1  0.553981  0.160897  0.720408  1
  K  K2  1  0.946019  0.839103  0.220408  1
  K  K3  1  0.446019  0.660897  0.779592  1
  K  K4  1  0.946019  0.660897  0.720408  1
  K  K5  1  0.446019  0.839103  0.279592  1
  K  K6  1  0.053981  0.160897  0.779592  1
  K  K7  1  0.553981  0.339103  0.220408  1
  K  K8  1  0.385804  0.013702  0.059842  1
  K  K9  1  0.885804  0.486298  0.940158  1
  K  K10  1  0.614196  0.513702  0.440158  1
  K  K11  1  0.114196  0.986298  0.559842  1
  K  K12  1  0.614196  0.986298  0.940158  1
  K  K13  1  0.114196  0.513702  0.059842  1
  K  K14  1  0.385804  0.486298  0.559842  1
  K  K15  1  0.885804  0.013702  0.440158  1
  K  K16  1  0.058853  0.069954  0.107182  1
  K  K17  1  0.558853  0.430046  0.892818  1
  K  K18  1  0.941147  0.569954  0.392818  1
  K  K19  1  0.441147  0.930046  0.607182  1
  K  K20  1  0.941147  0.930046  0.892818  1
  K  K21  1  0.441147  0.569954  0.107182  1
  K  K22  1  0.058853  0.430046  0.607182  1
  K  K23  1  0.558853  0.069954  0.392818  1
  K  K24  1  0.178383  0.648147  0.267035  1
  K  K25  1  0.678383  0.851853  0.732965  1
  K  K26  1  0.821617  0.148147  0.232965  1
  K  K27  1  0.321617  0.351853  0.767035  1
  K  K28  1  0.821617  0.351853  0.732965  1
  K  K29  1  0.321617  0.148147  0.267035  1
  K  K30  1  0.178383  0.851853  0.767035  1
  K  K31  1  0.678383  0.648147  0.232965  1
  K  K32  1  0.271898  0.789246  0.985413  1
  K  K33  1  0.771898  0.710754  0.014587  1
  K  K34  1  0.728102  0.289246  0.514587  1
  K  K35  1  0.228102  0.210754  0.485413  1
  K  K36  1  0.728102  0.210754  0.014587  1
  K  K37  1  0.228102  0.289246  0.985413  1
  K  K38  1  0.271898  0.710754  0.485413  1
  K  K39  1  0.771898  0.789246  0.514587  1
  Fe  Fe40  1  0.164781  0.935370  0.336115  1
  Fe  Fe41  1  0.664781  0.564630  0.663885  1
  Fe  Fe42  1  0.835219  0.435370  0.163885  1
  Fe  Fe43  1  0.335219  0.064630  0.836115  1
  Fe  Fe44  1  0.835219  0.064630  0.663885  1
  Fe  Fe45  1  0.335219  0.435370  0.336115  1
  Fe  Fe46  1  0.164781  0.564630  0.836115  1
  Fe  Fe47  1  0.664781  0.935370  0.163885  1
  S  S48  1  0.071107  0.095007  0.321612  1
  S  S49  1  0.571107  0.404993  0.678388  1
  S  S50  1  0.928893  0.595007  0.178388  1
  S  S51  1  0.428893  0.904993  0.821612  1
  S  S52  1  0.928893  0.904993  0.678388  1
  S  S53  1  0.428893  0.595007  0.321612  1
  S  S54  1  0.071107  0.404993  0.821612  1
  S  S55  1  0.571107  0.095007  0.178388  1
  S  S56  1  0.317285  0.964966  0.425550  1
  S  S57  1  0.817285  0.535034  0.574450  1
  S  S58  1  0.682715  0.464966  0.074450  1
  S  S59  1  0.182715  0.035034  0.925550  1
  S  S60  1  0.682715  0.035034  0.574450  1
  S  S61  1  0.182715  0.464966  0.425550  1
  S  S62  1  0.317285  0.535034  0.925550  1
  S  S63  1  0.817285  0.964966  0.074450  1
  S  S64  1  0.214088  0.886040  0.194018  1
  S  S65  1  0.714088  0.613960  0.805982  1
  S  S66  1  0.785912  0.386040  0.305982  1
  S  S67  1  0.285912  0.113960  0.694018  1
  S  S68  1  0.785912  0.113960  0.805982  1
  S  S69  1  0.285912  0.386040  0.194018  1
  S  S70  1  0.214088  0.613960  0.694018  1
  S  S71  1  0.714088  0.886040  0.305982  1
  S  S72  1  0.054968  0.810616  0.406487  1
  S  S73  1  0.554968  0.689384  0.593513  1
  S  S74  1  0.945032  0.310616  0.093513  1
  S  S75  1  0.445032  0.189384  0.906487  1
  S  S76  1  0.945032  0.189384  0.593513  1
  S  S77  1  0.445032  0.310616  0.406487  1
  S  S78  1  0.054968  0.689384  0.906487  1
  S  S79  1  0.554968  0.810616  0.093513  1
