# generated using pymatgen
data_Zr3Ga2PRu3
_symmetry_space_group_name_H-M   'P 1'
_cell_length_a   6.79950500
_cell_length_b   6.79950520
_cell_length_c   3.69783100
_cell_angle_alpha   90.00000000
_cell_angle_beta   90.00000000
_cell_angle_gamma   120.00000391
_symmetry_Int_Tables_number   1
_chemical_formula_structural   Zr3Ga2PRu3
_chemical_formula_sum   'Zr3 Ga2 P1 Ru3'
_cell_volume   148.05813718
_cell_formula_units_Z   1
loop_
 _symmetry_equiv_pos_site_id
 _symmetry_equiv_pos_as_xyz
  1  'x, y, z'
loop_
 _atom_site_type_symbol
 _atom_site_label
 _atom_site_symmetry_multiplicity
 _atom_site_fract_x
 _atom_site_fract_y
 _atom_site_fract_z
 _atom_site_occupancy
  Zr  Zr0  1  0.412913  0.423414  0.500000  1
  Zr  Zr1  1  0.576586  0.989499  0.500000  1
  Zr  Zr2  1  0.010501  0.587087  0.500000  1
  Ga  Ga3  1  0.666667  0.333333  0.000000  1
  Ga  Ga4  1  0.000000  0.000000  0.500000  1
  P  P5  1  0.333333  0.666667  0.000000  1
  Ru  Ru6  1  0.740799  0.755870  0.000000  1
  Ru  Ru7  1  0.244130  0.984929  0.000000  1
  Ru  Ru8  1  0.015071  0.259201  0.000000  1
