# generated using pymatgen
data_AcAg4Pd
_symmetry_space_group_name_H-M   'P 1'
_cell_length_a   5.67458625
_cell_length_b   5.67458547
_cell_length_c   5.67458507
_cell_angle_alpha   59.35097504
_cell_angle_beta   59.35099745
_cell_angle_gamma   59.35098580
_symmetry_Int_Tables_number   1
_chemical_formula_structural   AcAg4Pd
_chemical_formula_sum   'Ac1 Ag4 Pd1'
_cell_volume   127.29856271
_cell_formula_units_Z   1
loop_
 _symmetry_equiv_pos_site_id
 _symmetry_equiv_pos_as_xyz
  1  'x, y, z'
loop_
 _atom_site_type_symbol
 _atom_site_label
 _atom_site_symmetry_multiplicity
 _atom_site_fract_x
 _atom_site_fract_y
 _atom_site_fract_z
 _atom_site_occupancy
  Ac  Ac0  1  0.997384  0.997384  0.997384  1
  Ag  Ag1  1  0.625055  0.128862  0.625055  1
  Ag  Ag2  1  0.128862  0.625055  0.625055  1
  Ag  Ag3  1  0.625055  0.625055  0.128862  1
  Ag  Ag4  1  0.247481  0.247481  0.247481  1
  Pd  Pd5  1  0.626163  0.626163  0.626163  1
