# generated using pymatgen
data_Pr2CuNiI
_symmetry_space_group_name_H-M   'P 1'
_cell_length_a   4.16556700
_cell_length_b   4.16556689
_cell_length_c   17.49774800
_cell_angle_alpha   90.00000000
_cell_angle_beta   90.00000000
_cell_angle_gamma   119.99999297
_symmetry_Int_Tables_number   1
_chemical_formula_structural   Pr2CuNiI
_chemical_formula_sum   'Pr4 Cu2 Ni2 I2'
_cell_volume   262.94266268
_cell_formula_units_Z   2
loop_
 _symmetry_equiv_pos_site_id
 _symmetry_equiv_pos_as_xyz
  1  'x, y, z'
loop_
 _atom_site_type_symbol
 _atom_site_label
 _atom_site_symmetry_multiplicity
 _atom_site_fract_x
 _atom_site_fract_y
 _atom_site_fract_z
 _atom_site_occupancy
  Pr  Pr0  1  0.000000  0.000000  0.605200  1
  Pr  Pr1  1  0.000000  0.000000  0.395147  1
  Pr  Pr2  1  0.000000  0.000000  0.105200  1
  Pr  Pr3  1  0.000000  0.000000  0.895147  1
  Cu  Cu4  1  0.666667  0.333333  0.500359  1
  Cu  Cu5  1  0.333333  0.666667  0.000359  1
  Ni  Ni6  1  0.666667  0.333333  0.999390  1
  Ni  Ni7  1  0.333333  0.666667  0.499390  1
  I  I8  1  0.666667  0.333333  0.249904  1
  I  I9  1  0.333333  0.666667  0.749904  1
