# generated using pymatgen
data_LiDy16Tl(InRh2)2
_symmetry_space_group_name_H-M   'P 1'
_cell_length_a   9.65633909
_cell_length_b   9.65109043
_cell_length_c   9.65030594
_cell_angle_alpha   59.99730837
_cell_angle_beta   60.04240889
_cell_angle_gamma   60.01797664
_symmetry_Int_Tables_number   1
_chemical_formula_structural   LiDy16Tl(InRh2)2
_chemical_formula_sum   'Li1 Dy16 Tl1 In2 Rh4'
_cell_volume   636.21534456
_cell_formula_units_Z   1
loop_
 _symmetry_equiv_pos_site_id
 _symmetry_equiv_pos_as_xyz
  1  'x, y, z'
loop_
 _atom_site_type_symbol
 _atom_site_label
 _atom_site_symmetry_multiplicity
 _atom_site_fract_x
 _atom_site_fract_y
 _atom_site_fract_z
 _atom_site_occupancy
  Li  Li0  1  0.215998  0.928212  0.927579  1
  Dy  Dy1  1  0.691255  0.309923  0.309937  1
  Dy  Dy2  1  0.691255  0.688884  0.309937  1
  Dy  Dy3  1  0.314233  0.686287  0.313194  1
  Dy  Dy4  1  0.936873  0.936953  0.562498  1
  Dy  Dy5  1  0.148069  0.151804  0.548321  1
  Dy  Dy6  1  0.560514  0.938613  0.562261  1
  Dy  Dy7  1  0.150234  0.154142  0.151516  1
  Dy  Dy8  1  0.313937  0.312137  0.687474  1
  Dy  Dy9  1  0.936873  0.563676  0.562498  1
  Dy  Dy10  1  0.562342  0.564335  0.936567  1
  Dy  Dy11  1  0.562342  0.936757  0.936567  1
  Dy  Dy12  1  0.935016  0.564516  0.935952  1
  Dy  Dy13  1  0.150234  0.544108  0.151516  1
  Dy  Dy14  1  0.313937  0.686452  0.687474  1
  Dy  Dy15  1  0.692328  0.308626  0.690420  1
  Dy  Dy16  1  0.552352  0.149808  0.148031  1
  Tl  Tl17  1  0.922866  0.914361  0.248412  1
  In  In18  1  0.921128  0.248609  0.914893  1
  In  In19  1  0.921128  0.915370  0.914893  1
  Rh  Rh20  1  0.359744  0.355635  0.357566  1
  Rh  Rh21  1  0.927853  0.357010  0.358130  1
  Rh  Rh22  1  0.359748  0.356726  0.926801  1
  Rh  Rh23  1  0.359744  0.927056  0.357566  1
