# generated using pymatgen
data_Pr4MnFe3(RhO5)4
_symmetry_space_group_name_H-M   'P 1'
_cell_length_a   6.02913500
_cell_length_b   7.56630089
_cell_length_c   8.89126097
_cell_angle_alpha   90.19508279
_cell_angle_beta   90.00000000
_cell_angle_gamma   90.00000000
_symmetry_Int_Tables_number   1
_chemical_formula_structural   Pr4MnFe3(RhO5)4
_chemical_formula_sum   'Pr4 Mn1 Fe3 Rh4 O20'
_cell_volume   405.60141048
_cell_formula_units_Z   1
loop_
 _symmetry_equiv_pos_site_id
 _symmetry_equiv_pos_as_xyz
  1  'x, y, z'
loop_
 _atom_site_type_symbol
 _atom_site_label
 _atom_site_symmetry_multiplicity
 _atom_site_fract_x
 _atom_site_fract_y
 _atom_site_fract_z
 _atom_site_occupancy
  Pr  Pr0  1  0.000000  0.365697  0.671033  1
  Pr  Pr1  1  0.000000  0.634581  0.329197  1
  Pr  Pr2  1  0.000000  0.865207  0.828857  1
  Pr  Pr3  1  0.000000  0.131809  0.171457  1
  Mn  Mn4  1  0.500000  0.410923  0.352835  1
  Fe  Fe5  1  0.500000  0.105468  0.858745  1
  Fe  Fe6  1  0.500000  0.893488  0.143150  1
  Fe  Fe7  1  0.500000  0.607361  0.644142  1
  Rh  Rh8  1  0.252440  0.499223  0.000231  1
  Rh  Rh9  1  0.746884  0.001734  0.500661  1
  Rh  Rh10  1  0.747560  0.499223  0.000231  1
  Rh  Rh11  1  0.253116  0.001734  0.500661  1
  O  O12  1  0.246275  0.898021  0.288481  1
  O  O13  1  0.246540  0.101109  0.712447  1
  O  O14  1  0.752812  0.398412  0.212078  1
  O  O15  1  0.754033  0.599974  0.787607  1
  O  O16  1  0.753460  0.101109  0.712447  1
  O  O17  1  0.753725  0.898021  0.288481  1
  O  O18  1  0.245967  0.599974  0.787607  1
  O  O19  1  0.247188  0.398412  0.212078  1
  O  O20  1  0.500000  0.344489  0.933205  1
  O  O21  1  0.500000  0.655315  0.066837  1
  O  O22  1  0.500000  0.843953  0.566530  1
  O  O23  1  0.500000  0.151973  0.432384  1
  O  O24  1  0.277584  0.999528  0.000429  1
  O  O25  1  0.719903  0.497971  0.498734  1
  O  O26  1  0.722416  0.999528  0.000429  1
  O  O27  1  0.280097  0.497971  0.498734  1
  O  O28  1  0.000000  0.164361  0.445670  1
  O  O29  1  0.000000  0.835665  0.554104  1
  O  O30  1  0.000000  0.662676  0.054465  1
  O  O31  1  0.000000  0.335088  0.946053  1
