# generated using pymatgen
data_Gd3Tm3FeI10
_symmetry_space_group_name_H-M   'P 1'
_cell_length_a   7.67031498
_cell_length_b   9.65309463
_cell_length_c   9.69405000
_cell_angle_alpha   106.93952725
_cell_angle_beta   96.52779301
_cell_angle_gamma   104.44141870
_symmetry_Int_Tables_number   1
_chemical_formula_structural   Gd3Tm3FeI10
_chemical_formula_sum   'Gd3 Tm3 Fe1 I10'
_cell_volume   651.34055269
_cell_formula_units_Z   1
loop_
 _symmetry_equiv_pos_site_id
 _symmetry_equiv_pos_as_xyz
  1  'x, y, z'
loop_
 _atom_site_type_symbol
 _atom_site_label
 _atom_site_symmetry_multiplicity
 _atom_site_fract_x
 _atom_site_fract_y
 _atom_site_fract_z
 _atom_site_occupancy
  Gd  Gd0  1  0.033828  0.709213  0.913369  1
  Gd  Gd1  1  0.895396  0.961242  0.215684  1
  Gd  Gd2  1  0.106555  0.038332  0.784583  1
  Tm  Tm3  1  0.345692  0.124197  0.165229  1
  Tm  Tm4  1  0.654488  0.878617  0.834887  1
  Tm  Tm5  1  0.966563  0.282233  0.084403  1
  Fe  Fe6  1  0.000481  0.999663  0.999569  1
  I  I7  1  0.344412  0.449469  0.271065  1
  I  I8  1  0.644948  0.550566  0.726950  1
  I  I9  1  0.775038  0.257419  0.339528  1
  I  I10  1  0.230181  0.745471  0.656591  1
  I  I11  1  0.541643  0.185492  0.909311  1
  I  I12  1  0.462744  0.818773  0.093572  1
  I  I13  1  0.743282  0.915853  0.548794  1
  I  I14  1  0.258094  0.088554  0.452006  1
  I  I15  1  0.912354  0.626962  0.181702  1
  I  I16  1  0.084303  0.367945  0.822757  1
