# generated using pymatgen
data_Ac9Si10Sn
_symmetry_space_group_name_H-M   'P 1'
_cell_length_a   11.41489206
_cell_length_b   11.41490486
_cell_length_c   11.41490362
_cell_angle_alpha   155.98768389
_cell_angle_beta   111.47218455
_cell_angle_gamma   73.76918725
_symmetry_Int_Tables_number   1
_chemical_formula_structural   Ac9Si10Sn
_chemical_formula_sum   'Ac9 Si10 Sn1'
_cell_volume   557.30622678
_cell_formula_units_Z   1
loop_
 _symmetry_equiv_pos_site_id
 _symmetry_equiv_pos_as_xyz
  1  'x, y, z'
loop_
 _atom_site_type_symbol
 _atom_site_label
 _atom_site_symmetry_multiplicity
 _atom_site_fract_x
 _atom_site_fract_y
 _atom_site_fract_z
 _atom_site_occupancy
  Ac  Ac0  1  0.648420  0.812264  0.836155  1
  Ac  Ac1  1  0.023890  0.187736  0.836155  1
  Ac  Ac2  1  0.351580  0.187736  0.163845  1
  Ac  Ac3  1  0.696586  0.000000  0.696585  1
  Ac  Ac4  1  0.976110  0.812264  0.163845  1
  Ac  Ac5  1  0.000000  0.000000  0.000000  1
  Ac  Ac6  1  0.338406  0.838407  0.500000  1
  Ac  Ac7  1  0.303414  0.000000  0.303415  1
  Ac  Ac8  1  0.661594  0.161593  0.500000  1
  Si  Si9  1  0.544103  0.367658  0.176443  1
  Si  Si10  1  0.223927  0.567540  0.656385  1
  Si  Si11  1  0.911155  0.567540  0.343615  1
  Si  Si12  1  0.145024  0.645024  0.500000  1
  Si  Si13  1  0.808784  0.632342  0.176443  1
  Si  Si14  1  0.088845  0.432460  0.656385  1
  Si  Si15  1  0.191216  0.367658  0.823557  1
  Si  Si16  1  0.455897  0.632342  0.823557  1
  Si  Si17  1  0.854976  0.354976  0.500000  1
  Si  Si18  1  0.776073  0.432460  0.343615  1
  Sn  Sn19  1  0.500000  0.500000  0.000000  1
