# generated using pymatgen
data_Dy8HoMg(Ni2Bi)2
_symmetry_space_group_name_H-M   'P 1'
_cell_length_a   8.71618782
_cell_length_b   8.71618761
_cell_length_c   8.71618776
_cell_angle_alpha   128.61983798
_cell_angle_beta   128.61984279
_cell_angle_gamma   75.62303446
_symmetry_Int_Tables_number   1
_chemical_formula_structural   Dy8HoMg(Ni2Bi)2
_chemical_formula_sum   'Dy8 Ho1 Mg1 Ni4 Bi2'
_cell_volume   393.24991125
_cell_formula_units_Z   1
loop_
 _symmetry_equiv_pos_site_id
 _symmetry_equiv_pos_as_xyz
  1  'x, y, z'
loop_
 _atom_site_type_symbol
 _atom_site_label
 _atom_site_symmetry_multiplicity
 _atom_site_fract_x
 _atom_site_fract_y
 _atom_site_fract_z
 _atom_site_occupancy
  Dy  Dy0  1  0.800004  0.282726  0.822806  1
  Dy  Dy1  1  0.199996  0.717274  0.177194  1
  Dy  Dy2  1  0.459919  0.977198  0.177194  1
  Dy  Dy3  1  0.282726  0.459919  0.482721  1
  Dy  Dy4  1  0.022802  0.199996  0.482721  1
  Dy  Dy5  1  0.540081  0.022802  0.822806  1
  Dy  Dy6  1  0.717274  0.540081  0.517279  1
  Dy  Dy7  1  0.977198  0.800004  0.517279  1
  Ho  Ho8  1  0.500000  0.500000  0.000000  1
  Mg  Mg9  1  0.000000  0.000000  0.000000  1
  Ni  Ni10  1  0.130866  0.622877  0.753742  1
  Ni  Ni11  1  0.869134  0.377123  0.246258  1
  Ni  Ni12  1  0.622877  0.869134  0.492011  1
  Ni  Ni13  1  0.377123  0.130866  0.507989  1
  Bi  Bi14  1  0.258339  0.258339  0.000000  1
  Bi  Bi15  1  0.741661  0.741661  0.000000  1
