# generated using pymatgen
data_Y5AlSb2
_symmetry_space_group_name_H-M   'P 1'
_cell_length_a   8.91836697
_cell_length_b   8.91836761
_cell_length_c   6.45009000
_cell_angle_alpha   90.00018397
_cell_angle_beta   90.00017894
_cell_angle_gamma   119.95187080
_symmetry_Int_Tables_number   1
_chemical_formula_structural   Y5AlSb2
_chemical_formula_sum   'Y10 Al2 Sb4'
_cell_volume   444.50590513
_cell_formula_units_Z   2
loop_
 _symmetry_equiv_pos_site_id
 _symmetry_equiv_pos_as_xyz
  1  'x, y, z'
loop_
 _atom_site_type_symbol
 _atom_site_label
 _atom_site_symmetry_multiplicity
 _atom_site_fract_x
 _atom_site_fract_y
 _atom_site_fract_z
 _atom_site_occupancy
  Y  Y0  1  0.668615  0.329411  0.504219  1
  Y  Y1  1  0.329411  0.668615  0.504219  1
  Y  Y2  1  0.329404  0.668607  0.995781  1
  Y  Y3  1  0.668607  0.329404  0.995781  1
  Y  Y4  1  0.757969  0.757969  0.249998  1
  Y  Y5  1  0.240396  0.998908  0.250003  1
  Y  Y6  1  0.998908  0.240396  0.250003  1
  Y  Y7  1  0.237631  0.237631  0.749998  1
  Y  Y8  1  0.761023  0.007667  0.750002  1
  Y  Y9  1  0.007667  0.761023  0.750002  1
  Al  Al10  1  0.396245  0.000554  0.749999  1
  Al  Al11  1  0.000554  0.396245  0.749999  1
  Sb  Sb12  1  0.392804  0.392804  0.250004  1
  Sb  Sb13  1  0.603924  0.998333  0.249992  1
  Sb  Sb14  1  0.998333  0.603924  0.249992  1
  Sb  Sb15  1  0.608511  0.608511  0.750007  1
