# generated using pymatgen
data_Pr8Nd4ZnCo4Sn
_symmetry_space_group_name_H-M   'P 1'
_cell_length_a   8.65459966
_cell_length_b   8.65460079
_cell_length_c   8.65459989
_cell_angle_alpha   112.69750507
_cell_angle_beta   108.63002681
_cell_angle_gamma   107.13824217
_symmetry_Int_Tables_number   1
_chemical_formula_structural   Pr8Nd4ZnCo4Sn
_chemical_formula_sum   'Pr8 Nd4 Zn1 Co4 Sn1'
_cell_volume   497.74786061
_cell_formula_units_Z   1
loop_
 _symmetry_equiv_pos_site_id
 _symmetry_equiv_pos_as_xyz
  1  'x, y, z'
loop_
 _atom_site_type_symbol
 _atom_site_label
 _atom_site_symmetry_multiplicity
 _atom_site_fract_x
 _atom_site_fract_y
 _atom_site_fract_z
 _atom_site_occupancy
  Pr  Pr0  1  0.425371  0.226875  0.198494  1
  Pr  Pr1  1  0.574629  0.773125  0.801506  1
  Pr  Pr2  1  0.028380  0.226875  0.801506  1
  Pr  Pr3  1  0.971620  0.773125  0.198494  1
  Pr  Pr4  1  0.180060  0.286002  0.466061  1
  Pr  Pr5  1  0.819940  0.713998  0.533939  1
  Pr  Pr6  1  0.180060  0.713998  0.894060  1
  Pr  Pr7  1  0.819940  0.286002  0.105940  1
  Nd  Nd8  1  0.323824  0.637308  0.313484  1
  Nd  Nd9  1  0.676176  0.362692  0.686516  1
  Nd  Nd10  1  0.323824  0.010340  0.686516  1
  Nd  Nd11  1  0.676176  0.989660  0.313484  1
  Zn  Zn12  1  0.000000  0.000000  0.000000  1
  Co  Co13  1  0.346983  0.000000  0.346983  1
  Co  Co14  1  0.653017  0.000000  0.653017  1
  Co  Co15  1  0.111275  0.611275  0.500000  1
  Co  Co16  1  0.888725  0.388725  0.500000  1
  Sn  Sn17  1  0.500000  0.500000  0.000000  1
