# generated using pymatgen
data_Ba14SrBi11
_symmetry_space_group_name_H-M   'P 1'
_cell_length_a   18.69209710
_cell_length_b   18.69209659
_cell_length_c   18.69209700
_cell_angle_alpha   117.45216392
_cell_angle_beta   117.45216311
_cell_angle_gamma   94.47270914
_symmetry_Int_Tables_number   1
_chemical_formula_structural   Ba14SrBi11
_chemical_formula_sum   'Ba56 Sr4 Bi44'
_cell_volume   4780.14041685
_cell_formula_units_Z   4
loop_
 _symmetry_equiv_pos_site_id
 _symmetry_equiv_pos_as_xyz
  1  'x, y, z'
loop_
 _atom_site_type_symbol
 _atom_site_label
 _atom_site_symmetry_multiplicity
 _atom_site_fract_x
 _atom_site_fract_y
 _atom_site_fract_z
 _atom_site_occupancy
  Ba  Ba0  1  0.591866  0.871949  0.368197  1
  Ba  Ba1  1  0.123273  0.960348  0.519099  1
  Ba  Ba2  1  0.768683  0.375000  0.893683  1
  Ba  Ba3  1  0.125000  0.731317  0.106317  1
  Ba  Ba4  1  0.854174  0.191249  0.980901  1
  Ba  Ba5  1  0.126727  0.145826  0.337075  1
  Ba  Ba6  1  0.353564  0.751913  0.343343  1
  Ba  Ba7  1  0.895826  0.058751  0.519099  1
  Ba  Ba8  1  0.941249  0.460348  0.837075  1
  Ba  Ba9  1  0.039652  0.558751  0.162925  1
  Ba  Ba10  1  0.158134  0.378051  0.131803  1
  Ba  Ba11  1  0.003751  0.371949  0.280081  1
  Ba  Ba12  1  0.441249  0.604174  0.480901  1
  Ba  Ba13  1  0.308751  0.645826  0.019099  1
  Ba  Ba14  1  0.621949  0.753751  0.780081  1
  Ba  Ba15  1  0.246249  0.026330  0.868197  1
  Ba  Ba16  1  0.125000  0.231317  0.606317  1
  Ba  Ba17  1  0.489779  0.091431  0.343343  1
  Ba  Ba18  1  0.408569  0.010221  0.656657  1
  Ba  Ba19  1  0.341431  0.239779  0.843343  1
  Ba  Ba20  1  0.623273  0.104174  0.162925  1
  Ba  Ba21  1  0.481317  0.875000  0.106317  1
  Ba  Ba22  1  0.276330  0.996249  0.368197  1
  Ba  Ba23  1  0.760221  0.603564  0.101652  1
  Ba  Ba24  1  0.625000  0.018683  0.893683  1
  Ba  Ba25  1  0.501913  0.658569  0.898348  1
  Ba  Ba26  1  0.973670  0.841866  0.219919  1
  Ba  Ba27  1  0.989779  0.646436  0.398348  1
  Ba  Ba28  1  0.260221  0.158569  0.156657  1
  Ba  Ba29  1  0.395826  0.876727  0.837075  1
  Ba  Ba30  1  0.625000  0.518683  0.393683  1
  Ba  Ba31  1  0.001913  0.103564  0.843343  1
  Ba  Ba32  1  0.658134  0.526330  0.780081  1
  Ba  Ba33  1  0.628051  0.908134  0.631803  1
  Ba  Ba34  1  0.776330  0.408134  0.280081  1
  Ba  Ba35  1  0.210348  0.873273  0.019099  1
  Ba  Ba36  1  0.908569  0.251913  0.398348  1
  Ba  Ba37  1  0.808751  0.789652  0.662925  1
  Ba  Ba38  1  0.853564  0.510221  0.601652  1
  Ba  Ba39  1  0.746249  0.878051  0.219919  1
  Ba  Ba40  1  0.626727  0.289652  0.980901  1
  Ba  Ba41  1  0.748087  0.146436  0.656657  1
  Ba  Ba42  1  0.128051  0.496249  0.719919  1
  Ba  Ba43  1  0.981317  0.875000  0.606317  1
  Ba  Ba44  1  0.091866  0.723670  0.719919  1
  Ba  Ba45  1  0.121949  0.341866  0.868197  1
  Ba  Ba46  1  0.248087  0.591431  0.601652  1
  Ba  Ba47  1  0.396436  0.498087  0.156657  1
  Ba  Ba48  1  0.354174  0.373273  0.662925  1
  Ba  Ba49  1  0.841431  0.998087  0.101652  1
  Ba  Ba50  1  0.473670  0.253751  0.131803  1
  Ba  Ba51  1  0.268683  0.375000  0.393683  1
  Ba  Ba52  1  0.503751  0.223670  0.631803  1
  Ba  Ba53  1  0.539652  0.376727  0.480901  1
  Ba  Ba54  1  0.896436  0.739779  0.898348  1
  Ba  Ba55  1  0.710348  0.691249  0.337075  1
  Sr  Sr56  1  0.000000  0.000000  0.000000  1
  Sr  Sr57  1  0.250000  0.750000  0.500000  1
  Sr  Sr58  1  0.750000  0.250000  0.500000  1
  Sr  Sr59  1  0.500000  0.500000  0.000000  1
  Bi  Bi60  1  0.553682  0.696986  0.408263  1
  Bi  Bi61  1  0.131833  0.368167  0.500000  1
  Bi  Bi62  1  0.462193  0.821892  0.650270  1
  Bi  Bi63  1  0.061923  0.921622  0.849730  1
  Bi  Bi64  1  0.287807  0.428108  0.849730  1
  Bi  Bi65  1  0.854581  0.446318  0.143304  1
  Bi  Bi66  1  0.368167  0.868167  0.236335  1
  Bi  Bi67  1  0.250000  0.250000  0.000000  1
  Bi  Bi68  1  0.078378  0.928108  0.140301  1
  Bi  Bi69  1  0.961277  0.053014  0.356696  1
  Bi  Bi70  1  0.303014  0.711277  0.856696  1
  Bi  Bi71  1  0.631833  0.131833  0.763665  1
  Bi  Bi72  1  0.788723  0.196986  0.143304  1
  Bi  Bi73  1  0.881833  0.618167  0.000000  1
  Bi  Bi74  1  0.446986  0.538723  0.643304  1
  Bi  Bi75  1  0.395419  0.038723  0.091737  1
  Bi  Bi76  1  0.288723  0.145419  0.591737  1
  Bi  Bi77  1  0.561923  0.712193  0.140301  1
  Bi  Bi78  1  0.962193  0.311923  0.640301  1
  Bi  Bi79  1  0.688077  0.328378  0.650270  1
  Bi  Bi80  1  0.500000  0.000000  0.500000  1
  Bi  Bi81  1  0.618167  0.881833  0.000000  1
  Bi  Bi82  1  0.461277  0.104581  0.908263  1
  Bi  Bi83  1  0.946986  0.303682  0.908263  1
  Bi  Bi84  1  0.381833  0.381833  0.263665  1
  Bi  Bi85  1  0.178108  0.828378  0.640301  1
  Bi  Bi86  1  0.196318  0.553014  0.091737  1
  Bi  Bi87  1  0.803014  0.946318  0.591737  1
  Bi  Bi88  1  0.678108  0.037807  0.349730  1
  Bi  Bi89  1  0.696318  0.604581  0.643304  1
  Bi  Bi90  1  0.578378  0.438077  0.150270  1
  Bi  Bi91  1  0.895419  0.803682  0.356696  1
  Bi  Bi92  1  0.053682  0.645419  0.856696  1
  Bi  Bi93  1  0.671622  0.321892  0.359699  1
  Bi  Bi94  1  0.787807  0.938077  0.859699  1
  Bi  Bi95  1  0.071892  0.212193  0.150270  1
  Bi  Bi96  1  0.571892  0.421622  0.859699  1
  Bi  Bi97  1  0.171622  0.811923  0.349730  1
  Bi  Bi98  1  0.868167  0.631833  0.500000  1
  Bi  Bi99  1  0.750000  0.750000  0.000000  1
  Bi  Bi100  1  0.118167  0.118167  0.736335  1
  Bi  Bi101  1  0.188077  0.537807  0.359699  1
  Bi  Bi102  1  0.000000  0.500000  0.500000  1
  Bi  Bi103  1  0.354581  0.211277  0.408263  1
