# generated using pymatgen
data_Ho4MgBiRu2
_symmetry_space_group_name_H-M   'P 1'
_cell_length_a   9.19489609
_cell_length_b   9.19489581
_cell_length_c   9.19489553
_cell_angle_alpha   133.24303890
_cell_angle_beta   133.24304557
_cell_angle_gamma   68.27272449
_symmetry_Int_Tables_number   1
_chemical_formula_structural   Ho4MgBiRu2
_chemical_formula_sum   'Ho8 Mg2 Bi2 Ru4'
_cell_volume   405.25266152
_cell_formula_units_Z   2
loop_
 _symmetry_equiv_pos_site_id
 _symmetry_equiv_pos_as_xyz
  1  'x, y, z'
loop_
 _atom_site_type_symbol
 _atom_site_label
 _atom_site_symmetry_multiplicity
 _atom_site_fract_x
 _atom_site_fract_y
 _atom_site_fract_z
 _atom_site_occupancy
  Ho  Ho0  1  0.047717  0.547717  0.842480  1
  Ho  Ho1  1  0.705237  0.205237  0.157520  1
  Ho  Ho2  1  0.547717  0.705237  0.500000  1
  Ho  Ho3  1  0.205237  0.047717  0.500000  1
  Ho  Ho4  1  0.952283  0.452283  0.157520  1
  Ho  Ho5  1  0.294763  0.794763  0.842480  1
  Ho  Ho6  1  0.452283  0.294763  0.500000  1
  Ho  Ho7  1  0.794763  0.952283  0.500000  1
  Mg  Mg8  1  0.000000  0.000000  0.000000  1
  Mg  Mg9  1  0.500000  0.500000  0.000000  1
  Bi  Bi10  1  0.750000  0.750000  0.000000  1
  Bi  Bi11  1  0.250000  0.250000  0.000000  1
  Ru  Ru12  1  0.367712  0.867712  0.235422  1
  Ru  Ru13  1  0.632288  0.132288  0.764578  1
  Ru  Ru14  1  0.867712  0.632288  0.500000  1
  Ru  Ru15  1  0.132288  0.367712  0.500000  1
