# generated using pymatgen
data_Sr9(RhAu2)2
_symmetry_space_group_name_H-M   'P 1'
_cell_length_a   8.17780392
_cell_length_b   8.27588848
_cell_length_c   8.23129622
_cell_angle_alpha   70.92194105
_cell_angle_beta   71.96527527
_cell_angle_gamma   71.23353894
_symmetry_Int_Tables_number   1
_chemical_formula_structural   Sr9(RhAu2)2
_chemical_formula_sum   'Sr9 Rh2 Au4'
_cell_volume   485.31078996
_cell_formula_units_Z   1
loop_
 _symmetry_equiv_pos_site_id
 _symmetry_equiv_pos_as_xyz
  1  'x, y, z'
loop_
 _atom_site_type_symbol
 _atom_site_label
 _atom_site_symmetry_multiplicity
 _atom_site_fract_x
 _atom_site_fract_y
 _atom_site_fract_z
 _atom_site_occupancy
  Sr  Sr0  1  0.901081  0.167152  0.648968  1
  Sr  Sr1  1  0.660187  0.885314  0.181262  1
  Sr  Sr2  1  0.170856  0.669345  0.880376  1
  Sr  Sr3  1  0.107319  0.832943  0.343233  1
  Sr  Sr4  1  0.340872  0.098654  0.825406  1
  Sr  Sr5  1  0.841187  0.353435  0.117046  1
  Sr  Sr6  1  0.500839  0.502767  0.499803  1
  Sr  Sr7  1  0.285907  0.294250  0.296290  1
  Sr  Sr8  1  0.694002  0.701148  0.692214  1
  Rh  Rh9  1  0.910586  0.541333  0.364637  1
  Rh  Rh10  1  0.345142  0.914992  0.543535  1
  Au  Au11  1  0.550040  0.336471  0.913881  1
  Au  Au12  1  0.087579  0.460043  0.646411  1
  Au  Au13  1  0.643447  0.091843  0.457399  1
  Au  Au14  1  0.460956  0.650310  0.089539  1
