# generated using pymatgen
data_SmAlCoO5
_symmetry_space_group_name_H-M   'P 1'
_cell_length_a   5.68046900
_cell_length_b   7.35277200
_cell_length_c   8.43811500
_cell_angle_alpha   90.00000000
_cell_angle_beta   90.00000000
_cell_angle_gamma   90.00000000
_symmetry_Int_Tables_number   1
_chemical_formula_structural   SmAlCoO5
_chemical_formula_sum   'Sm4 Al4 Co4 O20'
_cell_volume   352.43638122
_cell_formula_units_Z   4
loop_
 _symmetry_equiv_pos_site_id
 _symmetry_equiv_pos_as_xyz
  1  'x, y, z'
loop_
 _atom_site_type_symbol
 _atom_site_label
 _atom_site_symmetry_multiplicity
 _atom_site_fract_x
 _atom_site_fract_y
 _atom_site_fract_z
 _atom_site_occupancy
  Sm  Sm0  1  0.500000  0.362481  0.329123  1
  Sm  Sm1  1  0.500000  0.637519  0.670877  1
  Sm  Sm2  1  0.500000  0.137519  0.829123  1
  Sm  Sm3  1  0.500000  0.862481  0.170877  1
  Al  Al4  1  0.000000  0.108411  0.141180  1
  Al  Al5  1  0.000000  0.891589  0.858820  1
  Al  Al6  1  0.000000  0.391589  0.641180  1
  Al  Al7  1  0.000000  0.608411  0.358820  1
  Co  Co8  1  0.243869  0.000000  0.500000  1
  Co  Co9  1  0.756131  0.000000  0.500000  1
  Co  Co10  1  0.756131  0.500000  0.000000  1
  Co  Co11  1  0.243869  0.500000  0.000000  1
  O  O12  1  0.000000  0.343240  0.066226  1
  O  O13  1  0.000000  0.656760  0.933774  1
  O  O14  1  0.000000  0.156760  0.566226  1
  O  O15  1  0.000000  0.843240  0.433774  1
  O  O16  1  0.217412  0.000000  0.000000  1
  O  O17  1  0.782588  0.000000  0.000000  1
  O  O18  1  0.782588  0.500000  0.500000  1
  O  O19  1  0.217412  0.500000  0.500000  1
  O  O20  1  0.245530  0.098638  0.291116  1
  O  O21  1  0.754470  0.901362  0.708884  1
  O  O22  1  0.245530  0.901362  0.708884  1
  O  O23  1  0.754470  0.401362  0.791116  1
  O  O24  1  0.754470  0.098638  0.291116  1
  O  O25  1  0.245530  0.598638  0.208884  1
  O  O26  1  0.754470  0.598638  0.208884  1
  O  O27  1  0.245530  0.401362  0.791116  1
  O  O28  1  0.500000  0.343673  0.051319  1
  O  O29  1  0.500000  0.656327  0.948681  1
  O  O30  1  0.500000  0.156327  0.551319  1
  O  O31  1  0.500000  0.843673  0.448681  1
