# generated using pymatgen
data_Th7Re3
_symmetry_space_group_name_H-M   'P 1'
_cell_length_a   10.06057200
_cell_length_b   10.06057206
_cell_length_c   6.33062700
_cell_angle_alpha   90.00000000
_cell_angle_beta   90.00000000
_cell_angle_gamma   119.99999980
_symmetry_Int_Tables_number   1
_chemical_formula_structural   Th7Re3
_chemical_formula_sum   'Th14 Re6'
_cell_volume   554.91020017
_cell_formula_units_Z   2
loop_
 _symmetry_equiv_pos_site_id
 _symmetry_equiv_pos_as_xyz
  1  'x, y, z'
loop_
 _atom_site_type_symbol
 _atom_site_label
 _atom_site_symmetry_multiplicity
 _atom_site_fract_x
 _atom_site_fract_y
 _atom_site_fract_z
 _atom_site_occupancy
  Th  Th0  1  0.461047  0.538953  0.298150  1
  Th  Th1  1  0.077906  0.538953  0.298150  1
  Th  Th2  1  0.922094  0.461047  0.798150  1
  Th  Th3  1  0.253887  0.126944  0.508021  1
  Th  Th4  1  0.538953  0.077906  0.798150  1
  Th  Th5  1  0.746113  0.873056  0.008021  1
  Th  Th6  1  0.666667  0.333333  0.272394  1
  Th  Th7  1  0.126944  0.873056  0.008021  1
  Th  Th8  1  0.461047  0.922094  0.298150  1
  Th  Th9  1  0.538953  0.461047  0.798150  1
  Th  Th10  1  0.873056  0.126944  0.508021  1
  Th  Th11  1  0.126944  0.253887  0.008021  1
  Th  Th12  1  0.873056  0.746113  0.508021  1
  Th  Th13  1  0.333333  0.666667  0.772394  1
  Re  Re14  1  0.814660  0.629320  0.050364  1
  Re  Re15  1  0.814660  0.185340  0.050364  1
  Re  Re16  1  0.629320  0.814660  0.550364  1
  Re  Re17  1  0.370680  0.185340  0.050364  1
  Re  Re18  1  0.185340  0.370680  0.550364  1
  Re  Re19  1  0.185340  0.814660  0.550364  1
