# generated using pymatgen
data_Ho5Lu11(Ga3Ir)2
_symmetry_space_group_name_H-M   'P 1'
_cell_length_a   9.88470900
_cell_length_b   9.88470953
_cell_length_c   6.94728300
_cell_angle_alpha   90.00000000
_cell_angle_beta   90.00000000
_cell_angle_gamma   119.99999489
_symmetry_Int_Tables_number   1
_chemical_formula_structural   Ho5Lu11(Ga3Ir)2
_chemical_formula_sum   'Ho5 Lu11 Ga6 Ir2'
_cell_volume   587.85936948
_cell_formula_units_Z   1
loop_
 _symmetry_equiv_pos_site_id
 _symmetry_equiv_pos_as_xyz
  1  'x, y, z'
loop_
 _atom_site_type_symbol
 _atom_site_label
 _atom_site_symmetry_multiplicity
 _atom_site_fract_x
 _atom_site_fract_y
 _atom_site_fract_z
 _atom_site_occupancy
  Ho  Ho0  1  0.533491  0.466509  0.705666  1
  Ho  Ho1  1  0.933019  0.466509  0.705666  1
  Ho  Ho2  1  0.533491  0.066981  0.705666  1
  Ho  Ho3  1  0.000000  0.000000  0.231872  1
  Ho  Ho4  1  0.000000  0.000000  0.732135  1
  Lu  Lu5  1  0.172205  0.827795  0.509488  1
  Lu  Lu6  1  0.655589  0.827795  0.509488  1
  Lu  Lu7  1  0.172205  0.344411  0.509488  1
  Lu  Lu8  1  0.827705  0.172295  0.013484  1
  Lu  Lu9  1  0.344590  0.172295  0.013484  1
  Lu  Lu10  1  0.827705  0.655410  0.013484  1
  Lu  Lu11  1  0.333333  0.666667  0.835562  1
  Lu  Lu12  1  0.666667  0.333333  0.334828  1
  Lu  Lu13  1  0.464809  0.535191  0.205111  1
  Lu  Lu14  1  0.070380  0.535191  0.205111  1
  Lu  Lu15  1  0.464809  0.929620  0.205111  1
  Ga  Ga16  1  0.163780  0.836220  0.959035  1
  Ga  Ga17  1  0.672440  0.836220  0.959035  1
  Ga  Ga18  1  0.163780  0.327560  0.959035  1
  Ga  Ga19  1  0.836632  0.163368  0.457733  1
  Ga  Ga20  1  0.326735  0.163368  0.457733  1
  Ga  Ga21  1  0.836632  0.673265  0.457733  1
  Ir  Ir22  1  0.333333  0.666667  0.442931  1
  Ir  Ir23  1  0.666667  0.333333  0.945167  1
