# generated using pymatgen
data_Cd2Ni3AuO8
_symmetry_space_group_name_H-M   'P 1'
_cell_length_a   6.32336853
_cell_length_b   6.17562297
_cell_length_c   6.15964115
_cell_angle_alpha   60.15159743
_cell_angle_beta   89.97077420
_cell_angle_gamma   119.09332142
_symmetry_Int_Tables_number   1
_chemical_formula_structural   Cd2Ni3AuO8
_chemical_formula_sum   'Cd2 Ni3 Au1 O8'
_cell_volume   172.72236892
_cell_formula_units_Z   1
loop_
 _symmetry_equiv_pos_site_id
 _symmetry_equiv_pos_as_xyz
  1  'x, y, z'
loop_
 _atom_site_type_symbol
 _atom_site_label
 _atom_site_symmetry_multiplicity
 _atom_site_fract_x
 _atom_site_fract_y
 _atom_site_fract_z
 _atom_site_occupancy
  Cd  Cd0  1  0.959360  0.972803  0.013679  1
  Cd  Cd1  1  0.790711  0.527092  0.735892  1
  Ni  Ni2  1  0.374904  0.250194  0.374476  1
  Ni  Ni3  1  0.375118  0.749932  0.375558  1
  Ni  Ni4  1  0.375108  0.749763  0.875224  1
  Au  Au5  1  0.874842  0.250047  0.374941  1
  O  O6  1  0.131449  0.276555  0.143079  1
  O  O7  1  0.618653  0.223576  0.169700  1
  O  O8  1  0.550285  0.699614  0.151768  1
  O  O9  1  0.129920  0.709438  0.145716  1
  O  O10  1  0.618425  0.223440  0.606464  1
  O  O11  1  0.131209  0.276378  0.580034  1
  O  O12  1  0.199914  0.800785  0.598776  1
  O  O13  1  0.620104  0.790382  0.604693  1
