# generated using pymatgen
data_Ho10Tl7InPdAu3
_symmetry_space_group_name_H-M   'P 1'
_cell_length_a   3.66141000
_cell_length_b   8.26737700
_cell_length_c   18.50010468
_cell_angle_alpha   89.85873927
_cell_angle_beta   90.00000000
_cell_angle_gamma   90.00000000
_symmetry_Int_Tables_number   1
_chemical_formula_structural   Ho10Tl7InPdAu3
_chemical_formula_sum   'Ho10 Tl7 In1 Pd1 Au3'
_cell_volume   560.00121770
_cell_formula_units_Z   1
loop_
 _symmetry_equiv_pos_site_id
 _symmetry_equiv_pos_as_xyz
  1  'x, y, z'
loop_
 _atom_site_type_symbol
 _atom_site_label
 _atom_site_symmetry_multiplicity
 _atom_site_fract_x
 _atom_site_fract_y
 _atom_site_fract_z
 _atom_site_occupancy
  Ho  Ho0  1  0.000000  0.500818  0.498864  1
  Ho  Ho1  1  0.000000  0.001045  0.999405  1
  Ho  Ho2  1  0.000000  0.748374  0.283542  1
  Ho  Ho3  1  0.000000  0.262138  0.717138  1
  Ho  Ho4  1  0.000000  0.762169  0.783405  1
  Ho  Ho5  1  0.000000  0.233014  0.219289  1
  Ho  Ho6  1  0.000000  0.617588  0.082840  1
  Ho  Ho7  1  0.000000  0.380481  0.918852  1
  Ho  Ho8  1  0.000000  0.882798  0.581312  1
  Ho  Ho9  1  0.000000  0.112879  0.414378  1
  Tl  Tl10  1  0.500000  0.712914  0.935340  1
  Tl  Tl11  1  0.500000  0.289756  0.065279  1
  Tl  Tl12  1  0.500000  0.791812  0.433939  1
  Tl  Tl13  1  0.500000  0.209496  0.562875  1
  Tl  Tl14  1  0.500000  0.583034  0.645002  1
  Tl  Tl15  1  0.500000  0.413309  0.354564  1
  Tl  Tl16  1  0.500000  0.920207  0.147282  1
  In  In17  1  0.500000  0.082349  0.853204  1
  Pd  Pd18  1  0.500000  0.026463  0.303025  1
  Au  Au19  1  0.500000  0.527801  0.198899  1
  Au  Au20  1  0.500000  0.469086  0.803162  1
  Au  Au21  1  0.500000  0.972468  0.698406  1
