# generated using pymatgen
data_Pr3Sm3CoCl10
_symmetry_space_group_name_H-M   'P 1'
_cell_length_a   7.34466752
_cell_length_b   9.08699482
_cell_length_c   9.22026115
_cell_angle_alpha   109.97158305
_cell_angle_beta   106.91720500
_cell_angle_gamma   96.12101114
_symmetry_Int_Tables_number   1
_chemical_formula_structural   Pr3Sm3CoCl10
_chemical_formula_sum   'Pr3 Sm3 Co1 Cl10'
_cell_volume   538.61523209
_cell_formula_units_Z   1
loop_
 _symmetry_equiv_pos_site_id
 _symmetry_equiv_pos_as_xyz
  1  'x, y, z'
loop_
 _atom_site_type_symbol
 _atom_site_label
 _atom_site_symmetry_multiplicity
 _atom_site_fract_x
 _atom_site_fract_y
 _atom_site_fract_z
 _atom_site_occupancy
  Pr  Pr0  1  0.866102  0.239834  0.947388  1
  Pr  Pr1  1  0.134899  0.760680  0.052792  1
  Pr  Pr2  1  0.025874  0.890071  0.687227  1
  Sm  Sm3  1  0.974083  0.107976  0.307844  1
  Sm  Sm4  1  0.367970  0.194795  0.145092  1
  Sm  Sm5  1  0.632003  0.805785  0.857381  1
  Co  Co6  1  0.000376  0.000343  0.000340  1
  Cl  Cl7  1  0.908146  0.160519  0.627361  1
  Cl  Cl8  1  0.090791  0.844896  0.367992  1
  Cl  Cl9  1  0.450817  0.070976  0.832017  1
  Cl  Cl10  1  0.553191  0.931384  0.170675  1
  Cl  Cl11  1  0.212552  0.646392  0.747127  1
  Cl  Cl12  1  0.791936  0.349336  0.256450  1
  Cl  Cl13  1  0.247006  0.451417  0.081665  1
  Cl  Cl14  1  0.753717  0.548523  0.918843  1
  Cl  Cl15  1  0.637459  0.717997  0.546362  1
  Cl  Cl16  1  0.353078  0.279076  0.453443  1
