# generated using pymatgen
data_Gd4CdNi4Au
_symmetry_space_group_name_H-M   'P 1'
_cell_length_a   7.24104100
_cell_length_b   7.24104100
_cell_length_c   3.76664500
_cell_angle_alpha   90.00000000
_cell_angle_beta   90.00000000
_cell_angle_gamma   90.00000000
_symmetry_Int_Tables_number   1
_chemical_formula_structural   Gd4CdNi4Au
_chemical_formula_sum   'Gd4 Cd1 Ni4 Au1'
_cell_volume   197.49527224
_cell_formula_units_Z   1
loop_
 _symmetry_equiv_pos_site_id
 _symmetry_equiv_pos_as_xyz
  1  'x, y, z'
loop_
 _atom_site_type_symbol
 _atom_site_label
 _atom_site_symmetry_multiplicity
 _atom_site_fract_x
 _atom_site_fract_y
 _atom_site_fract_z
 _atom_site_occupancy
  Gd  Gd0  1  0.683987  0.171549  0.500001  1
  Gd  Gd1  1  0.171549  0.316013  0.500001  1
  Gd  Gd2  1  0.828452  0.683987  0.500001  1
  Gd  Gd3  1  0.316013  0.828452  0.500001  1
  Cd  Cd4  1  0.500000  0.500000  0.000000  1
  Ni  Ni5  1  0.379542  0.119052  0.000000  1
  Ni  Ni6  1  0.880949  0.379542  0.000000  1
  Ni  Ni7  1  0.119052  0.620459  0.000000  1
  Ni  Ni8  1  0.620459  0.880949  0.000000  1
  Au  Au9  1  0.000000  0.000000  0.000000  1
