# generated using pymatgen
data_MnCd2Fe4(PO4)6
_symmetry_space_group_name_H-M   'P 1'
_cell_length_a   6.46338380
_cell_length_b   8.75433843
_cell_length_c   8.95820012
_cell_angle_alpha   91.74947356
_cell_angle_beta   107.35904331
_cell_angle_gamma   105.99754220
_symmetry_Int_Tables_number   1
_chemical_formula_structural   MnCd2Fe4(PO4)6
_chemical_formula_sum   'Mn1 Cd2 Fe4 P6 O24'
_cell_volume   461.53142229
_cell_formula_units_Z   1
loop_
 _symmetry_equiv_pos_site_id
 _symmetry_equiv_pos_as_xyz
  1  'x, y, z'
loop_
 _atom_site_type_symbol
 _atom_site_label
 _atom_site_symmetry_multiplicity
 _atom_site_fract_x
 _atom_site_fract_y
 _atom_site_fract_z
 _atom_site_occupancy
  Mn  Mn0  1  0.254774  0.755886  0.242954  1
  Cd  Cd1  1  0.743667  0.241182  0.755828  1
  Cd  Cd2  1  0.005449  0.997558  0.997881  1
  Fe  Fe3  1  0.133361  0.870863  0.570006  1
  Fe  Fe4  1  0.369441  0.432879  0.120121  1
  Fe  Fe5  1  0.869934  0.129058  0.425838  1
  Fe  Fe6  1  0.630547  0.568718  0.879084  1
  P  P7  1  0.247121  0.215887  0.775298  1
  P  P8  1  0.753668  0.784233  0.222104  1
  P  P9  1  0.358010  0.144603  0.356986  1
  P  P10  1  0.133619  0.644616  0.860026  1
  P  P11  1  0.640701  0.847663  0.637841  1
  P  P12  1  0.872630  0.359567  0.144781  1
  O  O13  1  0.267814  0.046304  0.750181  1
  O  O14  1  0.228743  0.239006  0.944644  1
  O  O15  1  0.737981  0.955010  0.247907  1
  O  O16  1  0.768718  0.760215  0.051695  1
  O  O17  1  0.973175  0.760347  0.339274  1
  O  O18  1  0.536975  0.661121  0.237936  1
  O  O19  1  0.029718  0.237686  0.654198  1
  O  O20  1  0.459806  0.343752  0.760334  1
  O  O21  1  0.131550  0.699266  0.698445  1
  O  O22  1  0.365433  0.304677  0.290239  1
  O  O23  1  0.876517  0.308018  0.307875  1
  O  O24  1  0.626970  0.685004  0.699992  1
  O  O25  1  0.405478  0.839742  0.517284  1
  O  O26  1  0.102845  0.491580  0.161690  1
  O  O27  1  0.595343  0.155902  0.475159  1
  O  O28  1  0.901530  0.516589  0.843492  1
  O  O29  1  0.287421  0.008246  0.221885  1
  O  O30  1  0.177968  0.782447  0.985893  1
  O  O31  1  0.710787  0.978290  0.778629  1
  O  O32  1  0.835253  0.218459  0.024766  1
  O  O33  1  0.182199  0.102267  0.449135  1
  O  O34  1  0.323171  0.556878  0.914713  1
  O  O35  1  0.820736  0.893400  0.549314  1
  O  O36  1  0.677244  0.441978  0.086069  1
