# generated using pymatgen
data_DyCr2(FeTc4)2
_symmetry_space_group_name_H-M   'P 1'
_cell_length_a   6.75735433
_cell_length_b   6.70697916
_cell_length_c   6.75735583
_cell_angle_alpha   97.44453358
_cell_angle_beta   97.75338333
_cell_angle_gamma   137.90393168
_symmetry_Int_Tables_number   1
_chemical_formula_structural   DyCr2(FeTc4)2
_chemical_formula_sum   'Dy1 Cr2 Fe2 Tc8'
_cell_volume   190.88066029
_cell_formula_units_Z   1
loop_
 _symmetry_equiv_pos_site_id
 _symmetry_equiv_pos_as_xyz
  1  'x, y, z'
loop_
 _atom_site_type_symbol
 _atom_site_label
 _atom_site_symmetry_multiplicity
 _atom_site_fract_x
 _atom_site_fract_y
 _atom_site_fract_z
 _atom_site_occupancy
  Dy  Dy0  1  0.000000  0.000000  0.000000  1
  Cr  Cr1  1  0.500000  0.000000  0.000000  1
  Cr  Cr2  1  0.000000  0.000000  0.500000  1
  Fe  Fe3  1  0.500000  0.500000  0.500000  1
  Fe  Fe4  1  0.000000  0.500000  0.000000  1
  Tc  Tc5  1  0.997189  0.641654  0.644464  1
  Tc  Tc6  1  0.356774  0.000000  0.356774  1
  Tc  Tc7  1  0.643226  0.000000  0.643226  1
  Tc  Tc8  1  0.002811  0.358346  0.355536  1
  Tc  Tc9  1  0.500125  0.716929  0.216804  1
  Tc  Tc10  1  0.499875  0.283071  0.783196  1
  Tc  Tc11  1  0.719615  0.500000  0.219615  1
  Tc  Tc12  1  0.280385  0.500000  0.780385  1
