# generated using pymatgen
data_Tm4ZrPt3F28
_symmetry_space_group_name_H-M   'P 1'
_cell_length_a   5.54995507
_cell_length_b   8.84460786
_cell_length_c   11.95162087
_cell_angle_alpha   62.64560379
_cell_angle_beta   90.05523530
_cell_angle_gamma   90.07104644
_symmetry_Int_Tables_number   1
_chemical_formula_structural   Tm4ZrPt3F28
_chemical_formula_sum   'Tm4 Zr1 Pt3 F28'
_cell_volume   521.07009906
_cell_formula_units_Z   1
loop_
 _symmetry_equiv_pos_site_id
 _symmetry_equiv_pos_as_xyz
  1  'x, y, z'
loop_
 _atom_site_type_symbol
 _atom_site_label
 _atom_site_symmetry_multiplicity
 _atom_site_fract_x
 _atom_site_fract_y
 _atom_site_fract_z
 _atom_site_occupancy
  Tm  Tm0  1  0.258241  0.813806  0.270091  1
  Tm  Tm1  1  0.740281  0.185991  0.735090  1
  Tm  Tm2  1  0.761607  0.180353  0.238697  1
  Tm  Tm3  1  0.240663  0.816529  0.760730  1
  Zr  Zr4  1  0.755244  0.724984  0.043433  1
  Pt  Pt5  1  0.239511  0.272216  0.956332  1
  Pt  Pt6  1  0.260261  0.271637  0.457425  1
  Pt  Pt7  1  0.741107  0.726246  0.544268  1
  F  F8  1  0.938192  0.702313  0.416512  1
  F  F9  1  0.060347  0.296645  0.583648  1
  F  F10  1  0.439327  0.296268  0.083955  1
  F  F11  1  0.538827  0.710058  0.912484  1
  F  F12  1  0.469851  0.731574  0.148018  1
  F  F13  1  0.528606  0.276186  0.859749  1
  F  F14  1  0.968839  0.271286  0.362995  1
  F  F15  1  0.034043  0.727174  0.636553  1
  F  F16  1  0.963620  0.751279  0.175376  1
  F  F17  1  0.047373  0.254924  0.823523  1
  F  F18  1  0.455914  0.254703  0.324977  1
  F  F19  1  0.549629  0.744244  0.676442  1
  F  F20  1  0.777141  0.467025  0.143343  1
  F  F21  1  0.220381  0.522115  0.855569  1
  F  F22  1  0.269829  0.521875  0.359147  1
  F  F23  1  0.729825  0.476232  0.643219  1
  F  F24  1  0.940993  0.273901  0.046748  1
  F  F25  1  0.062617  0.726261  0.947998  1
  F  F26  1  0.439925  0.718105  0.458743  1
  F  F27  1  0.559266  0.280763  0.543943  1
  F  F28  1  0.742654  0.976203  0.450008  1
  F  F29  1  0.259149  0.021713  0.549862  1
  F  F30  1  0.246371  0.022478  0.052925  1
  F  F31  1  0.758034  0.982476  0.939086  1
  F  F32  1  0.579059  0.969992  0.235830  1
  F  F33  1  0.421238  0.030186  0.763215  1
  F  F34  1  0.080994  0.028095  0.270164  1
  F  F35  1  0.921035  0.974163  0.729904  1
