# generated using pymatgen
data_Dy5ErAl24Os3Ru5
_symmetry_space_group_name_H-M   'P 1'
_cell_length_a   8.81524840
_cell_length_b   8.80525410
_cell_length_c   9.60726203
_cell_angle_alpha   89.98054753
_cell_angle_beta   89.94826597
_cell_angle_gamma   120.39926017
_symmetry_Int_Tables_number   1
_chemical_formula_structural   Dy5ErAl24Os3Ru5
_chemical_formula_sum   'Dy5 Er1 Al24 Os3 Ru5'
_cell_volume   643.19846381
_cell_formula_units_Z   1
loop_
 _symmetry_equiv_pos_site_id
 _symmetry_equiv_pos_as_xyz
  1  'x, y, z'
loop_
 _atom_site_type_symbol
 _atom_site_label
 _atom_site_symmetry_multiplicity
 _atom_site_fract_x
 _atom_site_fract_y
 _atom_site_fract_z
 _atom_site_occupancy
  Dy  Dy0  1  0.195346  0.388070  0.250724  1
  Dy  Dy1  1  0.612870  0.803811  0.250159  1
  Dy  Dy2  1  0.807357  0.195381  0.749117  1
  Dy  Dy3  1  0.804480  0.611751  0.749301  1
  Dy  Dy4  1  0.387392  0.196387  0.749834  1
  Er  Er5  1  0.192889  0.803649  0.251055  1
  Al  Al6  1  0.561974  0.437325  0.249824  1
  Al  Al7  1  0.561311  0.121273  0.249846  1
  Al  Al8  1  0.876009  0.436932  0.249376  1
  Al  Al9  1  0.437954  0.562701  0.750145  1
  Al  Al10  1  0.437892  0.878197  0.750180  1
  Al  Al11  1  0.124327  0.563672  0.750519  1
  Al  Al12  1  0.325735  0.162703  0.422428  1
  Al  Al13  1  0.837419  0.162472  0.424248  1
  Al  Al14  1  0.836990  0.673674  0.423299  1
  Al  Al15  1  0.674141  0.837029  0.577024  1
  Al  Al16  1  0.162575  0.837678  0.575080  1
  Al  Al17  1  0.163296  0.326577  0.576183  1
  Al  Al18  1  0.674124  0.837180  0.923080  1
  Al  Al19  1  0.162653  0.837851  0.924969  1
  Al  Al20  1  0.163332  0.326391  0.923510  1
  Al  Al21  1  0.325684  0.162500  0.077478  1
  Al  Al22  1  0.837315  0.162273  0.075757  1
  Al  Al23  1  0.836960  0.673840  0.076989  1
  Al  Al24  1  0.665718  0.333126  0.517069  1
  Al  Al25  1  0.334278  0.667069  0.482442  1
  Al  Al26  1  0.333594  0.666819  0.017906  1
  Al  Al27  1  0.666248  0.333351  0.982661  1
  Al  Al28  1  0.001341  0.998759  0.249994  1
  Al  Al29  1  0.999225  0.000747  0.749996  1
  Os  Os30  1  0.499952  0.500034  0.499875  1
  Os  Os31  1  0.000070  0.500249  0.499625  1
  Os  Os32  1  0.499813  0.500229  0.999990  1
  Ru  Ru33  1  0.000065  0.000153  0.499757  1
  Ru  Ru34  1  0.000044  0.000049  0.000147  1
  Ru  Ru35  1  0.499829  0.999995  0.499689  1
  Ru  Ru36  1  0.499712  0.999844  0.000405  1
  Ru  Ru37  1  0.000086  0.500256  0.000318  1
