# generated using pymatgen
data_Ce4Mg2Co18Si7P5
_symmetry_space_group_name_H-M   'P 1'
_cell_length_a   3.74666100
_cell_length_b   10.61323018
_cell_length_c   11.96450832
_cell_angle_alpha   89.73479538
_cell_angle_beta   90.00000000
_cell_angle_gamma   90.00000000
_symmetry_Int_Tables_number   1
_chemical_formula_structural   Ce4Mg2Co18Si7P5
_chemical_formula_sum   'Ce4 Mg2 Co18 Si7 P5'
_cell_volume   475.75371319
_cell_formula_units_Z   1
loop_
 _symmetry_equiv_pos_site_id
 _symmetry_equiv_pos_as_xyz
  1  'x, y, z'
loop_
 _atom_site_type_symbol
 _atom_site_label
 _atom_site_symmetry_multiplicity
 _atom_site_fract_x
 _atom_site_fract_y
 _atom_site_fract_z
 _atom_site_occupancy
  Ce  Ce0  1  0.250000  0.579954  0.692896  1
  Ce  Ce1  1  0.250000  0.918618  0.195877  1
  Ce  Ce2  1  0.750000  0.415528  0.296027  1
  Ce  Ce3  1  0.750000  0.085341  0.794279  1
  Mg  Mg4  1  0.250000  0.699835  0.992704  1
  Mg  Mg5  1  0.250000  0.799432  0.493211  1
  Co  Co6  1  0.750000  0.291935  0.009609  1
  Co  Co7  1  0.750000  0.207685  0.510065  1
  Co  Co8  1  0.250000  0.399235  0.488982  1
  Co  Co9  1  0.250000  0.101028  0.989947  1
  Co  Co10  1  0.750000  0.583564  0.519016  1
  Co  Co11  1  0.750000  0.916359  0.020204  1
  Co  Co12  1  0.250000  0.216020  0.172866  1
  Co  Co13  1  0.250000  0.282790  0.671738  1
  Co  Co14  1  0.750000  0.788029  0.832960  1
  Co  Co15  1  0.750000  0.719098  0.332844  1
  Co  Co16  1  0.250000  0.888324  0.698542  1
  Co  Co17  1  0.250000  0.614246  0.199801  1
  Co  Co18  1  0.750000  0.116226  0.298341  1
  Co  Co19  1  0.750000  0.380192  0.796656  1
  Co  Co20  1  0.250000  0.467326  0.926830  1
  Co  Co21  1  0.250000  0.028334  0.424665  1
  Co  Co22  1  0.750000  0.532179  0.067191  1
  Co  Co23  1  0.750000  0.967048  0.562445  1
  Si  Si24  1  0.250000  0.414823  0.105832  1
  Si  Si25  1  0.250000  0.085624  0.603689  1
  Si  Si26  1  0.750000  0.575883  0.880419  1
  Si  Si27  1  0.250000  0.273852  0.869217  1
  Si  Si28  1  0.250000  0.225374  0.369809  1
  Si  Si29  1  0.250000  0.594027  0.393593  1
  Si  Si30  1  0.250000  0.907714  0.894174  1
  P  P31  1  0.750000  0.924088  0.380861  1
  P  P32  1  0.750000  0.717085  0.150240  1
  P  P33  1  0.750000  0.784098  0.651465  1
  P  P34  1  0.750000  0.388041  0.606078  1
  P  P35  1  0.750000  0.111066  0.106925  1
