# generated using pymatgen
data_Dy4Y8Fe2I17
_symmetry_space_group_name_H-M   'P 1'
_cell_length_a   9.72567625
_cell_length_b   11.68706742
_cell_length_c   11.70517070
_cell_angle_alpha   93.52579554
_cell_angle_beta   104.70809565
_cell_angle_gamma   114.08367535
_symmetry_Int_Tables_number   1
_chemical_formula_structural   Dy4Y8Fe2I17
_chemical_formula_sum   'Dy4 Y8 Fe2 I17'
_cell_volume   1154.12735870
_cell_formula_units_Z   1
loop_
 _symmetry_equiv_pos_site_id
 _symmetry_equiv_pos_as_xyz
  1  'x, y, z'
loop_
 _atom_site_type_symbol
 _atom_site_label
 _atom_site_symmetry_multiplicity
 _atom_site_fract_x
 _atom_site_fract_y
 _atom_site_fract_z
 _atom_site_occupancy
  Dy  Dy0  1  0.745670  0.022661  0.111294  1
  Dy  Dy1  1  0.140032  0.286421  0.154118  1
  Dy  Dy2  1  0.781364  0.328298  0.017771  1
  Dy  Dy3  1  0.859797  0.713322  0.845639  1
  Y  Y4  1  0.052459  0.502902  0.319850  1
  Y  Y5  1  0.992415  0.809438  0.588246  1
  Y  Y6  1  0.655252  0.241520  0.280468  1
  Y  Y7  1  0.007411  0.190512  0.411510  1
  Y  Y8  1  0.219196  0.671135  0.983207  1
  Y  Y9  1  0.255137  0.978549  0.889149  1
  Y  Y10  1  0.344580  0.758419  0.719526  1
  Y  Y11  1  0.947185  0.496923  0.680032  1
  Fe  Fe12  1  0.103620  0.738014  0.785837  1
  Fe  Fe13  1  0.895972  0.261732  0.213744  1
  I  I14  1  0.783917  0.528647  0.417327  1
  I  I15  1  0.644290  0.419458  0.761875  1
  I  I16  1  0.843897  0.895416  0.326870  1
  I  I17  1  0.327460  0.213480  0.368555  1
  I  I18  1  0.156041  0.104661  0.673021  1
  I  I19  1  0.586290  0.053009  0.842730  1
  I  I20  1  0.757636  0.187685  0.538462  1
  I  I21  1  0.551277  0.710460  0.953826  1
  I  I22  1  0.355949  0.580726  0.238139  1
  I  I23  1  0.216091  0.471366  0.582618  1
  I  I24  1  0.056308  0.367343  0.896974  1
  I  I25  1  0.448588  0.289512  0.046024  1
  I  I26  1  0.999890  0.999928  0.999989  1
  I  I27  1  0.242395  0.812316  0.461525  1
  I  I28  1  0.413731  0.946917  0.157289  1
  I  I29  1  0.672585  0.786571  0.631478  1
  I  I30  1  0.943562  0.632657  0.102906  1
