# generated using pymatgen
data_Ca21Ga10GeSb4
_symmetry_space_group_name_H-M   'P 1'
_cell_length_a   11.34068503
_cell_length_b   11.40771312
_cell_length_c   11.40771400
_cell_angle_alpha   59.71853997
_cell_angle_beta   60.19417863
_cell_angle_gamma   60.19417290
_symmetry_Int_Tables_number   1
_chemical_formula_structural   Ca21Ga10GeSb4
_chemical_formula_sum   'Ca21 Ga10 Ge1 Sb4'
_cell_volume   1044.36487051
_cell_formula_units_Z   1
loop_
 _symmetry_equiv_pos_site_id
 _symmetry_equiv_pos_as_xyz
  1  'x, y, z'
loop_
 _atom_site_type_symbol
 _atom_site_label
 _atom_site_symmetry_multiplicity
 _atom_site_fract_x
 _atom_site_fract_y
 _atom_site_fract_z
 _atom_site_occupancy
  Ca  Ca0  1  0.000000  0.006514  0.993486  1
  Ca  Ca1  1  0.135526  0.134753  0.118086  1
  Ca  Ca2  1  0.388365  0.881914  0.865247  1
  Ca  Ca3  1  0.876258  0.384882  0.862601  1
  Ca  Ca4  1  0.868309  0.868548  0.394836  1
  Ca  Ca5  1  0.131691  0.605164  0.131452  1
  Ca  Ca6  1  0.123742  0.137399  0.615118  1
  Ca  Ca7  1  0.611635  0.134753  0.118086  1
  Ca  Ca8  1  0.864474  0.881914  0.865247  1
  Ca  Ca9  1  0.499021  0.815575  0.501274  1
  Ca  Ca10  1  0.814500  0.490706  0.509294  1
  Ca  Ca11  1  0.500000  0.815094  0.184906  1
  Ca  Ca12  1  0.183799  0.491179  0.816413  1
  Ca  Ca13  1  0.815870  0.498726  0.184425  1
  Ca  Ca14  1  0.508609  0.491179  0.816413  1
  Ca  Ca15  1  0.184130  0.815575  0.501274  1
  Ca  Ca16  1  0.500000  0.183949  0.816051  1
  Ca  Ca17  1  0.500979  0.498726  0.184425  1
  Ca  Ca18  1  0.816201  0.183587  0.508821  1
  Ca  Ca19  1  0.185500  0.490706  0.509294  1
  Ca  Ca20  1  0.491391  0.183587  0.508821  1
  Ga  Ga21  1  0.211431  0.209179  0.790821  1
  Ga  Ga22  1  0.788569  0.209179  0.790821  1
  Ga  Ga23  1  0.310993  0.309411  0.308262  1
  Ga  Ga24  1  0.928665  0.691738  0.690589  1
  Ga  Ga25  1  0.690756  0.930043  0.688446  1
  Ga  Ga26  1  0.691145  0.690906  0.926806  1
  Ga  Ga27  1  0.308855  0.073194  0.309094  1
  Ga  Ga28  1  0.309244  0.311554  0.069957  1
  Ga  Ga29  1  0.071335  0.309411  0.308262  1
  Ga  Ga30  1  0.689008  0.691738  0.690588  1
  Ge  Ge31  1  0.500000  0.513292  0.486708  1
  Sb  Sb32  1  0.207710  0.787295  0.212705  1
  Sb  Sb33  1  0.212235  0.783431  0.792097  1
  Sb  Sb34  1  0.787765  0.207903  0.216569  1
  Sb  Sb35  1  0.792290  0.787295  0.212705  1
