# generated using pymatgen
data_Er8TmLuIr6
_symmetry_space_group_name_H-M   'P 1'
_cell_length_a   10.78859600
_cell_length_b   10.78859600
_cell_length_c   6.32055800
_cell_angle_alpha   90.00000000
_cell_angle_beta   90.00000000
_cell_angle_gamma   90.00000000
_symmetry_Int_Tables_number   1
_chemical_formula_structural   Er8TmLuIr6
_chemical_formula_sum   'Er16 Tm2 Lu2 Ir12'
_cell_volume   735.67378682
_cell_formula_units_Z   2
loop_
 _symmetry_equiv_pos_site_id
 _symmetry_equiv_pos_as_xyz
  1  'x, y, z'
loop_
 _atom_site_type_symbol
 _atom_site_label
 _atom_site_symmetry_multiplicity
 _atom_site_fract_x
 _atom_site_fract_y
 _atom_site_fract_z
 _atom_site_occupancy
  Er  Er0  1  0.291403  0.087827  0.378733  1
  Er  Er1  1  0.291403  0.912173  0.878733  1
  Er  Er2  1  0.708597  0.087827  0.878733  1
  Er  Er3  1  0.708597  0.912173  0.378733  1
  Er  Er4  1  0.587544  0.790551  0.878959  1
  Er  Er5  1  0.587544  0.209449  0.378959  1
  Er  Er6  1  0.412456  0.790551  0.378959  1
  Er  Er7  1  0.412456  0.209449  0.878959  1
  Er  Er8  1  0.209449  0.412456  0.621041  1
  Er  Er9  1  0.209449  0.587544  0.121041  1
  Er  Er10  1  0.790551  0.412456  0.121041  1
  Er  Er11  1  0.790551  0.587544  0.621041  1
  Er  Er12  1  0.912173  0.708597  0.121267  1
  Er  Er13  1  0.912173  0.291403  0.621267  1
  Er  Er14  1  0.087827  0.708597  0.621267  1
  Er  Er15  1  0.087827  0.291403  0.121267  1
  Tm  Tm16  1  0.000000  0.000000  0.500000  1
  Tm  Tm17  1  0.000000  0.000000  0.000000  1
  Lu  Lu18  1  0.500000  0.500000  0.000000  1
  Lu  Lu19  1  0.500000  0.500000  0.500000  1
  Ir  Ir20  1  0.846868  0.153132  0.250000  1
  Ir  Ir21  1  0.846868  0.846868  0.750000  1
  Ir  Ir22  1  0.153132  0.153132  0.750000  1
  Ir  Ir23  1  0.153132  0.846868  0.250000  1
  Ir  Ir24  1  0.651910  0.348090  0.750000  1
  Ir  Ir25  1  0.651910  0.651910  0.250000  1
  Ir  Ir26  1  0.348090  0.348090  0.250000  1
  Ir  Ir27  1  0.348090  0.651910  0.750000  1
  Ir  Ir28  1  0.500000  0.000000  0.125538  1
  Ir  Ir29  1  0.500000  0.000000  0.625538  1
  Ir  Ir30  1  0.000000  0.500000  0.874462  1
  Ir  Ir31  1  0.000000  0.500000  0.374462  1
