# generated using pymatgen
data_Y2Er3Zr3(As3Rh4)4
_symmetry_space_group_name_H-M   'P 1'
_cell_length_a   13.34012100
_cell_length_b   13.34012153
_cell_length_c   4.00471000
_cell_angle_alpha   90.00000000
_cell_angle_beta   90.00000000
_cell_angle_gamma   120.00000116
_symmetry_Int_Tables_number   1
_chemical_formula_structural   Y2Er3Zr3(As3Rh4)4
_chemical_formula_sum   'Y2 Er3 Zr3 As12 Rh16'
_cell_volume   617.19337230
_cell_formula_units_Z   1
loop_
 _symmetry_equiv_pos_site_id
 _symmetry_equiv_pos_as_xyz
  1  'x, y, z'
loop_
 _atom_site_type_symbol
 _atom_site_label
 _atom_site_symmetry_multiplicity
 _atom_site_fract_x
 _atom_site_fract_y
 _atom_site_fract_z
 _atom_site_occupancy
  Y  Y0  1  0.333333  0.666667  0.000000  1
  Y  Y1  1  0.666667  0.333333  0.000000  1
  Er  Er2  1  0.187501  0.187501  0.500000  1
  Er  Er3  1  0.812499  0.000000  0.500000  1
  Er  Er4  1  0.000000  0.812499  0.500000  1
  Zr  Zr5  1  0.555856  0.555856  0.000000  1
  Zr  Zr6  1  0.444144  0.000000  0.000000  1
  Zr  Zr7  1  0.000000  0.444144  0.000000  1
  As  As8  1  0.825272  0.825272  0.000000  1
  As  As9  1  0.174728  0.000000  0.000000  1
  As  As10  1  0.000000  0.174728  0.000000  1
  As  As11  1  0.170477  0.485693  0.500000  1
  As  As12  1  0.514307  0.684784  0.500000  1
  As  As13  1  0.315216  0.829523  0.500000  1
  As  As14  1  0.684784  0.514307  0.500000  1
  As  As15  1  0.829523  0.315216  0.500000  1
  As  As16  1  0.485693  0.170477  0.500000  1
  As  As17  1  0.353230  0.353230  0.000000  1
  As  As18  1  0.646770  0.000000  0.000000  1
  As  As19  1  0.000000  0.646770  0.000000  1
  Rh  Rh20  1  0.719920  0.719920  0.500000  1
  Rh  Rh21  1  0.280080  0.000000  0.500000  1
  Rh  Rh22  1  0.000000  0.280080  0.500000  1
  Rh  Rh23  1  0.176478  0.372990  0.000000  1
  Rh  Rh24  1  0.627010  0.803489  0.000000  1
  Rh  Rh25  1  0.196511  0.823522  0.000000  1
  Rh  Rh26  1  0.803489  0.627010  0.000000  1
  Rh  Rh27  1  0.823522  0.196511  0.000000  1
  Rh  Rh28  1  0.372990  0.176478  0.000000  1
  Rh  Rh29  1  0.354677  0.482257  0.500000  1
  Rh  Rh30  1  0.517743  0.872421  0.500000  1
  Rh  Rh31  1  0.127579  0.645323  0.500000  1
  Rh  Rh32  1  0.872421  0.517743  0.500000  1
  Rh  Rh33  1  0.645323  0.127579  0.500000  1
  Rh  Rh34  1  0.482257  0.354677  0.500000  1
  Rh  Rh35  1  0.000000  0.000000  0.000000  1
