# generated using pymatgen
data_CeNd6Dy9(CdOs)4
_symmetry_space_group_name_H-M   'P 1'
_cell_length_a   9.78416099
_cell_length_b   9.78416034
_cell_length_c   9.78416000
_cell_angle_alpha   59.23494358
_cell_angle_beta   59.23494586
_cell_angle_gamma   59.23494125
_symmetry_Int_Tables_number   1
_chemical_formula_structural   CeNd6Dy9(CdOs)4
_chemical_formula_sum   'Ce1 Nd6 Dy9 Cd4 Os4'
_cell_volume   650.75940933
_cell_formula_units_Z   1
loop_
 _symmetry_equiv_pos_site_id
 _symmetry_equiv_pos_as_xyz
  1  'x, y, z'
loop_
 _atom_site_type_symbol
 _atom_site_label
 _atom_site_symmetry_multiplicity
 _atom_site_fract_x
 _atom_site_fract_y
 _atom_site_fract_z
 _atom_site_occupancy
  Ce  Ce0  1  0.341170  0.341182  0.341157  1
  Nd  Nd1  1  0.558641  0.558658  0.940884  1
  Nd  Nd2  1  0.943887  0.556020  0.943898  1
  Nd  Nd3  1  0.556024  0.943874  0.943897  1
  Nd  Nd4  1  0.943876  0.943872  0.556030  1
  Nd  Nd5  1  0.558654  0.940877  0.558651  1
  Nd  Nd6  1  0.940890  0.558651  0.558639  1
  Dy  Dy7  1  0.188697  0.188700  0.812151  1
  Dy  Dy8  1  0.811902  0.188926  0.811897  1
  Dy  Dy9  1  0.188926  0.811901  0.811899  1
  Dy  Dy10  1  0.811899  0.811896  0.188927  1
  Dy  Dy11  1  0.188692  0.812158  0.188696  1
  Dy  Dy12  1  0.812153  0.188696  0.188693  1
  Dy  Dy13  1  0.345894  0.345902  0.960731  1
  Dy  Dy14  1  0.345903  0.960730  0.345897  1
  Dy  Dy15  1  0.960730  0.345906  0.345893  1
  Cd  Cd16  1  0.578539  0.578536  0.262628  1
  Cd  Cd17  1  0.578538  0.262623  0.578542  1
  Cd  Cd18  1  0.262625  0.578537  0.578541  1
  Cd  Cd19  1  0.578532  0.578531  0.578533  1
  Os  Os20  1  0.143081  0.143084  0.578395  1
  Os  Os21  1  0.143080  0.578387  0.143075  1
  Os  Os22  1  0.578393  0.143073  0.143072  1
  Os  Os23  1  0.139271  0.139280  0.139272  1
