# generated using pymatgen
data_CuSb12OsRu2
_symmetry_space_group_name_H-M   'P 1'
_cell_length_a   8.13105607
_cell_length_b   8.13230807
_cell_length_c   9.39058685
_cell_angle_alpha   54.65505049
_cell_angle_beta   54.90951984
_cell_angle_gamma   70.52882269
_symmetry_Int_Tables_number   1
_chemical_formula_structural   CuSb12OsRu2
_chemical_formula_sum   'Cu1 Sb12 Os1 Ru2'
_cell_volume   414.43712786
_cell_formula_units_Z   1
loop_
 _symmetry_equiv_pos_site_id
 _symmetry_equiv_pos_as_xyz
  1  'x, y, z'
loop_
 _atom_site_type_symbol
 _atom_site_label
 _atom_site_symmetry_multiplicity
 _atom_site_fract_x
 _atom_site_fract_y
 _atom_site_fract_z
 _atom_site_occupancy
  Cu  Cu0  1  0.500000  0.000000  0.500000  1
  Sb  Sb1  1  0.157601  0.156811  0.177984  1
  Sb  Sb2  1  0.842399  0.843189  0.822016  1
  Sb  Sb3  1  0.848539  0.843899  0.495463  1
  Sb  Sb4  1  0.151461  0.156101  0.504537  1
  Sb  Sb5  1  0.820526  0.507641  0.335192  1
  Sb  Sb6  1  0.179474  0.492359  0.664808  1
  Sb  Sb7  1  0.503737  0.813382  0.338896  1
  Sb  Sb8  1  0.496263  0.186618  0.661104  1
  Sb  Sb9  1  0.663651  0.335579  0.843619  1
  Sb  Sb10  1  0.336349  0.664421  0.156381  1
  Sb  Sb11  1  0.660906  0.345384  0.151681  1
  Sb  Sb12  1  0.339094  0.654616  0.848319  1
  Os  Os13  1  0.000000  0.500000  0.500000  1
  Ru  Ru14  1  0.000000  0.500000  0.000000  1
  Ru  Ru15  1  0.500000  0.000000  0.000000  1
