# generated using pymatgen
data_SrLi2TbPb2
_symmetry_space_group_name_H-M   'P 1'
_cell_length_a   4.91082900
_cell_length_b   4.91083040
_cell_length_c   7.85247300
_cell_angle_alpha   90.00000000
_cell_angle_beta   90.00000000
_cell_angle_gamma   119.99999728
_symmetry_Int_Tables_number   1
_chemical_formula_structural   SrLi2TbPb2
_chemical_formula_sum   'Sr1 Li2 Tb1 Pb2'
_cell_volume   164.00113104
_cell_formula_units_Z   1
loop_
 _symmetry_equiv_pos_site_id
 _symmetry_equiv_pos_as_xyz
  1  'x, y, z'
loop_
 _atom_site_type_symbol
 _atom_site_label
 _atom_site_symmetry_multiplicity
 _atom_site_fract_x
 _atom_site_fract_y
 _atom_site_fract_z
 _atom_site_occupancy
  Sr  Sr0  1  0.000000  0.000000  0.015241  1
  Li  Li1  1  0.666667  0.333333  0.321319  1
  Li  Li2  1  0.333333  0.666667  0.708291  1
  Tb  Tb3  1  0.000000  0.000000  0.515160  1
  Pb  Pb4  1  0.333333  0.666667  0.300625  1
  Pb  Pb5  1  0.666667  0.333333  0.729764  1
