# generated using pymatgen
data_YTh6FeCo2
_symmetry_space_group_name_H-M   'P 1'
_cell_length_a   9.77157967
_cell_length_b   9.76505766
_cell_length_c   6.15762611
_cell_angle_alpha   89.91928527
_cell_angle_beta   90.16132188
_cell_angle_gamma   120.02208940
_symmetry_Int_Tables_number   1
_chemical_formula_structural   YTh6FeCo2
_chemical_formula_sum   'Y2 Th12 Fe2 Co4'
_cell_volume   508.72736931
_cell_formula_units_Z   2
loop_
 _symmetry_equiv_pos_site_id
 _symmetry_equiv_pos_as_xyz
  1  'x, y, z'
loop_
 _atom_site_type_symbol
 _atom_site_label
 _atom_site_symmetry_multiplicity
 _atom_site_fract_x
 _atom_site_fract_y
 _atom_site_fract_z
 _atom_site_occupancy
  Y  Y0  1  0.333294  0.666635  0.048746  1
  Y  Y1  1  0.666660  0.333365  0.548746  1
  Th  Th2  1  0.126928  0.873583  0.243713  1
  Th  Th3  1  0.253346  0.126417  0.743713  1
  Th  Th4  1  0.871897  0.748414  0.745475  1
  Th  Th5  1  0.123482  0.251586  0.245475  1
  Th  Th6  1  0.748407  0.876501  0.244082  1
  Th  Th7  1  0.871907  0.123499  0.744082  1
  Th  Th8  1  0.543090  0.458128  0.068275  1
  Th  Th9  1  0.084960  0.541872  0.568275  1
  Th  Th10  1  0.459004  0.913079  0.568528  1
  Th  Th11  1  0.545927  0.086921  0.068528  1
  Th  Th12  1  0.912707  0.454317  0.066309  1
  Th  Th13  1  0.458389  0.545683  0.566309  1
  Fe  Fe14  1  0.819870  0.182217  0.277816  1
  Fe  Fe15  1  0.637654  0.817783  0.777816  1
  Co  Co16  1  0.181424  0.362707  0.782641  1
  Co  Co17  1  0.818716  0.637293  0.282641  1
  Co  Co18  1  0.362028  0.181720  0.284413  1
  Co  Co19  1  0.180309  0.818280  0.784413  1
