# generated using pymatgen
data_TbGdFe11NiP7
_symmetry_space_group_name_H-M   'P 1'
_cell_length_a   3.64372800
_cell_length_b   8.97663333
_cell_length_c   9.01986383
_cell_angle_alpha   120.29821646
_cell_angle_beta   90.00000000
_cell_angle_gamma   90.00000000
_symmetry_Int_Tables_number   1
_chemical_formula_structural   TbGdFe11NiP7
_chemical_formula_sum   'Tb1 Gd1 Fe11 Ni1 P7'
_cell_volume   254.72825625
_cell_formula_units_Z   1
loop_
 _symmetry_equiv_pos_site_id
 _symmetry_equiv_pos_as_xyz
  1  'x, y, z'
loop_
 _atom_site_type_symbol
 _atom_site_label
 _atom_site_symmetry_multiplicity
 _atom_site_fract_x
 _atom_site_fract_y
 _atom_site_fract_z
 _atom_site_occupancy
  Tb  Tb0  1  0.500000  0.333472  0.665108  1
  Gd  Gd1  1  0.000000  0.666093  0.333987  1
  Fe  Fe2  1  0.000000  0.057341  0.425866  1
  Fe  Fe3  1  0.000000  0.573311  0.631351  1
  Fe  Fe4  1  0.000000  0.880383  0.728492  1
  Fe  Fe5  1  0.000000  0.273280  0.155049  1
  Fe  Fe6  1  0.000000  0.846593  0.120573  1
  Fe  Fe7  1  0.500000  0.949754  0.566309  1
  Fe  Fe8  1  0.500000  0.433777  0.387018  1
  Fe  Fe9  1  0.500000  0.613716  0.047524  1
  Fe  Fe10  1  0.500000  0.122788  0.900305  1
  Fe  Fe11  1  0.500000  0.096338  0.215919  1
  Fe  Fe12  1  0.500000  0.785737  0.882793  1
  Ni  Ni13  1  0.000000  0.368850  0.938689  1
  P  P14  1  0.000000  0.104146  0.694762  1
  P  P15  1  0.000000  0.298979  0.408729  1
  P  P16  1  0.000000  0.595060  0.888091  1
  P  P17  1  0.500000  0.711027  0.601020  1
  P  P18  1  0.500000  0.400881  0.118167  1
  P  P19  1  0.500000  0.888121  0.289172  1
  P  P20  1  0.000000  0.000356  0.001077  1
