# generated using pymatgen
data_Ho4Sn6IrRh6
_symmetry_space_group_name_H-M   'P 1'
_cell_length_a   7.59597206
_cell_length_b   7.59597141
_cell_length_c   7.59597155
_cell_angle_alpha   109.56510211
_cell_angle_beta   109.42429540
_cell_angle_gamma   109.42430447
_symmetry_Int_Tables_number   1
_chemical_formula_structural   Ho4Sn6IrRh6
_chemical_formula_sum   'Ho4 Sn6 Ir1 Rh6'
_cell_volume   337.38614784
_cell_formula_units_Z   1
loop_
 _symmetry_equiv_pos_site_id
 _symmetry_equiv_pos_as_xyz
  1  'x, y, z'
loop_
 _atom_site_type_symbol
 _atom_site_label
 _atom_site_symmetry_multiplicity
 _atom_site_fract_x
 _atom_site_fract_y
 _atom_site_fract_z
 _atom_site_occupancy
  Ho  Ho0  1  0.999187  0.999594  0.499594  1
  Ho  Ho1  1  0.000813  0.500406  0.000406  1
  Ho  Ho2  1  0.500000  0.999594  0.000406  1
  Ho  Ho3  1  0.500000  0.500406  0.499594  1
  Sn  Sn4  1  0.685468  0.685204  0.999736  1
  Sn  Sn5  1  0.314532  0.000264  0.314796  1
  Sn  Sn6  1  0.000000  0.315261  0.315261  1
  Sn  Sn7  1  0.314532  0.314268  0.999736  1
  Sn  Sn8  1  0.685468  0.000264  0.685732  1
  Sn  Sn9  1  0.000000  0.684739  0.684739  1
  Ir  Ir10  1  0.500000  0.750000  0.250000  1
  Rh  Rh11  1  0.749947  0.249906  0.499959  1
  Rh  Rh12  1  0.749947  0.500041  0.249989  1
  Rh  Rh13  1  0.500000  0.250000  0.750000  1
  Rh  Rh14  1  0.250053  0.500041  0.750094  1
  Rh  Rh15  1  0.250053  0.750011  0.499959  1
  Rh  Rh16  1  0.000000  0.000000  0.000000  1
