# generated using pymatgen
data_SmHo5V2(Co4P3)4
_symmetry_space_group_name_H-M   'P 1'
_cell_length_a   3.69808600
_cell_length_b   10.57066300
_cell_length_c   12.25714800
_cell_angle_alpha   90.00000000
_cell_angle_beta   90.00000000
_cell_angle_gamma   90.00000000
_symmetry_Int_Tables_number   1
_chemical_formula_structural   SmHo5V2(Co4P3)4
_chemical_formula_sum   'Sm1 Ho5 V2 Co16 P12'
_cell_volume   479.14687947
_cell_formula_units_Z   1
loop_
 _symmetry_equiv_pos_site_id
 _symmetry_equiv_pos_as_xyz
  1  'x, y, z'
loop_
 _atom_site_type_symbol
 _atom_site_label
 _atom_site_symmetry_multiplicity
 _atom_site_fract_x
 _atom_site_fract_y
 _atom_site_fract_z
 _atom_site_occupancy
  Sm  Sm0  1  0.000000  0.500000  0.523827  1
  Ho  Ho1  1  0.500000  0.000000  0.476648  1
  Ho  Ho2  1  0.500000  0.819037  0.204137  1
  Ho  Ho3  1  0.500000  0.180963  0.204137  1
  Ho  Ho4  1  0.000000  0.681366  0.796276  1
  Ho  Ho5  1  0.000000  0.318634  0.796276  1
  V  V6  1  0.500000  0.500000  0.153069  1
  V  V7  1  0.000000  0.000000  0.845813  1
  Co  Co8  1  0.000000  0.500000  0.987147  1
  Co  Co9  1  0.500000  0.000000  0.013038  1
  Co  Co10  1  0.500000  0.293692  0.430753  1
  Co  Co11  1  0.500000  0.706308  0.430753  1
  Co  Co12  1  0.000000  0.202466  0.569143  1
  Co  Co13  1  0.000000  0.797534  0.569143  1
  Co  Co14  1  0.500000  0.879211  0.708263  1
  Co  Co15  1  0.500000  0.120789  0.708263  1
  Co  Co16  1  0.000000  0.621822  0.291368  1
  Co  Co17  1  0.000000  0.378178  0.291368  1
  Co  Co18  1  0.500000  0.332208  0.993053  1
  Co  Co19  1  0.500000  0.667792  0.993053  1
  Co  Co20  1  0.000000  0.167397  0.006941  1
  Co  Co21  1  0.000000  0.832603  0.006941  1
  Co  Co22  1  0.500000  0.500000  0.704106  1
  Co  Co23  1  0.000000  0.000000  0.297428  1
  P  P24  1  0.500000  0.309061  0.616996  1
  P  P25  1  0.500000  0.690939  0.616996  1
  P  P26  1  0.000000  0.188093  0.383858  1
  P  P27  1  0.000000  0.811907  0.383858  1
  P  P28  1  0.500000  0.500000  0.882843  1
  P  P29  1  0.000000  0.000000  0.117715  1
  P  P30  1  0.500000  0.845953  0.891905  1
  P  P31  1  0.500000  0.154047  0.891905  1
  P  P32  1  0.000000  0.654496  0.107943  1
  P  P33  1  0.000000  0.345504  0.107943  1
  P  P34  1  0.500000  0.500000  0.344568  1
  P  P35  1  0.000000  0.000000  0.652524  1
