# generated using pymatgen
data_Nb4V4Si3Ge
_symmetry_space_group_name_H-M   'P 1'
_cell_length_a   3.41554300
_cell_length_b   6.61926683
_cell_length_c   7.97847290
_cell_angle_alpha   90.11648735
_cell_angle_beta   90.00000000
_cell_angle_gamma   90.00000000
_symmetry_Int_Tables_number   1
_chemical_formula_structural   Nb4V4Si3Ge
_chemical_formula_sum   'Nb4 V4 Si3 Ge1'
_cell_volume   180.38005813
_cell_formula_units_Z   1
loop_
 _symmetry_equiv_pos_site_id
 _symmetry_equiv_pos_as_xyz
  1  'x, y, z'
loop_
 _atom_site_type_symbol
 _atom_site_label
 _atom_site_symmetry_multiplicity
 _atom_site_fract_x
 _atom_site_fract_y
 _atom_site_fract_z
 _atom_site_occupancy
  Nb  Nb0  1  0.250000  0.052313  0.831501  1
  Nb  Nb1  1  0.250000  0.540576  0.663398  1
  Nb  Nb2  1  0.750000  0.956771  0.171333  1
  Nb  Nb3  1  0.750000  0.455924  0.331342  1
  V  V4  1  0.250000  0.128161  0.439141  1
  V  V5  1  0.250000  0.625705  0.064310  1
  V  V6  1  0.750000  0.872390  0.558272  1
  V  V7  1  0.750000  0.367834  0.940330  1
  Si  Si8  1  0.250000  0.753458  0.362048  1
  Si  Si9  1  0.250000  0.253050  0.139313  1
  Si  Si10  1  0.750000  0.246350  0.637180  1
  Ge  Ge11  1  0.750000  0.747466  0.861830  1
