# generated using pymatgen
data_Rb8Dy(OsBr8)3
_symmetry_space_group_name_H-M   'P 1'
_cell_length_a   13.02393117
_cell_length_b   13.02393069
_cell_length_c   13.02393100
_cell_angle_alpha   131.90359421
_cell_angle_beta   131.90359230
_cell_angle_gamma   70.38133113
_symmetry_Int_Tables_number   1
_chemical_formula_structural   Rb8Dy(OsBr8)3
_chemical_formula_sum   'Rb8 Dy1 Os3 Br24'
_cell_volume   1199.22661826
_cell_formula_units_Z   1
loop_
 _symmetry_equiv_pos_site_id
 _symmetry_equiv_pos_as_xyz
  1  'x, y, z'
loop_
 _atom_site_type_symbol
 _atom_site_label
 _atom_site_symmetry_multiplicity
 _atom_site_fract_x
 _atom_site_fract_y
 _atom_site_fract_z
 _atom_site_occupancy
  Rb  Rb0  1  0.121833  0.633174  0.999665  1
  Rb  Rb1  1  0.366826  0.878167  0.000335  1
  Rb  Rb2  1  0.633509  0.633174  0.511341  1
  Rb  Rb3  1  0.366826  0.366491  0.488659  1
  Rb  Rb4  1  0.877832  0.366491  0.999665  1
  Rb  Rb5  1  0.877832  0.878167  0.511341  1
  Rb  Rb6  1  0.121833  0.122168  0.488659  1
  Rb  Rb7  1  0.633509  0.122168  0.000335  1
  Dy  Dy8  1  0.000000  0.000000  0.000000  1
  Os  Os9  1  0.750000  0.250000  0.500000  1
  Os  Os10  1  0.500000  0.500000  0.000000  1
  Os  Os11  1  0.250000  0.750000  0.500000  1
  Br  Br12  1  0.262104  0.999940  0.262164  1
  Br  Br13  1  0.000060  0.737896  0.737836  1
  Br  Br14  1  0.250940  0.986564  0.735626  1
  Br  Br15  1  0.748996  0.484597  0.735603  1
  Br  Br16  1  0.484686  0.749060  0.735626  1
  Br  Br17  1  0.130757  0.130757  0.000000  1
  Br  Br18  1  0.499963  0.734875  0.234912  1
  Br  Br19  1  0.867149  0.367149  0.500000  1
  Br  Br20  1  0.000060  0.262224  0.262164  1
  Br  Br21  1  0.382047  0.382047  0.000000  1
  Br  Br22  1  0.617953  0.617953  0.000000  1
  Br  Br23  1  0.499963  0.265051  0.765088  1
  Br  Br24  1  0.265125  0.500037  0.765088  1
  Br  Br25  1  0.515403  0.251004  0.264397  1
  Br  Br26  1  0.367103  0.867103  0.500000  1
  Br  Br27  1  0.632851  0.132851  0.500000  1
  Br  Br28  1  0.250940  0.515314  0.264374  1
  Br  Br29  1  0.132897  0.632897  0.500000  1
  Br  Br30  1  0.013436  0.749060  0.264374  1
  Br  Br31  1  0.986607  0.251004  0.735603  1
  Br  Br32  1  0.737776  0.999940  0.737836  1
  Br  Br33  1  0.734949  0.500037  0.234912  1
  Br  Br34  1  0.748996  0.013393  0.264397  1
  Br  Br35  1  0.869243  0.869243  0.000000  1
