# generated using pymatgen
data_Zr2Fe9Ni3P7
_symmetry_space_group_name_H-M   'P 1'
_cell_length_a   8.90944617
_cell_length_b   8.99061720
_cell_length_c   3.59261000
_cell_angle_alpha   90.00000000
_cell_angle_beta   90.00000000
_cell_angle_gamma   120.39595820
_symmetry_Int_Tables_number   1
_chemical_formula_structural   Zr2Fe9Ni3P7
_chemical_formula_sum   'Zr2 Fe9 Ni3 P7'
_cell_volume   248.21855829
_cell_formula_units_Z   1
loop_
 _symmetry_equiv_pos_site_id
 _symmetry_equiv_pos_as_xyz
  1  'x, y, z'
loop_
 _atom_site_type_symbol
 _atom_site_label
 _atom_site_symmetry_multiplicity
 _atom_site_fract_x
 _atom_site_fract_y
 _atom_site_fract_z
 _atom_site_occupancy
  Zr  Zr0  1  0.996743  0.002294  0.000000  1
  Zr  Zr1  1  0.339527  0.664868  0.500000  1
  Fe  Fe2  1  0.604072  0.699938  0.000000  1
  Fe  Fe3  1  0.825306  0.610708  0.000000  1
  Fe  Fe4  1  0.783597  0.175347  0.000000  1
  Fe  Fe5  1  0.388013  0.212579  0.000000  1
  Fe  Fe6  1  0.714513  0.944004  0.500000  1
  Fe  Fe7  1  0.227963  0.284573  0.500000  1
  Fe  Fe8  1  0.888309  0.429376  0.500000  1
  Fe  Fe9  1  0.545742  0.116710  0.500000  1
  Fe  Fe10  1  0.568482  0.458059  0.500000  1
  Ni  Ni11  1  0.102088  0.398546  0.000000  1
  Ni  Ni12  1  0.296802  0.897547  0.000000  1
  Ni  Ni13  1  0.055405  0.775790  0.500000  1
  P  P14  1  0.077547  0.627701  0.000000  1
  P  P15  1  0.555672  0.918505  0.000000  1
  P  P16  1  0.372363  0.445511  0.000000  1
  P  P17  1  0.778125  0.736433  0.500000  1
  P  P18  1  0.949982  0.211671  0.500000  1
  P  P19  1  0.262992  0.055111  0.500000  1
  P  P20  1  0.666757  0.334726  0.000000  1
