# generated using pymatgen
data_Lu4ZnGe(B2Ir5)2
_symmetry_space_group_name_H-M   'P 1'
_cell_length_a   9.45154100
_cell_length_b   9.45154100
_cell_length_c   3.17590900
_cell_angle_alpha   90.00000000
_cell_angle_beta   90.00000000
_cell_angle_gamma   90.00000000
_symmetry_Int_Tables_number   1
_chemical_formula_structural   Lu4ZnGe(B2Ir5)2
_chemical_formula_sum   'Lu4 Zn1 Ge1 B4 Ir10'
_cell_volume   283.70911905
_cell_formula_units_Z   1
loop_
 _symmetry_equiv_pos_site_id
 _symmetry_equiv_pos_as_xyz
  1  'x, y, z'
loop_
 _atom_site_type_symbol
 _atom_site_label
 _atom_site_symmetry_multiplicity
 _atom_site_fract_x
 _atom_site_fract_y
 _atom_site_fract_z
 _atom_site_occupancy
  Lu  Lu0  1  0.677336  0.174708  0.000000  1
  Lu  Lu1  1  0.322664  0.825292  0.000000  1
  Lu  Lu2  1  0.174708  0.322664  0.000000  1
  Lu  Lu3  1  0.825292  0.677336  0.000000  1
  Zn  Zn4  1  0.000000  0.000000  0.000000  1
  Ge  Ge5  1  0.500000  0.500000  0.000000  1
  B  B6  1  0.121962  0.625510  0.000000  1
  B  B7  1  0.878038  0.374490  0.000000  1
  B  B8  1  0.625510  0.878038  0.000000  1
  B  B9  1  0.374490  0.121962  0.000000  1
  Ir  Ir10  1  0.218821  0.070784  0.500000  1
  Ir  Ir11  1  0.781179  0.929216  0.500000  1
  Ir  Ir12  1  0.070784  0.781179  0.500000  1
  Ir  Ir13  1  0.716863  0.431106  0.500000  1
  Ir  Ir14  1  0.929216  0.218821  0.500000  1
  Ir  Ir15  1  0.283137  0.568894  0.500000  1
  Ir  Ir16  1  0.568894  0.716863  0.500000  1
  Ir  Ir17  1  0.431106  0.283137  0.500000  1
  Ir  Ir18  1  0.500000  0.000000  0.500000  1
  Ir  Ir19  1  0.000000  0.500000  0.500000  1
