# generated using pymatgen
data_Nd2Tc2B6Os
_symmetry_space_group_name_H-M   'P 1'
_cell_length_a   6.31058124
_cell_length_b   6.31058126
_cell_length_c   7.58033608
_cell_angle_alpha   90.62115504
_cell_angle_beta   90.62115312
_cell_angle_gamma   115.19336494
_symmetry_Int_Tables_number   1
_chemical_formula_structural   Nd2Tc2B6Os
_chemical_formula_sum   'Nd4 Tc4 B12 Os2'
_cell_volume   273.10366974
_cell_formula_units_Z   2
loop_
 _symmetry_equiv_pos_site_id
 _symmetry_equiv_pos_as_xyz
  1  'x, y, z'
loop_
 _atom_site_type_symbol
 _atom_site_label
 _atom_site_symmetry_multiplicity
 _atom_site_fract_x
 _atom_site_fract_y
 _atom_site_fract_z
 _atom_site_occupancy
  Nd  Nd0  1  0.092589  0.438175  0.326039  1
  Nd  Nd1  1  0.561825  0.907411  0.173961  1
  Nd  Nd2  1  0.906698  0.558986  0.673339  1
  Nd  Nd3  1  0.441014  0.093302  0.826661  1
  Tc  Tc4  1  0.583738  0.416262  0.250000  1
  Tc  Tc5  1  0.414708  0.585292  0.750000  1
  Tc  Tc6  1  0.988540  0.799830  0.085590  1
  Tc  Tc7  1  0.200170  0.011460  0.414410  1
  B  B8  1  0.238852  0.150130  0.132052  1
  B  B9  1  0.849870  0.761148  0.367948  1
  B  B10  1  0.762481  0.850220  0.867634  1
  B  B11  1  0.149780  0.237519  0.632366  1
  B  B12  1  0.583800  0.159130  0.481515  1
  B  B13  1  0.840870  0.416200  0.018485  1
  B  B14  1  0.413864  0.838763  0.518139  1
  B  B15  1  0.161237  0.586136  0.981861  1
  B  B16  1  0.441603  0.349480  0.534319  1
  B  B17  1  0.650520  0.558397  0.965681  1
  B  B18  1  0.555930  0.649843  0.466158  1
  B  B19  1  0.350157  0.444070  0.033842  1
  Os  Os20  1  0.012073  0.200319  0.913464  1
  Os  Os21  1  0.799681  0.987927  0.586536  1
