# generated using pymatgen
data_PrTh(Al5Cu6)2
_symmetry_space_group_name_H-M   'P 1'
_cell_length_a   10.40370638
_cell_length_b   8.22162203
_cell_length_c   7.91989294
_cell_angle_alpha   80.23726346
_cell_angle_beta   51.15219171
_cell_angle_gamma   48.61053677
_symmetry_Int_Tables_number   1
_chemical_formula_structural   PrTh(Al5Cu6)2
_chemical_formula_sum   'Pr1 Th1 Al10 Cu12'
_cell_volume   359.29155012
_cell_formula_units_Z   1
loop_
 _symmetry_equiv_pos_site_id
 _symmetry_equiv_pos_as_xyz
  1  'x, y, z'
loop_
 _atom_site_type_symbol
 _atom_site_label
 _atom_site_symmetry_multiplicity
 _atom_site_fract_x
 _atom_site_fract_y
 _atom_site_fract_z
 _atom_site_occupancy
  Pr  Pr0  1  0.000000  0.000000  0.000000  1
  Th  Th1  1  0.250000  0.250000  0.250000  1
  Al  Al2  1  0.500000  0.500000  0.500000  1
  Al  Al3  1  0.750000  0.750000  0.750000  1
  Al  Al4  1  0.758713  0.068699  0.829129  1
  Al  Al5  1  0.829129  0.343459  0.758713  1
  Al  Al6  1  0.068699  0.758713  0.343459  1
  Al  Al7  1  0.343459  0.829129  0.068699  1
  Al  Al8  1  0.492854  0.179813  0.420233  1
  Al  Al9  1  0.420233  0.907100  0.492854  1
  Al  Al10  1  0.179813  0.492854  0.907100  1
  Al  Al11  1  0.907100  0.420233  0.179813  1
  Cu  Cu12  1  0.624101  0.126108  0.625695  1
  Cu  Cu13  1  0.625695  0.624096  0.624101  1
  Cu  Cu14  1  0.126108  0.624101  0.624096  1
  Cu  Cu15  1  0.624096  0.625695  0.126108  1
  Cu  Cu16  1  0.488627  0.435379  0.183620  1
  Cu  Cu17  1  0.183620  0.892374  0.488627  1
  Cu  Cu18  1  0.435379  0.488627  0.892374  1
  Cu  Cu19  1  0.892374  0.183620  0.435379  1
  Cu  Cu20  1  0.759768  0.815620  0.066548  1
  Cu  Cu21  1  0.066548  0.358063  0.759768  1
  Cu  Cu22  1  0.815620  0.759768  0.358063  1
  Cu  Cu23  1  0.358063  0.066548  0.815620  1
