# generated using pymatgen
data_Te7OsCl6
_symmetry_space_group_name_H-M   'P 1'
_cell_length_a   9.81689335
_cell_length_b   10.38257521
_cell_length_c   11.24489810
_cell_angle_alpha   100.17695899
_cell_angle_beta   102.89463394
_cell_angle_gamma   112.98280641
_symmetry_Int_Tables_number   1
_chemical_formula_structural   Te7OsCl6
_chemical_formula_sum   'Te14 Os2 Cl12'
_cell_volume   983.09485566
_cell_formula_units_Z   2
loop_
 _symmetry_equiv_pos_site_id
 _symmetry_equiv_pos_as_xyz
  1  'x, y, z'
loop_
 _atom_site_type_symbol
 _atom_site_label
 _atom_site_symmetry_multiplicity
 _atom_site_fract_x
 _atom_site_fract_y
 _atom_site_fract_z
 _atom_site_occupancy
  Te  Te0  1  0.920462  0.010292  0.699308  1
  Te  Te1  1  0.079538  0.989708  0.300692  1
  Te  Te2  1  0.191144  0.273153  0.851372  1
  Te  Te3  1  0.808856  0.726847  0.148628  1
  Te  Te4  1  0.741209  0.116618  0.816363  1
  Te  Te5  1  0.258791  0.883382  0.183637  1
  Te  Te6  1  0.022065  0.325753  0.012875  1
  Te  Te7  1  0.977935  0.674247  0.987125  1
  Te  Te8  1  0.212436  0.074035  0.017611  1
  Te  Te9  1  0.787564  0.925965  0.982389  1
  Te  Te10  1  0.707352  0.617720  0.675323  1
  Te  Te11  1  0.292648  0.382280  0.324677  1
  Te  Te12  1  0.100246  0.751796  0.710363  1
  Te  Te13  1  0.899754  0.248204  0.289637  1
  Os  Os14  1  0.950335  0.839603  0.841652  1
  Os  Os15  1  0.049665  0.160397  0.158348  1
  Cl  Cl16  1  0.545004  0.751347  0.624061  1
  Cl  Cl17  1  0.454996  0.248653  0.375939  1
  Cl  Cl18  1  0.848063  0.693304  0.491137  1
  Cl  Cl19  1  0.151937  0.306696  0.508863  1
  Cl  Cl20  1  0.890501  0.462921  0.689440  1
  Cl  Cl21  1  0.109499  0.537079  0.310560  1
  Cl  Cl22  1  0.593801  0.501737  0.836400  1
  Cl  Cl23  1  0.406199  0.498263  0.163600  1
  Cl  Cl24  1  0.269200  0.997232  0.688581  1
  Cl  Cl25  1  0.730800  0.002768  0.311419  1
  Cl  Cl26  1  0.297869  0.746528  0.895723  1
  Cl  Cl27  1  0.702131  0.253472  0.104277  1
