# generated using pymatgen
data_Sm2Th3Pb3Cl
_symmetry_space_group_name_H-M   'P 1'
_cell_length_a   9.51096704
_cell_length_b   9.52433934
_cell_length_c   6.68911500
_cell_angle_alpha   90.00000000
_cell_angle_beta   90.00000000
_cell_angle_gamma   119.94994427
_symmetry_Int_Tables_number   1
_chemical_formula_structural   Sm2Th3Pb3Cl
_chemical_formula_sum   'Sm4 Th6 Pb6 Cl2'
_cell_volume   525.02219795
_cell_formula_units_Z   2
loop_
 _symmetry_equiv_pos_site_id
 _symmetry_equiv_pos_as_xyz
  1  'x, y, z'
loop_
 _atom_site_type_symbol
 _atom_site_label
 _atom_site_symmetry_multiplicity
 _atom_site_fract_x
 _atom_site_fract_y
 _atom_site_fract_z
 _atom_site_occupancy
  Sm  Sm0  1  0.000706  0.267178  0.250000  1
  Sm  Sm1  1  0.999211  0.732610  0.750000  1
  Sm  Sm2  1  0.733462  0.732680  0.250000  1
  Sm  Sm3  1  0.266689  0.267485  0.750000  1
  Th  Th4  1  0.270740  0.999954  0.250000  1
  Th  Th5  1  0.729281  0.000053  0.750000  1
  Th  Th6  1  0.334597  0.669229  0.999877  1
  Th  Th7  1  0.665389  0.330792  0.999903  1
  Th  Th8  1  0.665389  0.330792  0.500097  1
  Th  Th9  1  0.334597  0.669229  0.500123  1
  Pb  Pb10  1  0.620824  0.999965  0.250000  1
  Pb  Pb11  1  0.379054  0.000014  0.750000  1
  Pb  Pb12  1  0.998286  0.614741  0.250000  1
  Pb  Pb13  1  0.001693  0.385158  0.750000  1
  Pb  Pb14  1  0.383444  0.385158  0.250000  1
  Pb  Pb15  1  0.616630  0.614965  0.750000  1
  Cl  Cl16  1  0.000004  0.000000  0.999996  1
  Cl  Cl17  1  0.000004  0.000000  0.500004  1
