# generated using pymatgen
data_Tb16Hg4Ru3Au
_symmetry_space_group_name_H-M   'P 1'
_cell_length_a   9.67816425
_cell_length_b   9.67816617
_cell_length_c   9.67816479
_cell_angle_alpha   59.96213861
_cell_angle_beta   59.96213417
_cell_angle_gamma   59.96213827
_symmetry_Int_Tables_number   1
_chemical_formula_structural   Tb16Hg4Ru3Au
_chemical_formula_sum   'Tb16 Hg4 Ru3 Au1'
_cell_volume   640.45852268
_cell_formula_units_Z   1
loop_
 _symmetry_equiv_pos_site_id
 _symmetry_equiv_pos_as_xyz
  1  'x, y, z'
loop_
 _atom_site_type_symbol
 _atom_site_label
 _atom_site_symmetry_multiplicity
 _atom_site_fract_x
 _atom_site_fract_y
 _atom_site_fract_z
 _atom_site_occupancy
  Tb  Tb0  1  0.598206  0.598206  0.598206  1
  Tb  Tb1  1  0.606969  0.606969  0.193067  1
  Tb  Tb2  1  0.606969  0.193067  0.606969  1
  Tb  Tb3  1  0.193067  0.606969  0.606969  1
  Tb  Tb4  1  0.048756  0.441087  0.441087  1
  Tb  Tb5  1  0.437740  0.060296  0.060296  1
  Tb  Tb6  1  0.441087  0.048756  0.441087  1
  Tb  Tb7  1  0.060296  0.437740  0.060296  1
  Tb  Tb8  1  0.441087  0.441087  0.048756  1
  Tb  Tb9  1  0.060296  0.060296  0.437740  1
  Tb  Tb10  1  0.188724  0.812568  0.812568  1
  Tb  Tb11  1  0.815685  0.188001  0.188001  1
  Tb  Tb12  1  0.812568  0.188724  0.812568  1
  Tb  Tb13  1  0.188001  0.815685  0.188001  1
  Tb  Tb14  1  0.812568  0.812568  0.188724  1
  Tb  Tb15  1  0.188001  0.188001  0.815685  1
  Hg  Hg16  1  0.834618  0.834618  0.834618  1
  Hg  Hg17  1  0.834151  0.834151  0.496744  1
  Hg  Hg18  1  0.834151  0.496744  0.834151  1
  Hg  Hg19  1  0.496744  0.834151  0.834151  1
  Ru  Ru20  1  0.390590  0.390590  0.826141  1
  Ru  Ru21  1  0.390590  0.826141  0.390590  1
  Ru  Ru22  1  0.826141  0.390590  0.390590  1
  Au  Au23  1  0.392993  0.392993  0.392993  1
