# generated using pymatgen
data_LaSmSbTe
_symmetry_space_group_name_H-M   'P 1'
_cell_length_a   7.90359355
_cell_length_b   7.90359411
_cell_length_c   7.90359292
_cell_angle_alpha   33.24561853
_cell_angle_beta   33.24561106
_cell_angle_gamma   33.24561643
_symmetry_Int_Tables_number   1
_chemical_formula_structural   LaSmSbTe
_chemical_formula_sum   'La1 Sm1 Sb1 Te1'
_cell_volume   132.10505376
_cell_formula_units_Z   1
loop_
 _symmetry_equiv_pos_site_id
 _symmetry_equiv_pos_as_xyz
  1  'x, y, z'
loop_
 _atom_site_type_symbol
 _atom_site_label
 _atom_site_symmetry_multiplicity
 _atom_site_fract_x
 _atom_site_fract_y
 _atom_site_fract_z
 _atom_site_occupancy
  La  La0  1  0.253549  0.253549  0.253549  1
  Sm  Sm1  1  0.746596  0.746596  0.746596  1
  Sb  Sb2  1  0.002878  0.002878  0.002878  1
  Te  Te3  1  0.496978  0.496978  0.496978  1
