# generated using pymatgen
data_Sr5Y(Sn4Sb)2
_symmetry_space_group_name_H-M   'P 1'
_cell_length_a   8.91164788
_cell_length_b   8.91117969
_cell_length_c   8.91164836
_cell_angle_alpha   119.97777741
_cell_angle_beta   119.98016936
_cell_angle_gamma   90.03792496
_symmetry_Int_Tables_number   1
_chemical_formula_structural   Sr5Y(Sn4Sb)2
_chemical_formula_sum   'Sr5 Y1 Sn8 Sb2'
_cell_volume   500.57421582
_cell_formula_units_Z   1
loop_
 _symmetry_equiv_pos_site_id
 _symmetry_equiv_pos_as_xyz
  1  'x, y, z'
loop_
 _atom_site_type_symbol
 _atom_site_label
 _atom_site_symmetry_multiplicity
 _atom_site_fract_x
 _atom_site_fract_y
 _atom_site_fract_z
 _atom_site_occupancy
  Sr  Sr0  1  0.749999  0.750000  0.999999  1
  Sr  Sr1  1  0.162926  0.662941  0.825866  1
  Sr  Sr2  1  0.837065  0.337075  0.174137  1
  Sr  Sr3  1  0.662925  0.837059  0.499986  1
  Sr  Sr4  1  0.337062  0.162925  0.499989  1
  Y  Y5  1  0.249993  0.250000  0.999993  1
  Sn  Sn6  1  0.833911  0.328489  0.788127  1
  Sn  Sn7  1  0.171520  0.666097  0.211869  1
  Sn  Sn8  1  0.540339  0.045751  0.211862  1
  Sn  Sn9  1  0.328486  0.540347  0.494585  1
  Sn  Sn10  1  0.959638  0.171511  0.505423  1
  Sn  Sn11  1  0.454238  0.959653  0.788139  1
  Sn  Sn12  1  0.666110  0.454249  0.494588  1
  Sn  Sn13  1  0.045772  0.833903  0.505424  1
  Sb  Sb14  1  0.009148  0.009151  0.000015  1
  Sb  Sb15  1  0.490864  0.490849  0.999998  1
