# generated using pymatgen
data_KLi6ThO6
_symmetry_space_group_name_H-M   'P 1'
_cell_length_a   5.63181385
_cell_length_b   5.63181359
_cell_length_c   5.63181364
_cell_angle_alpha   101.65596071
_cell_angle_beta   101.65596386
_cell_angle_gamma   101.65595601
_symmetry_Int_Tables_number   1
_chemical_formula_structural   KLi6ThO6
_chemical_formula_sum   'K1 Li6 Th1 O6'
_cell_volume   165.75236568
_cell_formula_units_Z   1
loop_
 _symmetry_equiv_pos_site_id
 _symmetry_equiv_pos_as_xyz
  1  'x, y, z'
loop_
 _atom_site_type_symbol
 _atom_site_label
 _atom_site_symmetry_multiplicity
 _atom_site_fract_x
 _atom_site_fract_y
 _atom_site_fract_z
 _atom_site_occupancy
  K  K0  1  0.500000  0.500000  0.500000  1
  Li  Li1  1  0.000000  0.350121  0.649879  1
  Li  Li2  1  0.649879  0.000000  0.350121  1
  Li  Li3  1  0.649879  0.350121  0.000000  1
  Li  Li4  1  0.350121  0.000000  0.649879  1
  Li  Li5  1  0.000000  0.649879  0.350121  1
  Li  Li6  1  0.350121  0.649879  0.000000  1
  Th  Th7  1  0.000000  0.000000  0.000000  1
  O  O8  1  0.282313  0.886523  0.282313  1
  O  O9  1  0.886523  0.282313  0.282313  1
  O  O10  1  0.717687  0.717687  0.113477  1
  O  O11  1  0.717687  0.113477  0.717687  1
  O  O12  1  0.113477  0.717687  0.717687  1
  O  O13  1  0.282313  0.282313  0.886523  1
