# generated using pymatgen
data_Tb4Er12Cd4Ir3Ru
_symmetry_space_group_name_H-M   'P 1'
_cell_length_a   9.62402463
_cell_length_b   9.60681906
_cell_length_c   9.60681871
_cell_angle_alpha   59.72688052
_cell_angle_beta   59.67489557
_cell_angle_gamma   59.67489958
_symmetry_Int_Tables_number   1
_chemical_formula_structural   Tb4Er12Cd4Ir3Ru
_chemical_formula_sum   'Tb4 Er12 Cd4 Ir3 Ru1'
_cell_volume   623.66834338
_cell_formula_units_Z   1
loop_
 _symmetry_equiv_pos_site_id
 _symmetry_equiv_pos_as_xyz
  1  'x, y, z'
loop_
 _atom_site_type_symbol
 _atom_site_label
 _atom_site_symmetry_multiplicity
 _atom_site_fract_x
 _atom_site_fract_y
 _atom_site_fract_z
 _atom_site_occupancy
  Tb  Tb0  1  0.811650  0.189134  0.811666  1
  Tb  Tb1  1  0.188949  0.809735  0.188709  1
  Tb  Tb2  1  0.811650  0.811666  0.189134  1
  Tb  Tb3  1  0.188949  0.188709  0.809735  1
  Er  Er4  1  0.598464  0.598098  0.598098  1
  Er  Er5  1  0.598501  0.598777  0.205653  1
  Er  Er6  1  0.598501  0.205653  0.598777  1
  Er  Er7  1  0.205200  0.598566  0.598566  1
  Er  Er8  1  0.062011  0.438019  0.438019  1
  Er  Er9  1  0.437541  0.061257  0.061257  1
  Er  Er10  1  0.438452  0.062021  0.438318  1
  Er  Er11  1  0.060764  0.437870  0.060730  1
  Er  Er12  1  0.438452  0.438318  0.062021  1
  Er  Er13  1  0.060764  0.060730  0.437870  1
  Er  Er14  1  0.190710  0.809766  0.809766  1
  Er  Er15  1  0.808383  0.190250  0.190250  1
  Cd  Cd16  1  0.830922  0.830125  0.830125  1
  Cd  Cd17  1  0.830525  0.831272  0.507236  1
  Cd  Cd18  1  0.830525  0.507236  0.831272  1
  Cd  Cd19  1  0.507390  0.830525  0.830525  1
  Ir  Ir20  1  0.392035  0.393614  0.825507  1
  Ir  Ir21  1  0.392035  0.825507  0.393614  1
  Ir  Ir22  1  0.825433  0.392252  0.392252  1
  Ru  Ru23  1  0.392194  0.390898  0.390898  1
