# generated using pymatgen
data_U3InPd12
_symmetry_space_group_name_H-M   'P 1'
_cell_length_a   5.80689200
_cell_length_b   5.80689201
_cell_length_c   9.57391300
_cell_angle_alpha   90.00000000
_cell_angle_beta   90.00000000
_cell_angle_gamma   119.99999995
_symmetry_Int_Tables_number   1
_chemical_formula_structural   U3InPd12
_chemical_formula_sum   'U3 In1 Pd12'
_cell_volume   279.58096977
_cell_formula_units_Z   1
loop_
 _symmetry_equiv_pos_site_id
 _symmetry_equiv_pos_as_xyz
  1  'x, y, z'
loop_
 _atom_site_type_symbol
 _atom_site_label
 _atom_site_symmetry_multiplicity
 _atom_site_fract_x
 _atom_site_fract_y
 _atom_site_fract_z
 _atom_site_occupancy
  U  U0  1  0.000000  0.000000  0.505374  1
  U  U1  1  0.000000  0.000000  0.994626  1
  U  U2  1  0.666667  0.333333  0.250000  1
  In  In3  1  0.333333  0.666667  0.750000  1
  Pd  Pd4  1  0.500969  0.499031  0.500512  1
  Pd  Pd5  1  0.500969  0.001938  0.500512  1
  Pd  Pd6  1  0.998062  0.499031  0.500512  1
  Pd  Pd7  1  0.500969  0.499031  0.999488  1
  Pd  Pd8  1  0.500969  0.001938  0.999488  1
  Pd  Pd9  1  0.998062  0.499031  0.999488  1
  Pd  Pd10  1  0.170686  0.829314  0.250000  1
  Pd  Pd11  1  0.170686  0.341374  0.250000  1
  Pd  Pd12  1  0.658626  0.829314  0.250000  1
  Pd  Pd13  1  0.828033  0.171967  0.750000  1
  Pd  Pd14  1  0.828033  0.656066  0.750000  1
  Pd  Pd15  1  0.343934  0.171967  0.750000  1
