# generated using pymatgen
data_Lu4MnAl5Tc2
_symmetry_space_group_name_H-M   'P 1'
_cell_length_a   5.44089215
_cell_length_b   5.45987181
_cell_length_c   8.67208544
_cell_angle_alpha   90.00000057
_cell_angle_beta   89.92560715
_cell_angle_gamma   120.11544881
_symmetry_Int_Tables_number   1
_chemical_formula_structural   Lu4MnAl5Tc2
_chemical_formula_sum   'Lu4 Mn1 Al5 Tc2'
_cell_volume   222.84343598
_cell_formula_units_Z   1
loop_
 _symmetry_equiv_pos_site_id
 _symmetry_equiv_pos_as_xyz
  1  'x, y, z'
loop_
 _atom_site_type_symbol
 _atom_site_label
 _atom_site_symmetry_multiplicity
 _atom_site_fract_x
 _atom_site_fract_y
 _atom_site_fract_z
 _atom_site_occupancy
  Lu  Lu0  1  0.338376  0.669188  0.445349  1
  Lu  Lu1  1  0.666901  0.333451  0.556881  1
  Lu  Lu2  1  0.666179  0.333090  0.941562  1
  Lu  Lu3  1  0.336399  0.668199  0.056943  1
  Mn  Mn4  1  0.975034  0.987517  0.510552  1
  Al  Al5  1  0.834018  0.162591  0.250947  1
  Al  Al6  1  0.834018  0.671427  0.250947  1
  Al  Al7  1  0.323858  0.161929  0.251403  1
  Al  Al8  1  0.184120  0.843149  0.747927  1
  Al  Al9  1  0.184120  0.340971  0.747927  1
  Tc  Tc10  1  0.978953  0.989476  0.993057  1
  Tc  Tc11  1  0.678024  0.839012  0.746503  1
