# generated using pymatgen
data_YbSm(Al5Fe)4
_symmetry_space_group_name_H-M   'P 1'
_cell_length_a   6.76497369
_cell_length_b   6.76497289
_cell_length_c   8.97465600
_cell_angle_alpha   90.00000000
_cell_angle_beta   90.00000000
_cell_angle_gamma   97.21263782
_symmetry_Int_Tables_number   1
_chemical_formula_structural   YbSm(Al5Fe)4
_chemical_formula_sum   'Yb1 Sm1 Al20 Fe4'
_cell_volume   407.47386280
_cell_formula_units_Z   1
loop_
 _symmetry_equiv_pos_site_id
 _symmetry_equiv_pos_as_xyz
  1  'x, y, z'
loop_
 _atom_site_type_symbol
 _atom_site_label
 _atom_site_symmetry_multiplicity
 _atom_site_fract_x
 _atom_site_fract_y
 _atom_site_fract_z
 _atom_site_occupancy
  Yb  Yb0  1  0.123004  0.876996  0.750000  1
  Sm  Sm1  1  0.876984  0.123016  0.250000  1
  Al  Al2  1  0.228486  0.226991  0.501040  1
  Al  Al3  1  0.773009  0.771514  0.998960  1
  Al  Al4  1  0.773009  0.771514  0.501040  1
  Al  Al5  1  0.228486  0.226991  0.998960  1
  Al  Al6  1  0.374452  0.625548  0.545569  1
  Al  Al7  1  0.625043  0.374957  0.050932  1
  Al  Al8  1  0.585704  0.866308  0.750000  1
  Al  Al9  1  0.413369  0.132728  0.250000  1
  Al  Al10  1  0.867272  0.586631  0.250000  1
  Al  Al11  1  0.133692  0.414296  0.750000  1
  Al  Al12  1  0.476128  0.219582  0.750000  1
  Al  Al13  1  0.521047  0.778167  0.250000  1
  Al  Al14  1  0.221833  0.478953  0.250000  1
  Al  Al15  1  0.780418  0.523872  0.750000  1
  Al  Al16  1  0.157884  0.842116  0.403812  1
  Al  Al17  1  0.839634  0.160366  0.902074  1
  Al  Al18  1  0.839634  0.160366  0.597926  1
  Al  Al19  1  0.157884  0.842116  0.096188  1
  Al  Al20  1  0.374452  0.625548  0.954431  1
  Al  Al21  1  0.625043  0.374957  0.449068  1
  Fe  Fe22  1  0.000984  0.499218  0.500306  1
  Fe  Fe23  1  0.000984  0.499218  0.999694  1
  Fe  Fe24  1  0.500782  0.999016  0.500306  1
  Fe  Fe25  1  0.500782  0.999016  0.999694  1
