# generated using pymatgen
data_ScNb(SeO3)4
_symmetry_space_group_name_H-M   'P 1'
_cell_length_a   8.50077300
_cell_length_b   8.46581352
_cell_length_c   8.53974700
_cell_angle_alpha   89.42216720
_cell_angle_beta   90.00000000
_cell_angle_gamma   90.00000000
_symmetry_Int_Tables_number   1
_chemical_formula_structural   ScNb(SeO3)4
_chemical_formula_sum   'Sc2 Nb2 Se8 O24'
_cell_volume   614.53982906
_cell_formula_units_Z   2
loop_
 _symmetry_equiv_pos_site_id
 _symmetry_equiv_pos_as_xyz
  1  'x, y, z'
loop_
 _atom_site_type_symbol
 _atom_site_label
 _atom_site_symmetry_multiplicity
 _atom_site_fract_x
 _atom_site_fract_y
 _atom_site_fract_z
 _atom_site_occupancy
  Sc  Sc0  1  0.000000  0.500000  0.000000  1
  Sc  Sc1  1  0.500000  0.500000  0.500000  1
  Nb  Nb2  1  0.000000  0.000000  0.500000  1
  Nb  Nb3  1  0.500000  0.000000  0.000000  1
  Se  Se4  1  0.322522  0.665462  0.177942  1
  Se  Se5  1  0.822522  0.334538  0.322058  1
  Se  Se6  1  0.678951  0.814181  0.675622  1
  Se  Se7  1  0.178951  0.185819  0.824378  1
  Se  Se8  1  0.677478  0.334538  0.822058  1
  Se  Se9  1  0.177478  0.665462  0.677942  1
  Se  Se10  1  0.321049  0.185819  0.324378  1
  Se  Se11  1  0.821049  0.814181  0.175622  1
  O  O12  1  0.238413  0.546844  0.042499  1
  O  O13  1  0.738413  0.453156  0.457501  1
  O  O14  1  0.774328  0.961494  0.565105  1
  O  O15  1  0.274328  0.038506  0.934895  1
  O  O16  1  0.553765  0.940381  0.778136  1
  O  O17  1  0.459211  0.544461  0.261022  1
  O  O18  1  0.959211  0.455539  0.238978  1
  O  O19  1  0.053765  0.059619  0.721864  1
  O  O20  1  0.948960  0.222759  0.448935  1
  O  O21  1  0.553986  0.742821  0.540793  1
  O  O22  1  0.448960  0.777241  0.051065  1
  O  O23  1  0.053986  0.257179  0.959207  1
  O  O24  1  0.761587  0.453156  0.957501  1
  O  O25  1  0.261587  0.546844  0.542499  1
  O  O26  1  0.225672  0.038506  0.434895  1
  O  O27  1  0.725672  0.961494  0.065105  1
  O  O28  1  0.446235  0.059619  0.221864  1
  O  O29  1  0.540789  0.455539  0.738978  1
  O  O30  1  0.040789  0.544461  0.761022  1
  O  O31  1  0.946235  0.940381  0.278136  1
  O  O32  1  0.051040  0.777241  0.551065  1
  O  O33  1  0.446014  0.257179  0.459207  1
  O  O34  1  0.551040  0.222759  0.948935  1
  O  O35  1  0.946014  0.742821  0.040793  1
