# generated using pymatgen
data_Ho8Re11Si16Ru
_symmetry_space_group_name_H-M   'P 1'
_cell_length_a   6.75544807
_cell_length_b   6.75544845
_cell_length_c   12.78837247
_cell_angle_alpha   90.08878846
_cell_angle_beta   89.91121083
_cell_angle_gamma   90.41977226
_symmetry_Int_Tables_number   1
_chemical_formula_structural   Ho8Re11Si16Ru
_chemical_formula_sum   'Ho8 Re11 Si16 Ru1'
_cell_volume   583.59414984
_cell_formula_units_Z   1
loop_
 _symmetry_equiv_pos_site_id
 _symmetry_equiv_pos_as_xyz
  1  'x, y, z'
loop_
 _atom_site_type_symbol
 _atom_site_label
 _atom_site_symmetry_multiplicity
 _atom_site_fract_x
 _atom_site_fract_y
 _atom_site_fract_z
 _atom_site_occupancy
  Ho  Ho0  1  0.336783  0.994048  0.469161  1
  Ho  Ho1  1  0.510244  0.834057  0.718988  1
  Ho  Ho2  1  0.488553  0.166053  0.218455  1
  Ho  Ho3  1  0.834057  0.510244  0.281012  1
  Ho  Ho4  1  0.166053  0.488553  0.781545  1
  Ho  Ho5  1  0.661895  0.006116  0.969896  1
  Ho  Ho6  1  0.994048  0.336783  0.530839  1
  Ho  Ho7  1  0.006116  0.661895  0.030104  1
  Re  Re8  1  0.334319  0.334319  0.000000  1
  Re  Re9  1  0.160772  0.839140  0.249251  1
  Re  Re10  1  0.839140  0.160772  0.750749  1
  Re  Re11  1  0.192858  0.975242  0.867326  1
  Re  Re12  1  0.512070  0.686563  0.120833  1
  Re  Re13  1  0.489008  0.315206  0.620748  1
  Re  Re14  1  0.686563  0.512070  0.879167  1
  Re  Re15  1  0.315206  0.489008  0.379252  1
  Re  Re16  1  0.807244  0.025724  0.368722  1
  Re  Re17  1  0.975242  0.192858  0.132674  1
  Re  Re18  1  0.025724  0.807244  0.631278  1
  Si  Si19  1  0.199022  0.112453  0.682751  1
  Si  Si20  1  0.388086  0.692500  0.935058  1
  Si  Si21  1  0.610651  0.308059  0.435948  1
  Si  Si22  1  0.692500  0.388086  0.064942  1
  Si  Si23  1  0.308059  0.610651  0.564052  1
  Si  Si24  1  0.801390  0.887496  0.183238  1
  Si  Si25  1  0.112453  0.199022  0.317249  1
  Si  Si26  1  0.887496  0.801390  0.816762  1
  Si  Si27  1  0.267455  0.982835  0.060874  1
  Si  Si28  1  0.516611  0.780663  0.310218  1
  Si  Si29  1  0.481794  0.219322  0.811565  1
  Si  Si30  1  0.780663  0.516611  0.689782  1
  Si  Si31  1  0.219322  0.481794  0.188435  1
  Si  Si32  1  0.731750  0.016651  0.560976  1
  Si  Si33  1  0.982835  0.267455  0.939126  1
  Si  Si34  1  0.016651  0.731750  0.439024  1
  Ru  Ru35  1  0.667364  0.667364  0.500000  1
