# generated using pymatgen
data_UCr(PO5)2
_symmetry_space_group_name_H-M   'P 1'
_cell_length_a   5.75697453
_cell_length_b   5.21026977
_cell_length_c   7.48911215
_cell_angle_alpha   104.69499560
_cell_angle_beta   110.49754990
_cell_angle_gamma   96.70520236
_symmetry_Int_Tables_number   1
_chemical_formula_structural   UCr(PO5)2
_chemical_formula_sum   'U1 Cr1 P2 O10'
_cell_volume   198.22467951
_cell_formula_units_Z   1
loop_
 _symmetry_equiv_pos_site_id
 _symmetry_equiv_pos_as_xyz
  1  'x, y, z'
loop_
 _atom_site_type_symbol
 _atom_site_label
 _atom_site_symmetry_multiplicity
 _atom_site_fract_x
 _atom_site_fract_y
 _atom_site_fract_z
 _atom_site_occupancy
  U  U0  1  0.000000  0.500000  0.000000  1
  Cr  Cr1  1  0.000000  0.500000  0.500000  1
  P  P2  1  0.323380  0.133181  0.744982  1
  P  P3  1  0.676620  0.866819  0.255018  1
  O  O4  1  0.177165  0.178228  0.885799  1
  O  O5  1  0.267174  0.831141  0.622976  1
  O  O6  1  0.934566  0.563431  0.751825  1
  O  O7  1  0.249008  0.299676  0.595483  1
  O  O8  1  0.750992  0.700324  0.404517  1
  O  O9  1  0.611455  0.232734  0.872783  1
  O  O10  1  0.388545  0.767266  0.127217  1
  O  O11  1  0.065434  0.436569  0.248175  1
  O  O12  1  0.732826  0.168859  0.377024  1
  O  O13  1  0.822835  0.821772  0.114201  1
