# generated using pymatgen
data_LuNb8VS16
_symmetry_space_group_name_H-M   'P 1'
_cell_length_a   6.71217700
_cell_length_b   6.71217793
_cell_length_c   12.84103400
_cell_angle_alpha   90.00000000
_cell_angle_beta   90.00000000
_cell_angle_gamma   120.00001022
_symmetry_Int_Tables_number   1
_chemical_formula_structural   LuNb8VS16
_chemical_formula_sum   'Lu1 Nb8 V1 S16'
_cell_volume   501.02274655
_cell_formula_units_Z   1
loop_
 _symmetry_equiv_pos_site_id
 _symmetry_equiv_pos_as_xyz
  1  'x, y, z'
loop_
 _atom_site_type_symbol
 _atom_site_label
 _atom_site_symmetry_multiplicity
 _atom_site_fract_x
 _atom_site_fract_y
 _atom_site_fract_z
 _atom_site_occupancy
  Lu  Lu0  1  0.000000  0.000000  0.000000  1
  Nb  Nb1  1  0.000000  0.000000  0.261323  1
  Nb  Nb2  1  0.000000  0.000000  0.738677  1
  Nb  Nb3  1  0.505062  0.010122  0.262712  1
  Nb  Nb4  1  0.494938  0.989878  0.737288  1
  Nb  Nb5  1  0.989878  0.494938  0.262712  1
  Nb  Nb6  1  0.010122  0.505062  0.737288  1
  Nb  Nb7  1  0.505062  0.494938  0.262712  1
  Nb  Nb8  1  0.494938  0.505062  0.737288  1
  V  V9  1  0.000000  0.000000  0.500000  1
  S  S10  1  0.333333  0.666667  0.613691  1
  S  S11  1  0.666667  0.333333  0.386309  1
  S  S12  1  0.666667  0.333333  0.137326  1
  S  S13  1  0.333333  0.666667  0.862674  1
  S  S14  1  0.168855  0.337710  0.139187  1
  S  S15  1  0.831145  0.662290  0.860813  1
  S  S16  1  0.662290  0.831145  0.139187  1
  S  S17  1  0.834462  0.668925  0.615892  1
  S  S18  1  0.337710  0.168855  0.860813  1
  S  S19  1  0.165538  0.331075  0.384108  1
  S  S20  1  0.168855  0.831145  0.139187  1
  S  S21  1  0.331075  0.165538  0.615892  1
  S  S22  1  0.831145  0.168855  0.860813  1
  S  S23  1  0.668925  0.834462  0.384108  1
  S  S24  1  0.834462  0.165538  0.615892  1
  S  S25  1  0.165538  0.834462  0.384108  1
