# generated using pymatgen
data_V8ReSi2B4W
_symmetry_space_group_name_H-M   'P 1'
_cell_length_a   6.78538272
_cell_length_b   6.78737462
_cell_length_c   6.79617727
_cell_angle_alpha   129.23333605
_cell_angle_beta   129.22963828
_cell_angle_gamma   74.78770947
_symmetry_Int_Tables_number   1
_chemical_formula_structural   V8ReSi2B4W
_chemical_formula_sum   'V8 Re1 Si2 B4 W1'
_cell_volume   182.79322660
_cell_formula_units_Z   1
loop_
 _symmetry_equiv_pos_site_id
 _symmetry_equiv_pos_as_xyz
  1  'x, y, z'
loop_
 _atom_site_type_symbol
 _atom_site_label
 _atom_site_symmetry_multiplicity
 _atom_site_fract_x
 _atom_site_fract_y
 _atom_site_fract_z
 _atom_site_occupancy
  V  V0  1  0.692927  0.192771  0.159664  1
  V  V1  1  0.970735  0.469711  0.165180  1
  V  V2  1  0.194285  0.031178  0.500773  1
  V  V3  1  0.472252  0.307419  0.502751  1
  V  V4  1  0.805687  0.972873  0.502242  1
  V  V5  1  0.305435  0.803790  0.834156  1
  V  V6  1  0.000976  0.003934  0.002634  1
  V  V7  1  0.501177  0.498608  0.997544  1
  Re  Re8  1  0.529612  0.693100  0.500243  1
  Si  Si9  1  0.251040  0.240435  0.997974  1
  Si  Si10  1  0.748363  0.754703  0.009397  1
  B  B11  1  0.616718  0.119693  0.734018  1
  B  B12  1  0.117562  0.381183  0.496609  1
  B  B13  1  0.882350  0.617793  0.496236  1
  B  B14  1  0.383999  0.886552  0.266424  1
  W  W15  1  0.026884  0.526257  0.834153  1
