# generated using pymatgen
data_Dy6Lu4SnSb5
_symmetry_space_group_name_H-M   'P 1'
_cell_length_a   6.30131800
_cell_length_b   8.90925897
_cell_length_c   8.89335520
_cell_angle_alpha   120.05679666
_cell_angle_beta   89.99961895
_cell_angle_gamma   90.00091144
_symmetry_Int_Tables_number   1
_chemical_formula_structural   Dy6Lu4SnSb5
_chemical_formula_sum   'Dy6 Lu4 Sn1 Sb5'
_cell_volume   432.13596253
_cell_formula_units_Z   1
loop_
 _symmetry_equiv_pos_site_id
 _symmetry_equiv_pos_as_xyz
  1  'x, y, z'
loop_
 _atom_site_type_symbol
 _atom_site_label
 _atom_site_symmetry_multiplicity
 _atom_site_fract_x
 _atom_site_fract_y
 _atom_site_fract_z
 _atom_site_occupancy
  Dy  Dy0  1  0.749986  0.246283  0.999993  1
  Dy  Dy1  1  0.750023  0.753543  0.754455  1
  Dy  Dy2  1  0.750006  0.999083  0.245523  1
  Dy  Dy3  1  0.250015  0.753953  0.000008  1
  Dy  Dy4  1  0.249991  0.246612  0.246010  1
  Dy  Dy5  1  0.249977  0.000613  0.754010  1
  Lu  Lu6  1  0.500226  0.333939  0.667577  1
  Lu  Lu7  1  0.500207  0.666364  0.332413  1
  Lu  Lu8  1  0.999791  0.666344  0.332403  1
  Lu  Lu9  1  0.999795  0.333935  0.667595  1
  Sn  Sn10  1  0.749987  0.607360  0.999999  1
  Sb  Sb11  1  0.750000  0.391157  0.391543  1
  Sb  Sb12  1  0.749990  0.999605  0.608452  1
  Sb  Sb13  1  0.250003  0.391734  0.000001  1
  Sb  Sb14  1  0.250010  0.608989  0.608509  1
  Sb  Sb15  1  0.249996  0.000485  0.391508  1
