# generated using pymatgen
data_Y6Tm(LuPb2)3
_symmetry_space_group_name_H-M   'P 1'
_cell_length_a   9.02518600
_cell_length_b   9.02518606
_cell_length_c   6.55404600
_cell_angle_alpha   90.00000000
_cell_angle_beta   90.00000000
_cell_angle_gamma   119.99999244
_symmetry_Int_Tables_number   1
_chemical_formula_structural   Y6Tm(LuPb2)3
_chemical_formula_sum   'Y6 Tm1 Lu3 Pb6'
_cell_volume   462.33042574
_cell_formula_units_Z   1
loop_
 _symmetry_equiv_pos_site_id
 _symmetry_equiv_pos_as_xyz
  1  'x, y, z'
loop_
 _atom_site_type_symbol
 _atom_site_label
 _atom_site_symmetry_multiplicity
 _atom_site_fract_x
 _atom_site_fract_y
 _atom_site_fract_z
 _atom_site_occupancy
  Y  Y0  1  0.761591  0.761624  0.749989  1
  Y  Y1  1  0.238376  0.999966  0.749989  1
  Y  Y2  1  0.000034  0.238409  0.749989  1
  Y  Y3  1  0.238376  0.238409  0.250011  1
  Y  Y4  1  0.761591  0.999966  0.250011  1
  Y  Y5  1  0.000034  0.761624  0.250011  1
  Tm  Tm6  1  0.666667  0.333333  0.000000  1
  Lu  Lu7  1  0.333333  0.666667  0.000000  1
  Lu  Lu8  1  0.333333  0.666667  0.500000  1
  Lu  Lu9  1  0.666667  0.333333  0.500000  1
  Pb  Pb10  1  0.395764  0.396184  0.749691  1
  Pb  Pb11  1  0.603816  0.999580  0.749691  1
  Pb  Pb12  1  0.000420  0.604236  0.749691  1
  Pb  Pb13  1  0.603816  0.604236  0.250309  1
  Pb  Pb14  1  0.395764  0.999580  0.250309  1
  Pb  Pb15  1  0.000420  0.396184  0.250309  1
