# generated using pymatgen
data_Li4EuAu2
_symmetry_space_group_name_H-M   'P 1'
_cell_length_a   8.47940760
_cell_length_b   8.47940768
_cell_length_c   8.47940900
_cell_angle_alpha   30.77765339
_cell_angle_beta   30.77765247
_cell_angle_gamma   30.77764685
_symmetry_Int_Tables_number   1
_chemical_formula_structural   Li4EuAu2
_chemical_formula_sum   'Li4 Eu1 Au2'
_cell_volume   141.57096754
_cell_formula_units_Z   1
loop_
 _symmetry_equiv_pos_site_id
 _symmetry_equiv_pos_as_xyz
  1  'x, y, z'
loop_
 _atom_site_type_symbol
 _atom_site_label
 _atom_site_symmetry_multiplicity
 _atom_site_fract_x
 _atom_site_fract_y
 _atom_site_fract_z
 _atom_site_occupancy
  Li  Li0  1  0.141489  0.141489  0.141489  1
  Li  Li1  1  0.432000  0.432000  0.432000  1
  Li  Li2  1  0.568001  0.568001  0.568001  1
  Li  Li3  1  0.858511  0.858511  0.858511  1
  Eu  Eu4  1  0.000000  0.000000  0.000000  1
  Au  Au5  1  0.250254  0.250254  0.250254  1
  Au  Au6  1  0.749746  0.749746  0.749746  1
