# generated using pymatgen
data_Cs3Li2HfP3
_symmetry_space_group_name_H-M   'P 1'
_cell_length_a   10.32445120
_cell_length_b   10.32445096
_cell_length_c   16.93826400
_cell_angle_alpha   90.00000000
_cell_angle_beta   90.00000000
_cell_angle_gamma   143.13948001
_symmetry_Int_Tables_number   1
_chemical_formula_structural   Cs3Li2HfP3
_chemical_formula_sum   'Cs12 Li8 Hf4 P12'
_cell_volume   1083.07691213
_cell_formula_units_Z   4
loop_
 _symmetry_equiv_pos_site_id
 _symmetry_equiv_pos_as_xyz
  1  'x, y, z'
loop_
 _atom_site_type_symbol
 _atom_site_label
 _atom_site_symmetry_multiplicity
 _atom_site_fract_x
 _atom_site_fract_y
 _atom_site_fract_z
 _atom_site_occupancy
  Cs  Cs0  1  0.950431  0.604564  0.831322  1
  Cs  Cs1  1  0.549569  0.895436  0.331322  1
  Cs  Cs2  1  0.395436  0.049569  0.168678  1
  Cs  Cs3  1  0.049569  0.395436  0.168678  1
  Cs  Cs4  1  0.895436  0.549569  0.331322  1
  Cs  Cs5  1  0.450431  0.104564  0.668678  1
  Cs  Cs6  1  0.604564  0.950431  0.831322  1
  Cs  Cs7  1  0.293614  0.293614  0.321684  1
  Cs  Cs8  1  0.793614  0.793614  0.178316  1
  Cs  Cs9  1  0.206386  0.206386  0.821684  1
  Cs  Cs10  1  0.706386  0.706386  0.678316  1
  Cs  Cs11  1  0.104564  0.450431  0.668678  1
  Li  Li12  1  0.916428  0.083572  0.000000  1
  Li  Li13  1  0.583572  0.416428  0.500000  1
  Li  Li14  1  0.083572  0.916428  0.000000  1
  Li  Li15  1  0.416428  0.583572  0.500000  1
  Li  Li16  1  0.750295  0.249705  0.000000  1
  Li  Li17  1  0.749705  0.250295  0.500000  1
  Li  Li18  1  0.249705  0.750295  0.000000  1
  Li  Li19  1  0.250295  0.749705  0.500000  1
  Hf  Hf20  1  0.586568  0.413432  0.000000  1
  Hf  Hf21  1  0.913432  0.086568  0.500000  1
  Hf  Hf22  1  0.413432  0.586568  0.000000  1
  Hf  Hf23  1  0.086568  0.913432  0.500000  1
  P  P24  1  0.893732  0.571906  0.078708  1
  P  P25  1  0.428094  0.106268  0.921292  1
  P  P26  1  0.606268  0.928094  0.578708  1
  P  P27  1  0.928094  0.606268  0.578708  1
  P  P28  1  0.106268  0.428094  0.921292  1
  P  P29  1  0.571906  0.893732  0.078708  1
  P  P30  1  0.393732  0.071906  0.421292  1
  P  P31  1  0.219936  0.219936  0.577391  1
  P  P32  1  0.719936  0.719936  0.922609  1
  P  P33  1  0.280064  0.280064  0.077391  1
  P  P34  1  0.071906  0.393732  0.421292  1
  P  P35  1  0.780064  0.780064  0.422609  1
