# generated using pymatgen
data_Y5SiSe4
_symmetry_space_group_name_H-M   'P 1'
_cell_length_a   7.11477634
_cell_length_b   7.11477679
_cell_length_c   7.11477749
_cell_angle_alpha   99.60211847
_cell_angle_beta   99.60211888
_cell_angle_gamma   131.78901813
_symmetry_Int_Tables_number   1
_chemical_formula_structural   Y5SiSe4
_chemical_formula_sum   'Y5 Si1 Se4'
_cell_volume   245.11235816
_cell_formula_units_Z   1
loop_
 _symmetry_equiv_pos_site_id
 _symmetry_equiv_pos_as_xyz
  1  'x, y, z'
loop_
 _atom_site_type_symbol
 _atom_site_label
 _atom_site_symmetry_multiplicity
 _atom_site_fract_x
 _atom_site_fract_y
 _atom_site_fract_z
 _atom_site_occupancy
  Y  Y0  1  0.404562  0.788853  0.193415  1
  Y  Y1  1  0.000000  0.000000  0.000000  1
  Y  Y2  1  0.595438  0.211147  0.806585  1
  Y  Y3  1  0.211147  0.404562  0.615709  1
  Y  Y4  1  0.788853  0.595438  0.384291  1
  Si  Si5  1  0.500000  0.500000  0.000000  1
  Se  Se6  1  0.096966  0.698011  0.794976  1
  Se  Se7  1  0.698011  0.903034  0.601045  1
  Se  Se8  1  0.301989  0.096966  0.398955  1
  Se  Se9  1  0.903034  0.301989  0.205024  1
