# generated using pymatgen
data_DyTm2In3HgRh2
_symmetry_space_group_name_H-M   'P 1'
_cell_length_a   7.84340738
_cell_length_b   7.82755426
_cell_length_c   3.76216500
_cell_angle_alpha   90.00000000
_cell_angle_beta   90.00000000
_cell_angle_gamma   119.94579238
_symmetry_Int_Tables_number   1
_chemical_formula_structural   DyTm2In3HgRh2
_chemical_formula_sum   'Dy1 Tm2 In3 Hg1 Rh2'
_cell_volume   200.14110627
_cell_formula_units_Z   1
loop_
 _symmetry_equiv_pos_site_id
 _symmetry_equiv_pos_as_xyz
  1  'x, y, z'
loop_
 _atom_site_type_symbol
 _atom_site_label
 _atom_site_symmetry_multiplicity
 _atom_site_fract_x
 _atom_site_fract_y
 _atom_site_fract_z
 _atom_site_occupancy
  Dy  Dy0  1  0.970477  0.385837  0.500000  1
  Tm  Tm1  1  0.615481  0.584275  0.500000  1
  Tm  Tm2  1  0.415446  0.031300  0.500000  1
  In  In3  1  0.259851  0.257982  0.000000  1
  In  In4  1  0.998795  0.741523  0.000000  1
  In  In5  1  0.741011  0.999608  0.000000  1
  Hg  Hg6  1  0.335092  0.667893  0.000000  1
  Rh  Rh7  1  0.000053  0.999098  0.500000  1
  Rh  Rh8  1  0.663792  0.332484  0.000000  1
