# generated using pymatgen
data_Dy10Y10Cd3Hg3Ru2
_symmetry_space_group_name_H-M   'P 1'
_cell_length_a   9.62517973
_cell_length_b   9.62415549
_cell_length_c   9.80525496
_cell_angle_alpha   90.00000103
_cell_angle_beta   90.04390832
_cell_angle_gamma   119.99648127
_symmetry_Int_Tables_number   1
_chemical_formula_structural   Dy10Y10Cd3Hg3Ru2
_chemical_formula_sum   'Dy10 Y10 Cd3 Hg3 Ru2'
_cell_volume   786.64036708
_cell_formula_units_Z   1
loop_
 _symmetry_equiv_pos_site_id
 _symmetry_equiv_pos_as_xyz
  1  'x, y, z'
loop_
 _atom_site_type_symbol
 _atom_site_label
 _atom_site_symmetry_multiplicity
 _atom_site_fract_x
 _atom_site_fract_y
 _atom_site_fract_z
 _atom_site_occupancy
  Dy  Dy0  1  0.000029  0.000014  0.490869  1
  Dy  Dy1  1  0.999640  0.999820  0.008990  1
  Dy  Dy2  1  0.209562  0.790366  0.439180  1
  Dy  Dy3  1  0.209562  0.419197  0.439180  1
  Dy  Dy4  1  0.580798  0.790399  0.439253  1
  Dy  Dy5  1  0.790192  0.209709  0.560136  1
  Dy  Dy6  1  0.790192  0.580484  0.560136  1
  Dy  Dy7  1  0.419636  0.209818  0.560015  1
  Dy  Dy8  1  0.790243  0.209961  0.939584  1
  Dy  Dy9  1  0.790243  0.580282  0.939584  1
  Y  Y10  1  0.418818  0.209409  0.940383  1
  Y  Y11  1  0.209019  0.790668  0.060519  1
  Y  Y12  1  0.209019  0.418352  0.060519  1
  Y  Y13  1  0.581600  0.790800  0.060445  1
  Y  Y14  1  0.541268  0.458830  0.250371  1
  Y  Y15  1  0.541268  0.082439  0.250371  1
  Y  Y16  1  0.917436  0.458719  0.250191  1
  Y  Y17  1  0.458929  0.541183  0.749540  1
  Y  Y18  1  0.458929  0.917746  0.749540  1
  Y  Y19  1  0.082073  0.541037  0.749656  1
  Cd  Cd20  1  0.113043  0.887014  0.750165  1
  Cd  Cd21  1  0.113043  0.226028  0.750165  1
  Cd  Cd22  1  0.773969  0.886984  0.750061  1
  Hg  Hg23  1  0.879986  0.120112  0.249903  1
  Hg  Hg24  1  0.879986  0.759875  0.249903  1
  Hg  Hg25  1  0.240221  0.120111  0.249856  1
  Ru  Ru26  1  0.333376  0.666689  0.252368  1
  Ru  Ru27  1  0.667912  0.333956  0.749116  1
