# generated using pymatgen
data_NbSb3(Se4O13)2
_symmetry_space_group_name_H-M   'P 1'
_cell_length_a   6.97189609
_cell_length_b   7.48186670
_cell_length_c   11.60283853
_cell_angle_alpha   71.66226129
_cell_angle_beta   90.16786367
_cell_angle_gamma   90.35166674
_symmetry_Int_Tables_number   1
_chemical_formula_structural   NbSb3(Se4O13)2
_chemical_formula_sum   'Nb1 Sb3 Se8 O26'
_cell_volume   574.49052888
_cell_formula_units_Z   1
loop_
 _symmetry_equiv_pos_site_id
 _symmetry_equiv_pos_as_xyz
  1  'x, y, z'
loop_
 _atom_site_type_symbol
 _atom_site_label
 _atom_site_symmetry_multiplicity
 _atom_site_fract_x
 _atom_site_fract_y
 _atom_site_fract_z
 _atom_site_occupancy
  Nb  Nb0  1  0.002165  0.349751  0.047196  1
  Sb  Sb1  1  0.500093  0.920059  0.397024  1
  Sb  Sb2  1  0.502087  0.419782  0.396175  1
  Sb  Sb3  1  0.004367  0.848306  0.048717  1
  Se  Se4  1  0.512143  0.896627  0.706990  1
  Se  Se5  1  0.486938  0.400097  0.703632  1
  Se  Se6  1  0.072220  0.049880  0.729321  1
  Se  Se7  1  0.927980  0.554317  0.721325  1
  Se  Se8  1  0.068772  0.674780  0.382470  1
  Se  Se9  1  0.933028  0.177585  0.383859  1
  Se  Se10  1  0.567973  0.592755  0.061768  1
  Se  Se11  1  0.438636  0.091150  0.062045  1
  O  O12  1  0.094437  0.502199  0.635791  1
  O  O13  1  0.910901  0.006449  0.636807  1
  O  O14  1  0.576543  0.697841  0.811098  1
  O  O15  1  0.422504  0.204497  0.811021  1
  O  O16  1  0.247947  0.866181  0.724658  1
  O  O17  1  0.752066  0.369810  0.718553  1
  O  O18  1  0.589567  0.667972  0.400161  1
  O  O19  1  0.410189  0.168407  0.397325  1
  O  O20  1  0.527150  0.811645  0.578753  1
  O  O21  1  0.468722  0.309558  0.577623  1
  O  O22  1  0.215676  0.852820  0.404920  1
  O  O23  1  0.785837  0.353355  0.407883  1
  O  O24  1  0.980179  0.269764  0.232750  1
  O  O25  1  0.002630  0.771083  0.233171  1
  O  O26  1  0.284467  0.273004  0.061646  1
  O  O27  1  0.718863  0.780413  0.061469  1
  O  O28  1  0.289888  0.913695  0.039193  1
  O  O29  1  0.717296  0.417872  0.043149  1
  O  O30  1  0.014524  0.433182  0.868402  1
  O  O31  1  0.962382  0.918558  0.868626  1
  O  O32  1  0.929601  0.097081  0.050878  1
  O  O33  1  0.079287  0.596791  0.052845  1
  O  O34  1  0.497606  0.994585  0.213004  1
  O  O35  1  0.504105  0.498345  0.212578  1
  O  O36  1  0.217779  0.489404  0.379780  1
  O  O37  1  0.783453  0.987799  0.385391  1
