# generated using pymatgen
data_Hf3Pd3Au2
_symmetry_space_group_name_H-M   'P 1'
_cell_length_a   3.50145600
_cell_length_b   3.50145600
_cell_length_c   11.85526500
_cell_angle_alpha   90.00000000
_cell_angle_beta   90.00000000
_cell_angle_gamma   90.00000000
_symmetry_Int_Tables_number   1
_chemical_formula_structural   Hf3Pd3Au2
_chemical_formula_sum   'Hf3 Pd3 Au2'
_cell_volume   145.34785024
_cell_formula_units_Z   1
loop_
 _symmetry_equiv_pos_site_id
 _symmetry_equiv_pos_as_xyz
  1  'x, y, z'
loop_
 _atom_site_type_symbol
 _atom_site_label
 _atom_site_symmetry_multiplicity
 _atom_site_fract_x
 _atom_site_fract_y
 _atom_site_fract_z
 _atom_site_occupancy
  Hf  Hf0  1  0.000000  0.000000  0.138729  1
  Hf  Hf1  1  0.500000  0.500000  0.506815  1
  Hf  Hf2  1  0.000000  0.000000  0.855869  1
  Pd  Pd3  1  0.500000  0.500000  0.248100  1
  Pd  Pd4  1  0.000000  0.000000  0.619509  1
  Pd  Pd5  1  0.500000  0.500000  0.750931  1
  Au  Au6  1  0.500000  0.500000  0.999898  1
  Au  Au7  1  0.000000  0.000000  0.380148  1
