# generated using pymatgen
data_Tm12TlCo5
_symmetry_space_group_name_H-M   'P 1'
_cell_length_a   8.17043665
_cell_length_b   8.17043745
_cell_length_c   8.17043687
_cell_angle_alpha   111.03078470
_cell_angle_beta   110.80501948
_cell_angle_gamma   106.61514218
_symmetry_Int_Tables_number   1
_chemical_formula_structural   Tm12TlCo5
_chemical_formula_sum   'Tm12 Tl1 Co5'
_cell_volume   419.08990107
_cell_formula_units_Z   1
loop_
 _symmetry_equiv_pos_site_id
 _symmetry_equiv_pos_as_xyz
  1  'x, y, z'
loop_
 _atom_site_type_symbol
 _atom_site_label
 _atom_site_symmetry_multiplicity
 _atom_site_fract_x
 _atom_site_fract_y
 _atom_site_fract_z
 _atom_site_occupancy
  Tm  Tm0  1  0.286541  0.183943  0.470484  1
  Tm  Tm1  1  0.713459  0.816057  0.529516  1
  Tm  Tm2  1  0.286541  0.816057  0.102597  1
  Tm  Tm3  1  0.713459  0.183943  0.897403  1
  Tm  Tm4  1  0.620260  0.314786  0.305474  1
  Tm  Tm5  1  0.379740  0.685214  0.694526  1
  Tm  Tm6  1  0.009311  0.314786  0.694526  1
  Tm  Tm7  1  0.990689  0.685214  0.305474  1
  Tm  Tm8  1  0.214068  0.406723  0.192656  1
  Tm  Tm9  1  0.785932  0.593277  0.807344  1
  Tm  Tm10  1  0.214068  0.021413  0.807344  1
  Tm  Tm11  1  0.785932  0.978587  0.192656  1
  Tl  Tl12  1  0.500000  0.500000  0.000000  1
  Co  Co13  1  0.000000  0.375811  0.375811  1
  Co  Co14  1  0.000000  0.624189  0.624189  1
  Co  Co15  1  0.386905  0.886905  0.500000  1
  Co  Co16  1  0.613095  0.113095  0.500000  1
  Co  Co17  1  0.000000  0.000000  0.000000  1
