# generated using pymatgen
data_Ca2Tb2Bi6Rh7
_symmetry_space_group_name_H-M   'P 1'
_cell_length_a   7.79333357
_cell_length_b   7.84518689
_cell_length_c   7.84518570
_cell_angle_alpha   109.74658537
_cell_angle_beta   109.46752204
_cell_angle_gamma   109.46752213
_symmetry_Int_Tables_number   1
_chemical_formula_structural   Ca2Tb2Bi6Rh7
_chemical_formula_sum   'Ca2 Tb2 Bi6 Rh7'
_cell_volume   368.01093120
_cell_formula_units_Z   1
loop_
 _symmetry_equiv_pos_site_id
 _symmetry_equiv_pos_as_xyz
  1  'x, y, z'
loop_
 _atom_site_type_symbol
 _atom_site_label
 _atom_site_symmetry_multiplicity
 _atom_site_fract_x
 _atom_site_fract_y
 _atom_site_fract_z
 _atom_site_occupancy
  Ca  Ca0  1  0.500000  0.000000  0.000000  1
  Ca  Ca1  1  0.500000  0.500000  0.500000  1
  Tb  Tb2  1  0.000000  0.500000  0.000000  1
  Tb  Tb3  1  0.000000  0.000000  0.500000  1
  Bi  Bi4  1  0.000000  0.315823  0.315823  1
  Bi  Bi5  1  0.681017  0.996457  0.684561  1
  Bi  Bi6  1  0.681017  0.684561  0.996457  1
  Bi  Bi7  1  0.000000  0.684177  0.684177  1
  Bi  Bi8  1  0.318983  0.003543  0.315439  1
  Bi  Bi9  1  0.318983  0.315439  0.003543  1
  Rh  Rh10  1  0.000000  0.000000  0.000000  1
  Rh  Rh11  1  0.500000  0.750000  0.250000  1
  Rh  Rh12  1  0.756942  0.507396  0.249546  1
  Rh  Rh13  1  0.243058  0.750454  0.492604  1
  Rh  Rh14  1  0.243058  0.492604  0.750454  1
  Rh  Rh15  1  0.500000  0.250000  0.750000  1
  Rh  Rh16  1  0.756942  0.249546  0.507396  1
