# generated using pymatgen
data_Zr3Ti6Nb3Si5Ge
_symmetry_space_group_name_H-M   'P 1'
_cell_length_a   3.65061800
_cell_length_b   6.94869610
_cell_length_c   11.98652531
_cell_angle_alpha   89.87518549
_cell_angle_beta   90.00000000
_cell_angle_gamma   90.00000000
_symmetry_Int_Tables_number   1
_chemical_formula_structural   Zr3Ti6Nb3Si5Ge
_chemical_formula_sum   'Zr3 Ti6 Nb3 Si5 Ge1'
_cell_volume   304.06188634
_cell_formula_units_Z   1
loop_
 _symmetry_equiv_pos_site_id
 _symmetry_equiv_pos_as_xyz
  1  'x, y, z'
loop_
 _atom_site_type_symbol
 _atom_site_label
 _atom_site_symmetry_multiplicity
 _atom_site_fract_x
 _atom_site_fract_y
 _atom_site_fract_z
 _atom_site_occupancy
  Zr  Zr0  1  0.500000  0.295057  0.295576  1
  Zr  Zr1  1  0.500000  0.298234  0.706291  1
  Zr  Zr2  1  0.500000  0.795668  0.203150  1
  Ti  Ti3  1  0.000000  0.751680  0.997687  1
  Ti  Ti4  1  0.000000  0.250067  0.501150  1
  Ti  Ti5  1  0.000000  0.625279  0.626982  1
  Ti  Ti6  1  0.000000  0.124593  0.124347  1
  Ti  Ti7  1  0.000000  0.128542  0.874303  1
  Ti  Ti8  1  0.000000  0.625282  0.373845  1
  Nb  Nb9  1  0.500000  0.408628  0.997743  1
  Nb  Nb10  1  0.500000  0.903723  0.500065  1
  Nb  Nb11  1  0.500000  0.791269  0.799085  1
  Si  Si12  1  0.000000  0.497395  0.160864  1
  Si  Si13  1  0.000000  0.504459  0.836285  1
  Si  Si14  1  0.000000  0.997025  0.338198  1
  Si  Si15  1  0.500000  0.004465  0.997553  1
  Si  Si16  1  0.500000  0.504521  0.499843  1
  Ge  Ge17  1  0.000000  0.994312  0.667034  1
