# generated using pymatgen
data_RbLiSnF6
_symmetry_space_group_name_H-M   'P 1'
_cell_length_a   11.04021400
_cell_length_b   5.88641142
_cell_length_c   9.13065642
_cell_angle_alpha   89.27168403
_cell_angle_beta   90.00000000
_cell_angle_gamma   90.00000000
_symmetry_Int_Tables_number   1
_chemical_formula_structural   RbLiSnF6
_chemical_formula_sum   'Rb4 Li4 Sn4 F24'
_cell_volume   593.32823679
_cell_formula_units_Z   4
loop_
 _symmetry_equiv_pos_site_id
 _symmetry_equiv_pos_as_xyz
  1  'x, y, z'
loop_
 _atom_site_type_symbol
 _atom_site_label
 _atom_site_symmetry_multiplicity
 _atom_site_fract_x
 _atom_site_fract_y
 _atom_site_fract_z
 _atom_site_occupancy
  Rb  Rb0  1  0.811453  0.300505  0.006747  1
  Rb  Rb1  1  0.688547  0.300505  0.506747  1
  Rb  Rb2  1  0.188547  0.699495  0.993253  1
  Rb  Rb3  1  0.311453  0.699495  0.493253  1
  Li  Li4  1  0.406856  0.250890  0.810061  1
  Li  Li5  1  0.906856  0.749110  0.689939  1
  Li  Li6  1  0.593144  0.749110  0.189939  1
  Li  Li7  1  0.093144  0.250890  0.310061  1
  Sn  Sn8  1  0.587133  0.781525  0.774768  1
  Sn  Sn9  1  0.912867  0.781525  0.274768  1
  Sn  Sn10  1  0.412867  0.218475  0.225232  1
  Sn  Sn11  1  0.087133  0.218475  0.725232  1
  F  F12  1  0.004880  0.514748  0.772400  1
  F  F13  1  0.843435  0.087478  0.309287  1
  F  F14  1  0.343435  0.912522  0.190713  1
  F  F15  1  0.156565  0.912522  0.690713  1
  F  F16  1  0.656565  0.087478  0.809287  1
  F  F17  1  0.578208  0.072745  0.210170  1
  F  F18  1  0.078208  0.927255  0.289830  1
  F  F19  1  0.421792  0.927255  0.789830  1
  F  F20  1  0.504880  0.485252  0.727600  1
  F  F21  1  0.247285  0.364032  0.241771  1
  F  F22  1  0.495120  0.514748  0.272400  1
  F  F23  1  0.995120  0.485252  0.227600  1
  F  F24  1  0.752715  0.635968  0.758229  1
  F  F25  1  0.252715  0.364032  0.741771  1
  F  F26  1  0.592912  0.834017  0.559178  1
  F  F27  1  0.747285  0.635968  0.258229  1
  F  F28  1  0.907971  0.698077  0.487492  1
  F  F29  1  0.092912  0.165983  0.940822  1
  F  F30  1  0.407088  0.165983  0.440822  1
  F  F31  1  0.907088  0.834017  0.059178  1
  F  F32  1  0.592029  0.698077  0.987492  1
  F  F33  1  0.092029  0.301923  0.512508  1
  F  F34  1  0.407971  0.301923  0.012508  1
  F  F35  1  0.921792  0.072745  0.710170  1
