# generated using pymatgen
data_Tb2B6Ir2Rh7
_symmetry_space_group_name_H-M   'P 1'
_cell_length_a   5.61606451
_cell_length_b   5.62838131
_cell_length_c   8.60055100
_cell_angle_alpha   90.00000000
_cell_angle_beta   90.00000000
_cell_angle_gamma   120.07258196
_symmetry_Int_Tables_number   1
_chemical_formula_structural   Tb2B6Ir2Rh7
_chemical_formula_sum   'Tb2 B6 Ir2 Rh7'
_cell_volume   235.26342006
_cell_formula_units_Z   1
loop_
 _symmetry_equiv_pos_site_id
 _symmetry_equiv_pos_as_xyz
  1  'x, y, z'
loop_
 _atom_site_type_symbol
 _atom_site_label
 _atom_site_symmetry_multiplicity
 _atom_site_fract_x
 _atom_site_fract_y
 _atom_site_fract_z
 _atom_site_occupancy
  Tb  Tb0  1  0.000000  0.000000  0.704023  1
  Tb  Tb1  1  0.000000  0.000000  0.295977  1
  B  B2  1  0.666187  0.333093  0.000000  1
  B  B3  1  0.333813  0.666907  0.000000  1
  B  B4  1  0.665396  0.332698  0.667930  1
  B  B5  1  0.334604  0.667302  0.667930  1
  B  B6  1  0.334604  0.667302  0.332070  1
  B  B7  1  0.665396  0.332698  0.332070  1
  Ir  Ir8  1  0.500000  0.500000  0.500000  1
  Ir  Ir9  1  0.500000  0.000000  0.500000  1
  Rh  Rh10  1  0.500000  0.500000  0.836416  1
  Rh  Rh11  1  0.500000  0.000000  0.836416  1
  Rh  Rh12  1  0.000000  0.500000  0.836056  1
  Rh  Rh13  1  0.500000  0.500000  0.163584  1
  Rh  Rh14  1  0.500000  0.000000  0.163584  1
  Rh  Rh15  1  0.000000  0.500000  0.163944  1
  Rh  Rh16  1  0.000000  0.500000  0.500000  1
