# generated using pymatgen
data_Tb4Y4Ti5Ge16Mo7
_symmetry_space_group_name_H-M   'P 1'
_cell_length_a   6.92350657
_cell_length_b   7.09354444
_cell_length_c   13.37813902
_cell_angle_alpha   89.97883276
_cell_angle_beta   89.97875023
_cell_angle_gamma   90.02930443
_symmetry_Int_Tables_number   1
_chemical_formula_structural   Tb4Y4Ti5Ge16Mo7
_chemical_formula_sum   'Tb4 Y4 Ti5 Ge16 Mo7'
_cell_volume   657.02968281
_cell_formula_units_Z   1
loop_
 _symmetry_equiv_pos_site_id
 _symmetry_equiv_pos_as_xyz
  1  'x, y, z'
loop_
 _atom_site_type_symbol
 _atom_site_label
 _atom_site_symmetry_multiplicity
 _atom_site_fract_x
 _atom_site_fract_y
 _atom_site_fract_z
 _atom_site_occupancy
  Tb  Tb0  1  0.993768  0.828898  0.594246  1
  Tb  Tb1  1  0.495643  0.672843  0.905424  1
  Tb  Tb2  1  0.506408  0.329665  0.406008  1
  Tb  Tb3  1  0.006230  0.169683  0.095750  1
  Y  Y4  1  0.004714  0.173913  0.405226  1
  Y  Y5  1  0.504446  0.326402  0.094501  1
  Y  Y6  1  0.495328  0.674719  0.595123  1
  Y  Y7  1  0.995142  0.828330  0.905193  1
  Ti  Ti8  1  0.161784  0.331807  0.872708  1
  Ti  Ti9  1  0.158057  0.332066  0.626930  1
  Ti  Ti10  1  0.662430  0.166562  0.871943  1
  Ti  Ti11  1  0.840469  0.667432  0.127853  1
  Ti  Ti12  1  0.340596  0.833019  0.372279  1
  Ge  Ge13  1  0.328701  0.044536  0.544646  1
  Ge  Ge14  1  0.826303  0.455888  0.956049  1
  Ge  Ge15  1  0.670786  0.955180  0.044738  1
  Ge  Ge16  1  0.170919  0.544724  0.455652  1
  Ge  Ge17  1  0.172475  0.543219  0.044070  1
  Ge  Ge18  1  0.672216  0.955112  0.455805  1
  Ge  Ge19  1  0.826699  0.456383  0.544194  1
  Ge  Ge20  1  0.327796  0.044714  0.956806  1
  Ge  Ge21  1  0.808950  0.365970  0.248836  1
  Ge  Ge22  1  0.309731  0.134931  0.251170  1
  Ge  Ge23  1  0.690738  0.865348  0.750502  1
  Ge  Ge24  1  0.192833  0.635276  0.749888  1
  Ge  Ge25  1  0.036468  0.870499  0.251589  1
  Ge  Ge26  1  0.536840  0.629085  0.248927  1
  Ge  Ge27  1  0.463694  0.369546  0.749096  1
  Ge  Ge28  1  0.961826  0.128244  0.750339  1
  Mo  Mo29  1  0.335430  0.833866  0.126960  1
  Mo  Mo30  1  0.835706  0.664792  0.374209  1
  Mo  Mo31  1  0.665261  0.165814  0.624849  1
  Mo  Mo32  1  0.332848  0.011565  0.749107  1
  Mo  Mo33  1  0.666816  0.987481  0.250079  1
  Mo  Mo34  1  0.167120  0.513657  0.250372  1
  Mo  Mo35  1  0.834829  0.488834  0.748933  1
