# generated using pymatgen
data_Hf18Re6W2AuSe
_symmetry_space_group_name_H-M   'P 1'
_cell_length_a   8.71765422
_cell_length_b   8.71765423
_cell_length_c   8.58734815
_cell_angle_alpha   89.98102175
_cell_angle_beta   90.01897612
_cell_angle_gamma   120.17438183
_symmetry_Int_Tables_number   1
_chemical_formula_structural   Hf18Re6W2AuSe
_chemical_formula_sum   'Hf18 Re6 W2 Au1 Se1'
_cell_volume   564.18706802
_cell_formula_units_Z   1
loop_
 _symmetry_equiv_pos_site_id
 _symmetry_equiv_pos_as_xyz
  1  'x, y, z'
loop_
 _atom_site_type_symbol
 _atom_site_label
 _atom_site_symmetry_multiplicity
 _atom_site_fract_x
 _atom_site_fract_y
 _atom_site_fract_z
 _atom_site_occupancy
  Hf  Hf0  1  0.192702  0.807298  0.448796  1
  Hf  Hf1  1  0.192997  0.385656  0.449265  1
  Hf  Hf2  1  0.614344  0.807003  0.449265  1
  Hf  Hf3  1  0.805792  0.194208  0.547089  1
  Hf  Hf4  1  0.805693  0.611896  0.547018  1
  Hf  Hf5  1  0.388104  0.194307  0.547018  1
  Hf  Hf6  1  0.807831  0.192169  0.951695  1
  Hf  Hf7  1  0.807263  0.615294  0.952150  1
  Hf  Hf8  1  0.384706  0.192737  0.952150  1
  Hf  Hf9  1  0.190744  0.809256  0.052500  1
  Hf  Hf10  1  0.190813  0.381329  0.051227  1
  Hf  Hf11  1  0.618671  0.809187  0.051227  1
  Hf  Hf12  1  0.542370  0.457630  0.248610  1
  Hf  Hf13  1  0.543122  0.085155  0.248598  1
  Hf  Hf14  1  0.914845  0.456878  0.248598  1
  Hf  Hf15  1  0.455475  0.544525  0.750906  1
  Hf  Hf16  1  0.455574  0.910481  0.751015  1
  Hf  Hf17  1  0.089519  0.544426  0.751015  1
  Re  Re18  1  0.889549  0.110451  0.251270  1
  Re  Re19  1  0.888765  0.777987  0.251041  1
  Re  Re20  1  0.222013  0.111235  0.251041  1
  Re  Re21  1  0.110611  0.220881  0.749373  1
  Re  Re22  1  0.779119  0.889389  0.749373  1
  Re  Re23  1  0.999942  0.000058  0.001887  1
  W  W24  1  0.108930  0.891070  0.749913  1
  W  W25  1  0.999651  0.000349  0.498645  1
  Au  Au26  1  0.333756  0.666244  0.247599  1
  Se  Se27  1  0.667099  0.332901  0.751716  1
