# generated using pymatgen
data_Tm5CSe4
_symmetry_space_group_name_H-M   'P 1'
_cell_length_a   6.83511233
_cell_length_b   6.83513798
_cell_length_c   6.83515579
_cell_angle_alpha   99.56851138
_cell_angle_beta   99.56854514
_cell_angle_gamma   131.87773994
_symmetry_Int_Tables_number   1
_chemical_formula_structural   Tm5CSe4
_chemical_formula_sum   'Tm5 C1 Se4'
_cell_volume   217.10590825
_cell_formula_units_Z   1
loop_
 _symmetry_equiv_pos_site_id
 _symmetry_equiv_pos_as_xyz
  1  'x, y, z'
loop_
 _atom_site_type_symbol
 _atom_site_label
 _atom_site_symmetry_multiplicity
 _atom_site_fract_x
 _atom_site_fract_y
 _atom_site_fract_z
 _atom_site_occupancy
  Tm  Tm0  1  0.410422  0.758704  0.169132  1
  Tm  Tm1  1  0.000000  0.000000  0.000000  1
  Tm  Tm2  1  0.589578  0.241296  0.830868  1
  Tm  Tm3  1  0.241291  0.410423  0.651718  1
  Tm  Tm4  1  0.758709  0.589577  0.348282  1
  C  C5  1  0.500000  0.500000  0.000000  1
  Se  Se6  1  0.093015  0.694130  0.787141  1
  Se  Se7  1  0.694127  0.906985  0.601114  1
  Se  Se8  1  0.305873  0.093015  0.398886  1
  Se  Se9  1  0.906985  0.305870  0.212859  1
