# generated using pymatgen
data_Ho4MnCu2Ru5
_symmetry_space_group_name_H-M   'P 1'
_cell_length_a   5.29596100
_cell_length_b   5.10943057
_cell_length_c   8.74371900
_cell_angle_alpha   90.00000000
_cell_angle_beta   90.00000000
_cell_angle_gamma   119.87125508
_symmetry_Int_Tables_number   1
_chemical_formula_structural   Ho4MnCu2Ru5
_chemical_formula_sum   'Ho4 Mn1 Cu2 Ru5'
_cell_volume   205.16631685
_cell_formula_units_Z   1
loop_
 _symmetry_equiv_pos_site_id
 _symmetry_equiv_pos_as_xyz
  1  'x, y, z'
loop_
 _atom_site_type_symbol
 _atom_site_label
 _atom_site_symmetry_multiplicity
 _atom_site_fract_x
 _atom_site_fract_y
 _atom_site_fract_z
 _atom_site_occupancy
  Ho  Ho0  1  0.677093  0.342180  0.564307  1
  Ho  Ho1  1  0.339347  0.669792  0.436052  1
  Ho  Ho2  1  0.339347  0.669792  0.063948  1
  Ho  Ho3  1  0.677093  0.342180  0.935693  1
  Mn  Mn4  1  0.161918  0.322109  0.750000  1
  Cu  Cu5  1  0.815654  0.655844  0.250000  1
  Cu  Cu6  1  0.817200  0.161990  0.250000  1
  Ru  Ru7  1  0.015113  0.012065  0.499294  1
  Ru  Ru8  1  0.015113  0.012065  0.000706  1
  Ru  Ru9  1  0.176337  0.829538  0.750000  1
  Ru  Ru10  1  0.649976  0.825627  0.750000  1
  Ru  Ru11  1  0.315809  0.156821  0.250000  1
