# generated using pymatgen
data_TbY7(CdPt)2
_symmetry_space_group_name_H-M   'P 1'
_cell_length_a   9.72873438
_cell_length_b   9.72873443
_cell_length_c   9.72685100
_cell_angle_alpha   60.00640726
_cell_angle_beta   60.00640707
_cell_angle_gamma   60.01055892
_symmetry_Int_Tables_number   1
_chemical_formula_structural   TbY7(CdPt)2
_chemical_formula_sum   'Tb2 Y14 Cd4 Pt4'
_cell_volume   651.09845240
_cell_formula_units_Z   2
loop_
 _symmetry_equiv_pos_site_id
 _symmetry_equiv_pos_as_xyz
  1  'x, y, z'
loop_
 _atom_site_type_symbol
 _atom_site_label
 _atom_site_symmetry_multiplicity
 _atom_site_fract_x
 _atom_site_fract_y
 _atom_site_fract_z
 _atom_site_occupancy
  Tb  Tb0  1  0.352081  0.352081  0.350276  1
  Tb  Tb1  1  0.352081  0.352081  0.945563  1
  Y  Y2  1  0.355054  0.939034  0.352956  1
  Y  Y3  1  0.939034  0.355054  0.352956  1
  Y  Y4  1  0.810498  0.189953  0.190187  1
  Y  Y5  1  0.189953  0.810498  0.809362  1
  Y  Y6  1  0.189953  0.810498  0.190187  1
  Y  Y7  1  0.810498  0.189953  0.809362  1
  Y  Y8  1  0.190852  0.190852  0.809148  1
  Y  Y9  1  0.810781  0.810781  0.189219  1
  Y  Y10  1  0.936607  0.563505  0.564450  1
  Y  Y11  1  0.563505  0.936607  0.935439  1
  Y  Y12  1  0.563505  0.936607  0.564450  1
  Y  Y13  1  0.936607  0.563505  0.935439  1
  Y  Y14  1  0.564580  0.564580  0.935420  1
  Y  Y15  1  0.936611  0.936611  0.563389  1
  Cd  Cd16  1  0.581438  0.581438  0.582169  1
  Cd  Cd17  1  0.581438  0.581438  0.254955  1
  Cd  Cd18  1  0.581300  0.254138  0.582281  1
  Cd  Cd19  1  0.254138  0.581300  0.582281  1
  Pt  Pt20  1  0.143420  0.143420  0.144843  1
  Pt  Pt21  1  0.143420  0.143420  0.568318  1
  Pt  Pt22  1  0.142485  0.570162  0.143676  1
  Pt  Pt23  1  0.570162  0.142485  0.143676  1
