# generated using pymatgen
data_Dy8HoTmIr6
_symmetry_space_group_name_H-M   'P 1'
_cell_length_a   10.87100100
_cell_length_b   10.87100100
_cell_length_c   6.35719200
_cell_angle_alpha   90.00000000
_cell_angle_beta   90.00000000
_cell_angle_gamma   90.00000000
_symmetry_Int_Tables_number   1
_chemical_formula_structural   Dy8HoTmIr6
_chemical_formula_sum   'Dy16 Ho2 Tm2 Ir12'
_cell_volume   751.28444935
_cell_formula_units_Z   2
loop_
 _symmetry_equiv_pos_site_id
 _symmetry_equiv_pos_as_xyz
  1  'x, y, z'
loop_
 _atom_site_type_symbol
 _atom_site_label
 _atom_site_symmetry_multiplicity
 _atom_site_fract_x
 _atom_site_fract_y
 _atom_site_fract_z
 _atom_site_occupancy
  Dy  Dy0  1  0.290765  0.087857  0.378038  1
  Dy  Dy1  1  0.290765  0.912143  0.878038  1
  Dy  Dy2  1  0.709235  0.087857  0.878038  1
  Dy  Dy3  1  0.709235  0.912143  0.378038  1
  Dy  Dy4  1  0.587953  0.791048  0.878010  1
  Dy  Dy5  1  0.587953  0.208952  0.378010  1
  Dy  Dy6  1  0.412047  0.791048  0.378010  1
  Dy  Dy7  1  0.412047  0.208952  0.878010  1
  Dy  Dy8  1  0.208952  0.412047  0.621990  1
  Dy  Dy9  1  0.208952  0.587953  0.121990  1
  Dy  Dy10  1  0.791048  0.412047  0.121990  1
  Dy  Dy11  1  0.791048  0.587953  0.621990  1
  Dy  Dy12  1  0.912143  0.709235  0.121962  1
  Dy  Dy13  1  0.912143  0.290765  0.621962  1
  Dy  Dy14  1  0.087857  0.709235  0.621962  1
  Dy  Dy15  1  0.087857  0.290765  0.121962  1
  Ho  Ho16  1  0.500000  0.500000  0.000000  1
  Ho  Ho17  1  0.500000  0.500000  0.500000  1
  Tm  Tm18  1  0.000000  0.000000  0.500000  1
  Tm  Tm19  1  0.000000  0.000000  0.000000  1
  Ir  Ir20  1  0.847542  0.152458  0.250000  1
  Ir  Ir21  1  0.847542  0.847542  0.750000  1
  Ir  Ir22  1  0.152458  0.152458  0.750000  1
  Ir  Ir23  1  0.152458  0.847542  0.250000  1
  Ir  Ir24  1  0.653044  0.346956  0.750000  1
  Ir  Ir25  1  0.653044  0.653044  0.250000  1
  Ir  Ir26  1  0.346956  0.346956  0.250000  1
  Ir  Ir27  1  0.346956  0.653044  0.750000  1
  Ir  Ir28  1  0.500000  0.000000  0.122199  1
  Ir  Ir29  1  0.500000  0.000000  0.622199  1
  Ir  Ir30  1  0.000000  0.500000  0.877801  1
  Ir  Ir31  1  0.000000  0.500000  0.377801  1
