# generated using pymatgen
data_Ho8TmAl(Ni2Bi)2
_symmetry_space_group_name_H-M   'P 1'
_cell_length_a   8.91592494
_cell_length_b   8.91592453
_cell_length_c   8.91592511
_cell_angle_alpha   131.77899450
_cell_angle_beta   131.77898947
_cell_angle_gamma   70.57831247
_symmetry_Int_Tables_number   1
_chemical_formula_structural   Ho8TmAl(Ni2Bi)2
_chemical_formula_sum   'Ho8 Tm1 Al1 Ni4 Bi2'
_cell_volume   386.15370606
_cell_formula_units_Z   1
loop_
 _symmetry_equiv_pos_site_id
 _symmetry_equiv_pos_as_xyz
  1  'x, y, z'
loop_
 _atom_site_type_symbol
 _atom_site_label
 _atom_site_symmetry_multiplicity
 _atom_site_fract_x
 _atom_site_fract_y
 _atom_site_fract_z
 _atom_site_occupancy
  Ho  Ho0  1  0.777862  0.308925  0.836029  1
  Ho  Ho1  1  0.222138  0.691075  0.163971  1
  Ho  Ho2  1  0.472897  0.941833  0.163971  1
  Ho  Ho3  1  0.308925  0.472897  0.531063  1
  Ho  Ho4  1  0.058167  0.222138  0.531063  1
  Ho  Ho5  1  0.527103  0.058167  0.836029  1
  Ho  Ho6  1  0.691075  0.527103  0.468937  1
  Ho  Ho7  1  0.941833  0.777862  0.468937  1
  Tm  Tm8  1  0.000000  0.000000  0.000000  1
  Al  Al9  1  0.500000  0.500000  0.000000  1
  Ni  Ni10  1  0.128922  0.626421  0.755344  1
  Ni  Ni11  1  0.871078  0.373579  0.244656  1
  Ni  Ni12  1  0.626421  0.871078  0.497499  1
  Ni  Ni13  1  0.373579  0.128922  0.502501  1
  Bi  Bi14  1  0.231049  0.231049  0.000000  1
  Bi  Bi15  1  0.768951  0.768951  0.000000  1
