# generated using pymatgen
data_Lu6Ti7Al9Rh8
_symmetry_space_group_name_H-M   'P 1'
_cell_length_a   9.02320565
_cell_length_b   9.02320544
_cell_length_c   9.02320680
_cell_angle_alpha   60.03410946
_cell_angle_beta   60.03411223
_cell_angle_gamma   60.03411593
_symmetry_Int_Tables_number   1
_chemical_formula_structural   Lu6Ti7Al9Rh8
_chemical_formula_sum   'Lu6 Ti7 Al9 Rh8'
_cell_volume   519.88023025
_cell_formula_units_Z   1
loop_
 _symmetry_equiv_pos_site_id
 _symmetry_equiv_pos_as_xyz
  1  'x, y, z'
loop_
 _atom_site_type_symbol
 _atom_site_label
 _atom_site_symmetry_multiplicity
 _atom_site_fract_x
 _atom_site_fract_y
 _atom_site_fract_z
 _atom_site_occupancy
  Lu  Lu0  1  0.210673  0.210673  0.791710  1
  Lu  Lu1  1  0.791710  0.210673  0.210673  1
  Lu  Lu2  1  0.210673  0.791710  0.210673  1
  Lu  Lu3  1  0.795478  0.795478  0.194251  1
  Lu  Lu4  1  0.194251  0.795478  0.795478  1
  Lu  Lu5  1  0.795478  0.194251  0.795478  1
  Ti  Ti6  1  0.379689  0.379689  0.379689  1
  Ti  Ti7  1  0.381271  0.860783  0.381271  1
  Ti  Ti8  1  0.860783  0.381271  0.381271  1
  Ti  Ti9  1  0.381271  0.381271  0.860783  1
  Ti  Ti10  1  0.830401  0.505207  0.830401  1
  Ti  Ti11  1  0.505207  0.830401  0.830401  1
  Ti  Ti12  1  0.830401  0.830401  0.505207  1
  Al  Al13  1  0.171926  0.171926  0.171926  1
  Al  Al14  1  0.170668  0.490645  0.170668  1
  Al  Al15  1  0.490645  0.170668  0.170668  1
  Al  Al16  1  0.170668  0.170668  0.490645  1
  Al  Al17  1  0.617939  0.617939  0.617939  1
  Al  Al18  1  0.618256  0.144757  0.618256  1
  Al  Al19  1  0.144757  0.618256  0.618256  1
  Al  Al20  1  0.618256  0.618256  0.144757  1
  Al  Al21  1  0.825196  0.825196  0.825196  1
  Rh  Rh22  1  0.001752  0.001752  0.492923  1
  Rh  Rh23  1  0.492923  0.001752  0.001752  1
  Rh  Rh24  1  0.001752  0.492923  0.001752  1
  Rh  Rh25  1  0.502807  0.502807  0.998546  1
  Rh  Rh26  1  0.998546  0.502807  0.502807  1
  Rh  Rh27  1  0.502807  0.998546  0.502807  1
  Rh  Rh28  1  0.500038  0.500038  0.500038  1
  Rh  Rh29  1  0.003779  0.003779  0.003779  1
