# generated using pymatgen
data_Cs2Pu3MnO12
_symmetry_space_group_name_H-M   'P 1'
_cell_length_a   7.49333316
_cell_length_b   7.49333279
_cell_length_c   7.49333400
_cell_angle_alpha   63.80173233
_cell_angle_beta   63.80173372
_cell_angle_gamma   63.80172160
_symmetry_Int_Tables_number   1
_chemical_formula_structural   Cs2Pu3MnO12
_chemical_formula_sum   'Cs2 Pu3 Mn1 O12'
_cell_volume   322.46686947
_cell_formula_units_Z   1
loop_
 _symmetry_equiv_pos_site_id
 _symmetry_equiv_pos_as_xyz
  1  'x, y, z'
loop_
 _atom_site_type_symbol
 _atom_site_label
 _atom_site_symmetry_multiplicity
 _atom_site_fract_x
 _atom_site_fract_y
 _atom_site_fract_z
 _atom_site_occupancy
  Cs  Cs0  1  0.374466  0.374466  0.374466  1
  Cs  Cs1  1  0.625534  0.625534  0.625534  1
  Pu  Pu2  1  0.500000  0.000000  0.000000  1
  Pu  Pu3  1  0.000000  0.000000  0.500000  1
  Pu  Pu4  1  0.000000  0.500000  0.000000  1
  Mn  Mn5  1  0.000000  0.000000  0.000000  1
  O  O6  1  0.933971  0.317051  0.317051  1
  O  O7  1  0.328142  0.932953  0.932953  1
  O  O8  1  0.317051  0.317051  0.933971  1
  O  O9  1  0.932953  0.932953  0.328142  1
  O  O10  1  0.932953  0.328142  0.932953  1
  O  O11  1  0.317051  0.933971  0.317051  1
  O  O12  1  0.066029  0.682949  0.682949  1
  O  O13  1  0.671858  0.067047  0.067047  1
  O  O14  1  0.682949  0.682949  0.066029  1
  O  O15  1  0.067047  0.067047  0.671858  1
  O  O16  1  0.067047  0.671858  0.067047  1
  O  O17  1  0.682949  0.066029  0.682949  1
