# generated using pymatgen
data_La3Np2O10
_symmetry_space_group_name_H-M   'P 1'
_cell_length_a   6.94326616
_cell_length_b   7.65829680
_cell_length_c   8.71321084
_cell_angle_alpha   102.12175911
_cell_angle_beta   96.78167223
_cell_angle_gamma   106.24380196
_symmetry_Int_Tables_number   1
_chemical_formula_structural   La3Np2O10
_chemical_formula_sum   'La6 Np4 O20'
_cell_volume   427.11328821
_cell_formula_units_Z   2
loop_
 _symmetry_equiv_pos_site_id
 _symmetry_equiv_pos_as_xyz
  1  'x, y, z'
loop_
 _atom_site_type_symbol
 _atom_site_label
 _atom_site_symmetry_multiplicity
 _atom_site_fract_x
 _atom_site_fract_y
 _atom_site_fract_z
 _atom_site_occupancy
  La  La0  1  0.611590  0.702238  0.702974  1
  La  La1  1  0.388410  0.297762  0.297026  1
  La  La2  1  0.198443  0.896427  0.894518  1
  La  La3  1  0.000000  0.500000  0.500000  1
  La  La4  1  0.801557  0.103573  0.105482  1
  La  La5  1  0.000000  0.000000  0.500000  1
  Np  Np6  1  0.395853  0.799783  0.296576  1
  Np  Np7  1  0.200902  0.402757  0.899275  1
  Np  Np8  1  0.799098  0.597243  0.100725  1
  Np  Np9  1  0.604147  0.200217  0.703424  1
  O  O10  1  0.438108  0.538788  0.133525  1
  O  O11  1  0.558746  0.002922  0.841452  1
  O  O12  1  0.270925  0.158438  0.745515  1
  O  O13  1  0.365982  0.609232  0.439069  1
  O  O14  1  0.053627  0.719085  0.317898  1
  O  O15  1  0.441254  0.997078  0.158548  1
  O  O16  1  0.150062  0.195801  0.028326  1
  O  O17  1  0.561892  0.461212  0.866475  1
  O  O18  1  0.853323  0.347117  0.956095  1
  O  O19  1  0.261854  0.598831  0.762109  1
  O  O20  1  0.951681  0.771596  0.655306  1
  O  O21  1  0.351440  0.044259  0.445120  1
  O  O22  1  0.648560  0.955741  0.554880  1
  O  O23  1  0.048319  0.228404  0.344694  1
  O  O24  1  0.738146  0.401169  0.237891  1
  O  O25  1  0.146677  0.652883  0.043905  1
  O  O26  1  0.849938  0.804199  0.971674  1
  O  O27  1  0.946373  0.280915  0.682102  1
  O  O28  1  0.634018  0.390768  0.560931  1
  O  O29  1  0.729075  0.841562  0.254485  1
