# generated using pymatgen
data_Ba4ZnSb4Pt3
_symmetry_space_group_name_H-M   'P 1'
_cell_length_a   9.95539801
_cell_length_b   4.58708700
_cell_length_c   7.98911800
_cell_angle_alpha   90.00000000
_cell_angle_beta   89.99713389
_cell_angle_gamma   90.00000000
_symmetry_Int_Tables_number   1
_chemical_formula_structural   Ba4ZnSb4Pt3
_chemical_formula_sum   'Ba4 Zn1 Sb4 Pt3'
_cell_volume   364.83327354
_cell_formula_units_Z   1
loop_
 _symmetry_equiv_pos_site_id
 _symmetry_equiv_pos_as_xyz
  1  'x, y, z'
loop_
 _atom_site_type_symbol
 _atom_site_label
 _atom_site_symmetry_multiplicity
 _atom_site_fract_x
 _atom_site_fract_y
 _atom_site_fract_z
 _atom_site_occupancy
  Ba  Ba0  1  0.995877  0.750001  0.254877  1
  Ba  Ba1  1  0.505387  0.750001  0.257946  1
  Ba  Ba2  1  0.510461  0.250000  0.741510  1
  Ba  Ba3  1  0.987683  0.250000  0.745655  1
  Zn  Zn4  1  0.252929  0.750001  0.913692  1
  Sb  Sb5  1  0.251406  0.250000  0.085318  1
  Sb  Sb6  1  0.751870  0.250000  0.414044  1
  Sb  Sb7  1  0.248063  0.750001  0.584340  1
  Sb  Sb8  1  0.747141  0.750001  0.917742  1
  Pt  Pt9  1  0.749128  0.250000  0.083399  1
  Pt  Pt10  1  0.249201  0.250000  0.417962  1
  Pt  Pt11  1  0.750853  0.750001  0.583516  1
