# generated using pymatgen
data_Y3Ho2In4CoPd
_symmetry_space_group_name_H-M   'P 1'
_cell_length_a   3.59614300
_cell_length_b   8.10311951
_cell_length_c   18.13381705
_cell_angle_alpha   90.13966143
_cell_angle_beta   90.00000000
_cell_angle_gamma   90.00000000
_symmetry_Int_Tables_number   1
_chemical_formula_structural   Y3Ho2In4CoPd
_chemical_formula_sum   'Y6 Ho4 In8 Co2 Pd2'
_cell_volume   528.41743304
_cell_formula_units_Z   2
loop_
 _symmetry_equiv_pos_site_id
 _symmetry_equiv_pos_as_xyz
  1  'x, y, z'
loop_
 _atom_site_type_symbol
 _atom_site_label
 _atom_site_symmetry_multiplicity
 _atom_site_fract_x
 _atom_site_fract_y
 _atom_site_fract_z
 _atom_site_occupancy
  Y  Y0  1  0.500000  0.114009  0.588844  1
  Y  Y1  1  0.500000  0.885991  0.411156  1
  Y  Y2  1  0.500000  0.380735  0.085021  1
  Y  Y3  1  0.500000  0.619265  0.914979  1
  Y  Y4  1  0.500000  0.000000  0.000000  1
  Y  Y5  1  0.500000  0.500000  0.500000  1
  Ho  Ho6  1  0.500000  0.226437  0.775811  1
  Ho  Ho7  1  0.500000  0.773563  0.224189  1
  Ho  Ho8  1  0.500000  0.240431  0.281309  1
  Ho  Ho9  1  0.500000  0.759569  0.718691  1
  In  In10  1  0.000000  0.073799  0.152422  1
  In  In11  1  0.000000  0.926201  0.847578  1
  In  In12  1  0.000000  0.424775  0.649730  1
  In  In13  1  0.000000  0.575225  0.350270  1
  In  In14  1  0.000000  0.205333  0.431054  1
  In  In15  1  0.000000  0.794667  0.568946  1
  In  In16  1  0.000000  0.291895  0.930891  1
  In  In17  1  0.000000  0.708105  0.069109  1
  Co  Co18  1  0.000000  0.017417  0.695297  1
  Co  Co19  1  0.000000  0.982583  0.304703  1
  Pd  Pd20  1  0.000000  0.480734  0.198003  1
  Pd  Pd21  1  0.000000  0.519266  0.801997  1
