# generated using pymatgen
data_YThTlPd2
_symmetry_space_group_name_H-M   'P 1'
_cell_length_a   7.87463300
_cell_length_b   7.87463304
_cell_length_c   3.78885600
_cell_angle_alpha   90.00000000
_cell_angle_beta   90.00000000
_cell_angle_gamma   92.01371835
_symmetry_Int_Tables_number   1
_chemical_formula_structural   YThTlPd2
_chemical_formula_sum   'Y2 Th2 Tl2 Pd4'
_cell_volume   234.80128111
_cell_formula_units_Z   2
loop_
 _symmetry_equiv_pos_site_id
 _symmetry_equiv_pos_as_xyz
  1  'x, y, z'
loop_
 _atom_site_type_symbol
 _atom_site_label
 _atom_site_symmetry_multiplicity
 _atom_site_fract_x
 _atom_site_fract_y
 _atom_site_fract_z
 _atom_site_occupancy
  Y  Y0  1  0.671995  0.828004  0.499998  1
  Y  Y1  1  0.328005  0.171996  0.499998  1
  Th  Th2  1  0.173836  0.673835  0.499998  1
  Th  Th3  1  0.826164  0.326165  0.499998  1
  Tl  Tl4  1  0.000000  0.000000  0.000000  1
  Tl  Tl5  1  0.499999  0.499999  0.000000  1
  Pd  Pd6  1  0.627261  0.127260  0.000000  1
  Pd  Pd7  1  0.372739  0.872739  0.000000  1
  Pd  Pd8  1  0.125202  0.374797  0.000000  1
  Pd  Pd9  1  0.874797  0.625203  0.000000  1
