# generated using pymatgen
data_LiY16Hg3Pt4
_symmetry_space_group_name_H-M   'P 1'
_cell_length_a   9.72454900
_cell_length_b   9.69093285
_cell_length_c   9.69093300
_cell_angle_alpha   60.00000289
_cell_angle_beta   60.11428830
_cell_angle_gamma   60.11427811
_symmetry_Int_Tables_number   1
_chemical_formula_structural   LiY16Hg3Pt4
_chemical_formula_sum   'Li1 Y16 Hg3 Pt4'
_cell_volume   646.89485349
_cell_formula_units_Z   1
loop_
 _symmetry_equiv_pos_site_id
 _symmetry_equiv_pos_as_xyz
  1  'x, y, z'
loop_
 _atom_site_type_symbol
 _atom_site_label
 _atom_site_symmetry_multiplicity
 _atom_site_fract_x
 _atom_site_fract_y
 _atom_site_fract_z
 _atom_site_occupancy
  Li  Li0  1  0.551276  0.816241  0.816241  1
  Y  Y1  1  0.604660  0.601978  0.601978  1
  Y  Y2  1  0.604660  0.601978  0.191385  1
  Y  Y3  1  0.604660  0.191385  0.601978  1
  Y  Y4  1  0.183031  0.605657  0.605657  1
  Y  Y5  1  0.057968  0.440939  0.440939  1
  Y  Y6  1  0.436835  0.063098  0.063098  1
  Y  Y7  1  0.436835  0.063098  0.436970  1
  Y  Y8  1  0.057968  0.440939  0.060153  1
  Y  Y9  1  0.436835  0.436970  0.063098  1
  Y  Y10  1  0.057968  0.060153  0.440939  1
  Y  Y11  1  0.181197  0.815104  0.815104  1
  Y  Y12  1  0.812885  0.185655  0.185655  1
  Y  Y13  1  0.812885  0.185655  0.815806  1
  Y  Y14  1  0.181197  0.815104  0.188596  1
  Y  Y15  1  0.812885  0.815806  0.185655  1
  Y  Y16  1  0.181197  0.188596  0.815104  1
  Hg  Hg17  1  0.831857  0.838219  0.838219  1
  Hg  Hg18  1  0.831857  0.838219  0.491705  1
  Hg  Hg19  1  0.831857  0.491705  0.838219  1
  Pt  Pt20  1  0.390251  0.395279  0.395279  1
  Pt  Pt21  1  0.390251  0.395279  0.819193  1
  Pt  Pt22  1  0.390251  0.819193  0.395279  1
  Pt  Pt23  1  0.818739  0.393754  0.393754  1
