# generated using pymatgen
data_Ca2U6Nb12Si15Ge
_symmetry_space_group_name_H-M   'P 1'
_cell_length_a   7.05632727
_cell_length_b   7.07216385
_cell_length_c   13.04574428
_cell_angle_alpha   89.94755167
_cell_angle_beta   89.92316092
_cell_angle_gamma   89.70705910
_symmetry_Int_Tables_number   1
_chemical_formula_structural   Ca2U6Nb12Si15Ge
_chemical_formula_sum   'Ca2 U6 Nb12 Si15 Ge1'
_cell_volume   651.01897147
_cell_formula_units_Z   1
loop_
 _symmetry_equiv_pos_site_id
 _symmetry_equiv_pos_as_xyz
  1  'x, y, z'
loop_
 _atom_site_type_symbol
 _atom_site_label
 _atom_site_symmetry_multiplicity
 _atom_site_fract_x
 _atom_site_fract_y
 _atom_site_fract_z
 _atom_site_occupancy
  Ca  Ca0  1  0.996953  0.336534  0.218839  1
  Ca  Ca1  1  0.002594  0.664014  0.718524  1
  U  U2  1  0.168280  0.493047  0.467751  1
  U  U3  1  0.511173  0.829822  0.029142  1
  U  U4  1  0.831387  0.507241  0.967469  1
  U  U5  1  0.491245  0.167556  0.530662  1
  U  U6  1  0.339720  0.001506  0.782433  1
  U  U7  1  0.662342  0.998858  0.283053  1
  Nb  Nb8  1  0.170038  0.169915  0.996297  1
  Nb  Nb9  1  0.828650  0.831479  0.498240  1
  Nb  Nb10  1  0.334294  0.669281  0.251116  1
  Nb  Nb11  1  0.665728  0.327623  0.750249  1
  Nb  Nb12  1  0.156862  0.997934  0.378988  1
  Nb  Nb13  1  0.842115  0.002073  0.876889  1
  Nb  Nb14  1  0.503301  0.654504  0.624054  1
  Nb  Nb15  1  0.348155  0.495817  0.877050  1
  Nb  Nb16  1  0.498584  0.348502  0.123644  1
  Nb  Nb17  1  0.652478  0.504641  0.377538  1
  Nb  Nb18  1  0.999037  0.155746  0.624952  1
  Nb  Nb19  1  0.996580  0.841619  0.123812  1
  Si  Si20  1  0.704461  0.959938  0.683749  1
  Si  Si21  1  0.457251  0.796669  0.435690  1
  Si  Si22  1  0.203435  0.542399  0.064853  1
  Si  Si23  1  0.542761  0.203345  0.935789  1
  Si  Si24  1  0.796633  0.457348  0.564778  1
  Si  Si25  1  0.039973  0.295757  0.814366  1
  Si  Si26  1  0.960297  0.704462  0.314816  1
  Si  Si27  1  0.372675  0.295535  0.317092  1
  Si  Si28  1  0.628694  0.707188  0.815131  1
  Si  Si29  1  0.206034  0.867825  0.566809  1
  Si  Si30  1  0.132042  0.794653  0.933914  1
  Si  Si31  1  0.793940  0.132095  0.066564  1
  Si  Si32  1  0.868239  0.205846  0.434172  1
  Si  Si33  1  0.295081  0.369636  0.684242  1
  Si  Si34  1  0.704566  0.630808  0.184641  1
  Ge  Ge35  1  0.294402  0.038785  0.182693  1
