# generated using pymatgen
data_K5BaVAs4
_symmetry_space_group_name_H-M   'P 1'
_cell_length_a   10.35464428
_cell_length_b   10.35464480
_cell_length_c   8.10905833
_cell_angle_alpha   89.35804983
_cell_angle_beta   89.35804868
_cell_angle_gamma   120.49800161
_symmetry_Int_Tables_number   1
_chemical_formula_structural   K5BaVAs4
_chemical_formula_sum   'K10 Ba2 V2 As8'
_cell_volume   748.96134242
_cell_formula_units_Z   2
loop_
 _symmetry_equiv_pos_site_id
 _symmetry_equiv_pos_as_xyz
  1  'x, y, z'
loop_
 _atom_site_type_symbol
 _atom_site_label
 _atom_site_symmetry_multiplicity
 _atom_site_fract_x
 _atom_site_fract_y
 _atom_site_fract_z
 _atom_site_occupancy
  K  K0  1  0.467971  0.524974  0.501585  1
  K  K1  1  0.057183  0.526311  0.500798  1
  K  K2  1  0.524974  0.467971  0.001585  1
  K  K3  1  0.526311  0.057183  0.000798  1
  K  K4  1  0.865575  0.143128  0.677041  1
  K  K5  1  0.291245  0.152466  0.701225  1
  K  K6  1  0.854616  0.714601  0.664692  1
  K  K7  1  0.143128  0.865575  0.177041  1
  K  K8  1  0.714601  0.854616  0.164692  1
  K  K9  1  0.152466  0.291245  0.201225  1
  Ba  Ba10  1  0.466756  0.937051  0.497101  1
  Ba  Ba11  1  0.937051  0.466756  0.997101  1
  V  V12  1  0.668384  0.333747  0.393299  1
  V  V13  1  0.333747  0.668384  0.893299  1
  As  As14  1  0.676705  0.332714  0.689087  1
  As  As15  1  0.332714  0.676705  0.189087  1
  As  As16  1  0.793273  0.202281  0.293404  1
  As  As17  1  0.409479  0.199347  0.311391  1
  As  As18  1  0.796296  0.585896  0.284665  1
  As  As19  1  0.202281  0.793273  0.793404  1
  As  As20  1  0.585896  0.796296  0.784665  1
  As  As21  1  0.199347  0.409479  0.811391  1
