# generated using pymatgen
data_Sc22Tc5Sn2Os
_symmetry_space_group_name_H-M   'P 1'
_cell_length_a   9.52534410
_cell_length_b   9.75719576
_cell_length_c   9.75719541
_cell_angle_alpha   58.43404996
_cell_angle_beta   60.78297636
_cell_angle_gamma   60.78298043
_symmetry_Int_Tables_number   1
_chemical_formula_structural   Sc22Tc5Sn2Os
_chemical_formula_sum   'Sc22 Tc5 Sn2 Os1'
_cell_volume   640.52537803
_cell_formula_units_Z   1
loop_
 _symmetry_equiv_pos_site_id
 _symmetry_equiv_pos_as_xyz
  1  'x, y, z'
loop_
 _atom_site_type_symbol
 _atom_site_label
 _atom_site_symmetry_multiplicity
 _atom_site_fract_x
 _atom_site_fract_y
 _atom_site_fract_z
 _atom_site_occupancy
  Sc  Sc0  1  0.861545  0.833324  0.833324  1
  Sc  Sc1  1  0.528192  0.166676  0.166676  1
  Sc  Sc2  1  0.166676  0.138455  0.528192  1
  Sc  Sc3  1  0.166676  0.528192  0.138455  1
  Sc  Sc4  1  0.833324  0.861545  0.471808  1
  Sc  Sc5  1  0.833324  0.471808  0.861545  1
  Sc  Sc6  1  0.471808  0.833324  0.833324  1
  Sc  Sc7  1  0.138455  0.166676  0.166676  1
  Sc  Sc8  1  0.194408  0.805592  0.194408  1
  Sc  Sc9  1  0.197453  0.802547  0.802547  1
  Sc  Sc10  1  0.802547  0.197453  0.197453  1
  Sc  Sc11  1  0.805592  0.805592  0.194408  1
  Sc  Sc12  1  0.194408  0.194408  0.805592  1
  Sc  Sc13  1  0.805592  0.194408  0.805592  1
  Sc  Sc14  1  0.395524  0.378918  0.378918  1
  Sc  Sc15  1  0.153361  0.621082  0.621082  1
  Sc  Sc16  1  0.621082  0.153361  0.604476  1
  Sc  Sc17  1  0.621082  0.604476  0.153361  1
  Sc  Sc18  1  0.378918  0.846639  0.395524  1
  Sc  Sc19  1  0.378918  0.395524  0.846639  1
  Sc  Sc20  1  0.846639  0.378918  0.378918  1
  Sc  Sc21  1  0.604476  0.621082  0.621082  1
  Tc  Tc22  1  0.500000  0.500000  0.000000  1
  Tc  Tc23  1  0.000000  0.000000  0.500000  1
  Tc  Tc24  1  0.500000  0.000000  0.500000  1
  Tc  Tc25  1  0.000000  0.500000  0.000000  1
  Tc  Tc26  1  0.000000  0.000000  0.000000  1
  Sn  Sn27  1  0.000000  0.500000  0.500000  1
  Sn  Sn28  1  0.500000  0.000000  0.000000  1
  Os  Os29  1  0.500000  0.500000  0.500000  1
