# generated using pymatgen
data_LiMoPd5Pt
_symmetry_space_group_name_H-M   'P 1'
_cell_length_a   5.55347202
_cell_length_b   5.55319856
_cell_length_c   3.90425200
_cell_angle_alpha   90.00000000
_cell_angle_beta   90.00000000
_cell_angle_gamma   89.18814153
_symmetry_Int_Tables_number   1
_chemical_formula_structural   LiMoPd5Pt
_chemical_formula_sum   'Li1 Mo1 Pd5 Pt1'
_cell_volume   120.39322051
_cell_formula_units_Z   1
loop_
 _symmetry_equiv_pos_site_id
 _symmetry_equiv_pos_as_xyz
  1  'x, y, z'
loop_
 _atom_site_type_symbol
 _atom_site_label
 _atom_site_symmetry_multiplicity
 _atom_site_fract_x
 _atom_site_fract_y
 _atom_site_fract_z
 _atom_site_occupancy
  Li  Li0  1  0.624581  0.374904  0.000000  1
  Mo  Mo1  1  0.121317  0.871327  0.000000  1
  Pd  Pd2  1  0.622485  0.873657  0.000000  1
  Pd  Pd3  1  0.123701  0.372371  0.000000  1
  Pd  Pd4  1  0.369029  0.118982  0.500000  1
  Pd  Pd5  1  0.875530  0.127342  0.500000  1
  Pd  Pd6  1  0.377375  0.625510  0.500000  1
  Pt  Pt7  1  0.885986  0.635903  0.500000  1
