# generated using pymatgen
data_CaEu2DyAl6O14
_symmetry_space_group_name_H-M   'P 1'
_cell_length_a   7.83059103
_cell_length_b   7.83059200
_cell_length_c   5.15868389
_cell_angle_alpha   90.04725739
_cell_angle_beta   89.95274379
_cell_angle_gamma   89.21315029
_symmetry_Int_Tables_number   1
_chemical_formula_structural   CaEu2DyAl6O14
_chemical_formula_sum   'Ca1 Eu2 Dy1 Al6 O14'
_cell_volume   316.29097555
_cell_formula_units_Z   1
loop_
 _symmetry_equiv_pos_site_id
 _symmetry_equiv_pos_as_xyz
  1  'x, y, z'
loop_
 _atom_site_type_symbol
 _atom_site_label
 _atom_site_symmetry_multiplicity
 _atom_site_fract_x
 _atom_site_fract_y
 _atom_site_fract_z
 _atom_site_occupancy
  Ca  Ca0  1  0.663917  0.336083  0.518682  1
  Eu  Eu1  1  0.158971  0.164810  0.487612  1
  Eu  Eu2  1  0.835190  0.841029  0.487612  1
  Dy  Dy3  1  0.343588  0.656412  0.521890  1
  Al  Al4  1  0.498888  0.998445  0.994832  1
  Al  Al5  1  0.001555  0.501112  0.994832  1
  Al  Al6  1  0.149252  0.850748  0.961108  1
  Al  Al7  1  0.355585  0.362001  0.041629  1
  Al  Al8  1  0.856212  0.143788  0.960458  1
  Al  Al9  1  0.637999  0.644415  0.041629  1
  O  O10  1  0.342785  0.899788  0.795636  1
  O  O11  1  0.161163  0.417006  0.202420  1
  O  O12  1  0.662241  0.088498  0.804127  1
  O  O13  1  0.839883  0.600834  0.180404  1
  O  O14  1  0.582994  0.838837  0.202420  1
  O  O15  1  0.911502  0.337759  0.804127  1
  O  O16  1  0.399166  0.160117  0.180404  1
  O  O17  1  0.100212  0.657215  0.795636  1
  O  O18  1  0.155349  0.844651  0.299798  1
  O  O19  1  0.355766  0.375804  0.702354  1
  O  O20  1  0.862616  0.137384  0.299581  1
  O  O21  1  0.624196  0.644234  0.702354  1
  O  O22  1  0.497819  0.502181  0.197728  1
  O  O23  1  0.003148  0.996852  0.822751  1
