# generated using pymatgen
data_Cs2KHoSb2
_symmetry_space_group_name_H-M   'P 1'
_cell_length_a   10.45104006
_cell_length_b   10.45042227
_cell_length_c   10.45104028
_cell_angle_alpha   133.00368379
_cell_angle_beta   65.99116099
_cell_angle_gamma   136.46179462
_symmetry_Int_Tables_number   1
_chemical_formula_structural   Cs2KHoSb2
_chemical_formula_sum   'Cs4 K2 Ho2 Sb4'
_cell_volume   566.25477622
_cell_formula_units_Z   2
loop_
 _symmetry_equiv_pos_site_id
 _symmetry_equiv_pos_as_xyz
  1  'x, y, z'
loop_
 _atom_site_type_symbol
 _atom_site_label
 _atom_site_symmetry_multiplicity
 _atom_site_fract_x
 _atom_site_fract_y
 _atom_site_fract_z
 _atom_site_occupancy
  Cs  Cs0  1  0.317698  0.760625  0.078348  1
  Cs  Cs1  1  0.182276  0.260624  0.442925  1
  Cs  Cs2  1  0.817724  0.739376  0.557074  1
  Cs  Cs3  1  0.682302  0.239376  0.921652  1
  K  K4  1  0.249988  0.250000  0.999988  1
  K  K5  1  0.750012  0.750000  0.000012  1
  Ho  Ho6  1  0.750046  0.250000  0.500047  1
  Ho  Ho7  1  0.249953  0.750000  0.499953  1
  Sb  Sb8  1  0.905179  0.298975  0.204089  1
  Sb  Sb9  1  0.594886  0.798975  0.393796  1
  Sb  Sb10  1  0.405115  0.201025  0.606205  1
  Sb  Sb11  1  0.094822  0.701025  0.795911  1
