# generated using pymatgen
data_Er9TmCoBi5
_symmetry_space_group_name_H-M   'P 1'
_cell_length_a   7.99183302
_cell_length_b   9.33494602
_cell_length_c   12.00367500
_cell_angle_alpha   90.00000000
_cell_angle_beta   90.00000000
_cell_angle_gamma   90.00736154
_symmetry_Int_Tables_number   1
_chemical_formula_structural   Er9TmCoBi5
_chemical_formula_sum   'Er18 Tm2 Co2 Bi10'
_cell_volume   895.51411749
_cell_formula_units_Z   2
loop_
 _symmetry_equiv_pos_site_id
 _symmetry_equiv_pos_as_xyz
  1  'x, y, z'
loop_
 _atom_site_type_symbol
 _atom_site_label
 _atom_site_symmetry_multiplicity
 _atom_site_fract_x
 _atom_site_fract_y
 _atom_site_fract_z
 _atom_site_occupancy
  Er  Er0  1  0.070337  0.728828  0.436474  1
  Er  Er1  1  0.929663  0.271172  0.936474  1
  Er  Er2  1  0.070357  0.271105  0.436525  1
  Er  Er3  1  0.929643  0.728895  0.936525  1
  Er  Er4  1  0.428693  0.823270  0.563078  1
  Er  Er5  1  0.571307  0.176730  0.063078  1
  Er  Er6  1  0.572836  0.499890  0.772444  1
  Er  Er7  1  0.427164  0.500110  0.272444  1
  Er  Er8  1  0.907997  0.999870  0.201197  1
  Er  Er9  1  0.092003  0.000130  0.701197  1
  Er  Er10  1  0.260351  0.500065  0.993766  1
  Er  Er11  1  0.739649  0.499935  0.493766  1
  Er  Er12  1  0.199008  0.999924  0.996732  1
  Er  Er13  1  0.800992  0.000076  0.496732  1
  Er  Er14  1  0.090198  0.500049  0.718221  1
  Er  Er15  1  0.909802  0.499951  0.218221  1
  Er  Er16  1  0.371905  0.000035  0.308603  1
  Er  Er17  1  0.628095  0.999965  0.808603  1
  Tm  Tm18  1  0.428190  0.176142  0.563035  1
  Tm  Tm19  1  0.571810  0.823858  0.063035  1
  Co  Co20  1  0.172107  0.000273  0.488266  1
  Co  Co21  1  0.827893  0.999727  0.988266  1
  Bi  Bi22  1  0.813727  0.741241  0.672150  1
  Bi  Bi23  1  0.186273  0.258759  0.172150  1
  Bi  Bi24  1  0.679808  0.241965  0.325290  1
  Bi  Bi25  1  0.320192  0.758035  0.825290  1
  Bi  Bi26  1  0.679726  0.758093  0.325159  1
  Bi  Bi27  1  0.320274  0.241907  0.825159  1
  Bi  Bi28  1  0.813541  0.258730  0.672089  1
  Bi  Bi29  1  0.186459  0.741270  0.172089  1
  Bi  Bi30  1  0.345933  0.499533  0.526971  1
  Bi  Bi31  1  0.654067  0.500467  0.026971  1
