# generated using pymatgen
data_Nd3Y(B4W)4
_symmetry_space_group_name_H-M   'P 1'
_cell_length_a   6.11094434
_cell_length_b   11.82381944
_cell_length_c   3.68767600
_cell_angle_alpha   90.00000000
_cell_angle_beta   90.00000000
_cell_angle_gamma   89.88030525
_symmetry_Int_Tables_number   1
_chemical_formula_structural   Nd3Y(B4W)4
_chemical_formula_sum   'Nd3 Y1 B16 W4'
_cell_volume   266.45135077
_cell_formula_units_Z   1
loop_
 _symmetry_equiv_pos_site_id
 _symmetry_equiv_pos_as_xyz
  1  'x, y, z'
loop_
 _atom_site_type_symbol
 _atom_site_label
 _atom_site_symmetry_multiplicity
 _atom_site_fract_x
 _atom_site_fract_y
 _atom_site_fract_z
 _atom_site_occupancy
  Nd  Nd0  1  0.625505  0.349705  0.000000  1
  Nd  Nd1  1  0.374510  0.651025  0.000000  1
  Nd  Nd2  1  0.125425  0.149769  0.000000  1
  Y  Y3  1  0.874248  0.850466  0.000000  1
  B  B4  1  0.782495  0.183869  0.500000  1
  B  B5  1  0.213705  0.815353  0.500000  1
  B  B6  1  0.282474  0.315009  0.500000  1
  B  B7  1  0.717749  0.687203  0.500000  1
  B  B8  1  0.864316  0.029917  0.500000  1
  B  B9  1  0.135376  0.966351  0.500000  1
  B  B10  1  0.363267  0.468407  0.500000  1
  B  B11  1  0.637131  0.533181  0.500000  1
  B  B12  1  0.887747  0.454639  0.500000  1
  B  B13  1  0.111333  0.547341  0.500000  1
  B  B14  1  0.388706  0.044715  0.500000  1
  B  B15  1  0.614707  0.951798  0.500000  1
  B  B16  1  0.975873  0.309190  0.500000  1
  B  B17  1  0.022441  0.693621  0.500000  1
  B  B18  1  0.476007  0.190015  0.500000  1
  B  B19  1  0.526374  0.808642  0.500000  1
  W  W20  1  0.629843  0.082100  0.000000  1
  W  W21  1  0.371186  0.915498  0.000000  1
  W  W22  1  0.128759  0.417087  0.000000  1
  W  W23  1  0.870824  0.585098  0.000000  1
