# generated using pymatgen
data_Ba2NbReF14
_symmetry_space_group_name_H-M   'P 1'
_cell_length_a   7.60725600
_cell_length_b   5.14676179
_cell_length_c   7.10474401
_cell_angle_alpha   85.47325580
_cell_angle_beta   90.00000000
_cell_angle_gamma   90.00000000
_symmetry_Int_Tables_number   1
_chemical_formula_structural   Ba2NbReF14
_chemical_formula_sum   'Ba2 Nb1 Re1 F14'
_cell_volume   277.30243257
_cell_formula_units_Z   1
loop_
 _symmetry_equiv_pos_site_id
 _symmetry_equiv_pos_as_xyz
  1  'x, y, z'
loop_
 _atom_site_type_symbol
 _atom_site_label
 _atom_site_symmetry_multiplicity
 _atom_site_fract_x
 _atom_site_fract_y
 _atom_site_fract_z
 _atom_site_occupancy
  Ba  Ba0  1  0.250000  0.038582  0.690733  1
  Ba  Ba1  1  0.750000  0.974973  0.302420  1
  Nb  Nb2  1  0.250000  0.462663  0.220472  1
  Re  Re3  1  0.750000  0.542993  0.772926  1
  F  F4  1  0.250000  0.642968  0.962586  1
  F  F5  1  0.537571  0.327002  0.786137  1
  F  F6  1  0.750000  0.365283  0.030197  1
  F  F7  1  0.034104  0.666868  0.218862  1
  F  F8  1  0.250000  0.177113  0.053897  1
  F  F9  1  0.079668  0.198752  0.353760  1
  F  F10  1  0.420332  0.198752  0.353760  1
  F  F11  1  0.579999  0.796806  0.649012  1
  F  F12  1  0.962429  0.327002  0.786137  1
  F  F13  1  0.750000  0.818561  0.948925  1
  F  F14  1  0.465896  0.666868  0.218862  1
  F  F15  1  0.750000  0.422582  0.515551  1
  F  F16  1  0.920001  0.796806  0.649012  1
  F  F17  1  0.250000  0.575422  0.486748  1
