# generated using pymatgen
data_Hf8ZrNb(Sn3P)2
_symmetry_space_group_name_H-M   'P 1'
_cell_length_a   8.52474587
_cell_length_b   8.53760536
_cell_length_c   5.85620101
_cell_angle_alpha   89.99464603
_cell_angle_beta   90.00237545
_cell_angle_gamma   120.04408965
_symmetry_Int_Tables_number   1
_chemical_formula_structural   Hf8ZrNb(Sn3P)2
_chemical_formula_sum   'Hf8 Zr1 Nb1 Sn6 P2'
_cell_volume   368.95296391
_cell_formula_units_Z   1
loop_
 _symmetry_equiv_pos_site_id
 _symmetry_equiv_pos_as_xyz
  1  'x, y, z'
loop_
 _atom_site_type_symbol
 _atom_site_label
 _atom_site_symmetry_multiplicity
 _atom_site_fract_x
 _atom_site_fract_y
 _atom_site_fract_z
 _atom_site_occupancy
  Hf  Hf0  1  0.333666  0.666464  0.999913  1
  Hf  Hf1  1  0.333738  0.666485  0.500084  1
  Hf  Hf2  1  0.666412  0.332926  0.500117  1
  Hf  Hf3  1  0.747721  0.748064  0.749790  1
  Hf  Hf4  1  0.252386  0.000753  0.749690  1
  Hf  Hf5  1  0.999852  0.252672  0.749707  1
  Hf  Hf6  1  0.251952  0.251590  0.250294  1
  Hf  Hf7  1  0.748266  0.000027  0.250311  1
  Zr  Zr8  1  0.999739  0.746894  0.250313  1
  Nb  Nb9  1  0.666299  0.332749  0.999914  1
  Sn  Sn10  1  0.400714  0.398733  0.752426  1
  Sn  Sn11  1  0.601174  0.001934  0.752451  1
  Sn  Sn12  1  0.998074  0.599184  0.752377  1
  Sn  Sn13  1  0.600683  0.598952  0.247536  1
  Sn  Sn14  1  0.401279  0.002221  0.247515  1
  Sn  Sn15  1  0.998088  0.397846  0.247553  1
  P  P16  1  0.000026  0.001329  0.998634  1
  P  P17  1  0.999933  0.001179  0.501375  1
