# generated using pymatgen
data_Pr3(ZnSb3)2
_symmetry_space_group_name_H-M   'P 1'
_cell_length_a   4.29996600
_cell_length_b   10.59715800
_cell_length_c   13.40516900
_cell_angle_alpha   90.00000000
_cell_angle_beta   90.00000000
_cell_angle_gamma   90.00000000
_symmetry_Int_Tables_number   1
_chemical_formula_structural   Pr3(ZnSb3)2
_chemical_formula_sum   'Pr6 Zn4 Sb12'
_cell_volume   610.83895388
_cell_formula_units_Z   2
loop_
 _symmetry_equiv_pos_site_id
 _symmetry_equiv_pos_as_xyz
  1  'x, y, z'
loop_
 _atom_site_type_symbol
 _atom_site_label
 _atom_site_symmetry_multiplicity
 _atom_site_fract_x
 _atom_site_fract_y
 _atom_site_fract_z
 _atom_site_occupancy
  Pr  Pr0  1  0.750000  0.254566  0.750000  1
  Pr  Pr1  1  0.750000  0.262733  0.412313  1
  Pr  Pr2  1  0.250000  0.737267  0.912313  1
  Pr  Pr3  1  0.250000  0.737267  0.587687  1
  Pr  Pr4  1  0.250000  0.745434  0.250000  1
  Pr  Pr5  1  0.750000  0.262733  0.087687  1
  Zn  Zn6  1  0.250000  0.002942  0.093915  1
  Zn  Zn7  1  0.250000  0.002942  0.406085  1
  Zn  Zn8  1  0.750000  0.997058  0.593915  1
  Zn  Zn9  1  0.750000  0.997058  0.906085  1
  Sb  Sb10  1  0.750000  0.501255  0.250000  1
  Sb  Sb11  1  0.750000  0.492981  0.916925  1
  Sb  Sb12  1  0.750000  0.837013  0.750000  1
  Sb  Sb13  1  0.750000  0.843673  0.419083  1
  Sb  Sb14  1  0.250000  0.156327  0.919083  1
  Sb  Sb15  1  0.250000  0.156327  0.580917  1
  Sb  Sb16  1  0.250000  0.162987  0.250000  1
  Sb  Sb17  1  0.250000  0.507019  0.083075  1
  Sb  Sb18  1  0.250000  0.498745  0.750000  1
  Sb  Sb19  1  0.250000  0.507019  0.416925  1
  Sb  Sb20  1  0.750000  0.492981  0.583075  1
  Sb  Sb21  1  0.750000  0.843673  0.080917  1
