# generated using pymatgen
data_Ce2TmSn3IrRh2
_symmetry_space_group_name_H-M   'P 1'
_cell_length_a   7.47795423
_cell_length_b   7.50755990
_cell_length_c   4.00544000
_cell_angle_alpha   90.00000000
_cell_angle_beta   90.00000000
_cell_angle_gamma   119.93530036
_symmetry_Int_Tables_number   1
_chemical_formula_structural   Ce2TmSn3IrRh2
_chemical_formula_sum   'Ce2 Tm1 Sn3 Ir1 Rh2'
_cell_volume   194.87011551
_cell_formula_units_Z   1
loop_
 _symmetry_equiv_pos_site_id
 _symmetry_equiv_pos_as_xyz
  1  'x, y, z'
loop_
 _atom_site_type_symbol
 _atom_site_label
 _atom_site_symmetry_multiplicity
 _atom_site_fract_x
 _atom_site_fract_y
 _atom_site_fract_z
 _atom_site_occupancy
  Ce  Ce0  1  0.997703  0.412244  0.500000  1
  Ce  Ce1  1  0.586694  0.585261  0.500000  1
  Tm  Tm2  1  0.408925  0.002997  0.500000  1
  Sn  Sn3  1  0.008550  0.751523  0.000000  1
  Sn  Sn4  1  0.255302  0.249648  0.000000  1
  Sn  Sn5  1  0.737705  0.998661  0.000000  1
  Ir  Ir6  1  0.673611  0.341051  0.000000  1
  Rh  Rh7  1  0.332193  0.658798  0.000000  1
  Rh  Rh8  1  0.999316  0.999817  0.500000  1
