# generated using pymatgen
data_SrBe3Cd2(SiO4)3
_symmetry_space_group_name_H-M   'P 1'
_cell_length_a   7.93363000
_cell_length_b   8.32555615
_cell_length_c   16.69505534
_cell_angle_alpha   60.11184510
_cell_angle_beta   90.00000000
_cell_angle_gamma   90.00000000
_symmetry_Int_Tables_number   1
_chemical_formula_structural   SrBe3Cd2(SiO4)3
_chemical_formula_sum   'Sr4 Be12 Cd8 Si12 O48'
_cell_volume   956.07519265
_cell_formula_units_Z   4
loop_
 _symmetry_equiv_pos_site_id
 _symmetry_equiv_pos_as_xyz
  1  'x, y, z'
loop_
 _atom_site_type_symbol
 _atom_site_label
 _atom_site_symmetry_multiplicity
 _atom_site_fract_x
 _atom_site_fract_y
 _atom_site_fract_z
 _atom_site_occupancy
  Sr  Sr0  1  0.995168  0.499121  0.750737  1
  Sr  Sr1  1  0.495168  0.500879  0.749263  1
  Sr  Sr2  1  0.004832  0.500879  0.249263  1
  Sr  Sr3  1  0.504832  0.499121  0.250738  1
  Be  Be4  1  0.664528  0.156995  0.262897  1
  Be  Be5  1  0.835195  0.527211  0.908576  1
  Be  Be6  1  0.335195  0.472789  0.591424  1
  Be  Be7  1  0.164805  0.472789  0.091424  1
  Be  Be8  1  0.664805  0.527211  0.408577  1
  Be  Be9  1  0.336426  0.180895  0.920615  1
  Be  Be10  1  0.836426  0.819105  0.579385  1
  Be  Be11  1  0.663574  0.819105  0.079385  1
  Be  Be12  1  0.163574  0.180895  0.420615  1
  Be  Be13  1  0.835472  0.156995  0.762897  1
  Be  Be14  1  0.335472  0.843005  0.737103  1
  Be  Be15  1  0.164528  0.843005  0.237103  1
  Cd  Cd16  1  0.033350  0.170431  0.591107  1
  Cd  Cd17  1  0.466650  0.170431  0.091108  1
  Cd  Cd18  1  0.966650  0.829569  0.408893  1
  Cd  Cd19  1  0.533350  0.829569  0.908893  1
  Cd  Cd20  1  0.968057  0.836302  0.929326  1
  Cd  Cd21  1  0.468057  0.163698  0.570674  1
  Cd  Cd22  1  0.031943  0.163698  0.070674  1
  Cd  Cd23  1  0.531943  0.836302  0.429326  1
  Si  Si24  1  0.275433  0.154609  0.264479  1
  Si  Si25  1  0.775433  0.845391  0.235521  1
  Si  Si26  1  0.724567  0.845391  0.735521  1
  Si  Si27  1  0.224567  0.154609  0.764479  1
  Si  Si28  1  0.779515  0.183779  0.422559  1
  Si  Si29  1  0.279515  0.816221  0.077441  1
  Si  Si30  1  0.220485  0.816221  0.577441  1
  Si  Si31  1  0.720485  0.183779  0.922559  1
  Si  Si32  1  0.276585  0.528138  0.408511  1
  Si  Si33  1  0.776585  0.471862  0.091489  1
  Si  Si34  1  0.723415  0.471862  0.591489  1
  Si  Si35  1  0.223415  0.528138  0.908511  1
  O  O36  1  0.353288  0.699235  0.549554  1
  O  O37  1  0.468837  0.117282  0.307137  1
  O  O38  1  0.968837  0.882718  0.192863  1
  O  O39  1  0.531163  0.882718  0.692863  1
  O  O40  1  0.031163  0.117282  0.807137  1
  O  O41  1  0.971780  0.226027  0.444255  1
  O  O42  1  0.471780  0.773973  0.055745  1
  O  O43  1  0.028220  0.773973  0.555745  1
  O  O44  1  0.528220  0.226027  0.944255  1
  O  O45  1  0.469696  0.612910  0.387949  1
  O  O46  1  0.969696  0.387090  0.112051  1
  O  O47  1  0.530304  0.387090  0.612051  1
  O  O48  1  0.355352  0.701780  0.849704  1
  O  O49  1  0.855352  0.298220  0.650296  1
  O  O50  1  0.644648  0.298220  0.150296  1
  O  O51  1  0.144648  0.701780  0.349704  1
  O  O52  1  0.853288  0.300765  0.950446  1
  O  O53  1  0.030304  0.612910  0.887949  1
  O  O54  1  0.146712  0.699235  0.049554  1
  O  O55  1  0.646712  0.300765  0.450446  1
  O  O56  1  0.741439  0.584150  0.978844  1
  O  O57  1  0.857790  0.905264  0.649466  1
  O  O58  1  0.642210  0.905264  0.149466  1
  O  O59  1  0.142210  0.094736  0.350534  1
  O  O60  1  0.759472  0.622015  0.308873  1
  O  O61  1  0.259472  0.377985  0.191127  1
  O  O62  1  0.240528  0.377985  0.691127  1
  O  O63  1  0.740528  0.622015  0.808873  1
  O  O64  1  0.761304  0.258793  0.311528  1
  O  O65  1  0.261304  0.741207  0.188472  1
  O  O66  1  0.238696  0.741207  0.688472  1
  O  O67  1  0.738696  0.258793  0.811528  1
  O  O68  1  0.259637  0.381601  0.369903  1
  O  O69  1  0.759637  0.618399  0.130097  1
  O  O70  1  0.740363  0.618399  0.630097  1
  O  O71  1  0.240363  0.381601  0.869903  1
  O  O72  1  0.748577  0.956371  0.293299  1
  O  O73  1  0.248577  0.043629  0.206701  1
  O  O74  1  0.251423  0.043629  0.706701  1
  O  O75  1  0.751423  0.956371  0.793299  1
  O  O76  1  0.741122  0.958847  0.481272  1
  O  O77  1  0.241122  0.041153  0.018728  1
  O  O78  1  0.258878  0.041153  0.518728  1
  O  O79  1  0.758878  0.958847  0.981272  1
  O  O80  1  0.758561  0.584150  0.478844  1
  O  O81  1  0.258561  0.415850  0.021156  1
  O  O82  1  0.241439  0.415850  0.521156  1
  O  O83  1  0.357790  0.094736  0.850534  1
