# generated using pymatgen
data_Pr8Sc11Si16Hg
_symmetry_space_group_name_H-M   'P 1'
_cell_length_a   7.22807781
_cell_length_b   7.57130749
_cell_length_c   14.29288800
_cell_angle_alpha   90.00000000
_cell_angle_beta   90.00000000
_cell_angle_gamma   90.26069976
_symmetry_Int_Tables_number   1
_chemical_formula_structural   Pr8Sc11Si16Hg
_chemical_formula_sum   'Pr8 Sc11 Si16 Hg1'
_cell_volume   782.18448637
_cell_formula_units_Z   1
loop_
 _symmetry_equiv_pos_site_id
 _symmetry_equiv_pos_as_xyz
  1  'x, y, z'
loop_
 _atom_site_type_symbol
 _atom_site_label
 _atom_site_symmetry_multiplicity
 _atom_site_fract_x
 _atom_site_fract_y
 _atom_site_fract_z
 _atom_site_occupancy
  Pr  Pr0  1  0.012434  0.172977  0.401855  1
  Pr  Pr1  1  0.510491  0.330309  0.401747  1
  Pr  Pr2  1  0.491341  0.679518  0.899506  1
  Pr  Pr3  1  0.491341  0.679518  0.600494  1
  Pr  Pr4  1  0.980941  0.828722  0.600910  1
  Pr  Pr5  1  0.980941  0.828722  0.899090  1
  Pr  Pr6  1  0.510491  0.330309  0.098253  1
  Pr  Pr7  1  0.012434  0.172977  0.098145  1
  Sc  Sc8  1  0.336832  0.174689  0.624996  1
  Sc  Sc9  1  0.670841  0.821399  0.373817  1
  Sc  Sc10  1  0.171221  0.676283  0.375509  1
  Sc  Sc11  1  0.827094  0.315953  0.875176  1
  Sc  Sc12  1  0.827094  0.315953  0.624824  1
  Sc  Sc13  1  0.840049  0.501811  0.250000  1
  Sc  Sc14  1  0.339576  0.997640  0.250000  1
  Sc  Sc15  1  0.336832  0.174689  0.875004  1
  Sc  Sc16  1  0.171221  0.676283  0.124491  1
  Sc  Sc17  1  0.670841  0.821399  0.126183  1
  Sc  Sc18  1  0.158158  0.496362  0.750000  1
  Si  Si19  1  0.272042  0.881256  0.750000  1
  Si  Si20  1  0.465805  0.624172  0.250000  1
  Si  Si21  1  0.049611  0.129304  0.750000  1
  Si  Si22  1  0.530958  0.390752  0.750000  1
  Si  Si23  1  0.152606  0.465748  0.541393  1
  Si  Si24  1  0.966346  0.873817  0.250000  1
  Si  Si25  1  0.710453  0.116688  0.250000  1
  Si  Si26  1  0.849414  0.536062  0.038644  1
  Si  Si27  1  0.348128  0.962821  0.039019  1
  Si  Si28  1  0.152606  0.465748  0.958607  1
  Si  Si29  1  0.653245  0.041547  0.529541  1
  Si  Si30  1  0.348128  0.962821  0.460981  1
  Si  Si31  1  0.849414  0.536062  0.461356  1
  Si  Si32  1  0.793884  0.592792  0.750000  1
  Si  Si33  1  0.209999  0.384484  0.250000  1
  Si  Si34  1  0.653245  0.041547  0.970459  1
  Hg  Hg35  1  0.653942  0.998866  0.750000  1
