# generated using pymatgen
data_Gd6Ti6Al10Ir7
_symmetry_space_group_name_H-M   'P 1'
_cell_length_a   9.08188090
_cell_length_b   9.05080265
_cell_length_c   9.05080100
_cell_angle_alpha   59.82895916
_cell_angle_beta   59.88633932
_cell_angle_gamma   59.88633634
_symmetry_Int_Tables_number   1
_chemical_formula_structural   Gd6Ti6Al10Ir7
_chemical_formula_sum   'Gd6 Ti6 Al10 Ir7'
_cell_volume   524.47411002
_cell_formula_units_Z   1
loop_
 _symmetry_equiv_pos_site_id
 _symmetry_equiv_pos_as_xyz
  1  'x, y, z'
loop_
 _atom_site_type_symbol
 _atom_site_label
 _atom_site_symmetry_multiplicity
 _atom_site_fract_x
 _atom_site_fract_y
 _atom_site_fract_z
 _atom_site_occupancy
  Gd  Gd0  1  0.697044  0.704061  0.301602  1
  Gd  Gd1  1  0.296572  0.705165  0.300787  1
  Gd  Gd2  1  0.704764  0.295647  0.295461  1
  Gd  Gd3  1  0.298508  0.303055  0.702619  1
  Gd  Gd4  1  0.697584  0.300998  0.704723  1
  Gd  Gd5  1  0.303182  0.697296  0.696844  1
  Ti  Ti6  1  0.879823  0.882576  0.357414  1
  Ti  Ti7  1  0.880677  0.356988  0.882611  1
  Ti  Ti8  1  0.361533  0.881295  0.880223  1
  Ti  Ti9  1  0.876910  0.880346  0.880771  1
  Ti  Ti10  1  0.122467  0.122304  0.633385  1
  Ti  Ti11  1  0.122336  0.632931  0.122340  1
  Al  Al12  1  0.646320  0.117690  0.118302  1
  Al  Al13  1  0.117910  0.118601  0.116756  1
  Al  Al14  1  0.669487  0.669997  0.990198  1
  Al  Al15  1  0.669664  0.990112  0.670212  1
  Al  Al16  1  0.986102  0.671328  0.671316  1
  Al  Al17  1  0.671072  0.670666  0.671666  1
  Al  Al18  1  0.329064  0.327783  0.014109  1
  Al  Al19  1  0.328655  0.013867  0.328076  1
  Al  Al20  1  0.015127  0.327062  0.327908  1
  Al  Al21  1  0.330067  0.327223  0.327499  1
  Ir  Ir22  1  0.007374  0.992140  0.992725  1
  Ir  Ir23  1  0.997571  0.000961  0.502886  1
  Ir  Ir24  1  0.498523  0.000843  0.502718  1
  Ir  Ir25  1  0.998118  0.501782  0.502342  1
  Ir  Ir26  1  0.497992  0.502861  0.001286  1
  Ir  Ir27  1  0.997591  0.502844  0.001356  1
  Ir  Ir28  1  0.497958  0.001578  0.001865  1
