# generated using pymatgen
data_Dy4ErTm3(B6Rh)4
_symmetry_space_group_name_H-M   'P 1'
_cell_length_a   3.64182900
_cell_length_b   9.13710403
_cell_length_c   11.48081804
_cell_angle_alpha   89.99024064
_cell_angle_beta   90.00000000
_cell_angle_gamma   90.00000000
_symmetry_Int_Tables_number   1
_chemical_formula_structural   Dy4ErTm3(B6Rh)4
_chemical_formula_sum   'Dy4 Er1 Tm3 B24 Rh4'
_cell_volume   382.03306012
_cell_formula_units_Z   1
loop_
 _symmetry_equiv_pos_site_id
 _symmetry_equiv_pos_as_xyz
  1  'x, y, z'
loop_
 _atom_site_type_symbol
 _atom_site_label
 _atom_site_symmetry_multiplicity
 _atom_site_fract_x
 _atom_site_fract_y
 _atom_site_fract_z
 _atom_site_occupancy
  Dy  Dy0  1  0.500000  0.321905  0.413832  1
  Dy  Dy1  1  0.500000  0.678155  0.586270  1
  Dy  Dy2  1  0.500000  0.177823  0.913741  1
  Dy  Dy3  1  0.500000  0.822280  0.086128  1
  Er  Er4  1  0.500000  0.444160  0.126702  1
  Tm  Tm5  1  0.500000  0.556017  0.872983  1
  Tm  Tm6  1  0.500000  0.055915  0.626774  1
  Tm  Tm7  1  0.500000  0.944100  0.373306  1
  B  B8  1  0.000000  0.107069  0.471131  1
  B  B9  1  0.000000  0.892950  0.528957  1
  B  B10  1  0.000000  0.392254  0.970613  1
  B  B11  1  0.000000  0.607989  0.028803  1
  B  B12  1  0.000000  0.132113  0.316741  1
  B  B13  1  0.000000  0.867855  0.683391  1
  B  B14  1  0.000000  0.367744  0.816437  1
  B  B15  1  0.000000  0.632640  0.183533  1
  B  B16  1  0.000000  0.054061  0.065734  1
  B  B17  1  0.000000  0.945796  0.934164  1
  B  B18  1  0.000000  0.445719  0.565746  1
  B  B19  1  0.000000  0.554382  0.434400  1
  B  B20  1  0.000000  0.482920  0.286657  1
  B  B21  1  0.000000  0.517279  0.713568  1
  B  B22  1  0.000000  0.017407  0.786343  1
  B  B23  1  0.000000  0.982619  0.213704  1
  B  B24  1  0.000000  0.249788  0.079875  1
  B  B25  1  0.000000  0.749822  0.919934  1
  B  B26  1  0.000000  0.249582  0.579849  1
  B  B27  1  0.000000  0.750440  0.420217  1
  B  B28  1  0.000000  0.293807  0.236025  1
  B  B29  1  0.000000  0.705906  0.764077  1
  B  B30  1  0.000000  0.205813  0.735706  1
  B  B31  1  0.000000  0.794282  0.264277  1
  Rh  Rh32  1  0.500000  0.139113  0.179797  1
  Rh  Rh33  1  0.500000  0.860102  0.820206  1
  Rh  Rh34  1  0.500000  0.360140  0.679522  1
  Rh  Rh35  1  0.500000  0.640055  0.320857  1
