# generated using pymatgen
data_Ca2Ni3Rh
_symmetry_space_group_name_H-M   'P 1'
_cell_length_a   5.09449964
_cell_length_b   5.09450000
_cell_length_c   5.20094517
_cell_angle_alpha   60.67474931
_cell_angle_beta   60.67474746
_cell_angle_gamma   60.00000454
_symmetry_Int_Tables_number   1
_chemical_formula_structural   Ca2Ni3Rh
_chemical_formula_sum   'Ca2 Ni3 Rh1'
_cell_volume   96.41069220
_cell_formula_units_Z   1
loop_
 _symmetry_equiv_pos_site_id
 _symmetry_equiv_pos_as_xyz
  1  'x, y, z'
loop_
 _atom_site_type_symbol
 _atom_site_label
 _atom_site_symmetry_multiplicity
 _atom_site_fract_x
 _atom_site_fract_y
 _atom_site_fract_z
 _atom_site_occupancy
  Ca  Ca0  1  0.500147  0.500147  0.499559  1
  Ca  Ca1  1  0.749853  0.749853  0.750441  1
  Ni  Ni2  1  0.125000  0.625000  0.125000  1
  Ni  Ni3  1  0.125000  0.125000  0.125000  1
  Ni  Ni4  1  0.625000  0.125000  0.125000  1
  Rh  Rh5  1  0.125000  0.125000  0.625000  1
