# generated using pymatgen
data_Tb16CdHg3Pd4
_symmetry_space_group_name_H-M   'P 1'
_cell_length_a   9.72018778
_cell_length_b   9.73131450
_cell_length_c   9.73131500
_cell_angle_alpha   60.00000170
_cell_angle_beta   59.96212801
_cell_angle_gamma   59.96212362
_symmetry_Int_Tables_number   1
_chemical_formula_structural   Tb16CdHg3Pd4
_chemical_formula_sum   'Tb16 Cd1 Hg3 Pd4'
_cell_volume   650.50980141
_cell_formula_units_Z   1
loop_
 _symmetry_equiv_pos_site_id
 _symmetry_equiv_pos_as_xyz
  1  'x, y, z'
loop_
 _atom_site_type_symbol
 _atom_site_label
 _atom_site_symmetry_multiplicity
 _atom_site_fract_x
 _atom_site_fract_y
 _atom_site_fract_z
 _atom_site_occupancy
  Tb  Tb0  1  0.356057  0.354536  0.354536  1
  Tb  Tb1  1  0.356057  0.354536  0.934872  1
  Tb  Tb2  1  0.356057  0.934872  0.354536  1
  Tb  Tb3  1  0.932201  0.355933  0.355933  1
  Tb  Tb4  1  0.810124  0.189615  0.189615  1
  Tb  Tb5  1  0.188395  0.811052  0.811052  1
  Tb  Tb6  1  0.188395  0.811052  0.189501  1
  Tb  Tb7  1  0.810124  0.189615  0.810645  1
  Tb  Tb8  1  0.188395  0.189501  0.811052  1
  Tb  Tb9  1  0.810124  0.810645  0.189615  1
  Tb  Tb10  1  0.933307  0.565919  0.565919  1
  Tb  Tb11  1  0.564872  0.934797  0.934797  1
  Tb  Tb12  1  0.564872  0.934797  0.565534  1
  Tb  Tb13  1  0.933307  0.565919  0.934856  1
  Tb  Tb14  1  0.564872  0.565534  0.934797  1
  Tb  Tb15  1  0.933307  0.934856  0.565919  1
  Cd  Cd16  1  0.253353  0.582215  0.582215  1
  Hg  Hg17  1  0.585506  0.587856  0.587856  1
  Hg  Hg18  1  0.585506  0.587856  0.238781  1
  Hg  Hg19  1  0.585506  0.238781  0.587856  1
  Pd  Pd20  1  0.144592  0.145055  0.145055  1
  Pd  Pd21  1  0.144592  0.145055  0.565298  1
  Pd  Pd22  1  0.144592  0.565298  0.145055  1
  Pd  Pd23  1  0.565885  0.144705  0.144705  1
