# generated using pymatgen
data_Tm10Hg3Ir
_symmetry_space_group_name_H-M   'P 1'
_cell_length_a   9.52610201
_cell_length_b   9.52616766
_cell_length_c   9.50343700
_cell_angle_alpha   90.00000000
_cell_angle_beta   90.00000000
_cell_angle_gamma   120.00320211
_symmetry_Int_Tables_number   1
_chemical_formula_structural   Tm10Hg3Ir
_chemical_formula_sum   'Tm20 Hg6 Ir2'
_cell_volume   746.84549600
_cell_formula_units_Z   2
loop_
 _symmetry_equiv_pos_site_id
 _symmetry_equiv_pos_as_xyz
  1  'x, y, z'
loop_
 _atom_site_type_symbol
 _atom_site_label
 _atom_site_symmetry_multiplicity
 _atom_site_fract_x
 _atom_site_fract_y
 _atom_site_fract_z
 _atom_site_occupancy
  Tm  Tm0  1  0.000000  0.000000  0.500000  1
  Tm  Tm1  1  0.000000  0.000000  0.000000  1
  Tm  Tm2  1  0.208482  0.791518  0.441078  1
  Tm  Tm3  1  0.208478  0.416960  0.441075  1
  Tm  Tm4  1  0.583038  0.791519  0.441077  1
  Tm  Tm5  1  0.791518  0.208482  0.558922  1
  Tm  Tm6  1  0.791522  0.583040  0.558925  1
  Tm  Tm7  1  0.416962  0.208481  0.558923  1
  Tm  Tm8  1  0.791518  0.208482  0.941078  1
  Tm  Tm9  1  0.791522  0.583040  0.941075  1
  Tm  Tm10  1  0.416962  0.208481  0.941077  1
  Tm  Tm11  1  0.208482  0.791518  0.058922  1
  Tm  Tm12  1  0.208478  0.416960  0.058925  1
  Tm  Tm13  1  0.583038  0.791519  0.058923  1
  Tm  Tm14  1  0.540825  0.459184  0.250000  1
  Tm  Tm15  1  0.540825  0.081640  0.250000  1
  Tm  Tm16  1  0.918358  0.459180  0.250000  1
  Tm  Tm17  1  0.459175  0.540816  0.750000  1
  Tm  Tm18  1  0.459175  0.918360  0.750000  1
  Tm  Tm19  1  0.081642  0.540820  0.750000  1
  Hg  Hg20  1  0.881531  0.118486  0.250000  1
  Hg  Hg21  1  0.881537  0.763060  0.250000  1
  Hg  Hg22  1  0.236944  0.118471  0.250000  1
  Hg  Hg23  1  0.118469  0.881514  0.750000  1
  Hg  Hg24  1  0.118463  0.236940  0.750000  1
  Hg  Hg25  1  0.763056  0.881529  0.750000  1
  Ir  Ir26  1  0.333339  0.666669  0.250000  1
  Ir  Ir27  1  0.666661  0.333331  0.750000  1
