# generated using pymatgen
data_LaNdBi2(Pt2O7)2
_symmetry_space_group_name_H-M   'P 1'
_cell_length_a   7.47496860
_cell_length_b   7.48625164
_cell_length_c   7.47496727
_cell_angle_alpha   59.79490558
_cell_angle_beta   59.82567532
_cell_angle_gamma   59.79490859
_symmetry_Int_Tables_number   1
_chemical_formula_structural   LaNdBi2(Pt2O7)2
_chemical_formula_sum   'La1 Nd1 Bi2 Pt4 O14'
_cell_volume   294.47127735
_cell_formula_units_Z   1
loop_
 _symmetry_equiv_pos_site_id
 _symmetry_equiv_pos_as_xyz
  1  'x, y, z'
loop_
 _atom_site_type_symbol
 _atom_site_label
 _atom_site_symmetry_multiplicity
 _atom_site_fract_x
 _atom_site_fract_y
 _atom_site_fract_z
 _atom_site_occupancy
  La  La0  1  0.125000  0.625000  0.125000  1
  Nd  Nd1  1  0.125000  0.125000  0.125000  1
  Bi  Bi2  1  0.125000  0.125000  0.625000  1
  Bi  Bi3  1  0.625000  0.125000  0.125000  1
  Pt  Pt4  1  0.625000  0.625000  0.125000  1
  Pt  Pt5  1  0.625000  0.125000  0.625000  1
  Pt  Pt6  1  0.125000  0.625000  0.625000  1
  Pt  Pt7  1  0.625000  0.625000  0.625000  1
  O  O8  1  0.250218  0.247787  0.250218  1
  O  O9  1  0.999782  0.002213  0.999782  1
  O  O10  1  0.542884  0.957444  0.542884  1
  O  O11  1  0.290276  0.712556  0.290276  1
  O  O12  1  0.543060  0.541258  0.958204  1
  O  O13  1  0.958204  0.541258  0.543060  1
  O  O14  1  0.539293  0.958965  0.958957  1
  O  O15  1  0.958957  0.958965  0.539293  1
  O  O16  1  0.959724  0.537444  0.959724  1
  O  O17  1  0.710707  0.291035  0.291043  1
  O  O18  1  0.291796  0.708742  0.706940  1
  O  O19  1  0.707116  0.292556  0.707116  1
  O  O20  1  0.291043  0.291035  0.710707  1
  O  O21  1  0.706940  0.708742  0.291796  1
