# generated using pymatgen
data_Ho2Er2PdPb2Au3
_symmetry_space_group_name_H-M   'P 1'
_cell_length_a   8.07176732
_cell_length_b   8.07176699
_cell_length_c   3.63908900
_cell_angle_alpha   90.00000000
_cell_angle_beta   90.00000000
_cell_angle_gamma   89.95521651
_symmetry_Int_Tables_number   1
_chemical_formula_structural   Ho2Er2PdPb2Au3
_chemical_formula_sum   'Ho2 Er2 Pd1 Pb2 Au3'
_cell_volume   237.09903972
_cell_formula_units_Z   1
loop_
 _symmetry_equiv_pos_site_id
 _symmetry_equiv_pos_as_xyz
  1  'x, y, z'
loop_
 _atom_site_type_symbol
 _atom_site_label
 _atom_site_symmetry_multiplicity
 _atom_site_fract_x
 _atom_site_fract_y
 _atom_site_fract_z
 _atom_site_occupancy
  Ho  Ho0  1  0.673990  0.173990  0.500000  1
  Ho  Ho1  1  0.332672  0.832672  0.500000  1
  Er  Er2  1  0.158760  0.331597  0.500000  1
  Er  Er3  1  0.831597  0.658760  0.500000  1
  Pd  Pd4  1  0.873875  0.373875  0.000000  1
  Pb  Pb5  1  0.998139  0.003808  0.000000  1
  Pb  Pb6  1  0.503808  0.498139  0.000000  1
  Au  Au7  1  0.374372  0.128233  0.000000  1
  Au  Au8  1  0.124552  0.624552  0.000000  1
  Au  Au9  1  0.628233  0.874372  0.000000  1
