# generated using pymatgen
data_Tm2Nb(SnRu2)3
_symmetry_space_group_name_H-M   'P 1'
_cell_length_a   4.59995700
_cell_length_b   6.51546600
_cell_length_c   13.79272801
_cell_angle_alpha   90.00000000
_cell_angle_beta   89.99974543
_cell_angle_gamma   90.00000000
_symmetry_Int_Tables_number   1
_chemical_formula_structural   Tm2Nb(SnRu2)3
_chemical_formula_sum   'Tm4 Nb2 Sn6 Ru12'
_cell_volume   413.37996800
_cell_formula_units_Z   2
loop_
 _symmetry_equiv_pos_site_id
 _symmetry_equiv_pos_as_xyz
  1  'x, y, z'
loop_
 _atom_site_type_symbol
 _atom_site_label
 _atom_site_symmetry_multiplicity
 _atom_site_fract_x
 _atom_site_fract_y
 _atom_site_fract_z
 _atom_site_occupancy
  Tm  Tm0  1  0.000006  0.000000  0.998525  1
  Tm  Tm1  1  0.499969  0.500001  0.166179  1
  Tm  Tm2  1  0.999970  0.000000  0.333859  1
  Tm  Tm3  1  0.500003  0.500001  0.501422  1
  Nb  Nb4  1  0.000030  0.000000  0.666768  1
  Nb  Nb5  1  0.500028  0.500001  0.833266  1
  Sn  Sn6  1  0.999997  0.500001  0.999385  1
  Sn  Sn7  1  0.499971  0.000000  0.164977  1
  Sn  Sn8  1  0.999968  0.500001  0.335020  1
  Sn  Sn9  1  0.500005  0.000000  0.500620  1
  Sn  Sn10  1  0.000002  0.500001  0.666258  1
  Sn  Sn11  1  0.500066  0.000000  0.833786  1
  Ru  Ru12  1  0.500003  0.259064  0.990477  1
  Ru  Ru13  1  0.500003  0.740937  0.990477  1
  Ru  Ru14  1  0.999967  0.249355  0.165290  1
  Ru  Ru15  1  0.999967  0.750645  0.165290  1
  Ru  Ru16  1  0.499969  0.250665  0.334680  1
  Ru  Ru17  1  0.499969  0.749334  0.334680  1
  Ru  Ru18  1  0.000009  0.240967  0.509524  1
  Ru  Ru19  1  0.000009  0.759033  0.509524  1
  Ru  Ru20  1  0.500021  0.241773  0.672686  1
  Ru  Ru21  1  0.500021  0.758226  0.672686  1
  Ru  Ru22  1  0.000026  0.258210  0.827312  1
  Ru  Ru23  1  0.000026  0.741790  0.827312  1
