# generated using pymatgen
data_TbY(BiO4)2
_symmetry_space_group_name_H-M   'P 1'
_cell_length_a   5.53656676
_cell_length_b   7.86015720
_cell_length_c   7.83115400
_cell_angle_alpha   83.23463965
_cell_angle_beta   90.29373628
_cell_angle_gamma   91.84046403
_symmetry_Int_Tables_number   1
_chemical_formula_structural   TbY(BiO4)2
_chemical_formula_sum   'Tb2 Y2 Bi4 O16'
_cell_volume   338.25048857
_cell_formula_units_Z   2
loop_
 _symmetry_equiv_pos_site_id
 _symmetry_equiv_pos_as_xyz
  1  'x, y, z'
loop_
 _atom_site_type_symbol
 _atom_site_label
 _atom_site_symmetry_multiplicity
 _atom_site_fract_x
 _atom_site_fract_y
 _atom_site_fract_z
 _atom_site_occupancy
  Tb  Tb0  1  0.258929  0.126219  0.618700  1
  Tb  Tb1  1  0.741071  0.873781  0.381300  1
  Y  Y2  1  0.220004  0.147914  0.115225  1
  Y  Y3  1  0.779996  0.852086  0.884775  1
  Bi  Bi4  1  0.236325  0.662719  0.181525  1
  Bi  Bi5  1  0.763675  0.337281  0.818475  1
  Bi  Bi6  1  0.724680  0.338175  0.321389  1
  Bi  Bi7  1  0.275320  0.661825  0.678611  1
  O  O8  1  0.092989  0.418078  0.676281  1
  O  O9  1  0.907011  0.581922  0.323719  1
  O  O10  1  0.584032  0.323841  0.573802  1
  O  O11  1  0.415968  0.676159  0.426198  1
  O  O12  1  0.899846  0.329412  0.074963  1
  O  O13  1  0.100154  0.670588  0.925037  1
  O  O14  1  0.395659  0.418063  0.184233  1
  O  O15  1  0.604341  0.581937  0.815767  1
  O  O16  1  0.026395  0.892564  0.166624  1
  O  O17  1  0.973605  0.107436  0.833376  1
  O  O18  1  0.500032  0.104923  0.328335  1
  O  O19  1  0.499968  0.895077  0.671665  1
  O  O20  1  0.465331  0.175118  0.886448  1
  O  O21  1  0.534669  0.824882  0.113552  1
  O  O22  1  0.993700  0.157115  0.388300  1
  O  O23  1  0.006300  0.842885  0.611700  1
