# generated using pymatgen
data_Y20Zn3Cd3Os2
_symmetry_space_group_name_H-M   'P 1'
_cell_length_a   9.57597400
_cell_length_b   9.57597422
_cell_length_c   9.77425100
_cell_angle_alpha   90.00000000
_cell_angle_beta   90.00000000
_cell_angle_gamma   119.99999925
_symmetry_Int_Tables_number   1
_chemical_formula_structural   Y20Zn3Cd3Os2
_chemical_formula_sum   'Y20 Zn3 Cd3 Os2'
_cell_volume   776.21145691
_cell_formula_units_Z   1
loop_
 _symmetry_equiv_pos_site_id
 _symmetry_equiv_pos_as_xyz
  1  'x, y, z'
loop_
 _atom_site_type_symbol
 _atom_site_label
 _atom_site_symmetry_multiplicity
 _atom_site_fract_x
 _atom_site_fract_y
 _atom_site_fract_z
 _atom_site_occupancy
  Y  Y0  1  0.000000  0.000000  0.474272  1
  Y  Y1  1  0.000000  0.000000  0.025728  1
  Y  Y2  1  0.208098  0.791902  0.439147  1
  Y  Y3  1  0.208098  0.416196  0.439147  1
  Y  Y4  1  0.583804  0.791902  0.439147  1
  Y  Y5  1  0.791049  0.208951  0.557549  1
  Y  Y6  1  0.791049  0.582097  0.557549  1
  Y  Y7  1  0.417903  0.208951  0.557549  1
  Y  Y8  1  0.791049  0.208951  0.942451  1
  Y  Y9  1  0.791049  0.582097  0.942451  1
  Y  Y10  1  0.417903  0.208951  0.942451  1
  Y  Y11  1  0.208098  0.791902  0.060853  1
  Y  Y12  1  0.208098  0.416196  0.060853  1
  Y  Y13  1  0.583804  0.791902  0.060853  1
  Y  Y14  1  0.540435  0.459565  0.250000  1
  Y  Y15  1  0.540435  0.080870  0.250000  1
  Y  Y16  1  0.919130  0.459565  0.250000  1
  Y  Y17  1  0.460050  0.539950  0.750000  1
  Y  Y18  1  0.460050  0.920099  0.750000  1
  Y  Y19  1  0.079901  0.539950  0.750000  1
  Zn  Zn20  1  0.878353  0.121647  0.250000  1
  Zn  Zn21  1  0.878353  0.756708  0.250000  1
  Zn  Zn22  1  0.243292  0.121647  0.250000  1
  Cd  Cd23  1  0.110180  0.889820  0.750000  1
  Cd  Cd24  1  0.110180  0.220358  0.750000  1
  Cd  Cd25  1  0.779642  0.889820  0.750000  1
  Os  Os26  1  0.333333  0.666667  0.250000  1
  Os  Os27  1  0.666667  0.333333  0.750000  1
