# generated using pymatgen
data_DyEr11GaCo4Sn
_symmetry_space_group_name_H-M   'P 1'
_cell_length_a   8.24776924
_cell_length_b   8.24576935
_cell_length_c   8.24576957
_cell_angle_alpha   106.96753416
_cell_angle_beta   109.37709111
_cell_angle_gamma   112.09938295
_symmetry_Int_Tables_number   1
_chemical_formula_structural   DyEr11GaCo4Sn
_chemical_formula_sum   'Dy1 Er11 Ga1 Co4 Sn1'
_cell_volume   430.88249599
_cell_formula_units_Z   1
loop_
 _symmetry_equiv_pos_site_id
 _symmetry_equiv_pos_as_xyz
  1  'x, y, z'
loop_
 _atom_site_type_symbol
 _atom_site_label
 _atom_site_symmetry_multiplicity
 _atom_site_fract_x
 _atom_site_fract_y
 _atom_site_fract_z
 _atom_site_occupancy
  Dy  Dy0  1  0.600221  0.781423  0.818798  1
  Er  Er1  1  0.297826  0.266421  0.564920  1
  Er  Er2  1  0.701966  0.732940  0.433877  1
  Er  Er3  1  0.297826  0.732904  0.031404  1
  Er  Er4  1  0.701966  0.268089  0.969026  1
  Er  Er5  1  0.186812  0.511849  0.324013  1
  Er  Er6  1  0.186812  0.862800  0.674964  1
  Er  Er7  1  0.813084  0.487731  0.674942  1
  Er  Er8  1  0.813084  0.138141  0.325353  1
  Er  Er9  1  0.399130  0.218426  0.180705  1
  Er  Er10  1  0.038087  0.218600  0.819488  1
  Er  Er11  1  0.962480  0.781341  0.181138  1
  Ga  Ga12  1  0.498974  0.498732  0.000243  1
  Co  Co13  1  0.156960  0.499147  0.657814  1
  Co  Co14  1  0.841616  0.499919  0.341697  1
  Co  Co15  1  0.001560  0.116052  0.116040  1
  Co  Co16  1  0.001560  0.885520  0.885508  1
  Sn  Sn17  1  0.500035  0.999965  0.500070  1
