# generated using pymatgen
data_La4YbSi2Ge
_symmetry_space_group_name_H-M   'P 1'
_cell_length_a   7.92075800
_cell_length_b   9.06189053
_cell_length_c   7.92075800
_cell_angle_alpha   115.91497216
_cell_angle_beta   90.00000000
_cell_angle_gamma   115.91497216
_symmetry_Int_Tables_number   1
_chemical_formula_structural   La4YbSi2Ge
_chemical_formula_sum   'La8 Yb2 Si4 Ge2'
_cell_volume   446.93636779
_cell_formula_units_Z   2
loop_
 _symmetry_equiv_pos_site_id
 _symmetry_equiv_pos_as_xyz
  1  'x, y, z'
loop_
 _atom_site_type_symbol
 _atom_site_label
 _atom_site_symmetry_multiplicity
 _atom_site_fract_x
 _atom_site_fract_y
 _atom_site_fract_z
 _atom_site_occupancy
  La  La0  1  0.532666  0.709358  0.676693  1
  La  La1  1  0.176693  0.709358  0.032666  1
  La  La2  1  0.676693  0.709358  0.176693  1
  La  La3  1  0.032666  0.709358  0.532666  1
  La  La4  1  0.467334  0.290642  0.323307  1
  La  La5  1  0.823307  0.290642  0.967334  1
  La  La6  1  0.323307  0.290642  0.823307  1
  La  La7  1  0.967334  0.290642  0.467334  1
  Yb  Yb8  1  0.000000  0.000000  0.000000  1
  Yb  Yb9  1  0.500000  0.000000  0.500000  1
  Si  Si10  1  0.886179  0.000000  0.613821  1
  Si  Si11  1  0.113821  0.000000  0.386179  1
  Si  Si12  1  0.613821  0.000000  0.113821  1
  Si  Si13  1  0.386179  0.000000  0.886179  1
  Ge  Ge14  1  0.750000  0.500000  0.750000  1
  Ge  Ge15  1  0.250000  0.500000  0.250000  1
