# generated using pymatgen
data_LaPr5(IrO8)2
_symmetry_space_group_name_H-M   'P 1'
_cell_length_a   7.53134679
_cell_length_b   7.53008654
_cell_length_c   6.30139200
_cell_angle_alpha   90.00000000
_cell_angle_beta   90.00000000
_cell_angle_gamma   109.58913019
_symmetry_Int_Tables_number   1
_chemical_formula_structural   LaPr5(IrO8)2
_chemical_formula_sum   'La1 Pr5 Ir2 O16'
_cell_volume   336.67884605
_cell_formula_units_Z   1
loop_
 _symmetry_equiv_pos_site_id
 _symmetry_equiv_pos_as_xyz
  1  'x, y, z'
loop_
 _atom_site_type_symbol
 _atom_site_label
 _atom_site_symmetry_multiplicity
 _atom_site_fract_x
 _atom_site_fract_y
 _atom_site_fract_z
 _atom_site_occupancy
  La  La0  1  0.665945  0.893777  0.250000  1
  Pr  Pr1  1  0.107005  0.335765  0.250000  1
  Pr  Pr2  1  0.893274  0.664245  0.750000  1
  Pr  Pr3  1  0.603285  0.396056  0.250000  1
  Pr  Pr4  1  0.396311  0.602916  0.750000  1
  Pr  Pr5  1  0.335188  0.106703  0.750000  1
  Ir  Ir6  1  0.182785  0.817343  0.250000  1
  Ir  Ir7  1  0.817317  0.182816  0.750000  1
  O  O8  1  0.971089  0.028416  0.750000  1
  O  O9  1  0.030277  0.971908  0.250000  1
  O  O10  1  0.034462  0.412301  0.750000  1
  O  O11  1  0.965575  0.588247  0.250000  1
  O  O12  1  0.659414  0.340026  0.750000  1
  O  O13  1  0.339078  0.658784  0.250000  1
  O  O14  1  0.588045  0.965693  0.750000  1
  O  O15  1  0.410639  0.034733  0.250000  1
  O  O16  1  0.662785  0.661997  0.000057  1
  O  O17  1  0.336571  0.336485  0.499981  1
  O  O18  1  0.336571  0.336485  0.000019  1
  O  O19  1  0.662785  0.661997  0.499943  1
  O  O20  1  0.805462  0.196842  0.054137  1
  O  O21  1  0.195338  0.804811  0.554170  1
  O  O22  1  0.195338  0.804811  0.945830  1
  O  O23  1  0.805462  0.196842  0.445863  1
