# generated using pymatgen
data_Tb8Hf10Nb2Si15As
_symmetry_space_group_name_H-M   'P 1'
_cell_length_a   7.26652461
_cell_length_b   7.27401018
_cell_length_c   13.34781967
_cell_angle_alpha   89.79487632
_cell_angle_beta   89.97868218
_cell_angle_gamma   90.03413644
_symmetry_Int_Tables_number   1
_chemical_formula_structural   Tb8Hf10Nb2Si15As
_chemical_formula_sum   'Tb8 Hf10 Nb2 Si15 As1'
_cell_volume   705.51799196
_cell_formula_units_Z   1
loop_
 _symmetry_equiv_pos_site_id
 _symmetry_equiv_pos_as_xyz
  1  'x, y, z'
loop_
 _atom_site_type_symbol
 _atom_site_label
 _atom_site_symmetry_multiplicity
 _atom_site_fract_x
 _atom_site_fract_y
 _atom_site_fract_z
 _atom_site_occupancy
  Tb  Tb0  1  0.996907  0.343977  0.214176  1
  Tb  Tb1  1  0.003212  0.656658  0.714260  1
  Tb  Tb2  1  0.152874  0.500124  0.467292  1
  Tb  Tb3  1  0.504754  0.843057  0.033204  1
  Tb  Tb4  1  0.844437  0.502372  0.965729  1
  Tb  Tb5  1  0.497960  0.154725  0.534720  1
  Tb  Tb6  1  0.343907  0.997174  0.786040  1
  Tb  Tb7  1  0.655676  0.002991  0.285343  1
  Hf  Hf8  1  0.323917  0.679002  0.249747  1
  Hf  Hf9  1  0.675600  0.324224  0.750068  1
  Hf  Hf10  1  0.146941  0.995149  0.375537  1
  Hf  Hf11  1  0.852733  0.003940  0.876589  1
  Hf  Hf12  1  0.506448  0.650220  0.623257  1
  Hf  Hf13  1  0.350215  0.493405  0.876828  1
  Hf  Hf14  1  0.492524  0.348332  0.123363  1
  Hf  Hf15  1  0.653573  0.509103  0.377854  1
  Hf  Hf16  1  0.996403  0.147680  0.623459  1
  Hf  Hf17  1  0.001797  0.851040  0.123012  1
  Nb  Nb18  1  0.174944  0.175773  0.000373  1
  Nb  Nb19  1  0.825820  0.825204  0.499781  1
  Si  Si20  1  0.636884  0.704896  0.816832  1
  Si  Si21  1  0.203943  0.862762  0.566541  1
  Si  Si22  1  0.137910  0.795621  0.932920  1
  Si  Si23  1  0.795437  0.138592  0.066808  1
  Si  Si24  1  0.862150  0.204177  0.432981  1
  Si  Si25  1  0.295466  0.362859  0.682807  1
  Si  Si26  1  0.703503  0.635685  0.183577  1
  Si  Si27  1  0.293555  0.041280  0.179493  1
  Si  Si28  1  0.705836  0.949976  0.684709  1
  Si  Si29  1  0.452000  0.796624  0.435897  1
  Si  Si30  1  0.203471  0.547781  0.064391  1
  Si  Si31  1  0.548500  0.203644  0.935798  1
  Si  Si32  1  0.796059  0.451724  0.564956  1
  Si  Si33  1  0.050156  0.294403  0.815260  1
  Si  Si34  1  0.950770  0.705511  0.315280  1
  As  As35  1  0.363719  0.300316  0.321117  1
