# generated using pymatgen
data_Pr5Y(SiPt5)2
_symmetry_space_group_name_H-M   'P 1'
_cell_length_a   8.40589170
_cell_length_b   8.42648239
_cell_length_c   8.42648355
_cell_angle_alpha   127.24914676
_cell_angle_beta   126.36087533
_cell_angle_gamma   78.62764211
_symmetry_Int_Tables_number   1
_chemical_formula_structural   Pr5Y(SiPt5)2
_chemical_formula_sum   'Pr5 Y1 Si2 Pt10'
_cell_volume   370.23876638
_cell_formula_units_Z   1
loop_
 _symmetry_equiv_pos_site_id
 _symmetry_equiv_pos_as_xyz
  1  'x, y, z'
loop_
 _atom_site_type_symbol
 _atom_site_label
 _atom_site_symmetry_multiplicity
 _atom_site_fract_x
 _atom_site_fract_y
 _atom_site_fract_z
 _atom_site_occupancy
  Pr  Pr0  1  0.828537  0.550147  0.278388  1
  Pr  Pr1  1  0.614023  0.249945  0.364078  1
  Pr  Pr2  1  0.172100  0.450420  0.721681  1
  Pr  Pr3  1  0.387382  0.749720  0.637663  1
  Pr  Pr4  1  0.230928  0.950202  0.280726  1
  Y  Y5  1  0.776479  0.050011  0.726468  1
  Si  Si6  1  0.213859  0.250330  0.963529  1
  Si  Si7  1  0.787007  0.750368  0.036639  1
  Pt  Pt8  1  0.168385  0.908561  0.862842  1
  Pt  Pt9  1  0.827701  0.090771  0.130911  1
  Pt  Pt10  1  0.456779  0.191457  0.861686  1
  Pt  Pt11  1  0.547116  0.404640  0.737252  1
  Pt  Pt12  1  0.827701  0.696789  0.736929  1
  Pt  Pt13  1  0.456779  0.595094  0.265322  1
  Pt  Pt14  1  0.547116  0.809864  0.142476  1
  Pt  Pt15  1  0.168385  0.305543  0.259823  1
  Pt  Pt16  1  0.994862  0.002651  0.501375  1
  Pt  Pt17  1  0.994862  0.493487  0.992211  1
