# generated using pymatgen
data_Ca7Cd(Sb2O5)4
_symmetry_space_group_name_H-M   'P 1'
_cell_length_a   5.88590900
_cell_length_b   7.38639631
_cell_length_c   14.27781500
_cell_angle_alpha   89.91941320
_cell_angle_beta   90.00000000
_cell_angle_gamma   90.00000000
_symmetry_Int_Tables_number   1
_chemical_formula_structural   Ca7Cd(Sb2O5)4
_chemical_formula_sum   'Ca7 Cd1 Sb8 O20'
_cell_volume   620.73676646
_cell_formula_units_Z   1
loop_
 _symmetry_equiv_pos_site_id
 _symmetry_equiv_pos_as_xyz
  1  'x, y, z'
loop_
 _atom_site_type_symbol
 _atom_site_label
 _atom_site_symmetry_multiplicity
 _atom_site_fract_x
 _atom_site_fract_y
 _atom_site_fract_z
 _atom_site_occupancy
  Ca  Ca0  1  0.250000  0.626387  0.064113  1
  Ca  Ca1  1  0.750000  0.624281  0.446998  1
  Ca  Ca2  1  0.750000  0.876326  0.949964  1
  Ca  Ca3  1  0.250000  0.873690  0.561698  1
  Ca  Ca4  1  0.250000  0.123885  0.052769  1
  Ca  Ca5  1  0.750000  0.126591  0.436287  1
  Ca  Ca6  1  0.250000  0.376042  0.551460  1
  Cd  Cd7  1  0.750000  0.373922  0.938838  1
  Sb  Sb8  1  0.250000  0.616898  0.823704  1
  Sb  Sb9  1  0.750000  0.628491  0.681690  1
  Sb  Sb10  1  0.250000  0.882014  0.322412  1
  Sb  Sb11  1  0.750000  0.871616  0.184603  1
  Sb  Sb12  1  0.250000  0.130061  0.817435  1
  Sb  Sb13  1  0.750000  0.117127  0.675479  1
  Sb  Sb14  1  0.250000  0.371519  0.316575  1
  Sb  Sb15  1  0.750000  0.381816  0.177124  1
  O  O16  1  0.250000  0.628668  0.267205  1
  O  O17  1  0.007986  0.631195  0.918905  1
  O  O18  1  0.492014  0.631195  0.918905  1
  O  O19  1  0.508359  0.619883  0.586430  1
  O  O20  1  0.991641  0.619883  0.586430  1
  O  O21  1  0.491629  0.868776  0.417108  1
  O  O22  1  0.250000  0.871691  0.770053  1
  O  O23  1  0.508624  0.880691  0.089233  1
  O  O24  1  0.008371  0.868776  0.417108  1
  O  O25  1  0.991376  0.880691  0.089233  1
  O  O26  1  0.750000  0.129169  0.233136  1
  O  O27  1  0.507945  0.130552  0.580812  1
  O  O28  1  0.992055  0.130552  0.580812  1
  O  O29  1  0.008341  0.119155  0.913141  1
  O  O30  1  0.491659  0.119155  0.913141  1
  O  O31  1  0.750000  0.370710  0.728150  1
  O  O32  1  0.008730  0.381112  0.411758  1
  O  O33  1  0.491270  0.381112  0.411758  1
  O  O34  1  0.507984  0.368185  0.082766  1
  O  O35  1  0.992016  0.368185  0.082766  1
