# generated using pymatgen
data_Y20In6TcRu
_symmetry_space_group_name_H-M   'P 1'
_cell_length_a   9.74306900
_cell_length_b   9.74308715
_cell_length_c   9.83434300
_cell_angle_alpha   90.00000000
_cell_angle_beta   90.00000000
_cell_angle_gamma   120.00010560
_symmetry_Int_Tables_number   1
_chemical_formula_structural   Y20In6TcRu
_chemical_formula_sum   'Y20 In6 Tc1 Ru1'
_cell_volume   808.47740371
_cell_formula_units_Z   1
loop_
 _symmetry_equiv_pos_site_id
 _symmetry_equiv_pos_as_xyz
  1  'x, y, z'
loop_
 _atom_site_type_symbol
 _atom_site_label
 _atom_site_symmetry_multiplicity
 _atom_site_fract_x
 _atom_site_fract_y
 _atom_site_fract_z
 _atom_site_occupancy
  Y  Y0  1  0.000000  0.999999  0.499899  1
  Y  Y1  1  0.000000  0.999999  0.000101  1
  Y  Y2  1  0.209519  0.790482  0.439861  1
  Y  Y3  1  0.209519  0.419038  0.439862  1
  Y  Y4  1  0.580962  0.790481  0.439862  1
  Y  Y5  1  0.790296  0.209704  0.561215  1
  Y  Y6  1  0.790296  0.580591  0.561215  1
  Y  Y7  1  0.419408  0.209704  0.561215  1
  Y  Y8  1  0.790296  0.209704  0.938785  1
  Y  Y9  1  0.790296  0.580591  0.938785  1
  Y  Y10  1  0.419408  0.209704  0.938785  1
  Y  Y11  1  0.209519  0.790482  0.060139  1
  Y  Y12  1  0.209519  0.419038  0.060138  1
  Y  Y13  1  0.580962  0.790481  0.060138  1
  Y  Y14  1  0.537996  0.462002  0.250000  1
  Y  Y15  1  0.537997  0.075994  0.250000  1
  Y  Y16  1  0.924007  0.462004  0.250000  1
  Y  Y17  1  0.460780  0.539222  0.750000  1
  Y  Y18  1  0.460779  0.921558  0.750000  1
  Y  Y19  1  0.078442  0.539221  0.750000  1
  In  In20  1  0.884212  0.115789  0.250000  1
  In  In21  1  0.884211  0.768422  0.250000  1
  In  In22  1  0.231577  0.115788  0.250000  1
  In  In23  1  0.115778  0.884221  0.750000  1
  In  In24  1  0.115780  0.231559  0.750000  1
  In  In25  1  0.768441  0.884220  0.750000  1
  Tc  Tc26  1  0.333334  0.666667  0.250000  1
  Ru  Ru27  1  0.666667  0.333331  0.750000  1
