# generated using pymatgen
data_Ac2Th2Ni3Ir11
_symmetry_space_group_name_H-M   'P 1'
_cell_length_a   5.42328613
_cell_length_b   5.42328645
_cell_length_c   13.24555898
_cell_angle_alpha   78.18683941
_cell_angle_beta   78.18683796
_cell_angle_gamma   59.99999876
_symmetry_Int_Tables_number   1
_chemical_formula_structural   Ac2Th2Ni3Ir11
_chemical_formula_sum   'Ac2 Th2 Ni3 Ir11'
_cell_volume   327.82296903
_cell_formula_units_Z   1
loop_
 _symmetry_equiv_pos_site_id
 _symmetry_equiv_pos_as_xyz
  1  'x, y, z'
loop_
 _atom_site_type_symbol
 _atom_site_label
 _atom_site_symmetry_multiplicity
 _atom_site_fract_x
 _atom_site_fract_y
 _atom_site_fract_z
 _atom_site_occupancy
  Ac  Ac0  1  0.949270  0.949270  0.152192  1
  Ac  Ac1  1  0.050265  0.050265  0.849206  1
  Th  Th2  1  0.853308  0.853308  0.440078  1
  Th  Th3  1  0.147030  0.147030  0.558909  1
  Ni  Ni4  1  0.278430  0.278430  0.164711  1
  Ni  Ni5  1  0.611668  0.611668  0.164995  1
  Ni  Ni6  1  0.386961  0.386961  0.839115  1
  Ir  Ir7  1  0.389867  0.389867  0.324703  1
  Ir  Ir8  1  0.895564  0.389867  0.324703  1
  Ir  Ir9  1  0.389867  0.895564  0.324703  1
  Ir  Ir10  1  0.608332  0.608332  0.671705  1
  Ir  Ir11  1  0.111632  0.608332  0.671705  1
  Ir  Ir12  1  0.608332  0.111632  0.671705  1
  Ir  Ir13  1  0.000421  0.498092  0.003395  1
  Ir  Ir14  1  0.498092  0.000421  0.003395  1
  Ir  Ir15  1  0.498092  0.498092  0.003395  1
  Ir  Ir16  1  0.721477  0.721477  0.835568  1
  Ir  Ir17  1  0.501395  0.501395  0.495816  1
