# generated using pymatgen
data_Dy9Y3Tc4
_symmetry_space_group_name_H-M   'P 1'
_cell_length_a   6.25749436
_cell_length_b   7.46337939
_cell_length_c   9.19534300
_cell_angle_alpha   90.00000000
_cell_angle_beta   90.00000000
_cell_angle_gamma   89.86050753
_symmetry_Int_Tables_number   1
_chemical_formula_structural   Dy9Y3Tc4
_chemical_formula_sum   'Dy9 Y3 Tc4'
_cell_volume   429.44013679
_cell_formula_units_Z   1
loop_
 _symmetry_equiv_pos_site_id
 _symmetry_equiv_pos_as_xyz
  1  'x, y, z'
loop_
 _atom_site_type_symbol
 _atom_site_label
 _atom_site_symmetry_multiplicity
 _atom_site_fract_x
 _atom_site_fract_y
 _atom_site_fract_z
 _atom_site_occupancy
  Dy  Dy0  1  0.339803  0.675522  0.062350  1
  Dy  Dy1  1  0.161149  0.174356  0.437828  1
  Dy  Dy2  1  0.660231  0.324492  0.563096  1
  Dy  Dy3  1  0.838923  0.825407  0.937539  1
  Dy  Dy4  1  0.660231  0.324492  0.936904  1
  Dy  Dy5  1  0.838923  0.825407  0.562461  1
  Dy  Dy6  1  0.339803  0.675522  0.437650  1
  Dy  Dy7  1  0.161149  0.174356  0.062172  1
  Dy  Dy8  1  0.371689  0.958268  0.750000  1
  Y  Y9  1  0.872709  0.540292  0.250000  1
  Y  Y10  1  0.627365  0.041138  0.250000  1
  Y  Y11  1  0.126707  0.459582  0.750000  1
  Tc  Tc12  1  0.047338  0.885913  0.250000  1
  Tc  Tc13  1  0.451403  0.386045  0.250000  1
  Tc  Tc14  1  0.956404  0.113336  0.750000  1
  Tc  Tc15  1  0.546172  0.615871  0.750000  1
