# generated using pymatgen
data_HoEr3ScOs7
_symmetry_space_group_name_H-M   'P 1'
_cell_length_a   5.38610000
_cell_length_b   5.38610050
_cell_length_c   8.86103700
_cell_angle_alpha   90.00000000
_cell_angle_beta   90.00000000
_cell_angle_gamma   119.99999695
_symmetry_Int_Tables_number   1
_chemical_formula_structural   HoEr3ScOs7
_chemical_formula_sum   'Ho1 Er3 Sc1 Os7'
_cell_volume   222.61993920
_cell_formula_units_Z   1
loop_
 _symmetry_equiv_pos_site_id
 _symmetry_equiv_pos_as_xyz
  1  'x, y, z'
loop_
 _atom_site_type_symbol
 _atom_site_label
 _atom_site_symmetry_multiplicity
 _atom_site_fract_x
 _atom_site_fract_y
 _atom_site_fract_z
 _atom_site_occupancy
  Ho  Ho0  1  0.333333  0.666667  0.422930  1
  Er  Er1  1  0.666667  0.333333  0.577225  1
  Er  Er2  1  0.666667  0.333333  0.940278  1
  Er  Er3  1  0.333333  0.666667  0.059904  1
  Sc  Sc4  1  0.000000  0.000000  0.500138  1
  Os  Os5  1  0.000000  0.000000  0.999957  1
  Os  Os6  1  0.827313  0.172687  0.244713  1
  Os  Os7  1  0.827313  0.654626  0.244713  1
  Os  Os8  1  0.345374  0.172687  0.244713  1
  Os  Os9  1  0.172670  0.827330  0.755143  1
  Os  Os10  1  0.172670  0.345340  0.755143  1
  Os  Os11  1  0.654660  0.827330  0.755143  1
