# generated using pymatgen
data_Tb15Er5Sn9Pb7
_symmetry_space_group_name_H-M   'P 1'
_cell_length_a   8.08722818
_cell_length_b   8.23404574
_cell_length_c   15.58061824
_cell_angle_alpha   90.02888253
_cell_angle_beta   90.00406006
_cell_angle_gamma   90.05341362
_symmetry_Int_Tables_number   1
_chemical_formula_structural   Tb15Er5Sn9Pb7
_chemical_formula_sum   'Tb15 Er5 Sn9 Pb7'
_cell_volume   1037.52223719
_cell_formula_units_Z   1
loop_
 _symmetry_equiv_pos_site_id
 _symmetry_equiv_pos_as_xyz
  1  'x, y, z'
loop_
 _atom_site_type_symbol
 _atom_site_label
 _atom_site_symmetry_multiplicity
 _atom_site_fract_x
 _atom_site_fract_y
 _atom_site_fract_z
 _atom_site_occupancy
  Tb  Tb0  1  0.867138  0.662927  0.623786  1
  Tb  Tb1  1  0.632615  0.162850  0.376475  1
  Tb  Tb2  1  0.131353  0.337320  0.122603  1
  Tb  Tb3  1  0.633652  0.164951  0.123013  1
  Tb  Tb4  1  0.132563  0.337077  0.376500  1
  Tb  Tb5  1  0.367390  0.837198  0.623698  1
  Tb  Tb6  1  0.867165  0.661691  0.877514  1
  Tb  Tb7  1  0.521835  0.321025  0.901375  1
  Tb  Tb8  1  0.020895  0.179411  0.599625  1
  Tb  Tb9  1  0.479386  0.679603  0.400564  1
  Tb  Tb10  1  0.978198  0.818753  0.099243  1
  Tb  Tb11  1  0.481067  0.678347  0.098641  1
  Tb  Tb12  1  0.979259  0.820447  0.400489  1
  Tb  Tb13  1  0.520670  0.320432  0.599669  1
  Tb  Tb14  1  0.020073  0.180082  0.900820  1
  Er  Er15  1  0.366930  0.837475  0.875890  1
  Er  Er16  1  0.198678  0.502354  0.750388  1
  Er  Er17  1  0.698285  0.997637  0.750203  1
  Er  Er18  1  0.801560  0.497762  0.248821  1
  Er  Er19  1  0.301624  0.002108  0.249731  1
  Sn  Sn20  1  0.792004  0.464567  0.042494  1
  Sn  Sn21  1  0.563574  0.619822  0.750526  1
  Sn  Sn22  1  0.064555  0.880592  0.750676  1
  Sn  Sn23  1  0.435580  0.381005  0.249985  1
  Sn  Sn24  1  0.936064  0.118783  0.249893  1
  Sn  Sn25  1  0.329446  0.147834  0.750489  1
  Sn  Sn26  1  0.829163  0.351658  0.750088  1
  Sn  Sn27  1  0.670846  0.851870  0.249922  1
  Sn  Sn28  1  0.170980  0.647999  0.249921  1
  Pb  Pb29  1  0.291568  0.035125  0.040929  1
  Pb  Pb30  1  0.791522  0.463967  0.458069  1
  Pb  Pb31  1  0.708779  0.963779  0.542018  1
  Pb  Pb32  1  0.209388  0.538021  0.957976  1
  Pb  Pb33  1  0.706441  0.963302  0.957864  1
  Pb  Pb34  1  0.208491  0.536141  0.542056  1
  Pb  Pb35  1  0.291262  0.036083  0.458045  1
