# generated using pymatgen
data_Cs3GdI6
_symmetry_space_group_name_H-M   'P 1'
_cell_length_a   10.66851300
_cell_length_b   10.66851300
_cell_length_c   8.82273400
_cell_angle_alpha   90.00000000
_cell_angle_beta   90.00000000
_cell_angle_gamma   90.00000000
_symmetry_Int_Tables_number   1
_chemical_formula_structural   Cs3GdI6
_chemical_formula_sum   'Cs6 Gd2 I12'
_cell_volume   1004.17861229
_cell_formula_units_Z   2
loop_
 _symmetry_equiv_pos_site_id
 _symmetry_equiv_pos_as_xyz
  1  'x, y, z'
loop_
 _atom_site_type_symbol
 _atom_site_label
 _atom_site_symmetry_multiplicity
 _atom_site_fract_x
 _atom_site_fract_y
 _atom_site_fract_z
 _atom_site_occupancy
  Cs  Cs0  1  0.000000  0.000000  0.500000  1
  Cs  Cs1  1  0.000000  0.000000  0.000000  1
  Cs  Cs2  1  0.232688  0.588129  0.500000  1
  Cs  Cs3  1  0.767312  0.411871  0.500000  1
  Cs  Cs4  1  0.411871  0.232688  0.000000  1
  Cs  Cs5  1  0.588129  0.767312  0.000000  1
  Gd  Gd6  1  0.500000  0.000000  0.500000  1
  Gd  Gd7  1  0.000000  0.500000  0.000000  1
  I  I8  1  0.696583  0.060783  0.746315  1
  I  I9  1  0.303417  0.939217  0.746315  1
  I  I10  1  0.939217  0.696583  0.246315  1
  I  I11  1  0.060783  0.303417  0.246315  1
  I  I12  1  0.303417  0.939217  0.253685  1
  I  I13  1  0.696583  0.060783  0.253685  1
  I  I14  1  0.060783  0.303417  0.753685  1
  I  I15  1  0.939217  0.696583  0.753685  1
  I  I16  1  0.570794  0.721387  0.500000  1
  I  I17  1  0.429206  0.278613  0.500000  1
  I  I18  1  0.278613  0.570794  0.000000  1
  I  I19  1  0.721387  0.429206  0.000000  1
