# generated using pymatgen
data_HoTm2Ga5Co
_symmetry_space_group_name_H-M   'P 1'
_cell_length_a   6.83112600
_cell_length_b   6.85447683
_cell_length_c   4.18763600
_cell_angle_alpha   90.00000000
_cell_angle_beta   90.00000000
_cell_angle_gamma   119.88738228
_symmetry_Int_Tables_number   1
_chemical_formula_structural   HoTm2Ga5Co
_chemical_formula_sum   'Ho1 Tm2 Ga5 Co1'
_cell_volume   170.00351043
_cell_formula_units_Z   1
loop_
 _symmetry_equiv_pos_site_id
 _symmetry_equiv_pos_as_xyz
  1  'x, y, z'
loop_
 _atom_site_type_symbol
 _atom_site_label
 _atom_site_symmetry_multiplicity
 _atom_site_fract_x
 _atom_site_fract_y
 _atom_site_fract_z
 _atom_site_occupancy
  Ho  Ho0  1  0.596815  0.000000  0.000000  1
  Tm  Tm1  1  0.999584  0.598713  0.000000  1
  Tm  Tm2  1  0.400870  0.401287  0.000000  1
  Ga  Ga3  1  0.231813  0.000000  0.500000  1
  Ga  Ga4  1  0.999977  0.231712  0.500000  1
  Ga  Ga5  1  0.768264  0.768288  0.500000  1
  Ga  Ga6  1  0.332213  0.664802  0.500000  1
  Ga  Ga7  1  0.667412  0.335198  0.500000  1
  Co  Co8  1  0.003052  0.000000  0.000000  1
