# generated using pymatgen
data_Tm3Lu(B4W)4
_symmetry_space_group_name_H-M   'P 1'
_cell_length_a   3.60203000
_cell_length_b   6.00011128
_cell_length_c   11.58943621
_cell_angle_alpha   90.02166917
_cell_angle_beta   90.00000000
_cell_angle_gamma   90.00000000
_symmetry_Int_Tables_number   1
_chemical_formula_structural   Tm3Lu(B4W)4
_chemical_formula_sum   'Tm3 Lu1 B16 W4'
_cell_volume   250.47760896
_cell_formula_units_Z   1
loop_
 _symmetry_equiv_pos_site_id
 _symmetry_equiv_pos_as_xyz
  1  'x, y, z'
loop_
 _atom_site_type_symbol
 _atom_site_label
 _atom_site_symmetry_multiplicity
 _atom_site_fract_x
 _atom_site_fract_y
 _atom_site_fract_z
 _atom_site_occupancy
  Tm  Tm0  1  0.500000  0.627312  0.850939  1
  Tm  Tm1  1  0.500000  0.127251  0.649258  1
  Tm  Tm2  1  0.500000  0.872650  0.350515  1
  Lu  Lu3  1  0.500000  0.372915  0.149053  1
  B  B4  1  0.000000  0.115245  0.048260  1
  B  B5  1  0.000000  0.885559  0.952377  1
  B  B6  1  0.000000  0.385276  0.547784  1
  B  B7  1  0.000000  0.614475  0.451933  1
  B  B8  1  0.000000  0.132439  0.467826  1
  B  B9  1  0.000000  0.867618  0.531792  1
  B  B10  1  0.000000  0.367872  0.968418  1
  B  B11  1  0.000000  0.632278  0.032312  1
  B  B12  1  0.000000  0.022871  0.194196  1
  B  B13  1  0.000000  0.977194  0.806018  1
  B  B14  1  0.000000  0.477151  0.694152  1
  B  B15  1  0.000000  0.522194  0.305392  1
  B  B16  1  0.000000  0.211358  0.312719  1
  B  B17  1  0.000000  0.788596  0.686964  1
  B  B18  1  0.000000  0.288712  0.813233  1
  B  B19  1  0.000000  0.710736  0.186843  1
  W  W20  1  0.500000  0.368295  0.414741  1
  W  W21  1  0.500000  0.631638  0.584903  1
  W  W22  1  0.500000  0.131952  0.915282  1
  W  W23  1  0.500000  0.868413  0.085088  1
