# generated using pymatgen
data_Ac2Pr(PdPb)3
_symmetry_space_group_name_H-M   'P 1'
_cell_length_a   8.05542010
_cell_length_b   8.00518475
_cell_length_c   4.28951600
_cell_angle_alpha   90.00000000
_cell_angle_beta   90.00000000
_cell_angle_gamma   119.79392847
_symmetry_Int_Tables_number   1
_chemical_formula_structural   Ac2Pr(PdPb)3
_chemical_formula_sum   'Ac2 Pr1 Pd3 Pb3'
_cell_volume   240.04715113
_cell_formula_units_Z   1
loop_
 _symmetry_equiv_pos_site_id
 _symmetry_equiv_pos_as_xyz
  1  'x, y, z'
loop_
 _atom_site_type_symbol
 _atom_site_label
 _atom_site_symmetry_multiplicity
 _atom_site_fract_x
 _atom_site_fract_y
 _atom_site_fract_z
 _atom_site_occupancy
  Ac  Ac0  1  0.411215  0.412322  0.500000  1
  Ac  Ac1  1  0.588785  0.001107  0.500000  1
  Pr  Pr2  1  0.000000  0.591853  0.500000  1
  Pd  Pd3  1  0.669999  0.334797  0.000000  1
  Pd  Pd4  1  0.330001  0.664799  0.000000  1
  Pd  Pd5  1  0.000000  0.997539  0.500000  1
  Pb  Pb6  1  0.754982  0.747973  0.000000  1
  Pb  Pb7  1  0.245018  0.992991  0.000000  1
  Pb  Pb8  1  0.000000  0.256619  0.000000  1
