# generated using pymatgen
data_Ho7Er2Lu7(Ga3Fe)2
_symmetry_space_group_name_H-M   'P 1'
_cell_length_a   9.82584711
_cell_length_b   9.82787164
_cell_length_c   6.95153004
_cell_angle_alpha   89.99296668
_cell_angle_beta   89.99882925
_cell_angle_gamma   119.99186507
_symmetry_Int_Tables_number   1
_chemical_formula_structural   Ho7Er2Lu7(Ga3Fe)2
_chemical_formula_sum   'Ho7 Er2 Lu7 Ga6 Fe2'
_cell_volume   581.40143896
_cell_formula_units_Z   1
loop_
 _symmetry_equiv_pos_site_id
 _symmetry_equiv_pos_as_xyz
  1  'x, y, z'
loop_
 _atom_site_type_symbol
 _atom_site_label
 _atom_site_symmetry_multiplicity
 _atom_site_fract_x
 _atom_site_fract_y
 _atom_site_fract_z
 _atom_site_occupancy
  Ho  Ho0  1  0.073252  0.536579  0.207590  1
  Ho  Ho1  1  0.463299  0.926833  0.207692  1
  Ho  Ho2  1  0.535949  0.463836  0.708974  1
  Ho  Ho3  1  0.927651  0.463732  0.709197  1
  Ho  Ho4  1  0.536074  0.072241  0.709423  1
  Ho  Ho5  1  0.000169  0.999928  0.233449  1
  Ho  Ho6  1  0.000160  0.000134  0.731424  1
  Er  Er7  1  0.666542  0.333554  0.328192  1
  Er  Er8  1  0.463350  0.536852  0.207254  1
  Lu  Lu9  1  0.174276  0.825299  0.513267  1
  Lu  Lu10  1  0.650978  0.825447  0.512787  1
  Lu  Lu11  1  0.174763  0.348907  0.512615  1
  Lu  Lu12  1  0.826565  0.173566  0.012615  1
  Lu  Lu13  1  0.347491  0.174037  0.012965  1
  Lu  Lu14  1  0.826126  0.652751  0.012612  1
  Lu  Lu15  1  0.333306  0.666560  0.826400  1
  Ga  Ga16  1  0.164182  0.835953  0.954641  1
  Ga  Ga17  1  0.671231  0.835663  0.954620  1
  Ga  Ga18  1  0.164499  0.328713  0.954479  1
  Ga  Ga19  1  0.836880  0.163143  0.456426  1
  Ga  Ga20  1  0.326338  0.162852  0.456190  1
  Ga  Ga21  1  0.836802  0.673675  0.456048  1
  Fe  Fe22  1  0.333456  0.666412  0.446473  1
  Fe  Fe23  1  0.666666  0.333330  0.948710  1
