# generated using pymatgen
data_YbDyLu2(Al8Pt3)3
_symmetry_space_group_name_H-M   'P 1'
_cell_length_a   7.51862093
_cell_length_b   7.53814905
_cell_length_c   13.17344859
_cell_angle_alpha   84.61345306
_cell_angle_beta   79.12200750
_cell_angle_gamma   59.92963727
_symmetry_Int_Tables_number   1
_chemical_formula_structural   YbDyLu2(Al8Pt3)3
_chemical_formula_sum   'Yb1 Dy1 Lu2 Al24 Pt9'
_cell_volume   634.52660774
_cell_formula_units_Z   1
loop_
 _symmetry_equiv_pos_site_id
 _symmetry_equiv_pos_as_xyz
  1  'x, y, z'
loop_
 _atom_site_type_symbol
 _atom_site_label
 _atom_site_symmetry_multiplicity
 _atom_site_fract_x
 _atom_site_fract_y
 _atom_site_fract_z
 _atom_site_occupancy
  Yb  Yb0  1  0.605908  0.831397  0.192467  1
  Dy  Dy1  1  0.394507  0.168062  0.808372  1
  Lu  Lu2  1  0.733828  0.499215  0.806984  1
  Lu  Lu3  1  0.265703  0.501452  0.193100  1
  Al  Al4  1  0.684755  0.832740  0.944582  1
  Al  Al5  1  0.315551  0.167241  0.056286  1
  Al  Al6  1  0.146808  0.832038  0.561735  1
  Al  Al7  1  0.853158  0.167797  0.438733  1
  Al  Al8  1  0.479724  0.166324  0.559050  1
  Al  Al9  1  0.520215  0.833310  0.440940  1
  Al  Al10  1  0.218192  0.164940  0.328295  1
  Al  Al11  1  0.782164  0.834334  0.671657  1
  Al  Al12  1  0.436733  0.506963  0.671541  1
  Al  Al13  1  0.563294  0.493702  0.328569  1
  Al  Al14  1  0.108839  0.160367  0.670109  1
  Al  Al15  1  0.890650  0.839652  0.329865  1
  Al  Al16  1  0.353987  0.499408  0.944112  1
  Al  Al17  1  0.646188  0.500749  0.055414  1
  Al  Al18  1  0.015187  0.169051  0.952453  1
  Al  Al19  1  0.984943  0.831009  0.047229  1
  Al  Al20  1  0.186411  0.499811  0.441383  1
  Al  Al21  1  0.813170  0.500710  0.559028  1
  Al  Al22  1  0.731796  0.167757  0.183004  1
  Al  Al23  1  0.267413  0.834117  0.816641  1
  Al  Al24  1  0.060681  0.630714  0.815553  1
  Al  Al25  1  0.941337  0.367786  0.183950  1
  Al  Al26  1  0.854686  0.042974  0.816124  1
  Al  Al27  1  0.143887  0.956186  0.183433  1
  Pt  Pt28  1  0.119174  0.491594  0.639114  1
  Pt  Pt29  1  0.880999  0.507693  0.361226  1
  Pt  Pt30  1  0.657588  0.171529  0.999151  1
  Pt  Pt31  1  0.342875  0.828814  0.999717  1
  Pt  Pt32  1  0.537427  0.167781  0.361404  1
  Pt  Pt33  1  0.462600  0.832735  0.638977  1
  Pt  Pt34  1  0.778308  0.175699  0.637664  1
  Pt  Pt35  1  0.220925  0.824658  0.362767  1
  Pt  Pt36  1  0.000387  0.499691  0.999373  1
