# generated using pymatgen
data_KZn2H8Ir
_symmetry_space_group_name_H-M   'P 1'
_cell_length_a   4.86531400
_cell_length_b   4.86531400
_cell_length_c   10.35743000
_cell_angle_alpha   90.00000000
_cell_angle_beta   90.00000000
_cell_angle_gamma   90.00000000
_symmetry_Int_Tables_number   1
_chemical_formula_structural   KZn2H8Ir
_chemical_formula_sum   'K2 Zn4 H16 Ir2'
_cell_volume   245.17362891
_cell_formula_units_Z   2
loop_
 _symmetry_equiv_pos_site_id
 _symmetry_equiv_pos_as_xyz
  1  'x, y, z'
loop_
 _atom_site_type_symbol
 _atom_site_label
 _atom_site_symmetry_multiplicity
 _atom_site_fract_x
 _atom_site_fract_y
 _atom_site_fract_z
 _atom_site_occupancy
  K  K0  1  0.500000  0.000000  0.000000  1
  K  K1  1  0.000000  0.500000  0.500000  1
  Zn  Zn2  1  0.500000  0.000000  0.626595  1
  Zn  Zn3  1  0.000000  0.500000  0.126595  1
  Zn  Zn4  1  0.500000  0.000000  0.373405  1
  Zn  Zn5  1  0.000000  0.500000  0.873405  1
  H  H6  1  0.244760  0.244760  0.750000  1
  H  H7  1  0.755240  0.755240  0.750000  1
  H  H8  1  0.755240  0.244760  0.250000  1
  H  H9  1  0.244760  0.755240  0.250000  1
  H  H10  1  0.755240  0.755240  0.250000  1
  H  H11  1  0.244760  0.244760  0.250000  1
  H  H12  1  0.244760  0.755240  0.750000  1
  H  H13  1  0.755240  0.244760  0.750000  1
  H  H14  1  0.500000  0.249650  0.500000  1
  H  H15  1  0.500000  0.750350  0.500000  1
  H  H16  1  0.750350  0.500000  0.000000  1
  H  H17  1  0.249650  0.500000  0.000000  1
  H  H18  1  0.000000  0.000000  0.589143  1
  H  H19  1  0.000000  0.000000  0.089143  1
  H  H20  1  0.000000  0.000000  0.410857  1
  H  H21  1  0.000000  0.000000  0.910857  1
  Ir  Ir22  1  0.000000  0.000000  0.750000  1
  Ir  Ir23  1  0.000000  0.000000  0.250000  1
