# generated using pymatgen
data_Hf4ZnAsRh10
_symmetry_space_group_name_H-M   'P 1'
_cell_length_a   4.07889300
_cell_length_b   5.55880079
_cell_length_c   10.96260247
_cell_angle_alpha   89.26108841
_cell_angle_beta   90.00000000
_cell_angle_gamma   90.00000000
_symmetry_Int_Tables_number   1
_chemical_formula_structural   Hf4ZnAsRh10
_chemical_formula_sum   'Hf4 Zn1 As1 Rh10'
_cell_volume   248.54267749
_cell_formula_units_Z   1
loop_
 _symmetry_equiv_pos_site_id
 _symmetry_equiv_pos_as_xyz
  1  'x, y, z'
loop_
 _atom_site_type_symbol
 _atom_site_label
 _atom_site_symmetry_multiplicity
 _atom_site_fract_x
 _atom_site_fract_y
 _atom_site_fract_z
 _atom_site_occupancy
  Hf  Hf0  1  0.500000  0.307996  0.365502  1
  Hf  Hf1  1  0.500000  0.692004  0.634498  1
  Hf  Hf2  1  0.500000  0.177273  0.857184  1
  Hf  Hf3  1  0.500000  0.822727  0.142816  1
  Zn  Zn4  1  0.000000  0.000000  0.500000  1
  As  As5  1  0.000000  0.500000  0.000000  1
  Rh  Rh6  1  0.500000  0.314380  0.106084  1
  Rh  Rh7  1  0.500000  0.685620  0.893916  1
  Rh  Rh8  1  0.500000  0.800971  0.386866  1
  Rh  Rh9  1  0.500000  0.199029  0.613134  1
  Rh  Rh10  1  0.000000  0.936353  0.747697  1
  Rh  Rh11  1  0.000000  0.063647  0.252303  1
  Rh  Rh12  1  0.000000  0.438521  0.755382  1
  Rh  Rh13  1  0.000000  0.561479  0.244618  1
  Rh  Rh14  1  0.000000  0.500000  0.500000  1
  Rh  Rh15  1  0.000000  0.000000  0.000000  1
