# generated using pymatgen
data_CsBiSb2Se5
_symmetry_space_group_name_H-M   'P 1'
_cell_length_a   4.14179500
_cell_length_b   12.48330400
_cell_length_c   23.00752400
_cell_angle_alpha   90.00000000
_cell_angle_beta   90.00000000
_cell_angle_gamma   90.00000000
_symmetry_Int_Tables_number   1
_chemical_formula_structural   CsBiSb2Se5
_chemical_formula_sum   'Cs4 Bi4 Sb8 Se20'
_cell_volume   1189.56459561
_cell_formula_units_Z   4
loop_
 _symmetry_equiv_pos_site_id
 _symmetry_equiv_pos_as_xyz
  1  'x, y, z'
loop_
 _atom_site_type_symbol
 _atom_site_label
 _atom_site_symmetry_multiplicity
 _atom_site_fract_x
 _atom_site_fract_y
 _atom_site_fract_z
 _atom_site_occupancy
  Cs  Cs0  1  0.250000  0.490667  0.210252  1
  Cs  Cs1  1  0.750000  0.509333  0.789748  1
  Cs  Cs2  1  0.750000  0.990667  0.289748  1
  Cs  Cs3  1  0.250000  0.009333  0.710252  1
  Bi  Bi4  1  0.250000  0.592011  0.431192  1
  Bi  Bi5  1  0.750000  0.407989  0.568808  1
  Bi  Bi6  1  0.750000  0.092011  0.068808  1
  Bi  Bi7  1  0.250000  0.907989  0.931192  1
  Sb  Sb8  1  0.250000  0.370347  0.025345  1
  Sb  Sb9  1  0.750000  0.629653  0.974655  1
  Sb  Sb10  1  0.750000  0.870347  0.474655  1
  Sb  Sb11  1  0.250000  0.129653  0.525345  1
  Sb  Sb12  1  0.250000  0.809686  0.123931  1
  Sb  Sb13  1  0.750000  0.190314  0.876069  1
  Sb  Sb14  1  0.750000  0.309686  0.376069  1
  Sb  Sb15  1  0.250000  0.690314  0.623931  1
  Se  Se16  1  0.250000  0.810026  0.391962  1
  Se  Se17  1  0.750000  0.189974  0.608038  1
  Se  Se18  1  0.750000  0.310026  0.108038  1
  Se  Se19  1  0.250000  0.689974  0.891962  1
  Se  Se20  1  0.250000  0.254266  0.303770  1
  Se  Se21  1  0.750000  0.745734  0.696230  1
  Se  Se22  1  0.750000  0.754266  0.196230  1
  Se  Se23  1  0.250000  0.245734  0.803770  1
  Se  Se24  1  0.250000  0.361629  0.479208  1
  Se  Se25  1  0.750000  0.638371  0.520792  1
  Se  Se26  1  0.750000  0.861629  0.020792  1
  Se  Se27  1  0.250000  0.138371  0.979208  1
  Se  Se28  1  0.250000  0.019319  0.153766  1
  Se  Se29  1  0.750000  0.980681  0.846234  1
  Se  Se30  1  0.750000  0.519319  0.346234  1
  Se  Se31  1  0.250000  0.480681  0.653766  1
  Se  Se32  1  0.250000  0.579630  0.059970  1
  Se  Se33  1  0.750000  0.420370  0.940030  1
  Se  Se34  1  0.750000  0.079630  0.440030  1
  Se  Se35  1  0.250000  0.920370  0.559970  1
