# generated using pymatgen
data_RbTmBeF6
_symmetry_space_group_name_H-M   'P 1'
_cell_length_a   5.80871000
_cell_length_b   6.51974122
_cell_length_c   7.21996227
_cell_angle_alpha   66.06784974
_cell_angle_beta   90.00000000
_cell_angle_gamma   90.00000000
_symmetry_Int_Tables_number   1
_chemical_formula_structural   RbTmBeF6
_chemical_formula_sum   'Rb2 Tm2 Be2 F12'
_cell_volume   249.92157939
_cell_formula_units_Z   2
loop_
 _symmetry_equiv_pos_site_id
 _symmetry_equiv_pos_as_xyz
  1  'x, y, z'
loop_
 _atom_site_type_symbol
 _atom_site_label
 _atom_site_symmetry_multiplicity
 _atom_site_fract_x
 _atom_site_fract_y
 _atom_site_fract_z
 _atom_site_occupancy
  Rb  Rb0  1  0.250000  0.081569  0.787383  1
  Rb  Rb1  1  0.750000  0.918431  0.212617  1
  Tm  Tm2  1  0.250000  0.393934  0.178507  1
  Tm  Tm3  1  0.750000  0.606066  0.821493  1
  Be  Be4  1  0.250000  0.767401  0.464278  1
  Be  Be5  1  0.750000  0.232599  0.535722  1
  F  F6  1  0.467852  0.753493  0.597554  1
  F  F7  1  0.532148  0.246507  0.402446  1
  F  F8  1  0.967852  0.246507  0.402446  1
  F  F9  1  0.032148  0.753493  0.597554  1
  F  F10  1  0.250000  0.577010  0.387855  1
  F  F11  1  0.750000  0.422990  0.612145  1
  F  F12  1  0.499513  0.674223  0.028114  1
  F  F13  1  0.500487  0.325777  0.971886  1
  F  F14  1  0.999513  0.325777  0.971886  1
  F  F15  1  0.000487  0.674223  0.028114  1
  F  F16  1  0.250000  0.000265  0.274258  1
  F  F17  1  0.750000  0.999735  0.725742  1
