# generated using pymatgen
data_Y4Al18(CoPt)3
_symmetry_space_group_name_H-M   'P 1'
_cell_length_a   7.50776700
_cell_length_b   7.50794828
_cell_length_c   9.36472210
_cell_angle_alpha   89.94101841
_cell_angle_beta   89.93249084
_cell_angle_gamma   119.84220211
_symmetry_Int_Tables_number   1
_chemical_formula_structural   Y4Al18(CoPt)3
_chemical_formula_sum   'Y4 Al18 Co3 Pt3'
_cell_volume   457.87285467
_cell_formula_units_Z   1
loop_
 _symmetry_equiv_pos_site_id
 _symmetry_equiv_pos_as_xyz
  1  'x, y, z'
loop_
 _atom_site_type_symbol
 _atom_site_label
 _atom_site_symmetry_multiplicity
 _atom_site_fract_x
 _atom_site_fract_y
 _atom_site_fract_z
 _atom_site_occupancy
  Y  Y0  1  0.995548  0.667384  0.249339  1
  Y  Y1  1  0.008355  0.335935  0.750560  1
  Y  Y2  1  0.664073  0.991711  0.249462  1
  Y  Y3  1  0.332677  0.004458  0.750634  1
  Al  Al4  1  0.115571  0.116896  0.247688  1
  Al  Al5  1  0.883094  0.884425  0.752312  1
  Al  Al6  1  0.988609  0.325273  0.071919  1
  Al  Al7  1  0.993487  0.667022  0.928228  1
  Al  Al8  1  0.998151  0.675496  0.575245  1
  Al  Al9  1  0.324500  0.001852  0.424740  1
  Al  Al10  1  0.999496  0.323768  0.425250  1
  Al  Al11  1  0.676219  0.000480  0.574751  1
  Al  Al12  1  0.674731  0.011402  0.928083  1
  Al  Al13  1  0.332983  0.006505  0.071777  1
  Al  Al14  1  0.325326  0.324850  0.554110  1
  Al  Al15  1  0.675157  0.674684  0.445897  1
  Al  Al16  1  0.675624  0.669550  0.047759  1
  Al  Al17  1  0.330450  0.324390  0.952238  1
  Al  Al18  1  0.339499  0.539854  0.248909  1
  Al  Al19  1  0.659912  0.449472  0.759233  1
  Al  Al20  1  0.550505  0.340054  0.240794  1
  Al  Al21  1  0.460106  0.660487  0.751049  1
  Co  Co22  1  0.670556  0.329448  0.000040  1
  Co  Co23  1  0.999413  0.000562  0.000012  1
  Co  Co24  1  0.999778  0.000220  0.499999  1
  Pt  Pt25  1  0.327149  0.672844  0.000002  1
  Pt  Pt26  1  0.327374  0.672622  0.499968  1
  Pt  Pt27  1  0.671652  0.328359  0.500005  1
