# generated using pymatgen
data_ErTm4(In2Cu)2
_symmetry_space_group_name_H-M   'P 1'
_cell_length_a   3.62263600
_cell_length_b   7.95063900
_cell_length_c   17.80269400
_cell_angle_alpha   90.00000000
_cell_angle_beta   90.00000000
_cell_angle_gamma   90.00000000
_symmetry_Int_Tables_number   1
_chemical_formula_structural   ErTm4(In2Cu)2
_chemical_formula_sum   'Er2 Tm8 In8 Cu4'
_cell_volume   512.75801826
_cell_formula_units_Z   2
loop_
 _symmetry_equiv_pos_site_id
 _symmetry_equiv_pos_as_xyz
  1  'x, y, z'
loop_
 _atom_site_type_symbol
 _atom_site_label
 _atom_site_symmetry_multiplicity
 _atom_site_fract_x
 _atom_site_fract_y
 _atom_site_fract_z
 _atom_site_occupancy
  Er  Er0  1  0.000000  0.000000  0.000000  1
  Er  Er1  1  0.000000  0.500000  0.500000  1
  Tm  Tm2  1  0.000000  0.118449  0.416438  1
  Tm  Tm3  1  0.000000  0.881551  0.583562  1
  Tm  Tm4  1  0.000000  0.381551  0.916438  1
  Tm  Tm5  1  0.000000  0.618449  0.083562  1
  Tm  Tm6  1  0.000000  0.240516  0.219276  1
  Tm  Tm7  1  0.000000  0.759484  0.780724  1
  Tm  Tm8  1  0.000000  0.259484  0.719276  1
  Tm  Tm9  1  0.000000  0.740516  0.280724  1
  In  In10  1  0.500000  0.421687  0.349440  1
  In  In11  1  0.500000  0.578313  0.650560  1
  In  In12  1  0.500000  0.078313  0.849440  1
  In  In13  1  0.500000  0.921687  0.150560  1
  In  In14  1  0.500000  0.293820  0.068243  1
  In  In15  1  0.500000  0.706180  0.931757  1
  In  In16  1  0.500000  0.206180  0.568243  1
  In  In17  1  0.500000  0.793820  0.431757  1
  Cu  Cu18  1  0.500000  0.026399  0.302591  1
  Cu  Cu19  1  0.500000  0.973601  0.697409  1
  Cu  Cu20  1  0.500000  0.473601  0.802591  1
  Cu  Cu21  1  0.500000  0.526399  0.197409  1
