# generated using pymatgen
data_La10CuBi6P
_symmetry_space_group_name_H-M   'P 1'
_cell_length_a   9.83513300
_cell_length_b   9.83513273
_cell_length_c   6.74313200
_cell_angle_alpha   90.00000000
_cell_angle_beta   90.00000000
_cell_angle_gamma   119.99999756
_symmetry_Int_Tables_number   1
_chemical_formula_structural   La10CuBi6P
_chemical_formula_sum   'La10 Cu1 Bi6 P1'
_cell_volume   564.87553549
_cell_formula_units_Z   1
loop_
 _symmetry_equiv_pos_site_id
 _symmetry_equiv_pos_as_xyz
  1  'x, y, z'
loop_
 _atom_site_type_symbol
 _atom_site_label
 _atom_site_symmetry_multiplicity
 _atom_site_fract_x
 _atom_site_fract_y
 _atom_site_fract_z
 _atom_site_occupancy
  La  La0  1  0.666667  0.333333  0.000000  1
  La  La1  1  0.333333  0.666667  0.000000  1
  La  La2  1  0.333333  0.666667  0.500000  1
  La  La3  1  0.666667  0.333333  0.500000  1
  La  La4  1  0.749811  0.749811  0.756340  1
  La  La5  1  0.250189  0.000000  0.756340  1
  La  La6  1  0.000000  0.250189  0.756340  1
  La  La7  1  0.250189  0.250189  0.243660  1
  La  La8  1  0.749811  0.000000  0.243660  1
  La  La9  1  0.000000  0.749811  0.243660  1
  Cu  Cu10  1  0.000000  0.000000  0.500000  1
  Bi  Bi11  1  0.386467  0.386467  0.747925  1
  Bi  Bi12  1  0.613533  0.000000  0.747925  1
  Bi  Bi13  1  0.000000  0.613533  0.747925  1
  Bi  Bi14  1  0.613533  0.613533  0.252075  1
  Bi  Bi15  1  0.386467  0.000000  0.252075  1
  Bi  Bi16  1  0.000000  0.386467  0.252075  1
  P  P17  1  0.000000  0.000000  0.000000  1
