# generated using pymatgen
data_Ca6ReRuO12
_symmetry_space_group_name_H-M   'P 1'
_cell_length_a   5.86298928
_cell_length_b   5.56810042
_cell_length_c   9.78545661
_cell_angle_alpha   55.27813603
_cell_angle_beta   89.28411286
_cell_angle_gamma   89.96604562
_symmetry_Int_Tables_number   1
_chemical_formula_structural   Ca6ReRuO12
_chemical_formula_sum   'Ca6 Re1 Ru1 O12'
_cell_volume   262.53836912
_cell_formula_units_Z   1
loop_
 _symmetry_equiv_pos_site_id
 _symmetry_equiv_pos_as_xyz
  1  'x, y, z'
loop_
 _atom_site_type_symbol
 _atom_site_label
 _atom_site_symmetry_multiplicity
 _atom_site_fract_x
 _atom_site_fract_y
 _atom_site_fract_z
 _atom_site_occupancy
  Ca  Ca0  1  0.565549  0.244953  0.236403  1
  Ca  Ca1  1  0.054158  0.786235  0.225649  1
  Ca  Ca2  1  0.500000  0.000000  0.000000  1
  Ca  Ca3  1  0.000000  0.000000  0.500000  1
  Ca  Ca4  1  0.945842  0.213765  0.774351  1
  Ca  Ca5  1  0.434451  0.755047  0.763597  1
  Re  Re6  1  0.500000  0.500000  0.500000  1
  Ru  Ru7  1  0.000000  0.500000  0.000000  1
  O  O8  1  0.550902  0.394812  0.720450  1
  O  O9  1  0.055114  0.616932  0.768726  1
  O  O10  1  0.449098  0.605188  0.279550  1
  O  O11  1  0.944886  0.383068  0.231274  1
  O  O12  1  0.773105  0.730927  0.427595  1
  O  O13  1  0.280224  0.257536  0.067702  1
  O  O14  1  0.226895  0.269073  0.572405  1
  O  O15  1  0.719776  0.742464  0.932298  1
  O  O16  1  0.183574  0.838297  0.950088  1
  O  O17  1  0.667895  0.167829  0.551583  1
  O  O18  1  0.816426  0.161703  0.049912  1
  O  O19  1  0.332105  0.832171  0.448417  1
