# generated using pymatgen
data_La3Pr13Mg2(HgIr2)2
_symmetry_space_group_name_H-M   'P 1'
_cell_length_a   10.05375248
_cell_length_b   10.05860084
_cell_length_c   10.08989800
_cell_angle_alpha   59.89702608
_cell_angle_beta   59.88100601
_cell_angle_gamma   60.27379605
_symmetry_Int_Tables_number   1
_chemical_formula_structural   La3Pr13Mg2(HgIr2)2
_chemical_formula_sum   'La3 Pr13 Mg2 Hg2 Ir4'
_cell_volume   721.76280333
_cell_formula_units_Z   1
loop_
 _symmetry_equiv_pos_site_id
 _symmetry_equiv_pos_as_xyz
  1  'x, y, z'
loop_
 _atom_site_type_symbol
 _atom_site_label
 _atom_site_symmetry_multiplicity
 _atom_site_fract_x
 _atom_site_fract_y
 _atom_site_fract_z
 _atom_site_occupancy
  La  La0  1  0.345762  0.346747  0.346030  1
  La  La1  1  0.345762  0.346747  0.961461  1
  La  La2  1  0.348122  0.957373  0.347253  1
  Pr  Pr3  1  0.951543  0.350056  0.349201  1
  Pr  Pr4  1  0.810594  0.188081  0.190699  1
  Pr  Pr5  1  0.188185  0.810018  0.811081  1
  Pr  Pr6  1  0.188185  0.810018  0.190716  1
  Pr  Pr7  1  0.810594  0.188081  0.810626  1
  Pr  Pr8  1  0.188098  0.187628  0.812137  1
  Pr  Pr9  1  0.806005  0.804951  0.194522  1
  Pr  Pr10  1  0.938220  0.560129  0.562440  1
  Pr  Pr11  1  0.560661  0.937742  0.938661  1
  Pr  Pr12  1  0.560661  0.937742  0.562937  1
  Pr  Pr13  1  0.938220  0.560129  0.939211  1
  Pr  Pr14  1  0.561299  0.561137  0.938782  1
  Pr  Pr15  1  0.937919  0.938077  0.562002  1
  Mg  Mg16  1  0.579789  0.273774  0.573219  1
  Mg  Mg17  1  0.273405  0.579006  0.573795  1
  Hg  Hg18  1  0.582188  0.580993  0.587657  1
  Hg  Hg19  1  0.582188  0.580993  0.249163  1
  Ir  Ir20  1  0.143096  0.142032  0.140930  1
  Ir  Ir21  1  0.143096  0.142032  0.573942  1
  Ir  Ir22  1  0.142840  0.574098  0.141531  1
  Ir  Ir23  1  0.573572  0.142418  0.142005  1
