# generated using pymatgen
data_CsRb3Cl16
_symmetry_space_group_name_H-M   'P 1'
_cell_length_a   7.63284635
_cell_length_b   9.22866077
_cell_length_c   10.72742347
_cell_angle_alpha   66.97521917
_cell_angle_beta   87.49834517
_cell_angle_gamma   90.09112998
_symmetry_Int_Tables_number   1
_chemical_formula_structural   CsRb3Cl16
_chemical_formula_sum   'Cs1 Rb3 Cl16'
_cell_volume   694.64570348
_cell_formula_units_Z   1
loop_
 _symmetry_equiv_pos_site_id
 _symmetry_equiv_pos_as_xyz
  1  'x, y, z'
loop_
 _atom_site_type_symbol
 _atom_site_label
 _atom_site_symmetry_multiplicity
 _atom_site_fract_x
 _atom_site_fract_y
 _atom_site_fract_z
 _atom_site_occupancy
  Cs  Cs0  1  0.649419  0.782375  0.704832  1
  Rb  Rb1  1  0.140321  0.268119  0.814700  1
  Rb  Rb2  1  0.375184  0.258018  0.284982  1
  Rb  Rb3  1  0.862371  0.726147  0.215130  1
  Cl  Cl4  1  0.371014  0.532335  0.515161  1
  Cl  Cl5  1  0.887740  0.466951  0.985469  1
  Cl  Cl6  1  0.615354  0.447608  0.480696  1
  Cl  Cl7  1  0.135573  0.546099  0.014219  1
  Cl  Cl8  1  0.053311  0.644029  0.565495  1
  Cl  Cl9  1  0.535418  0.338503  0.933358  1
  Cl  Cl10  1  0.962922  0.341185  0.405002  1
  Cl  Cl11  1  0.445759  0.652141  0.062160  1
  Cl  Cl12  1  0.180606  0.859300  0.600772  1
  Cl  Cl13  1  0.703837  0.142035  0.908788  1
  Cl  Cl14  1  0.806075  0.143324  0.374241  1
  Cl  Cl15  1  0.296252  0.854287  0.113355  1
  Cl  Cl16  1  0.310873  0.061774  0.630076  1
  Cl  Cl17  1  0.882007  0.951905  0.885180  1
  Cl  Cl18  1  0.640626  0.949665  0.347437  1
  Cl  Cl19  1  0.145338  0.034198  0.158947  1
