# generated using pymatgen
data_Yb2Er3Ir2
_symmetry_space_group_name_H-M   'P 1'
_cell_length_a   6.49054486
_cell_length_b   7.26370876
_cell_length_c   8.44739237
_cell_angle_alpha   97.21581694
_cell_angle_beta   112.59250205
_cell_angle_gamma   90.00000136
_symmetry_Int_Tables_number   1
_chemical_formula_structural   Yb2Er3Ir2
_chemical_formula_sum   'Yb4 Er6 Ir4'
_cell_volume   364.27527074
_cell_formula_units_Z   2
loop_
 _symmetry_equiv_pos_site_id
 _symmetry_equiv_pos_as_xyz
  1  'x, y, z'
loop_
 _atom_site_type_symbol
 _atom_site_label
 _atom_site_symmetry_multiplicity
 _atom_site_fract_x
 _atom_site_fract_y
 _atom_site_fract_z
 _atom_site_occupancy
  Yb  Yb0  1  0.974265  0.920767  0.183088  1
  Yb  Yb1  1  0.791177  0.579233  0.816912  1
  Yb  Yb2  1  0.025735  0.079233  0.816912  1
  Yb  Yb3  1  0.208823  0.420767  0.183088  1
  Er  Er4  1  0.647280  0.818697  0.439772  1
  Er  Er5  1  0.207508  0.681303  0.560228  1
  Er  Er6  1  0.352720  0.181303  0.560228  1
  Er  Er7  1  0.792492  0.318697  0.439772  1
  Er  Er8  1  0.431477  0.750000  0.000000  1
  Er  Er9  1  0.568523  0.250000  0.000000  1
  Ir  Ir10  1  0.813039  0.573490  0.228056  1
  Ir  Ir11  1  0.584983  0.926510  0.771944  1
  Ir  Ir12  1  0.186962  0.426510  0.771944  1
  Ir  Ir13  1  0.415017  0.073490  0.228056  1
