# generated using pymatgen
data_Hf2Al8Fe9
_symmetry_space_group_name_H-M   'P 1'
_cell_length_a   6.44357681
_cell_length_b   6.44520471
_cell_length_c   6.44743720
_cell_angle_alpha   83.58756382
_cell_angle_beta   96.47109251
_cell_angle_gamma   96.46673991
_symmetry_Int_Tables_number   1
_chemical_formula_structural   Hf2Al8Fe9
_chemical_formula_sum   'Hf2 Al8 Fe9'
_cell_volume   263.03222832
_cell_formula_units_Z   1
loop_
 _symmetry_equiv_pos_site_id
 _symmetry_equiv_pos_as_xyz
  1  'x, y, z'
loop_
 _atom_site_type_symbol
 _atom_site_label
 _atom_site_symmetry_multiplicity
 _atom_site_fract_x
 _atom_site_fract_y
 _atom_site_fract_z
 _atom_site_occupancy
  Hf  Hf0  1  0.629134  0.370881  0.370870  1
  Hf  Hf1  1  0.370866  0.629120  0.629130  1
  Al  Al2  1  0.319725  0.319634  0.999997  1
  Al  Al3  1  0.680275  0.680366  0.000003  1
  Al  Al4  1  0.873791  0.126195  0.126208  1
  Al  Al5  1  0.319702  0.999995  0.319643  1
  Al  Al6  1  0.000005  0.680260  0.319771  1
  Al  Al7  1  0.680298  0.000005  0.680356  1
  Al  Al8  1  0.999995  0.319741  0.680230  1
  Al  Al9  1  0.126209  0.873805  0.873791  1
  Fe  Fe10  1  0.499999  0.000000  0.000000  1
  Fe  Fe11  1  0.000000  0.499999  0.000000  1
  Fe  Fe12  1  0.340359  0.659513  0.169638  1
  Fe  Fe13  1  0.169566  0.340414  0.340363  1
  Fe  Fe14  1  0.659621  0.830305  0.340471  1
  Fe  Fe15  1  0.000000  0.000000  0.499999  1
  Fe  Fe16  1  0.340379  0.169694  0.659529  1
  Fe  Fe17  1  0.830435  0.659584  0.659637  1
  Fe  Fe18  1  0.659643  0.340487  0.830363  1
