# generated using pymatgen
data_CaSm(SiRh2)2
_symmetry_space_group_name_H-M   'P 1'
_cell_length_a   5.64467000
_cell_length_b   5.64467033
_cell_length_c   14.97814100
_cell_angle_alpha   90.00000000
_cell_angle_beta   90.00000000
_cell_angle_gamma   119.99999805
_symmetry_Int_Tables_number   1
_chemical_formula_structural   CaSm(SiRh2)2
_chemical_formula_sum   'Ca3 Sm3 Si6 Rh12'
_cell_volume   413.30027549
_cell_formula_units_Z   3
loop_
 _symmetry_equiv_pos_site_id
 _symmetry_equiv_pos_as_xyz
  1  'x, y, z'
loop_
 _atom_site_type_symbol
 _atom_site_label
 _atom_site_symmetry_multiplicity
 _atom_site_fract_x
 _atom_site_fract_y
 _atom_site_fract_z
 _atom_site_occupancy
  Ca  Ca0  1  0.333333  0.666667  0.249385  1
  Ca  Ca1  1  0.666667  0.333334  0.753778  1
  Ca  Ca2  1  0.666667  0.333334  0.958723  1
  Sm  Sm3  1  0.333333  0.666667  0.038589  1
  Sm  Sm4  1  0.333333  0.666667  0.458487  1
  Sm  Sm5  1  0.666667  0.333334  0.542915  1
  Si  Si6  1  0.000000  0.000000  0.999573  1
  Si  Si7  1  0.000000  0.000000  0.249669  1
  Si  Si8  1  0.666667  0.333334  0.249971  1
  Si  Si9  1  0.000000  0.000000  0.499810  1
  Si  Si10  1  0.000000  0.000000  0.749820  1
  Si  Si11  1  0.333333  0.666667  0.749970  1
  Rh  Rh12  1  0.331996  0.165998  0.131918  1
  Rh  Rh13  1  0.834002  0.165998  0.131918  1
  Rh  Rh14  1  0.834002  0.668004  0.131918  1
  Rh  Rh15  1  0.332519  0.166260  0.368465  1
  Rh  Rh16  1  0.833740  0.166260  0.368465  1
  Rh  Rh17  1  0.833740  0.667481  0.368465  1
  Rh  Rh18  1  0.166236  0.332473  0.631519  1
  Rh  Rh19  1  0.166236  0.833764  0.631519  1
  Rh  Rh20  1  0.667528  0.833764  0.631519  1
  Rh  Rh21  1  0.165879  0.331759  0.867868  1
  Rh  Rh22  1  0.165879  0.834121  0.867868  1
  Rh  Rh23  1  0.668242  0.834121  0.867868  1
