# generated using pymatgen
data_TmHfSbRh5
_symmetry_space_group_name_H-M   'P 1'
_cell_length_a   4.19060800
_cell_length_b   5.68670021
_cell_length_c   11.16377236
_cell_angle_alpha   89.92543545
_cell_angle_beta   90.00000000
_cell_angle_gamma   90.00000000
_symmetry_Int_Tables_number   1
_chemical_formula_structural   TmHfSbRh5
_chemical_formula_sum   'Tm2 Hf2 Sb2 Rh10'
_cell_volume   266.04063496
_cell_formula_units_Z   2
loop_
 _symmetry_equiv_pos_site_id
 _symmetry_equiv_pos_as_xyz
  1  'x, y, z'
loop_
 _atom_site_type_symbol
 _atom_site_label
 _atom_site_symmetry_multiplicity
 _atom_site_fract_x
 _atom_site_fract_y
 _atom_site_fract_z
 _atom_site_occupancy
  Tm  Tm0  1  0.500000  0.176821  0.642286  1
  Tm  Tm1  1  0.500000  0.823179  0.357714  1
  Hf  Hf2  1  0.500000  0.673382  0.856596  1
  Hf  Hf3  1  0.500000  0.326618  0.143404  1
  Sb  Sb4  1  0.000000  0.500000  0.500000  1
  Sb  Sb5  1  0.000000  0.000000  0.000000  1
  Rh  Rh6  1  0.500000  0.199348  0.894984  1
  Rh  Rh7  1  0.500000  0.800652  0.105016  1
  Rh  Rh8  1  0.500000  0.690883  0.616370  1
  Rh  Rh9  1  0.500000  0.309117  0.383630  1
  Rh  Rh10  1  0.000000  0.438394  0.751593  1
  Rh  Rh11  1  0.000000  0.561606  0.248407  1
  Rh  Rh12  1  0.000000  0.000000  0.500000  1
  Rh  Rh13  1  0.000000  0.500000  0.000000  1
  Rh  Rh14  1  0.000000  0.070753  0.240567  1
  Rh  Rh15  1  0.000000  0.929247  0.759433  1
