# generated using pymatgen
data_HfZr2NbAs2
_symmetry_space_group_name_H-M   'P 1'
_cell_length_a   7.13009100
_cell_length_b   3.67107100
_cell_length_c   8.74562900
_cell_angle_alpha   90.00000000
_cell_angle_beta   90.00000000
_cell_angle_gamma   90.00000000
_symmetry_Int_Tables_number   1
_chemical_formula_structural   HfZr2NbAs2
_chemical_formula_sum   'Hf2 Zr4 Nb2 As4'
_cell_volume   228.91745387
_cell_formula_units_Z   2
loop_
 _symmetry_equiv_pos_site_id
 _symmetry_equiv_pos_as_xyz
  1  'x, y, z'
loop_
 _atom_site_type_symbol
 _atom_site_label
 _atom_site_symmetry_multiplicity
 _atom_site_fract_x
 _atom_site_fract_y
 _atom_site_fract_z
 _atom_site_occupancy
  Hf  Hf0  1  0.633339  0.749999  0.060241  1
  Hf  Hf1  1  0.133339  0.749999  0.439759  1
  Zr  Zr2  1  0.962725  0.250000  0.168001  1
  Zr  Zr3  1  0.462724  0.250000  0.331999  1
  Zr  Zr4  1  0.543893  0.749999  0.666950  1
  Zr  Zr5  1  0.043893  0.749999  0.833051  1
  Nb  Nb6  1  0.860892  0.250000  0.561319  1
  Nb  Nb7  1  0.360892  0.250000  0.938682  1
  As  As8  1  0.253999  0.749999  0.139335  1
  As  As9  1  0.753999  0.749999  0.360665  1
  As  As10  1  0.245152  0.250000  0.644642  1
  As  As11  1  0.745152  0.250000  0.855358  1
