# generated using pymatgen
data_Eu2Th(BO3)3
_symmetry_space_group_name_H-M   'P 1'
_cell_length_a   6.74466900
_cell_length_b   6.74466895
_cell_length_c   9.13497200
_cell_angle_alpha   90.00000000
_cell_angle_beta   90.00000000
_cell_angle_gamma   119.84766808
_symmetry_Int_Tables_number   1
_chemical_formula_structural   Eu2Th(BO3)3
_chemical_formula_sum   'Eu4 Th2 B6 O18'
_cell_volume   360.43232042
_cell_formula_units_Z   2
loop_
 _symmetry_equiv_pos_site_id
 _symmetry_equiv_pos_as_xyz
  1  'x, y, z'
loop_
 _atom_site_type_symbol
 _atom_site_label
 _atom_site_symmetry_multiplicity
 _atom_site_fract_x
 _atom_site_fract_y
 _atom_site_fract_z
 _atom_site_occupancy
  Eu  Eu0  1  0.828913  0.171087  0.000000  1
  Eu  Eu1  1  0.828913  0.171087  0.500000  1
  Eu  Eu2  1  0.500655  0.499345  0.000000  1
  Eu  Eu3  1  0.500655  0.499345  0.500000  1
  Th  Th4  1  0.170992  0.829008  0.500000  1
  Th  Th5  1  0.170992  0.829008  0.000000  1
  B  B6  1  0.832579  0.599432  0.250000  1
  B  B7  1  0.400568  0.167421  0.750000  1
  B  B8  1  0.927724  0.930189  0.750000  1
  B  B9  1  0.069811  0.072276  0.250000  1
  B  B10  1  0.600501  0.836008  0.250000  1
  B  B11  1  0.163992  0.399499  0.750000  1
  O  O12  1  0.834068  0.045324  0.250000  1
  O  O13  1  0.954676  0.165932  0.750000  1
  O  O14  1  0.842952  0.497183  0.388063  1
  O  O15  1  0.842952  0.497183  0.111937  1
  O  O16  1  0.502817  0.157048  0.888063  1
  O  O17  1  0.502817  0.157048  0.611937  1
  O  O18  1  0.828411  0.818643  0.611044  1
  O  O19  1  0.374242  0.375581  0.750000  1
  O  O20  1  0.828411  0.818643  0.888956  1
  O  O21  1  0.181357  0.171589  0.111044  1
  O  O22  1  0.181357  0.171589  0.388956  1
  O  O23  1  0.624419  0.625758  0.250000  1
  O  O24  1  0.481122  0.834984  0.114769  1
  O  O25  1  0.165016  0.518878  0.614769  1
  O  O26  1  0.481122  0.834984  0.385231  1
  O  O27  1  0.165016  0.518878  0.885231  1
  O  O28  1  0.047156  0.834206  0.250000  1
  O  O29  1  0.165794  0.952844  0.750000  1
