# generated using pymatgen
data_Y11Tm(C2I11)2
_symmetry_space_group_name_H-M   'P 1'
_cell_length_a   9.51612736
_cell_length_b   10.79993382
_cell_length_c   15.06377207
_cell_angle_alpha   89.58690014
_cell_angle_beta   104.26047433
_cell_angle_gamma   109.77959394
_symmetry_Int_Tables_number   1
_chemical_formula_structural   Y11Tm(C2I11)2
_chemical_formula_sum   'Y11 Tm1 C4 I22'
_cell_volume   1406.99721039
_cell_formula_units_Z   1
loop_
 _symmetry_equiv_pos_site_id
 _symmetry_equiv_pos_as_xyz
  1  'x, y, z'
loop_
 _atom_site_type_symbol
 _atom_site_label
 _atom_site_symmetry_multiplicity
 _atom_site_fract_x
 _atom_site_fract_y
 _atom_site_fract_z
 _atom_site_occupancy
  Y  Y0  1  0.386617  0.479667  0.121126  1
  Y  Y1  1  0.613374  0.519771  0.879082  1
  Y  Y2  1  0.424409  0.781815  0.266593  1
  Y  Y3  1  0.574723  0.217928  0.733194  1
  Y  Y4  1  0.627745  0.581748  0.362965  1
  Y  Y5  1  0.373733  0.419502  0.637941  1
  Y  Y6  1  0.834266  0.648900  0.200983  1
  Y  Y7  1  0.165439  0.350477  0.798868  1
  Y  Y8  1  0.629618  0.844501  0.102561  1
  Y  Y9  1  0.370409  0.155131  0.897302  1
  Y  Y10  1  0.860762  0.946480  0.347551  1
  Tm  Tm11  1  0.141449  0.056166  0.653845  1
  C  C12  1  0.429949  0.342914  0.796405  1
  C  C13  1  0.569816  0.656714  0.203696  1
  C  C14  1  0.314843  0.231405  0.740015  1
  C  C15  1  0.684919  0.768303  0.259913  1
  I  I16  1  0.386486  0.310561  0.277063  1
  I  I17  1  0.614433  0.690455  0.723859  1
  I  I18  1  0.121386  0.558768  0.150911  1
  I  I19  1  0.878245  0.440146  0.848512  1
  I  I20  1  0.629260  0.375422  0.064053  1
  I  I21  1  0.370528  0.624136  0.936097  1
  I  I22  1  0.118620  0.206599  0.481385  1
  I  I23  1  0.882787  0.793814  0.521797  1
  I  I24  1  0.614275  0.034803  0.389899  1
  I  I25  1  0.380642  0.965551  0.609848  1
  I  I26  1  0.130656  0.869831  0.305606  1
  I  I27  1  0.871291  0.128628  0.692715  1
  I  I28  1  0.128623  0.530318  0.650215  1
  I  I29  1  0.871892  0.469951  0.350107  1
  I  I30  1  0.618467  0.368885  0.562870  1
  I  I31  1  0.381901  0.631081  0.437453  1
  I  I32  1  0.140225  0.221890  0.981450  1
  I  I33  1  0.859470  0.777394  0.018304  1
  I  I34  1  0.627093  0.051431  0.898401  1
  I  I35  1  0.372416  0.947961  0.100328  1
  I  I36  1  0.125335  0.891832  0.815203  1
  I  I37  1  0.873899  0.109122  0.181883  1
