# generated using pymatgen
data_Er8Zr12Si15As
_symmetry_space_group_name_H-M   'P 1'
_cell_length_a   7.32060996
_cell_length_b   7.31052890
_cell_length_c   13.45273133
_cell_angle_alpha   89.95324361
_cell_angle_beta   89.76903930
_cell_angle_gamma   89.93827387
_symmetry_Int_Tables_number   1
_chemical_formula_structural   Er8Zr12Si15As
_chemical_formula_sum   'Er8 Zr12 Si15 As1'
_cell_volume   719.95045793
_cell_formula_units_Z   1
loop_
 _symmetry_equiv_pos_site_id
 _symmetry_equiv_pos_as_xyz
  1  'x, y, z'
loop_
 _atom_site_type_symbol
 _atom_site_label
 _atom_site_symmetry_multiplicity
 _atom_site_fract_x
 _atom_site_fract_y
 _atom_site_fract_z
 _atom_site_occupancy
  Er  Er0  1  0.346279  0.002380  0.463327  1
  Er  Er1  1  0.497325  0.846667  0.714976  1
  Er  Er2  1  0.502668  0.153479  0.213861  1
  Er  Er3  1  0.845116  0.496132  0.285726  1
  Er  Er4  1  0.153594  0.503377  0.786074  1
  Er  Er5  1  0.656484  0.994485  0.965251  1
  Er  Er6  1  0.998854  0.348813  0.534233  1
  Er  Er7  1  0.997975  0.654463  0.035912  1
  Zr  Zr8  1  0.325190  0.325222  0.999854  1
  Zr  Zr9  1  0.174558  0.824892  0.249901  1
  Zr  Zr10  1  0.823167  0.175007  0.750118  1
  Zr  Zr11  1  0.673521  0.674275  0.500029  1
  Zr  Zr12  1  0.150532  0.004810  0.873639  1
  Zr  Zr13  1  0.496876  0.647237  0.124496  1
  Zr  Zr14  1  0.503617  0.352438  0.626336  1
  Zr  Zr15  1  0.650255  0.499215  0.876451  1
  Zr  Zr16  1  0.351259  0.502653  0.375333  1
  Zr  Zr17  1  0.851211  0.997185  0.374544  1
  Zr  Zr18  1  0.003084  0.146799  0.125297  1
  Zr  Zr19  1  0.994115  0.849192  0.624186  1
  Si  Si20  1  0.359606  0.706581  0.932555  1
  Si  Si21  1  0.638664  0.294464  0.433720  1
  Si  Si22  1  0.707099  0.360019  0.067902  1
  Si  Si23  1  0.293824  0.640177  0.567434  1
  Si  Si24  1  0.793378  0.859592  0.183107  1
  Si  Si25  1  0.139951  0.205700  0.317287  1
  Si  Si26  1  0.861584  0.795182  0.816755  1
  Si  Si27  1  0.296657  0.949831  0.062407  1
  Si  Si28  1  0.549412  0.795722  0.312791  1
  Si  Si29  1  0.460587  0.204597  0.818695  1
  Si  Si30  1  0.796237  0.549538  0.687043  1
  Si  Si31  1  0.203390  0.449667  0.187288  1
  Si  Si32  1  0.702136  0.049525  0.562803  1
  Si  Si33  1  0.951779  0.296670  0.936984  1
  Si  Si34  1  0.049233  0.704189  0.436434  1
  As  As35  1  0.200780  0.139826  0.677251  1
