# generated using pymatgen
data_Sr6TbDySb6
_symmetry_space_group_name_H-M   'P 1'
_cell_length_a   8.47637140
_cell_length_b   8.59836095
_cell_length_c   8.47609406
_cell_angle_alpha   109.70539947
_cell_angle_beta   108.96258300
_cell_angle_gamma   109.69768765
_symmetry_Int_Tables_number   1
_chemical_formula_structural   Sr6TbDySb6
_chemical_formula_sum   'Sr6 Tb1 Dy1 Sb6'
_cell_volume   475.81535849
_cell_formula_units_Z   1
loop_
 _symmetry_equiv_pos_site_id
 _symmetry_equiv_pos_as_xyz
  1  'x, y, z'
loop_
 _atom_site_type_symbol
 _atom_site_label
 _atom_site_symmetry_multiplicity
 _atom_site_fract_x
 _atom_site_fract_y
 _atom_site_fract_z
 _atom_site_occupancy
  Sr  Sr0  1  0.503948  0.004155  0.140394  1
  Sr  Sr1  1  0.640388  0.504109  0.003914  1
  Sr  Sr2  1  0.997517  0.640650  0.500257  1
  Sr  Sr3  1  0.857675  0.855350  0.859041  1
  Sr  Sr4  1  0.000234  0.140597  0.497460  1
  Sr  Sr5  1  0.359105  0.355352  0.357758  1
  Tb  Tb6  1  0.138304  0.501898  0.001673  1
  Dy  Dy7  1  0.501689  0.001890  0.638152  1
  Sb  Sb8  1  0.606034  0.752951  0.376657  1
  Sb  Sb9  1  0.755509  0.365359  0.639186  1
  Sb  Sb10  1  0.252657  0.129647  0.871095  1
  Sb  Sb11  1  0.371150  0.629724  0.752543  1
  Sb  Sb12  1  0.139426  0.865651  0.255913  1
  Sb  Sb13  1  0.876364  0.252670  0.105959  1
