# generated using pymatgen
data_K3TlS3
_symmetry_space_group_name_H-M   'P 1'
_cell_length_a   7.84383600
_cell_length_b   8.08973896
_cell_length_c   16.42785469
_cell_angle_alpha   61.72178332
_cell_angle_beta   90.00000000
_cell_angle_gamma   90.00000000
_symmetry_Int_Tables_number   1
_chemical_formula_structural   K3TlS3
_chemical_formula_sum   'K12 Tl4 S12'
_cell_volume   918.01741601
_cell_formula_units_Z   4
loop_
 _symmetry_equiv_pos_site_id
 _symmetry_equiv_pos_as_xyz
  1  'x, y, z'
loop_
 _atom_site_type_symbol
 _atom_site_label
 _atom_site_symmetry_multiplicity
 _atom_site_fract_x
 _atom_site_fract_y
 _atom_site_fract_z
 _atom_site_occupancy
  K  K0  1  0.047132  0.926439  0.293959  1
  K  K1  1  0.547132  0.073561  0.206041  1
  K  K2  1  0.952868  0.073561  0.706041  1
  K  K3  1  0.452868  0.926439  0.793959  1
  K  K4  1  0.991631  0.724206  0.109382  1
  K  K5  1  0.491631  0.275794  0.390618  1
  K  K6  1  0.008369  0.275794  0.890618  1
  K  K7  1  0.508369  0.724206  0.609382  1
  K  K8  1  0.990988  0.306245  0.401307  1
  K  K9  1  0.490988  0.693755  0.098693  1
  K  K10  1  0.009012  0.693755  0.598693  1
  K  K11  1  0.509012  0.306245  0.901307  1
  Tl  Tl12  1  0.646727  0.670778  0.415340  1
  Tl  Tl13  1  0.146727  0.329222  0.084660  1
  Tl  Tl14  1  0.353273  0.329222  0.584660  1
  Tl  Tl15  1  0.853273  0.670778  0.915340  1
  S  S16  1  0.808734  0.356977  0.066240  1
  S  S17  1  0.308734  0.643023  0.433760  1
  S  S18  1  0.191266  0.643023  0.933760  1
  S  S19  1  0.691266  0.356977  0.566240  1
  S  S20  1  0.243181  0.342118  0.227931  1
  S  S21  1  0.743181  0.657882  0.272069  1
  S  S22  1  0.756819  0.657882  0.772069  1
  S  S23  1  0.256819  0.342118  0.727931  1
  S  S24  1  0.758479  0.952659  0.425382  1
  S  S25  1  0.258479  0.047341  0.074618  1
  S  S26  1  0.241521  0.047341  0.574618  1
  S  S27  1  0.741521  0.952659  0.925382  1
