# generated using pymatgen
data_Tb5Re2C7
_symmetry_space_group_name_H-M   'P 1'
_cell_length_a   8.38805811
_cell_length_b   8.38805769
_cell_length_c   3.44085900
_cell_angle_alpha   90.00000000
_cell_angle_beta   90.00000000
_cell_angle_gamma   123.09927807
_symmetry_Int_Tables_number   1
_chemical_formula_structural   Tb5Re2C7
_chemical_formula_sum   'Tb5 Re2 C7'
_cell_volume   202.81099773
_cell_formula_units_Z   1
loop_
 _symmetry_equiv_pos_site_id
 _symmetry_equiv_pos_as_xyz
  1  'x, y, z'
loop_
 _atom_site_type_symbol
 _atom_site_label
 _atom_site_symmetry_multiplicity
 _atom_site_fract_x
 _atom_site_fract_y
 _atom_site_fract_z
 _atom_site_occupancy
  Tb  Tb0  1  0.500000  0.500000  0.000000  1
  Tb  Tb1  1  0.074486  0.333746  0.500000  1
  Tb  Tb2  1  0.925514  0.666254  0.500000  1
  Tb  Tb3  1  0.666254  0.925514  0.500000  1
  Tb  Tb4  1  0.333746  0.074486  0.500000  1
  Re  Re5  1  0.714284  0.285716  0.000000  1
  Re  Re6  1  0.285716  0.714284  0.000000  1
  C  C7  1  0.628006  0.371994  0.500000  1
  C  C8  1  0.371994  0.628006  0.500000  1
  C  C9  1  0.000000  0.000000  0.000000  1
  C  C10  1  0.169615  0.169615  0.000000  1
  C  C11  1  0.830385  0.830385  0.000000  1
  C  C12  1  0.000000  0.500000  0.000000  1
  C  C13  1  0.500000  0.000000  0.000000  1
