# generated using pymatgen
data_Lu4TaOs7
_symmetry_space_group_name_H-M   'P 1'
_cell_length_a   5.37540100
_cell_length_b   5.26225519
_cell_length_c   8.91891900
_cell_angle_alpha   90.00000000
_cell_angle_beta   90.00000000
_cell_angle_gamma   120.71383980
_symmetry_Int_Tables_number   1
_chemical_formula_structural   Lu4TaOs7
_chemical_formula_sum   'Lu4 Ta1 Os7'
_cell_volume   216.89849142
_cell_formula_units_Z   1
loop_
 _symmetry_equiv_pos_site_id
 _symmetry_equiv_pos_as_xyz
  1  'x, y, z'
loop_
 _atom_site_type_symbol
 _atom_site_label
 _atom_site_symmetry_multiplicity
 _atom_site_fract_x
 _atom_site_fract_y
 _atom_site_fract_z
 _atom_site_occupancy
  Lu  Lu0  1  0.332944  0.665890  0.431307  1
  Lu  Lu1  1  0.669434  0.338867  0.560362  1
  Lu  Lu2  1  0.669434  0.338867  0.939638  1
  Lu  Lu3  1  0.332944  0.665890  0.068693  1
  Ta  Ta4  1  0.163852  0.327704  0.750000  1
  Os  Os5  1  0.175868  0.827743  0.750000  1
  Os  Os6  1  0.348013  0.171974  0.250000  1
  Os  Os7  1  0.830289  0.660578  0.250000  1
  Os  Os8  1  0.651874  0.827743  0.750000  1
  Os  Os9  1  0.000693  0.001386  0.003711  1
  Os  Os10  1  0.823962  0.171974  0.250000  1
  Os  Os11  1  0.000693  0.001386  0.496289  1
