# generated using pymatgen
data_Gd3In3AgPt2
_symmetry_space_group_name_H-M   'P 1'
_cell_length_a   7.98133200
_cell_length_b   7.98062681
_cell_length_c   3.87150000
_cell_angle_alpha   90.00000000
_cell_angle_beta   90.00000000
_cell_angle_gamma   119.99707862
_symmetry_Int_Tables_number   1
_chemical_formula_structural   Gd3In3AgPt2
_chemical_formula_sum   'Gd3 In3 Ag1 Pt2'
_cell_volume   213.56744811
_cell_formula_units_Z   1
loop_
 _symmetry_equiv_pos_site_id
 _symmetry_equiv_pos_as_xyz
  1  'x, y, z'
loop_
 _atom_site_type_symbol
 _atom_site_label
 _atom_site_symmetry_multiplicity
 _atom_site_fract_x
 _atom_site_fract_y
 _atom_site_fract_z
 _atom_site_occupancy
  Gd  Gd0  1  0.587948  0.000024  0.500000  1
  Gd  Gd1  1  0.412052  0.412075  0.500000  1
  Gd  Gd2  1  0.000000  0.588026  0.500000  1
  In  In3  1  0.732269  0.732211  0.000000  1
  In  In4  1  0.000000  0.267767  0.000000  1
  In  In5  1  0.267731  0.999942  0.000000  1
  Ag  Ag6  1  0.000000  0.999975  0.500000  1
  Pt  Pt7  1  0.333336  0.666658  0.000000  1
  Pt  Pt8  1  0.666664  0.333321  0.000000  1
