# generated using pymatgen
data_PrCd(CuPt)2
_symmetry_space_group_name_H-M   'P 1'
_cell_length_a   5.18508919
_cell_length_b   5.30886356
_cell_length_c   5.30886234
_cell_angle_alpha   63.24330464
_cell_angle_beta   60.76828680
_cell_angle_gamma   60.76830027
_symmetry_Int_Tables_number   1
_chemical_formula_structural   PrCd(CuPt)2
_chemical_formula_sum   'Pr1 Cd1 Cu2 Pt2'
_cell_volume   106.89854025
_cell_formula_units_Z   1
loop_
 _symmetry_equiv_pos_site_id
 _symmetry_equiv_pos_as_xyz
  1  'x, y, z'
loop_
 _atom_site_type_symbol
 _atom_site_label
 _atom_site_symmetry_multiplicity
 _atom_site_fract_x
 _atom_site_fract_y
 _atom_site_fract_z
 _atom_site_occupancy
  Pr  Pr0  1  0.252942  0.247058  0.247058  1
  Cd  Cd1  1  0.008676  0.991324  0.991324  1
  Cu  Cu2  1  0.121458  0.629082  0.629082  1
  Cu  Cu3  1  0.620376  0.629082  0.629082  1
  Pt  Pt4  1  0.623274  0.628575  0.124879  1
  Pt  Pt5  1  0.623274  0.124879  0.628575  1
