# generated using pymatgen
data_YbGeAsRu2
_symmetry_space_group_name_H-M   'P 1'
_cell_length_a   5.84828822
_cell_length_b   5.84828804
_cell_length_c   5.84828922
_cell_angle_alpha   137.44580457
_cell_angle_beta   137.44580265
_cell_angle_gamma   61.75284028
_symmetry_Int_Tables_number   1
_chemical_formula_structural   YbGeAsRu2
_chemical_formula_sum   'Yb1 Ge1 As1 Ru2'
_cell_volume   90.42668123
_cell_formula_units_Z   1
loop_
 _symmetry_equiv_pos_site_id
 _symmetry_equiv_pos_as_xyz
  1  'x, y, z'
loop_
 _atom_site_type_symbol
 _atom_site_label
 _atom_site_symmetry_multiplicity
 _atom_site_fract_x
 _atom_site_fract_y
 _atom_site_fract_z
 _atom_site_occupancy
  Yb  Yb0  1  0.999725  0.999725  0.000000  1
  Ge  Ge1  1  0.369807  0.369807  0.000000  1
  As  As2  1  0.632273  0.632273  0.000000  1
  Ru  Ru3  1  0.249097  0.749097  0.500000  1
  Ru  Ru4  1  0.749097  0.249097  0.500000  1
