# generated using pymatgen
data_Pa2P4IrOs3
_symmetry_space_group_name_H-M   'P 1'
_cell_length_a   4.17579000
_cell_length_b   4.17579000
_cell_length_c   9.33784000
_cell_angle_alpha   90.00000000
_cell_angle_beta   90.00000000
_cell_angle_gamma   90.00000000
_symmetry_Int_Tables_number   1
_chemical_formula_structural   Pa2P4IrOs3
_chemical_formula_sum   'Pa2 P4 Ir1 Os3'
_cell_volume   162.82599024
_cell_formula_units_Z   1
loop_
 _symmetry_equiv_pos_site_id
 _symmetry_equiv_pos_as_xyz
  1  'x, y, z'
loop_
 _atom_site_type_symbol
 _atom_site_label
 _atom_site_symmetry_multiplicity
 _atom_site_fract_x
 _atom_site_fract_y
 _atom_site_fract_z
 _atom_site_occupancy
  Pa  Pa0  1  0.000000  0.500000  0.245703  1
  Pa  Pa1  1  0.500000  0.000000  0.752171  1
  P  P2  1  0.000000  0.000000  0.999587  1
  P  P3  1  0.500000  0.500000  0.999587  1
  P  P4  1  0.000000  0.500000  0.634404  1
  P  P5  1  0.500000  0.000000  0.368773  1
  Ir  Ir6  1  0.500000  0.000000  0.117139  1
  Os  Os7  1  0.000000  0.000000  0.498575  1
  Os  Os8  1  0.500000  0.500000  0.498575  1
  Os  Os9  1  0.000000  0.500000  0.885486  1
