# generated using pymatgen
data_Tb4Dy8Co4PtPb
_symmetry_space_group_name_H-M   'P 1'
_cell_length_a   8.35681805
_cell_length_b   8.35681820
_cell_length_c   8.35681831
_cell_angle_alpha   106.99804493
_cell_angle_beta   110.44181587
_cell_angle_gamma   111.00226598
_symmetry_Int_Tables_number   1
_chemical_formula_structural   Tb4Dy8Co4PtPb
_chemical_formula_sum   'Tb4 Dy8 Co4 Pt1 Pb1'
_cell_volume   448.62769502
_cell_formula_units_Z   1
loop_
 _symmetry_equiv_pos_site_id
 _symmetry_equiv_pos_as_xyz
  1  'x, y, z'
loop_
 _atom_site_type_symbol
 _atom_site_label
 _atom_site_symmetry_multiplicity
 _atom_site_fract_x
 _atom_site_fract_y
 _atom_site_fract_z
 _atom_site_occupancy
  Tb  Tb0  1  0.475527  0.290762  0.184765  1
  Tb  Tb1  1  0.105996  0.290762  0.815235  1
  Tb  Tb2  1  0.894004  0.709238  0.184765  1
  Tb  Tb3  1  0.524473  0.709238  0.815235  1
  Dy  Dy4  1  0.306471  0.621142  0.314671  1
  Dy  Dy5  1  0.306471  0.991800  0.685329  1
  Dy  Dy6  1  0.693529  0.378858  0.685329  1
  Dy  Dy7  1  0.693529  0.008200  0.314671  1
  Dy  Dy8  1  0.199625  0.213043  0.412667  1
  Dy  Dy9  1  0.800375  0.786957  0.587333  1
  Dy  Dy10  1  0.199625  0.786957  0.986581  1
  Dy  Dy11  1  0.800375  0.213043  0.013419  1
  Co  Co12  1  0.500000  0.611937  0.111937  1
  Co  Co13  1  0.500000  0.388063  0.888063  1
  Co  Co14  1  0.378441  0.000000  0.378441  1
  Co  Co15  1  0.621559  0.000000  0.621559  1
  Pt  Pt16  1  0.000000  0.000000  0.000000  1
  Pb  Pb17  1  0.000000  0.500000  0.500000  1
