# generated using pymatgen
data_Ho4Sc15Si16Mo
_symmetry_space_group_name_H-M   'P 1'
_cell_length_a   6.94957121
_cell_length_b   7.26895073
_cell_length_c   13.74911835
_cell_angle_alpha   89.96087703
_cell_angle_beta   89.81661248
_cell_angle_gamma   89.68559946
_symmetry_Int_Tables_number   1
_chemical_formula_structural   Ho4Sc15Si16Mo
_chemical_formula_sum   'Ho4 Sc15 Si16 Mo1'
_cell_volume   694.53754114
_cell_formula_units_Z   1
loop_
 _symmetry_equiv_pos_site_id
 _symmetry_equiv_pos_as_xyz
  1  'x, y, z'
loop_
 _atom_site_type_symbol
 _atom_site_label
 _atom_site_symmetry_multiplicity
 _atom_site_fract_x
 _atom_site_fract_y
 _atom_site_fract_z
 _atom_site_occupancy
  Ho  Ho0  1  0.992921  0.680978  0.600240  1
  Ho  Ho1  1  0.013532  0.323696  0.406136  1
  Ho  Ho2  1  0.510981  0.176219  0.407915  1
  Ho  Ho3  1  0.013635  0.323082  0.090003  1
  Sc  Sc4  1  0.843040  0.005317  0.247513  1
  Sc  Sc5  1  0.342850  0.497087  0.248743  1
  Sc  Sc6  1  0.655568  0.508400  0.751753  1
  Sc  Sc7  1  0.482235  0.821954  0.602292  1
  Sc  Sc8  1  0.990001  0.686475  0.897673  1
  Sc  Sc9  1  0.483573  0.822578  0.901986  1
  Sc  Sc10  1  0.517222  0.181209  0.094952  1
  Sc  Sc11  1  0.327980  0.320554  0.630507  1
  Sc  Sc12  1  0.671072  0.678854  0.374814  1
  Sc  Sc13  1  0.174365  0.827321  0.375760  1
  Sc  Sc14  1  0.671371  0.677406  0.123755  1
  Sc  Sc15  1  0.825508  0.168141  0.629976  1
  Sc  Sc16  1  0.327794  0.318418  0.873789  1
  Sc  Sc17  1  0.821982  0.167875  0.871798  1
  Sc  Sc18  1  0.175360  0.827864  0.119893  1
  Si  Si19  1  0.028497  0.383320  0.752554  1
  Si  Si20  1  0.972070  0.615335  0.248297  1
  Si  Si21  1  0.471000  0.891043  0.247805  1
  Si  Si22  1  0.516019  0.091223  0.751507  1
  Si  Si23  1  0.282982  0.643786  0.753721  1
  Si  Si24  1  0.716712  0.369032  0.247345  1
  Si  Si25  1  0.219845  0.132479  0.246679  1
  Si  Si26  1  0.786928  0.865439  0.752404  1
  Si  Si27  1  0.162424  0.031396  0.548034  1
  Si  Si28  1  0.845482  0.965041  0.463777  1
  Si  Si29  1  0.344867  0.540447  0.466237  1
  Si  Si30  1  0.838643  0.963882  0.035153  1
  Si  Si31  1  0.657027  0.469267  0.541682  1
  Si  Si32  1  0.154615  0.023764  0.948959  1
  Si  Si33  1  0.662685  0.468636  0.959207  1
  Si  Si34  1  0.349139  0.534604  0.035725  1
  Mo  Mo35  1  0.150078  0.997873  0.751416  1
