# generated using pymatgen
data_YbTm3Lu4(B6Ru)4
_symmetry_space_group_name_H-M   'P 1'
_cell_length_a   3.60441800
_cell_length_b   9.04768391
_cell_length_c   11.42764500
_cell_angle_alpha   89.93586518
_cell_angle_beta   90.00000000
_cell_angle_gamma   90.00000000
_symmetry_Int_Tables_number   1
_chemical_formula_structural   YbTm3Lu4(B6Ru)4
_chemical_formula_sum   'Yb1 Tm3 Lu4 B24 Ru4'
_cell_volume   372.67395143
_cell_formula_units_Z   1
loop_
 _symmetry_equiv_pos_site_id
 _symmetry_equiv_pos_as_xyz
  1  'x, y, z'
loop_
 _atom_site_type_symbol
 _atom_site_label
 _atom_site_symmetry_multiplicity
 _atom_site_fract_x
 _atom_site_fract_y
 _atom_site_fract_z
 _atom_site_occupancy
  Yb  Yb0  1  0.000000  0.322890  0.413686  1
  Tm  Tm1  1  0.000000  0.676669  0.585033  1
  Tm  Tm2  1  0.000000  0.821775  0.086303  1
  Tm  Tm3  1  0.000000  0.178808  0.914595  1
  Lu  Lu4  1  0.000000  0.944094  0.371581  1
  Lu  Lu5  1  0.000000  0.057550  0.627753  1
  Lu  Lu6  1  0.000000  0.443218  0.128948  1
  Lu  Lu7  1  0.000000  0.556044  0.872488  1
  B  B8  1  0.500000  0.554261  0.432945  1
  B  B9  1  0.500000  0.446059  0.567304  1
  B  B10  1  0.500000  0.053199  0.066081  1
  B  B11  1  0.500000  0.945963  0.933054  1
  B  B12  1  0.500000  0.749471  0.419659  1
  B  B13  1  0.500000  0.250891  0.581017  1
  B  B14  1  0.500000  0.248774  0.080070  1
  B  B15  1  0.500000  0.750618  0.919940  1
  B  B16  1  0.500000  0.792411  0.265569  1
  B  B17  1  0.500000  0.208583  0.734822  1
  B  B18  1  0.500000  0.290796  0.233736  1
  B  B19  1  0.500000  0.708276  0.765820  1
  B  B20  1  0.500000  0.631380  0.184864  1
  B  B21  1  0.500000  0.369202  0.816044  1
  B  B22  1  0.500000  0.130365  0.314643  1
  B  B23  1  0.500000  0.869067  0.684383  1
  B  B24  1  0.500000  0.982065  0.212118  1
  B  B25  1  0.500000  0.017769  0.787040  1
  B  B26  1  0.500000  0.482967  0.287127  1
  B  B27  1  0.500000  0.517738  0.713112  1
  B  B28  1  0.500000  0.605633  0.029254  1
  B  B29  1  0.500000  0.394634  0.971240  1
  B  B30  1  0.500000  0.102077  0.471790  1
  B  B31  1  0.500000  0.896178  0.528634  1
  Ru  Ru32  1  0.000000  0.640018  0.319952  1
  Ru  Ru33  1  0.000000  0.361752  0.680842  1
  Ru  Ru34  1  0.000000  0.136864  0.177883  1
  Ru  Ru35  1  0.000000  0.861937  0.820665  1
