# generated using pymatgen
data_La4Co2SnB6
_symmetry_space_group_name_H-M   'P 1'
_cell_length_a   5.42476553
_cell_length_b   5.42551052
_cell_length_c   8.58221104
_cell_angle_alpha   71.62757353
_cell_angle_beta   71.57597127
_cell_angle_gamma   60.00455404
_symmetry_Int_Tables_number   1
_chemical_formula_structural   La4Co2SnB6
_chemical_formula_sum   'La4 Co2 Sn1 B6'
_cell_volume   203.71546183
_cell_formula_units_Z   1
loop_
 _symmetry_equiv_pos_site_id
 _symmetry_equiv_pos_as_xyz
  1  'x, y, z'
loop_
 _atom_site_type_symbol
 _atom_site_label
 _atom_site_symmetry_multiplicity
 _atom_site_fract_x
 _atom_site_fract_y
 _atom_site_fract_z
 _atom_site_occupancy
  La  La0  1  0.254208  0.253327  0.238258  1
  La  La1  1  0.745792  0.746673  0.761742  1
  La  La2  1  0.411720  0.412768  0.763791  1
  La  La3  1  0.588280  0.587232  0.236209  1
  Co  Co4  1  0.120522  0.120960  0.637996  1
  Co  Co5  1  0.879478  0.879040  0.362004  1
  Sn  Sn6  1  0.000000  0.000000  0.000000  1
  B  B7  1  0.830845  0.500000  0.500000  1
  B  B8  1  0.500070  0.169217  0.499997  1
  B  B9  1  0.169284  0.830783  0.500003  1
  B  B10  1  0.499930  0.830783  0.500003  1
  B  B11  1  0.830716  0.169217  0.499997  1
  B  B12  1  0.169155  0.500000  0.500000  1
