# generated using pymatgen
data_U4Si5AsRu7
_symmetry_space_group_name_H-M   'P 1'
_cell_length_a   7.11819267
_cell_length_b   7.11819190
_cell_length_c   7.11819272
_cell_angle_alpha   109.62843214
_cell_angle_beta   109.15726637
_cell_angle_gamma   109.62841815
_symmetry_Int_Tables_number   1
_chemical_formula_structural   U4Si5AsRu7
_chemical_formula_sum   'U4 Si5 As1 Ru7'
_cell_volume   277.63710792
_cell_formula_units_Z   1
loop_
 _symmetry_equiv_pos_site_id
 _symmetry_equiv_pos_as_xyz
  1  'x, y, z'
loop_
 _atom_site_type_symbol
 _atom_site_label
 _atom_site_symmetry_multiplicity
 _atom_site_fract_x
 _atom_site_fract_y
 _atom_site_fract_z
 _atom_site_occupancy
  U  U0  1  0.001050  0.000000  0.499234  1
  U  U1  1  0.499234  0.000000  0.001050  1
  U  U2  1  0.001050  0.501816  0.001050  1
  U  U3  1  0.499234  0.498184  0.499234  1
  Si  Si4  1  0.310159  0.000000  0.310159  1
  Si  Si5  1  0.000820  0.312375  0.313196  1
  Si  Si6  1  0.000820  0.687625  0.688445  1
  Si  Si7  1  0.313196  0.312375  0.000820  1
  Si  Si8  1  0.688445  0.687625  0.000820  1
  As  As9  1  0.694937  0.000000  0.694937  1
  Ru  Ru10  1  0.749252  0.500000  0.249252  1
  Ru  Ru11  1  0.496202  0.748524  0.244726  1
  Ru  Ru12  1  0.496202  0.251476  0.747678  1
  Ru  Ru13  1  0.747678  0.251476  0.496202  1
  Ru  Ru14  1  0.244726  0.748524  0.496202  1
  Ru  Ru15  1  0.249252  0.500000  0.749252  1
  Ru  Ru16  1  0.007744  0.000000  0.007744  1
