# generated using pymatgen
data_KRb2ScAs2
_symmetry_space_group_name_H-M   'P 1'
_cell_length_a   9.48519393
_cell_length_b   9.48519334
_cell_length_c   9.48519433
_cell_angle_alpha   130.68404133
_cell_angle_beta   67.91150770
_cell_angle_gamma   136.39826675
_symmetry_Int_Tables_number   1
_chemical_formula_structural   KRb2ScAs2
_chemical_formula_sum   'K2 Rb4 Sc2 As4'
_cell_volume   438.69690208
_cell_formula_units_Z   2
loop_
 _symmetry_equiv_pos_site_id
 _symmetry_equiv_pos_as_xyz
  1  'x, y, z'
loop_
 _atom_site_type_symbol
 _atom_site_label
 _atom_site_symmetry_multiplicity
 _atom_site_fract_x
 _atom_site_fract_y
 _atom_site_fract_z
 _atom_site_occupancy
  K  K0  1  0.749999  0.249999  0.500000  1
  K  K1  1  0.249999  0.749999  0.500000  1
  Rb  Rb2  1  0.815408  0.224720  0.040128  1
  Rb  Rb3  1  0.684592  0.724720  0.409312  1
  Rb  Rb4  1  0.315408  0.275280  0.590689  1
  Rb  Rb5  1  0.184592  0.775280  0.959872  1
  Sc  Sc6  1  0.249999  0.249999  0.000000  1
  Sc  Sc7  1  0.750000  0.750000  0.000000  1
  As  As8  1  0.409120  0.686549  0.095668  1
  As  As9  1  0.090880  0.186548  0.277428  1
  As  As10  1  0.909120  0.813452  0.722572  1
  As  As11  1  0.590880  0.313452  0.904332  1
