# generated using pymatgen
data_Tb2V3P7Ir4Rh5
_symmetry_space_group_name_H-M   'P 1'
_cell_length_a   3.88296300
_cell_length_b   9.54786889
_cell_length_c   9.55466584
_cell_angle_alpha   120.00560881
_cell_angle_beta   90.00014475
_cell_angle_gamma   90.00029514
_symmetry_Int_Tables_number   1
_chemical_formula_structural   Tb2V3P7Ir4Rh5
_chemical_formula_sum   'Tb2 V3 P7 Ir4 Rh5'
_cell_volume   306.75474236
_cell_formula_units_Z   1
loop_
 _symmetry_equiv_pos_site_id
 _symmetry_equiv_pos_as_xyz
  1  'x, y, z'
loop_
 _atom_site_type_symbol
 _atom_site_label
 _atom_site_symmetry_multiplicity
 _atom_site_fract_x
 _atom_site_fract_y
 _atom_site_fract_z
 _atom_site_occupancy
  Tb  Tb0  1  0.261846  0.666537  0.333457  1
  Tb  Tb1  1  0.761758  0.333540  0.667253  1
  V  V2  1  0.761975  0.093151  0.874518  1
  V  V3  1  0.761974  0.126842  0.218747  1
  V  V4  1  0.761990  0.781444  0.906824  1
  P  P5  1  0.262261  0.999403  0.999552  1
  P  P6  1  0.761896  0.885132  0.597200  1
  P  P7  1  0.761900  0.403098  0.287609  1
  P  P8  1  0.761910  0.712842  0.115912  1
  P  P9  1  0.261803  0.117077  0.413538  1
  P  P10  1  0.261788  0.586153  0.704458  1
  P  P11  1  0.261802  0.295814  0.882175  1
  Ir  Ir12  1  0.261930  0.887190  0.158972  1
  Ir  Ir13  1  0.261925  0.840354  0.727774  1
  Ir  Ir14  1  0.261927  0.271284  0.112261  1
  Ir  Ir15  1  0.261848  0.366919  0.437879  1
  Rh  Rh16  1  0.761903  0.612030  0.557830  1
  Rh  Rh17  1  0.761903  0.441130  0.052748  1
  Rh  Rh18  1  0.761892  0.947938  0.388627  1
  Rh  Rh19  1  0.261888  0.562728  0.930477  1
  Rh  Rh20  1  0.261883  0.069394  0.632188  1
