# generated using pymatgen
data_Yb(Ti3Bi2)2
_symmetry_space_group_name_H-M   'P 1'
_cell_length_a   8.46079515
_cell_length_b   8.46079424
_cell_length_c   8.46079415
_cell_angle_alpha   40.82541625
_cell_angle_beta   40.82542339
_cell_angle_gamma   40.82542581
_symmetry_Int_Tables_number   1
_chemical_formula_structural   Yb(Ti3Bi2)2
_chemical_formula_sum   'Yb1 Ti6 Bi4'
_cell_volume   233.61363952
_cell_formula_units_Z   1
loop_
 _symmetry_equiv_pos_site_id
 _symmetry_equiv_pos_as_xyz
  1  'x, y, z'
loop_
 _atom_site_type_symbol
 _atom_site_label
 _atom_site_symmetry_multiplicity
 _atom_site_fract_x
 _atom_site_fract_y
 _atom_site_fract_z
 _atom_site_occupancy
  Yb  Yb0  1  0.000000  0.000000  0.000000  1
  Ti  Ti1  1  0.598219  0.598219  0.121860  1
  Ti  Ti2  1  0.878139  0.401781  0.401781  1
  Ti  Ti3  1  0.401781  0.878139  0.401781  1
  Ti  Ti4  1  0.598219  0.121861  0.598219  1
  Ti  Ti5  1  0.121861  0.598219  0.598219  1
  Ti  Ti6  1  0.401781  0.401781  0.878139  1
  Bi  Bi7  1  0.127434  0.127434  0.127434  1
  Bi  Bi8  1  0.331554  0.331554  0.331554  1
  Bi  Bi9  1  0.668446  0.668446  0.668446  1
  Bi  Bi10  1  0.872566  0.872566  0.872566  1
