# generated using pymatgen
data_Nd2Ho5Er(Si3Rh)4
_symmetry_space_group_name_H-M   'P 1'
_cell_length_a   8.18916604
_cell_length_b   8.18916569
_cell_length_c   7.98239600
_cell_angle_alpha   90.00000000
_cell_angle_beta   90.00000000
_cell_angle_gamma   119.98816862
_symmetry_Int_Tables_number   1
_chemical_formula_structural   Nd2Ho5Er(Si3Rh)4
_chemical_formula_sum   'Nd2 Ho5 Er1 Si12 Rh4'
_cell_volume   463.65505632
_cell_formula_units_Z   1
loop_
 _symmetry_equiv_pos_site_id
 _symmetry_equiv_pos_as_xyz
  1  'x, y, z'
loop_
 _atom_site_type_symbol
 _atom_site_label
 _atom_site_symmetry_multiplicity
 _atom_site_fract_x
 _atom_site_fract_y
 _atom_site_fract_z
 _atom_site_occupancy
  Nd  Nd0  1  0.000034  0.999966  0.250000  1
  Nd  Nd1  1  0.999968  0.000032  0.750000  1
  Ho  Ho2  1  0.508609  0.017360  0.250000  1
  Ho  Ho3  1  0.982640  0.491391  0.250000  1
  Ho  Ho4  1  0.491387  0.508613  0.750000  1
  Ho  Ho5  1  0.491394  0.982760  0.750000  1
  Ho  Ho6  1  0.017240  0.508606  0.750000  1
  Er  Er7  1  0.508552  0.491448  0.250000  1
  Si  Si8  1  0.168415  0.831585  0.501092  1
  Si  Si9  1  0.168436  0.336742  0.501025  1
  Si  Si10  1  0.663258  0.831564  0.501025  1
  Si  Si11  1  0.831643  0.168357  0.498826  1
  Si  Si12  1  0.831503  0.663245  0.498587  1
  Si  Si13  1  0.336755  0.168497  0.498587  1
  Si  Si14  1  0.831643  0.168357  0.001174  1
  Si  Si15  1  0.831503  0.663245  0.001413  1
  Si  Si16  1  0.336755  0.168497  0.001413  1
  Si  Si17  1  0.168415  0.831585  0.998908  1
  Si  Si18  1  0.168436  0.336742  0.998975  1
  Si  Si19  1  0.663258  0.831564  0.998975  1
  Rh  Rh20  1  0.333436  0.666564  0.464121  1
  Rh  Rh21  1  0.666643  0.333357  0.534892  1
  Rh  Rh22  1  0.666643  0.333357  0.965108  1
  Rh  Rh23  1  0.333436  0.666564  0.035879  1
