# generated using pymatgen
data_Sr2Li5P5Pd
_symmetry_space_group_name_H-M   'P 1'
_cell_length_a   4.22811483
_cell_length_b   4.22811617
_cell_length_c   13.25710341
_cell_angle_alpha   99.17590551
_cell_angle_beta   99.17591090
_cell_angle_gamma   90.00000746
_symmetry_Int_Tables_number   1
_chemical_formula_structural   Sr2Li5P5Pd
_chemical_formula_sum   'Sr2 Li5 P5 Pd1'
_cell_volume   230.89138192
_cell_formula_units_Z   1
loop_
 _symmetry_equiv_pos_site_id
 _symmetry_equiv_pos_as_xyz
  1  'x, y, z'
loop_
 _atom_site_type_symbol
 _atom_site_label
 _atom_site_symmetry_multiplicity
 _atom_site_fract_x
 _atom_site_fract_y
 _atom_site_fract_z
 _atom_site_occupancy
  Sr  Sr0  1  0.647789  0.647789  0.295578  1
  Sr  Sr1  1  0.352211  0.352211  0.704422  1
  Li  Li2  1  0.949723  0.449723  0.899447  1
  Li  Li3  1  0.449999  0.949999  0.900000  1
  Li  Li4  1  0.050001  0.550001  0.100000  1
  Li  Li5  1  0.550277  0.050277  0.100553  1
  Li  Li6  1  0.250000  0.750000  0.500000  1
  P  P7  1  0.500000  0.500000  0.000000  1
  P  P8  1  0.887323  0.887323  0.774645  1
  P  P9  1  0.112677  0.112677  0.225355  1
  P  P10  1  0.801967  0.801967  0.603934  1
  P  P11  1  0.198033  0.198033  0.396066  1
  Pd  Pd12  1  0.750000  0.250000  0.500000  1
