# generated using pymatgen
data_NaNb6CrSe12
_symmetry_space_group_name_H-M   'P 1'
_cell_length_a   6.06468200
_cell_length_b   6.06468141
_cell_length_c   14.11194600
_cell_angle_alpha   90.00000000
_cell_angle_beta   90.00000000
_cell_angle_gamma   120.00000320
_symmetry_Int_Tables_number   1
_chemical_formula_structural   NaNb6CrSe12
_chemical_formula_sum   'Na1 Nb6 Cr1 Se12'
_cell_volume   449.50398780
_cell_formula_units_Z   1
loop_
 _symmetry_equiv_pos_site_id
 _symmetry_equiv_pos_as_xyz
  1  'x, y, z'
loop_
 _atom_site_type_symbol
 _atom_site_label
 _atom_site_symmetry_multiplicity
 _atom_site_fract_x
 _atom_site_fract_y
 _atom_site_fract_z
 _atom_site_occupancy
  Na  Na0  1  0.333333  0.666667  0.250000  1
  Nb  Nb1  1  0.333333  0.666667  0.972989  1
  Nb  Nb2  1  0.000000  0.000000  0.973079  1
  Nb  Nb3  1  0.000000  0.000000  0.526921  1
  Nb  Nb4  1  0.333333  0.666667  0.527011  1
  Nb  Nb5  1  0.666667  0.333333  0.972586  1
  Nb  Nb6  1  0.666667  0.333333  0.527414  1
  Cr  Cr7  1  0.666667  0.333333  0.750000  1
  Se  Se8  1  0.333371  0.002462  0.092258  1
  Se  Se9  1  0.666542  0.996189  0.645146  1
  Se  Se10  1  0.997538  0.330908  0.092258  1
  Se  Se11  1  0.669092  0.002462  0.407742  1
  Se  Se12  1  0.333371  0.330908  0.407742  1
  Se  Se13  1  0.997538  0.666629  0.407742  1
  Se  Se14  1  0.669092  0.666629  0.092258  1
  Se  Se15  1  0.329647  0.333458  0.645146  1
  Se  Se16  1  0.003811  0.670353  0.645146  1
  Se  Se17  1  0.329647  0.996189  0.854854  1
  Se  Se18  1  0.666542  0.670353  0.854854  1
  Se  Se19  1  0.003811  0.333458  0.854854  1
