# generated using pymatgen
data_Ce(Tm2Os)2
_symmetry_space_group_name_H-M   'P 1'
_cell_length_a   6.34730820
_cell_length_b   7.23044652
_cell_length_c   8.43668636
_cell_angle_alpha   96.63909444
_cell_angle_beta   112.09683621
_cell_angle_gamma   90.00000813
_symmetry_Int_Tables_number   1
_chemical_formula_structural   Ce(Tm2Os)2
_chemical_formula_sum   'Ce2 Tm8 Os4'
_cell_volume   355.94884705
_cell_formula_units_Z   2
loop_
 _symmetry_equiv_pos_site_id
 _symmetry_equiv_pos_as_xyz
  1  'x, y, z'
loop_
 _atom_site_type_symbol
 _atom_site_label
 _atom_site_symmetry_multiplicity
 _atom_site_fract_x
 _atom_site_fract_y
 _atom_site_fract_z
 _atom_site_occupancy
  Ce  Ce0  1  0.798881  0.095998  0.807301  1
  Ce  Ce1  1  0.991580  0.404002  0.192699  1
  Tm  Tm2  1  0.210461  0.919629  0.179447  1
  Tm  Tm3  1  0.031014  0.580371  0.820553  1
  Tm  Tm4  1  0.205084  0.176308  0.564488  1
  Tm  Tm5  1  0.640596  0.323692  0.435512  1
  Tm  Tm6  1  0.785296  0.813884  0.434530  1
  Tm  Tm7  1  0.350764  0.686116  0.565470  1
  Tm  Tm8  1  0.429789  0.250000  0.000000  1
  Tm  Tm9  1  0.581056  0.750000  0.000000  1
  Os  Os10  1  0.609532  0.415271  0.779319  1
  Os  Os11  1  0.830212  0.084729  0.220681  1
  Os  Os12  1  0.375756  0.573057  0.215778  1
  Os  Os13  1  0.159979  0.926943  0.784222  1
