# generated using pymatgen
data_Ho3Tm(Co5P3)4
_symmetry_space_group_name_H-M   'P 1'
_cell_length_a   3.64225100
_cell_length_b   10.26637101
_cell_length_c   11.71924601
_cell_angle_alpha   89.99593891
_cell_angle_beta   90.00000000
_cell_angle_gamma   90.00000000
_symmetry_Int_Tables_number   1
_chemical_formula_structural   Ho3Tm(Co5P3)4
_chemical_formula_sum   'Ho3 Tm1 Co20 P12'
_cell_volume   438.21424984
_cell_formula_units_Z   1
loop_
 _symmetry_equiv_pos_site_id
 _symmetry_equiv_pos_as_xyz
  1  'x, y, z'
loop_
 _atom_site_type_symbol
 _atom_site_label
 _atom_site_symmetry_multiplicity
 _atom_site_fract_x
 _atom_site_fract_y
 _atom_site_fract_z
 _atom_site_occupancy
  Ho  Ho0  1  0.250000  0.917082  0.202709  1
  Ho  Ho1  1  0.750000  0.417157  0.297263  1
  Ho  Ho2  1  0.750000  0.082924  0.797282  1
  Tm  Tm3  1  0.250000  0.582787  0.702562  1
  Co  Co4  1  0.250000  0.716604  0.991371  1
  Co  Co5  1  0.250000  0.783300  0.491469  1
  Co  Co6  1  0.750000  0.283475  0.008592  1
  Co  Co7  1  0.750000  0.216779  0.508938  1
  Co  Co8  1  0.250000  0.407154  0.488110  1
  Co  Co9  1  0.250000  0.093124  0.987857  1
  Co  Co10  1  0.750000  0.593148  0.513029  1
  Co  Co11  1  0.750000  0.906896  0.012070  1
  Co  Co12  1  0.250000  0.221266  0.176561  1
  Co  Co13  1  0.250000  0.279007  0.676645  1
  Co  Co14  1  0.750000  0.778315  0.823205  1
  Co  Co15  1  0.750000  0.721065  0.323549  1
  Co  Co16  1  0.250000  0.882244  0.698656  1
  Co  Co17  1  0.250000  0.617242  0.198509  1
  Co  Co18  1  0.750000  0.117321  0.301469  1
  Co  Co19  1  0.750000  0.383352  0.801008  1
  Co  Co20  1  0.250000  0.468012  0.931140  1
  Co  Co21  1  0.250000  0.032297  0.431767  1
  Co  Co22  1  0.750000  0.532402  0.067865  1
  Co  Co23  1  0.750000  0.967232  0.568454  1
  P  P24  1  0.250000  0.418543  0.111891  1
  P  P25  1  0.250000  0.081440  0.612252  1
  P  P26  1  0.750000  0.581445  0.886999  1
  P  P27  1  0.750000  0.918434  0.387883  1
  P  P28  1  0.250000  0.270443  0.870322  1
  P  P29  1  0.250000  0.229678  0.370402  1
  P  P30  1  0.750000  0.729548  0.129708  1
  P  P31  1  0.750000  0.769556  0.630132  1
  P  P32  1  0.250000  0.601607  0.391234  1
  P  P33  1  0.250000  0.898391  0.891198  1
  P  P34  1  0.750000  0.399092  0.609096  1
  P  P35  1  0.750000  0.101638  0.108808  1
