# generated using pymatgen
data_Lu7Sn23Rh6
_symmetry_space_group_name_H-M   'P 1'
_cell_length_a   9.81347400
_cell_length_b   9.81347146
_cell_length_c   10.05977700
_cell_angle_alpha   90.00000000
_cell_angle_beta   90.00000000
_cell_angle_gamma   119.99999509
_symmetry_Int_Tables_number   1
_chemical_formula_structural   Lu7Sn23Rh6
_chemical_formula_sum   'Lu7 Sn23 Rh6'
_cell_volume   839.00480207
_cell_formula_units_Z   1
loop_
 _symmetry_equiv_pos_site_id
 _symmetry_equiv_pos_as_xyz
  1  'x, y, z'
loop_
 _atom_site_type_symbol
 _atom_site_label
 _atom_site_symmetry_multiplicity
 _atom_site_fract_x
 _atom_site_fract_y
 _atom_site_fract_z
 _atom_site_occupancy
  Lu  Lu0  1  0.000000  0.000000  0.000000  1
  Lu  Lu1  1  0.518349  0.481651  0.691273  1
  Lu  Lu2  1  0.518349  0.036698  0.691273  1
  Lu  Lu3  1  0.963302  0.481651  0.691273  1
  Lu  Lu4  1  0.036698  0.518349  0.308727  1
  Lu  Lu5  1  0.481651  0.963302  0.308727  1
  Lu  Lu6  1  0.481651  0.518349  0.308727  1
  Sn  Sn7  1  0.666667  0.333333  0.177605  1
  Sn  Sn8  1  0.666667  0.333333  0.868046  1
  Sn  Sn9  1  0.333333  0.666667  0.131954  1
  Sn  Sn10  1  0.351089  0.351089  0.000000  1
  Sn  Sn11  1  0.000000  0.648911  0.000000  1
  Sn  Sn12  1  0.648911  0.000000  0.000000  1
  Sn  Sn13  1  0.648911  0.648911  0.000000  1
  Sn  Sn14  1  0.333333  0.666667  0.822395  1
  Sn  Sn15  1  0.445577  0.222789  0.457163  1
  Sn  Sn16  1  0.222789  0.777211  0.542837  1
  Sn  Sn17  1  0.222789  0.445577  0.542837  1
  Sn  Sn18  1  0.554423  0.777211  0.542837  1
  Sn  Sn19  1  0.120998  0.879002  0.281585  1
  Sn  Sn20  1  0.777211  0.554423  0.457163  1
  Sn  Sn21  1  0.777211  0.222789  0.457163  1
  Sn  Sn22  1  0.351089  0.000000  0.000000  1
  Sn  Sn23  1  0.120998  0.241996  0.281585  1
  Sn  Sn24  1  0.758004  0.879002  0.281585  1
  Sn  Sn25  1  0.241996  0.120998  0.718415  1
  Sn  Sn26  1  0.879002  0.758004  0.718415  1
  Sn  Sn27  1  0.879002  0.120998  0.718415  1
  Sn  Sn28  1  0.000000  0.000000  0.500000  1
  Sn  Sn29  1  0.000000  0.351089  0.000000  1
  Rh  Rh30  1  0.169334  0.830666  0.800538  1
  Rh  Rh31  1  0.169334  0.338668  0.800538  1
  Rh  Rh32  1  0.661332  0.830666  0.800538  1
  Rh  Rh33  1  0.338668  0.169334  0.199462  1
  Rh  Rh34  1  0.830666  0.661332  0.199462  1
  Rh  Rh35  1  0.830666  0.169334  0.199462  1
