# generated using pymatgen
data_Ca2Fe7Co5P7
_symmetry_space_group_name_H-M   'P 1'
_cell_length_a   8.95413200
_cell_length_b   8.95365286
_cell_length_c   3.59404800
_cell_angle_alpha   90.00000000
_cell_angle_beta   90.00000000
_cell_angle_gamma   120.09995527
_symmetry_Int_Tables_number   1
_chemical_formula_structural   Ca2Fe7Co5P7
_chemical_formula_sum   'Ca2 Fe7 Co5 P7'
_cell_volume   249.28717712
_cell_formula_units_Z   1
loop_
 _symmetry_equiv_pos_site_id
 _symmetry_equiv_pos_as_xyz
  1  'x, y, z'
loop_
 _atom_site_type_symbol
 _atom_site_label
 _atom_site_symmetry_multiplicity
 _atom_site_fract_x
 _atom_site_fract_y
 _atom_site_fract_z
 _atom_site_occupancy
  Ca  Ca0  1  0.000091  0.000093  0.000000  1
  Ca  Ca1  1  0.333169  0.666292  0.500000  1
  Fe  Fe2  1  0.611821  0.903687  0.000000  1
  Fe  Fe3  1  0.820404  0.215672  0.000000  1
  Fe  Fe4  1  0.785342  0.605376  0.000000  1
  Fe  Fe5  1  0.392585  0.178182  0.000000  1
  Fe  Fe6  1  0.891704  0.458436  0.500000  1
  Fe  Fe7  1  0.541719  0.430856  0.500000  1
  Fe  Fe8  1  0.569009  0.114244  0.500000  1
  Co  Co9  1  0.098012  0.708192  0.000000  1
  Co  Co10  1  0.291748  0.389409  0.000000  1
  Co  Co11  1  0.051310  0.283651  0.500000  1
  Co  Co12  1  0.716052  0.766728  0.500000  1
  Co  Co13  1  0.231963  0.947279  0.500000  1
  P  P14  1  0.073353  0.446701  0.000000  1
  P  P15  1  0.554213  0.628295  0.000000  1
  P  P16  1  0.375182  0.926425  0.000000  1
  P  P17  1  0.776431  0.043574  0.500000  1
  P  P18  1  0.954119  0.733291  0.500000  1
  P  P19  1  0.266076  0.220497  0.500000  1
  P  P20  1  0.665697  0.333120  0.000000  1
