# generated using pymatgen
data_Dy2Er10InCo4Cu
_symmetry_space_group_name_H-M   'P 1'
_cell_length_a   8.24389302
_cell_length_b   8.24389324
_cell_length_c   8.23905737
_cell_angle_alpha   110.97707256
_cell_angle_beta   110.86626846
_cell_angle_gamma   106.63278296
_symmetry_Int_Tables_number   1
_chemical_formula_structural   Dy2Er10InCo4Cu
_chemical_formula_sum   'Dy2 Er10 In1 Co4 Cu1'
_cell_volume   430.11369441
_cell_formula_units_Z   1
loop_
 _symmetry_equiv_pos_site_id
 _symmetry_equiv_pos_as_xyz
  1  'x, y, z'
loop_
 _atom_site_type_symbol
 _atom_site_label
 _atom_site_symmetry_multiplicity
 _atom_site_fract_x
 _atom_site_fract_y
 _atom_site_fract_z
 _atom_site_occupancy
  Dy  Dy0  1  0.185575  0.288812  0.474386  1
  Dy  Dy1  1  0.814425  0.711188  0.525614  1
  Er  Er2  1  0.185797  0.711548  0.897345  1
  Er  Er3  1  0.814203  0.288452  0.102655  1
  Er  Er4  1  0.315180  0.620177  0.304090  1
  Er  Er5  1  0.684820  0.379823  0.695910  1
  Er  Er6  1  0.316088  0.011089  0.695910  1
  Er  Er7  1  0.683912  0.988911  0.304090  1
  Er  Er8  1  0.418728  0.218886  0.198916  1
  Er  Er9  1  0.581272  0.781114  0.801084  1
  Er  Er10  1  0.019971  0.219811  0.801084  1
  Er  Er11  1  0.980029  0.780189  0.198916  1
  In  In12  1  0.500000  0.500000  0.000000  1
  Co  Co13  1  0.113187  0.613187  0.500000  1
  Co  Co14  1  0.886813  0.386813  0.500000  1
  Co  Co15  1  0.375889  0.999806  0.375696  1
  Co  Co16  1  0.624111  0.000194  0.624304  1
  Cu  Cu17  1  0.000000  0.000000  0.000000  1
