# generated using pymatgen
data_Y3Nb2V2ReN12
_symmetry_space_group_name_H-M   'P 1'
_cell_length_a   11.02594458
_cell_length_b   11.02178321
_cell_length_c   11.02504804
_cell_angle_alpha   109.39687848
_cell_angle_beta   109.41218672
_cell_angle_gamma   109.60034114
_symmetry_Int_Tables_number   1
_chemical_formula_structural   Y3Nb2V2ReN12
_chemical_formula_sum   'Y12 Nb8 V8 Re4 N48'
_cell_volume   1031.44910089
_cell_formula_units_Z   4
loop_
 _symmetry_equiv_pos_site_id
 _symmetry_equiv_pos_as_xyz
  1  'x, y, z'
loop_
 _atom_site_type_symbol
 _atom_site_label
 _atom_site_symmetry_multiplicity
 _atom_site_fract_x
 _atom_site_fract_y
 _atom_site_fract_z
 _atom_site_occupancy
  Y  Y0  1  0.255461  0.383310  0.129272  1
  Y  Y1  1  0.373812  0.745961  0.129272  1
  Y  Y2  1  0.379576  0.129576  0.259152  1
  Y  Y3  1  0.878145  0.628145  0.256290  1
  Y  Y4  1  0.747908  0.124651  0.378792  1
  Y  Y5  1  0.130883  0.254140  0.378791  1
  Y  Y6  1  0.867039  0.743405  0.620343  1
  Y  Y7  1  0.253305  0.876939  0.620343  1
  Y  Y8  1  0.122636  0.372637  0.745273  1
  Y  Y9  1  0.620012  0.870012  0.740024  1
  Y  Y10  1  0.623982  0.250976  0.870620  1
  Y  Y11  1  0.746638  0.619644  0.870620  1
  Nb  Nb12  1  0.996445  0.004599  0.017646  1
  Nb  Nb13  1  0.521200  0.013047  0.017646  1
  Nb  Nb14  1  0.990450  0.503860  0.010510  1
  Nb  Nb15  1  0.520060  0.506649  0.010510  1
  Nb  Nb16  1  0.995443  0.992519  0.481416  1
  Nb  Nb17  1  0.490574  0.995326  0.486557  1
  Nb  Nb18  1  0.985973  0.488898  0.481416  1
  Nb  Nb19  1  0.495983  0.491231  0.486557  1
  V  V20  1  0.874097  0.248591  0.124317  1
  V  V21  1  0.750220  0.875725  0.124317  1
  V  V22  1  0.625166  0.375085  0.250240  1
  V  V23  1  0.125075  0.875155  0.250240  1
  V  V24  1  0.250362  0.625973  0.374984  1
  V  V25  1  0.624622  0.749011  0.374984  1
  V  V26  1  0.373540  0.248547  0.624992  1
  V  V27  1  0.751451  0.376445  0.624992  1
  Re  Re28  1  0.875762  0.125167  0.751153  1
  Re  Re29  1  0.375390  0.625987  0.751153  1
  Re  Re30  1  0.249676  0.125164  0.874944  1
  Re  Re31  1  0.125268  0.749780  0.874943  1
  N  N32  1  0.314158  0.901608  0.018676  1
  N  N33  1  0.204520  0.117069  0.018676  1
  N  N34  1  0.878760  0.398248  0.087087  1
  N  N35  1  0.708327  0.688839  0.087087  1
  N  N36  1  0.621067  0.413800  0.101925  1
  N  N37  1  0.980859  0.688125  0.101925  1
  N  N38  1  0.601219  0.913873  0.119155  1
  N  N39  1  0.017935  0.205281  0.119155  1
  N  N40  1  0.204990  0.584508  0.186136  1
  N  N41  1  0.481147  0.601628  0.186136  1
  N  N42  1  0.122035  0.020718  0.207660  1
  N  N43  1  0.585625  0.186942  0.207660  1
  N  N44  1  0.479986  0.378640  0.290610  1
  N  N45  1  0.310623  0.911971  0.290610  1
  N  N46  1  0.898510  0.019915  0.311010  1
  N  N47  1  0.912500  0.291095  0.311009  1
  N  N48  1  0.296930  0.482767  0.381836  1
  N  N49  1  0.584906  0.899069  0.381836  1
  N  N50  1  0.812014  0.519160  0.398314  1
  N  N51  1  0.086299  0.879154  0.398314  1
  N  N52  1  0.101333  0.621105  0.416541  1
  N  N53  1  0.815209  0.795436  0.416542  1
  N  N54  1  0.601628  0.186202  0.482209  1
  N  N55  1  0.380581  0.296008  0.482209  1
  N  N56  1  0.620114  0.705556  0.519444  1
  N  N57  1  0.399330  0.813886  0.519443  1
  N  N58  1  0.184252  0.203022  0.584532  1
  N  N59  1  0.900280  0.381511  0.584532  1
  N  N60  1  0.911135  0.118322  0.598857  1
  N  N61  1  0.187722  0.480536  0.598857  1
  N  N62  1  0.414190  0.101852  0.620689  1
  N  N63  1  0.706498  0.518837  0.620690  1
  N  N64  1  0.089918  0.706624  0.688059  1
  N  N65  1  0.098142  0.981435  0.688060  1
  N  N66  1  0.688865  0.089680  0.709409  1
  N  N67  1  0.520545  0.619729  0.709410  1
  N  N68  1  0.411834  0.814105  0.793826  1
  N  N69  1  0.881993  0.979721  0.793826  1
  N  N70  1  0.516535  0.399474  0.815552  1
  N  N71  1  0.799018  0.416079  0.815553  1
  N  N72  1  0.400856  0.087681  0.881248  1
  N  N73  1  0.980392  0.793566  0.881248  1
  N  N74  1  0.022038  0.312559  0.901479  1
  N  N75  1  0.379441  0.588920  0.901479  1
  N  N76  1  0.291821  0.312746  0.910728  1
  N  N77  1  0.118908  0.597981  0.910728  1
  N  N78  1  0.686404  0.100437  0.978865  1
  N  N79  1  0.792462  0.878428  0.978865  1
