# generated using pymatgen
data_Y3HoPdPb2Au3
_symmetry_space_group_name_H-M   'P 1'
_cell_length_a   8.14484367
_cell_length_b   8.14052536
_cell_length_c   3.65418600
_cell_angle_alpha   90.00000000
_cell_angle_beta   90.00000000
_cell_angle_gamma   89.78738307
_symmetry_Int_Tables_number   1
_chemical_formula_structural   Y3HoPdPb2Au3
_chemical_formula_sum   'Y3 Ho1 Pd1 Pb2 Au3'
_cell_volume   242.28294584
_cell_formula_units_Z   1
loop_
 _symmetry_equiv_pos_site_id
 _symmetry_equiv_pos_as_xyz
  1  'x, y, z'
loop_
 _atom_site_type_symbol
 _atom_site_label
 _atom_site_symmetry_multiplicity
 _atom_site_fract_x
 _atom_site_fract_y
 _atom_site_fract_z
 _atom_site_occupancy
  Y  Y0  1  0.668284  0.168295  0.500000  1
  Y  Y1  1  0.837573  0.670579  0.500000  1
  Y  Y2  1  0.326055  0.825988  0.500000  1
  Ho  Ho3  1  0.169989  0.338306  0.500000  1
  Pd  Pd4  1  0.126810  0.624592  0.000000  1
  Pb  Pb5  1  0.001861  0.995409  0.000000  1
  Pb  Pb6  1  0.495172  0.502020  0.000000  1
  Au  Au7  1  0.877584  0.375579  0.000000  1
  Au  Au8  1  0.371810  0.126168  0.000000  1
  Au  Au9  1  0.624863  0.873065  0.000000  1
