# generated using pymatgen
data_Tm9ScIn6
_symmetry_space_group_name_H-M   'P 1'
_cell_length_a   5.89995263
_cell_length_b   9.02197966
_cell_length_c   9.02197906
_cell_angle_alpha   83.77223598
_cell_angle_beta   70.79184875
_cell_angle_gamma   70.79185041
_symmetry_Int_Tables_number   1
_chemical_formula_structural   Tm9ScIn6
_chemical_formula_sum   'Tm9 Sc1 In6'
_cell_volume   428.25195472
_cell_formula_units_Z   1
loop_
 _symmetry_equiv_pos_site_id
 _symmetry_equiv_pos_as_xyz
  1  'x, y, z'
loop_
 _atom_site_type_symbol
 _atom_site_label
 _atom_site_symmetry_multiplicity
 _atom_site_fract_x
 _atom_site_fract_y
 _atom_site_fract_z
 _atom_site_occupancy
  Tm  Tm0  1  0.720239  0.861036  0.698813  1
  Tm  Tm1  1  0.281302  0.139029  0.301039  1
  Tm  Tm2  1  0.779761  0.301187  0.138964  1
  Tm  Tm3  1  0.218698  0.698961  0.860971  1
  Tm  Tm4  1  0.578463  0.698879  0.139211  1
  Tm  Tm5  1  0.420089  0.301245  0.860849  1
  Tm  Tm6  1  0.079911  0.139151  0.698755  1
  Tm  Tm7  1  0.921537  0.860789  0.301121  1
  Tm  Tm8  1  0.750000  0.499410  0.500590  1
  Sc  Sc9  1  0.250000  0.500378  0.499622  1
  In  In10  1  0.164492  0.500067  0.178268  1
  In  In11  1  0.844123  0.499687  0.821541  1
  In  In12  1  0.335508  0.821732  0.499933  1
  In  In13  1  0.655877  0.178459  0.500313  1
  In  In14  1  0.250000  0.999119  0.000881  1
  In  In15  1  0.750000  0.000872  0.999128  1
