# generated using pymatgen
data_Nd8SiSI12
_symmetry_space_group_name_H-M   'P 1'
_cell_length_a   4.34305200
_cell_length_b   14.33335007
_cell_length_c   15.16649100
_cell_angle_alpha   90.06792342
_cell_angle_beta   90.00000000
_cell_angle_gamma   90.00000000
_symmetry_Int_Tables_number   1
_chemical_formula_structural   Nd8SiSI12
_chemical_formula_sum   'Nd8 Si1 S1 I12'
_cell_volume   944.12075247
_cell_formula_units_Z   1
loop_
 _symmetry_equiv_pos_site_id
 _symmetry_equiv_pos_as_xyz
  1  'x, y, z'
loop_
 _atom_site_type_symbol
 _atom_site_label
 _atom_site_symmetry_multiplicity
 _atom_site_fract_x
 _atom_site_fract_y
 _atom_site_fract_z
 _atom_site_occupancy
  Nd  Nd0  1  0.500000  0.111651  0.351171  1
  Nd  Nd1  1  0.500000  0.888349  0.648829  1
  Nd  Nd2  1  0.500000  0.616312  0.154740  1
  Nd  Nd3  1  0.500000  0.383688  0.845260  1
  Nd  Nd4  1  0.000000  0.106523  0.571215  1
  Nd  Nd5  1  0.000000  0.893477  0.428785  1
  Nd  Nd6  1  0.000000  0.614328  0.923227  1
  Nd  Nd7  1  0.000000  0.385672  0.076773  1
  Si  Si8  1  0.500000  0.500000  0.000000  1
  S  S9  1  0.500000  0.000000  0.500000  1
  I  I10  1  0.500000  0.241941  0.164770  1
  I  I11  1  0.500000  0.758059  0.835230  1
  I  I12  1  0.500000  0.748888  0.340929  1
  I  I13  1  0.500000  0.251112  0.659071  1
  I  I14  1  0.000000  0.257961  0.416062  1
  I  I15  1  0.000000  0.742039  0.583938  1
  I  I16  1  0.000000  0.760732  0.085154  1
  I  I17  1  0.000000  0.239268  0.914846  1
  I  I18  1  0.000000  0.997793  0.242004  1
  I  I19  1  0.000000  0.002207  0.757996  1
  I  I20  1  0.000000  0.498944  0.261291  1
  I  I21  1  0.000000  0.501056  0.738709  1
