# generated using pymatgen
data_Ac4Ga4OsBr2
_symmetry_space_group_name_H-M   'P 1'
_cell_length_a   12.16871002
_cell_length_b   12.15162527
_cell_length_c   4.38937900
_cell_angle_alpha   90.00000000
_cell_angle_beta   90.00000000
_cell_angle_gamma   92.68524731
_symmetry_Int_Tables_number   1
_chemical_formula_structural   Ac4Ga4OsBr2
_chemical_formula_sum   'Ac8 Ga8 Os2 Br4'
_cell_volume   648.34305354
_cell_formula_units_Z   2
loop_
 _symmetry_equiv_pos_site_id
 _symmetry_equiv_pos_as_xyz
  1  'x, y, z'
loop_
 _atom_site_type_symbol
 _atom_site_label
 _atom_site_symmetry_multiplicity
 _atom_site_fract_x
 _atom_site_fract_y
 _atom_site_fract_z
 _atom_site_occupancy
  Ac  Ac0  1  0.666812  0.029557  0.500000  1
  Ac  Ac1  1  0.332424  0.953280  0.500000  1
  Ac  Ac2  1  0.038127  0.671210  0.500000  1
  Ac  Ac3  1  0.960264  0.325343  0.500000  1
  Ac  Ac4  1  0.724366  0.734171  0.000000  1
  Ac  Ac5  1  0.272033  0.269160  0.000000  1
  Ac  Ac6  1  0.376853  0.636976  0.000000  1
  Ac  Ac7  1  0.630102  0.370114  0.000000  1
  Ga  Ga8  1  0.576995  0.586293  0.500000  1
  Ga  Ga9  1  0.421863  0.421609  0.500000  1
  Ga  Ga10  1  0.478622  0.100337  0.000000  1
  Ga  Ga11  1  0.898304  0.536571  0.000000  1
  Ga  Ga12  1  0.100735  0.461745  0.000000  1
  Ga  Ga13  1  0.477491  0.216946  0.500000  1
  Ga  Ga14  1  0.220065  0.490907  0.500000  1
  Ga  Ga15  1  0.780932  0.511366  0.500000  1
  Os  Os16  1  0.517234  0.886351  0.000000  1
  Os  Os17  1  0.529449  0.797560  0.500000  1
  Br  Br18  1  0.124927  0.124181  0.500000  1
  Br  Br19  1  0.881507  0.877756  0.500000  1
  Br  Br20  1  0.825337  0.172434  0.000000  1
  Br  Br21  1  0.165557  0.826134  0.000000  1
