# generated using pymatgen
data_Sc4Al6IrRh
_symmetry_space_group_name_H-M   'P 1'
_cell_length_a   5.32806300
_cell_length_b   5.32806469
_cell_length_c   8.47655700
_cell_angle_alpha   90.00000000
_cell_angle_beta   90.00000000
_cell_angle_gamma   120.00000811
_symmetry_Int_Tables_number   1
_chemical_formula_structural   Sc4Al6IrRh
_chemical_formula_sum   'Sc4 Al6 Ir1 Rh1'
_cell_volume   208.39578163
_cell_formula_units_Z   1
loop_
 _symmetry_equiv_pos_site_id
 _symmetry_equiv_pos_as_xyz
  1  'x, y, z'
loop_
 _atom_site_type_symbol
 _atom_site_label
 _atom_site_symmetry_multiplicity
 _atom_site_fract_x
 _atom_site_fract_y
 _atom_site_fract_z
 _atom_site_occupancy
  Sc  Sc0  1  0.333333  0.666667  0.056457  1
  Sc  Sc1  1  0.666667  0.333333  0.555296  1
  Sc  Sc2  1  0.333333  0.666667  0.444704  1
  Sc  Sc3  1  0.666667  0.333333  0.943543  1
  Al  Al4  1  0.833483  0.666965  0.249898  1
  Al  Al5  1  0.166517  0.833483  0.750102  1
  Al  Al6  1  0.666965  0.833483  0.750102  1
  Al  Al7  1  0.333035  0.166517  0.249898  1
  Al  Al8  1  0.833483  0.166517  0.249898  1
  Al  Al9  1  0.166517  0.333035  0.750102  1
  Ir  Ir10  1  0.000000  0.000000  0.500000  1
  Rh  Rh11  1  0.000000  0.000000  0.000000  1
