# generated using pymatgen
data_YbPa3(SbPt2)2
_symmetry_space_group_name_H-M   'P 1'
_cell_length_a   7.65417488
_cell_length_b   7.65417488
_cell_length_c   7.65202700
_cell_angle_alpha   90.00000000
_cell_angle_beta   90.00000000
_cell_angle_gamma   91.13716494
_symmetry_Int_Tables_number   1
_chemical_formula_structural   YbPa3(SbPt2)2
_chemical_formula_sum   'Yb2 Pa6 Sb4 Pt8'
_cell_volume   448.21636824
_cell_formula_units_Z   2
loop_
 _symmetry_equiv_pos_site_id
 _symmetry_equiv_pos_as_xyz
  1  'x, y, z'
loop_
 _atom_site_type_symbol
 _atom_site_label
 _atom_site_symmetry_multiplicity
 _atom_site_fract_x
 _atom_site_fract_y
 _atom_site_fract_z
 _atom_site_occupancy
  Yb  Yb0  1  0.837507  0.162493  0.000000  1
  Yb  Yb1  1  0.162493  0.837507  0.000000  1
  Pa  Pa2  1  0.681587  0.681587  0.000000  1
  Pa  Pa3  1  0.338566  0.338566  0.500000  1
  Pa  Pa4  1  0.818947  0.181053  0.500000  1
  Pa  Pa5  1  0.661434  0.661434  0.500000  1
  Pa  Pa6  1  0.318413  0.318413  0.000000  1
  Pa  Pa7  1  0.181053  0.818947  0.500000  1
  Sb  Sb8  1  0.500000  0.000000  0.754031  1
  Sb  Sb9  1  0.500000  0.000000  0.245969  1
  Sb  Sb10  1  0.000000  0.500000  0.754031  1
  Sb  Sb11  1  0.000000  0.500000  0.245969  1
  Pt  Pt12  1  0.867954  0.867954  0.725954  1
  Pt  Pt13  1  0.132046  0.132046  0.725954  1
  Pt  Pt14  1  0.627455  0.372545  0.761140  1
  Pt  Pt15  1  0.627455  0.372545  0.238860  1
  Pt  Pt16  1  0.372545  0.627455  0.238860  1
  Pt  Pt17  1  0.132046  0.132046  0.274046  1
  Pt  Pt18  1  0.867954  0.867954  0.274046  1
  Pt  Pt19  1  0.372545  0.627455  0.761140  1
