# generated using pymatgen
data_SrEuH6Pd
_symmetry_space_group_name_H-M   'P 1'
_cell_length_a   7.37729135
_cell_length_b   7.37729095
_cell_length_c   5.49476400
_cell_angle_alpha   90.00000000
_cell_angle_beta   90.00000000
_cell_angle_gamma   136.15608328
_symmetry_Int_Tables_number   1
_chemical_formula_structural   SrEuH6Pd
_chemical_formula_sum   'Sr2 Eu2 H12 Pd2'
_cell_volume   207.15035996
_cell_formula_units_Z   2
loop_
 _symmetry_equiv_pos_site_id
 _symmetry_equiv_pos_as_xyz
  1  'x, y, z'
loop_
 _atom_site_type_symbol
 _atom_site_label
 _atom_site_symmetry_multiplicity
 _atom_site_fract_x
 _atom_site_fract_y
 _atom_site_fract_z
 _atom_site_occupancy
  Sr  Sr0  1  0.852673  0.147327  0.500000  1
  Sr  Sr1  1  0.352673  0.647327  0.000000  1
  Eu  Eu2  1  0.146228  0.853772  0.500000  1
  Eu  Eu3  1  0.646228  0.353772  0.000000  1
  H  H4  1  0.993150  0.504601  0.749279  1
  H  H5  1  0.495399  0.006850  0.250721  1
  H  H6  1  0.995399  0.506850  0.249279  1
  H  H7  1  0.493150  0.004601  0.750721  1
  H  H8  1  0.377002  0.622998  0.500000  1
  H  H9  1  0.877002  0.122998  0.000000  1
  H  H10  1  0.624968  0.375032  0.500000  1
  H  H11  1  0.124968  0.875032  0.000000  1
  H  H12  1  0.278077  0.269407  0.724999  1
  H  H13  1  0.730593  0.721923  0.275001  1
  H  H14  1  0.230593  0.221923  0.224999  1
  H  H15  1  0.778077  0.769407  0.775001  1
  Pd  Pd16  1  0.501913  0.498087  0.500000  1
  Pd  Pd17  1  0.001913  0.998087  0.000000  1
