# generated using pymatgen
data_TbCo4ReP3
_symmetry_space_group_name_H-M   'P 1'
_cell_length_a   3.73122300
_cell_length_b   10.37898800
_cell_length_c   11.83446200
_cell_angle_alpha   90.00000000
_cell_angle_beta   90.00000000
_cell_angle_gamma   90.00000000
_symmetry_Int_Tables_number   1
_chemical_formula_structural   TbCo4ReP3
_chemical_formula_sum   'Tb4 Co16 Re4 P12'
_cell_volume   458.30514756
_cell_formula_units_Z   4
loop_
 _symmetry_equiv_pos_site_id
 _symmetry_equiv_pos_as_xyz
  1  'x, y, z'
loop_
 _atom_site_type_symbol
 _atom_site_label
 _atom_site_symmetry_multiplicity
 _atom_site_fract_x
 _atom_site_fract_y
 _atom_site_fract_z
 _atom_site_occupancy
  Tb  Tb0  1  0.250000  0.583975  0.704487  1
  Tb  Tb1  1  0.250000  0.916025  0.204487  1
  Tb  Tb2  1  0.750000  0.416025  0.295513  1
  Tb  Tb3  1  0.750000  0.083975  0.795513  1
  Co  Co4  1  0.250000  0.405281  0.488879  1
  Co  Co5  1  0.250000  0.094719  0.988879  1
  Co  Co6  1  0.750000  0.594719  0.511121  1
  Co  Co7  1  0.750000  0.905281  0.011121  1
  Co  Co8  1  0.250000  0.222440  0.175781  1
  Co  Co9  1  0.250000  0.277560  0.675781  1
  Co  Co10  1  0.750000  0.777560  0.824219  1
  Co  Co11  1  0.750000  0.722440  0.324219  1
  Co  Co12  1  0.250000  0.885833  0.702111  1
  Co  Co13  1  0.250000  0.614167  0.202111  1
  Co  Co14  1  0.750000  0.114167  0.297889  1
  Co  Co15  1  0.750000  0.385833  0.797889  1
  Co  Co16  1  0.250000  0.463845  0.932677  1
  Co  Co17  1  0.250000  0.036155  0.432677  1
  Co  Co18  1  0.750000  0.536155  0.067323  1
  Co  Co19  1  0.750000  0.963845  0.567323  1
  Re  Re20  1  0.250000  0.709636  0.989313  1
  Re  Re21  1  0.250000  0.790364  0.489313  1
  Re  Re22  1  0.750000  0.290364  0.010687  1
  Re  Re23  1  0.750000  0.209636  0.510687  1
  P  P24  1  0.250000  0.420497  0.113208  1
  P  P25  1  0.250000  0.079503  0.613208  1
  P  P26  1  0.750000  0.579503  0.886792  1
  P  P27  1  0.750000  0.920497  0.386792  1
  P  P28  1  0.250000  0.270396  0.865064  1
  P  P29  1  0.250000  0.229604  0.365064  1
  P  P30  1  0.750000  0.729604  0.134936  1
  P  P31  1  0.750000  0.770396  0.634936  1
  P  P32  1  0.250000  0.596465  0.391475  1
  P  P33  1  0.250000  0.903535  0.891475  1
  P  P34  1  0.750000  0.403535  0.608525  1
  P  P35  1  0.750000  0.096465  0.108525  1
