# generated using pymatgen
data_Lu7ScTi5Si16Mo7
_symmetry_space_group_name_H-M   'P 1'
_cell_length_a   6.68581801
_cell_length_b   6.88981915
_cell_length_c   13.02886998
_cell_angle_alpha   89.96886497
_cell_angle_beta   89.97426593
_cell_angle_gamma   90.00575020
_symmetry_Int_Tables_number   1
_chemical_formula_structural   Lu7ScTi5Si16Mo7
_chemical_formula_sum   'Lu7 Sc1 Ti5 Si16 Mo7'
_cell_volume   600.16271751
_cell_formula_units_Z   1
loop_
 _symmetry_equiv_pos_site_id
 _symmetry_equiv_pos_as_xyz
  1  'x, y, z'
loop_
 _atom_site_type_symbol
 _atom_site_label
 _atom_site_symmetry_multiplicity
 _atom_site_fract_x
 _atom_site_fract_y
 _atom_site_fract_z
 _atom_site_occupancy
  Lu  Lu0  1  0.499776  0.325690  0.094987  1
  Lu  Lu1  1  0.999827  0.170613  0.404728  1
  Lu  Lu2  1  0.499767  0.672388  0.595047  1
  Lu  Lu3  1  0.999888  0.827102  0.906644  1
  Lu  Lu4  1  0.499641  0.669044  0.906734  1
  Lu  Lu5  1  0.000505  0.830590  0.595970  1
  Lu  Lu6  1  0.501442  0.328415  0.403662  1
  Sc  Sc7  1  0.000151  0.172302  0.095442  1
  Ti  Ti8  1  0.836532  0.328966  0.626571  1
  Ti  Ti9  1  0.336915  0.170346  0.874324  1
  Ti  Ti10  1  0.162390  0.670586  0.125051  1
  Ti  Ti11  1  0.666744  0.830630  0.372928  1
  Ti  Ti12  1  0.166393  0.672776  0.372276  1
  Si  Si13  1  0.661769  0.040273  0.543172  1
  Si  Si14  1  0.160335  0.457449  0.958479  1
  Si  Si15  1  0.333618  0.963110  0.043767  1
  Si  Si16  1  0.835852  0.539400  0.457638  1
  Si  Si17  1  0.335716  0.960218  0.458896  1
  Si  Si18  1  0.834976  0.536187  0.043321  1
  Si  Si19  1  0.666111  0.041044  0.958925  1
  Si  Si20  1  0.165018  0.460946  0.542057  1
  Si  Si21  1  0.535861  0.375294  0.749043  1
  Si  Si22  1  0.035658  0.124266  0.752314  1
  Si  Si23  1  0.465175  0.626076  0.247522  1
  Si  Si24  1  0.962818  0.879861  0.247981  1
  Si  Si25  1  0.799264  0.629868  0.749988  1
  Si  Si26  1  0.299651  0.868605  0.751433  1
  Si  Si27  1  0.200976  0.367139  0.248259  1
  Si  Si28  1  0.703258  0.131404  0.248464  1
  Mo  Mo29  1  0.670601  0.831274  0.122650  1
  Mo  Mo30  1  0.830497  0.330095  0.875877  1
  Mo  Mo31  1  0.330720  0.169742  0.626345  1
  Mo  Mo32  1  0.663529  0.005888  0.750456  1
  Mo  Mo33  1  0.163345  0.491960  0.751016  1
  Mo  Mo34  1  0.335983  0.993810  0.248757  1
  Mo  Mo35  1  0.839298  0.506645  0.249280  1
