# generated using pymatgen
data_Dy5(CoTe)2
_symmetry_space_group_name_H-M   'P 1'
_cell_length_a   7.77164019
_cell_length_b   7.77164065
_cell_length_c   15.01265900
_cell_angle_alpha   90.00000000
_cell_angle_beta   90.00000000
_cell_angle_gamma   150.32266474
_symmetry_Int_Tables_number   1
_chemical_formula_structural   Dy5(CoTe)2
_chemical_formula_sum   'Dy10 Co4 Te4'
_cell_volume   448.94084475
_cell_formula_units_Z   2
loop_
 _symmetry_equiv_pos_site_id
 _symmetry_equiv_pos_as_xyz
  1  'x, y, z'
loop_
 _atom_site_type_symbol
 _atom_site_label
 _atom_site_symmetry_multiplicity
 _atom_site_fract_x
 _atom_site_fract_y
 _atom_site_fract_z
 _atom_site_occupancy
  Dy  Dy0  1  0.039317  0.960683  0.873314  1
  Dy  Dy1  1  0.960683  0.039317  0.126686  1
  Dy  Dy2  1  0.741749  0.258251  0.630716  1
  Dy  Dy3  1  0.960683  0.039317  0.373314  1
  Dy  Dy4  1  0.393866  0.606134  0.750000  1
  Dy  Dy5  1  0.258251  0.741749  0.369284  1
  Dy  Dy6  1  0.258251  0.741749  0.130716  1
  Dy  Dy7  1  0.741749  0.258251  0.869284  1
  Dy  Dy8  1  0.606134  0.393866  0.250000  1
  Dy  Dy9  1  0.039317  0.960683  0.626686  1
  Co  Co10  1  0.410917  0.589083  0.250000  1
  Co  Co11  1  0.181341  0.818659  0.750000  1
  Co  Co12  1  0.589083  0.410917  0.750000  1
  Co  Co13  1  0.818659  0.181341  0.250000  1
  Te  Te14  1  0.382502  0.617498  0.538166  1
  Te  Te15  1  0.617498  0.382502  0.461834  1
  Te  Te16  1  0.382502  0.617498  0.961834  1
  Te  Te17  1  0.617498  0.382502  0.038166  1
