# generated using pymatgen
data_Tb7Lu(AgRh)2
_symmetry_space_group_name_H-M   'P 1'
_cell_length_a   9.54456441
_cell_length_b   9.53987852
_cell_length_c   9.53987920
_cell_angle_alpha   60.02239870
_cell_angle_beta   60.01733887
_cell_angle_gamma   60.01733722
_symmetry_Int_Tables_number   1
_chemical_formula_structural   Tb7Lu(AgRh)2
_chemical_formula_sum   'Tb14 Lu2 Ag4 Rh4'
_cell_volume   614.48898099
_cell_formula_units_Z   2
loop_
 _symmetry_equiv_pos_site_id
 _symmetry_equiv_pos_as_xyz
  1  'x, y, z'
loop_
 _atom_site_type_symbol
 _atom_site_label
 _atom_site_symmetry_multiplicity
 _atom_site_fract_x
 _atom_site_fract_y
 _atom_site_fract_z
 _atom_site_occupancy
  Tb  Tb0  1  0.186770  0.187859  0.812038  1
  Tb  Tb1  1  0.647694  0.059153  0.647333  1
  Tb  Tb2  1  0.063968  0.065166  0.436060  1
  Tb  Tb3  1  0.436386  0.434994  0.063688  1
  Tb  Tb4  1  0.647698  0.646130  0.646130  1
  Tb  Tb5  1  0.812211  0.186542  0.186542  1
  Tb  Tb6  1  0.185256  0.813530  0.813530  1
  Tb  Tb7  1  0.058357  0.647389  0.647389  1
  Tb  Tb8  1  0.437097  0.064188  0.064188  1
  Tb  Tb9  1  0.436386  0.063688  0.434994  1
  Tb  Tb10  1  0.063968  0.436060  0.065166  1
  Tb  Tb11  1  0.647694  0.647333  0.059153  1
  Tb  Tb12  1  0.186770  0.812038  0.187859  1
  Tb  Tb13  1  0.063133  0.435792  0.435792  1
  Lu  Lu14  1  0.812911  0.813963  0.185939  1
  Lu  Lu15  1  0.812911  0.185939  0.813963  1
  Ag  Ag16  1  0.417937  0.417896  0.417896  1
  Ag  Ag17  1  0.418309  0.417859  0.746281  1
  Ag  Ag18  1  0.418309  0.746281  0.417859  1
  Ag  Ag19  1  0.746504  0.418035  0.418035  1
  Rh  Rh20  1  0.856473  0.429210  0.856359  1
  Rh  Rh21  1  0.856099  0.858012  0.858012  1
  Rh  Rh22  1  0.856473  0.856359  0.429210  1
  Rh  Rh23  1  0.430682  0.856580  0.856580  1
