# generated using pymatgen
data_YLu2Mg(GaPt)4
_symmetry_space_group_name_H-M   'P 1'
_cell_length_a   4.29648100
_cell_length_b   6.79197494
_cell_length_c   7.77120120
_cell_angle_alpha   94.25183041
_cell_angle_beta   90.00000000
_cell_angle_gamma   90.00000000
_symmetry_Int_Tables_number   1
_chemical_formula_structural   YLu2Mg(GaPt)4
_chemical_formula_sum   'Y1 Lu2 Mg1 Ga4 Pt4'
_cell_volume   226.15188822
_cell_formula_units_Z   1
loop_
 _symmetry_equiv_pos_site_id
 _symmetry_equiv_pos_as_xyz
  1  'x, y, z'
loop_
 _atom_site_type_symbol
 _atom_site_label
 _atom_site_symmetry_multiplicity
 _atom_site_fract_x
 _atom_site_fract_y
 _atom_site_fract_z
 _atom_site_occupancy
  Y  Y0  1  0.250000  0.476675  0.187657  1
  Lu  Lu1  1  0.750000  0.021823  0.678823  1
  Lu  Lu2  1  0.750000  0.530989  0.811639  1
  Mg  Mg3  1  0.250000  0.972504  0.324332  1
  Ga  Ga4  1  0.250000  0.336826  0.561431  1
  Ga  Ga5  1  0.250000  0.854796  0.942910  1
  Ga  Ga6  1  0.750000  0.653045  0.431829  1
  Ga  Ga7  1  0.750000  0.153873  0.062665  1
  Pt  Pt8  1  0.250000  0.231681  0.871691  1
  Pt  Pt9  1  0.250000  0.728981  0.616468  1
  Pt  Pt10  1  0.750000  0.782344  0.124436  1
  Pt  Pt11  1  0.750000  0.256462  0.386116  1
