# generated using pymatgen
data_LiTb6PtBr12
_symmetry_space_group_name_H-M   'P 1'
_cell_length_a   9.31745768
_cell_length_b   9.31745849
_cell_length_c   9.31745854
_cell_angle_alpha   108.11661022
_cell_angle_beta   108.11660401
_cell_angle_gamma   108.11660771
_symmetry_Int_Tables_number   1
_chemical_formula_structural   LiTb6PtBr12
_chemical_formula_sum   'Li1 Tb6 Pt1 Br12'
_cell_volume   652.04903532
_cell_formula_units_Z   1
loop_
 _symmetry_equiv_pos_site_id
 _symmetry_equiv_pos_as_xyz
  1  'x, y, z'
loop_
 _atom_site_type_symbol
 _atom_site_label
 _atom_site_symmetry_multiplicity
 _atom_site_fract_x
 _atom_site_fract_y
 _atom_site_fract_z
 _atom_site_occupancy
  Li  Li0  1  0.500000  0.500000  0.500000  1
  Tb  Tb1  1  0.324401  0.112983  0.034022  1
  Tb  Tb2  1  0.034022  0.324401  0.112983  1
  Tb  Tb3  1  0.112983  0.034022  0.324401  1
  Tb  Tb4  1  0.675599  0.887017  0.965978  1
  Tb  Tb5  1  0.965978  0.675599  0.887017  1
  Tb  Tb6  1  0.887017  0.965978  0.675599  1
  Pt  Pt7  1  0.000000  0.000000  0.000000  1
  Br  Br8  1  0.683164  0.218827  0.071984  1
  Br  Br9  1  0.071984  0.683164  0.218827  1
  Br  Br10  1  0.218827  0.071984  0.683164  1
  Br  Br11  1  0.316836  0.781173  0.928016  1
  Br  Br12  1  0.928016  0.316836  0.781173  1
  Br  Br13  1  0.781173  0.928016  0.316836  1
  Br  Br14  1  0.460350  0.168544  0.382287  1
  Br  Br15  1  0.382287  0.460350  0.168544  1
  Br  Br16  1  0.168544  0.382287  0.460350  1
  Br  Br17  1  0.539650  0.831456  0.617713  1
  Br  Br18  1  0.617713  0.539650  0.831456  1
  Br  Br19  1  0.831456  0.617713  0.539650  1
