# generated using pymatgen
data_Ce2Y2AlZnRu4
_symmetry_space_group_name_H-M   'P 1'
_cell_length_a   5.68529076
_cell_length_b   5.68529102
_cell_length_c   7.08049374
_cell_angle_alpha   87.24364043
_cell_angle_beta   92.75636123
_cell_angle_gamma   117.22827468
_symmetry_Int_Tables_number   1
_chemical_formula_structural   Ce2Y2AlZnRu4
_chemical_formula_sum   'Ce2 Y2 Al1 Zn1 Ru4'
_cell_volume   203.17659523
_cell_formula_units_Z   1
loop_
 _symmetry_equiv_pos_site_id
 _symmetry_equiv_pos_as_xyz
  1  'x, y, z'
loop_
 _atom_site_type_symbol
 _atom_site_label
 _atom_site_symmetry_multiplicity
 _atom_site_fract_x
 _atom_site_fract_y
 _atom_site_fract_z
 _atom_site_occupancy
  Ce  Ce0  1  0.170738  0.829262  0.588996  1
  Ce  Ce1  1  0.829262  0.170738  0.411004  1
  Y  Y2  1  0.344591  0.655409  0.085507  1
  Y  Y3  1  0.655409  0.344591  0.914493  1
  Al  Al4  1  0.500000  0.500000  0.500000  1
  Zn  Zn5  1  0.000000  0.000000  0.000000  1
  Ru  Ru6  1  0.867747  0.638301  0.269743  1
  Ru  Ru7  1  0.638301  0.867747  0.730257  1
  Ru  Ru8  1  0.132253  0.361699  0.730257  1
  Ru  Ru9  1  0.361699  0.132253  0.269743  1
