# generated using pymatgen
data_CaBe2Au5
_symmetry_space_group_name_H-M   'P 1'
_cell_length_a   6.40577000
_cell_length_b   8.81388600
_cell_length_c   10.12882100
_cell_angle_alpha   90.00000000
_cell_angle_beta   90.00000000
_cell_angle_gamma   90.00000000
_symmetry_Int_Tables_number   1
_chemical_formula_structural   CaBe2Au5
_chemical_formula_sum   'Ca4 Be8 Au20'
_cell_volume   571.87046365
_cell_formula_units_Z   4
loop_
 _symmetry_equiv_pos_site_id
 _symmetry_equiv_pos_as_xyz
  1  'x, y, z'
loop_
 _atom_site_type_symbol
 _atom_site_label
 _atom_site_symmetry_multiplicity
 _atom_site_fract_x
 _atom_site_fract_y
 _atom_site_fract_z
 _atom_site_occupancy
  Ca  Ca0  1  0.250000  0.263575  0.132275  1
  Ca  Ca1  1  0.250000  0.763575  0.367725  1
  Ca  Ca2  1  0.750000  0.736425  0.867725  1
  Ca  Ca3  1  0.750000  0.236425  0.632275  1
  Be  Be4  1  0.250000  0.061963  0.582668  1
  Be  Be5  1  0.250000  0.561963  0.917332  1
  Be  Be6  1  0.750000  0.938037  0.417332  1
  Be  Be7  1  0.750000  0.438037  0.082668  1
  Be  Be8  1  0.250000  0.335224  0.485063  1
  Be  Be9  1  0.250000  0.835224  0.014937  1
  Be  Be10  1  0.750000  0.664776  0.514937  1
  Be  Be11  1  0.750000  0.164776  0.985063  1
  Au  Au12  1  0.029622  0.111900  0.395765  1
  Au  Au13  1  0.470378  0.611900  0.104235  1
  Au  Au14  1  0.529622  0.888100  0.604235  1
  Au  Au15  1  0.970378  0.388100  0.895765  1
  Au  Au16  1  0.970378  0.888100  0.604235  1
  Au  Au17  1  0.529622  0.388100  0.895765  1
  Au  Au18  1  0.470378  0.111900  0.395765  1
  Au  Au19  1  0.029622  0.611900  0.104235  1
  Au  Au20  1  0.018833  0.051931  0.865963  1
  Au  Au21  1  0.481167  0.551931  0.634037  1
  Au  Au22  1  0.518833  0.948069  0.134037  1
  Au  Au23  1  0.981167  0.448069  0.365963  1
  Au  Au24  1  0.981167  0.948069  0.134037  1
  Au  Au25  1  0.518833  0.448069  0.365963  1
  Au  Au26  1  0.481167  0.051931  0.865963  1
  Au  Au27  1  0.018833  0.551931  0.634037  1
  Au  Au28  1  0.250000  0.273953  0.706811  1
  Au  Au29  1  0.250000  0.773953  0.793189  1
  Au  Au30  1  0.750000  0.726047  0.293189  1
  Au  Au31  1  0.750000  0.226047  0.206811  1
