# generated using pymatgen
data_Rb4Li2TmInSb4
_symmetry_space_group_name_H-M   'P 1'
_cell_length_a   9.92386389
_cell_length_b   9.92386337
_cell_length_c   9.92386314
_cell_angle_alpha   137.81903029
_cell_angle_beta   60.94150668
_cell_angle_gamma   138.13115414
_symmetry_Int_Tables_number   1
_chemical_formula_structural   Rb4Li2TmInSb4
_chemical_formula_sum   'Rb4 Li2 Tm1 In1 Sb4'
_cell_volume   433.20849273
_cell_formula_units_Z   1
loop_
 _symmetry_equiv_pos_site_id
 _symmetry_equiv_pos_as_xyz
  1  'x, y, z'
loop_
 _atom_site_type_symbol
 _atom_site_label
 _atom_site_symmetry_multiplicity
 _atom_site_fract_x
 _atom_site_fract_y
 _atom_site_fract_z
 _atom_site_occupancy
  Rb  Rb0  1  0.818633  0.256427  0.089287  1
  Rb  Rb1  1  0.681368  0.770656  0.437795  1
  Rb  Rb2  1  0.332859  0.243573  0.562206  1
  Rb  Rb3  1  0.167141  0.729345  0.910713  1
  Li  Li4  1  0.750000  0.250000  0.500000  1
  Li  Li5  1  0.250000  0.750001  0.500000  1
  Tm  Tm6  1  0.250000  0.250000  0.000000  1
  In  In7  1  0.749999  0.749999  0.000000  1
  Sb  Sb8  1  0.406491  0.746154  0.148342  1
  Sb  Sb9  1  0.093509  0.241853  0.339663  1
  Sb  Sb10  1  0.902189  0.753848  0.660337  1
  Sb  Sb11  1  0.597811  0.258147  0.851658  1
