# generated using pymatgen
data_HoTh5Al24Os7Au
_symmetry_space_group_name_H-M   'P 1'
_cell_length_a   8.97986920
_cell_length_b   8.97986885
_cell_length_c   9.59377050
_cell_angle_alpha   89.93795525
_cell_angle_beta   90.06204857
_cell_angle_gamma   119.81182140
_symmetry_Int_Tables_number   1
_chemical_formula_structural   HoTh5Al24Os7Au
_chemical_formula_sum   'Ho1 Th5 Al24 Os7 Au1'
_cell_volume   671.24338210
_cell_formula_units_Z   1
loop_
 _symmetry_equiv_pos_site_id
 _symmetry_equiv_pos_as_xyz
  1  'x, y, z'
loop_
 _atom_site_type_symbol
 _atom_site_label
 _atom_site_symmetry_multiplicity
 _atom_site_fract_x
 _atom_site_fract_y
 _atom_site_fract_z
 _atom_site_occupancy
  Ho  Ho0  1  0.804823  0.195177  0.745259  1
  Th  Th1  1  0.189883  0.387009  0.251944  1
  Th  Th2  1  0.809163  0.613532  0.747968  1
  Th  Th3  1  0.612991  0.810117  0.251944  1
  Th  Th4  1  0.386468  0.190837  0.747968  1
  Th  Th5  1  0.194750  0.805250  0.255740  1
  Al  Al6  1  0.329189  0.670811  0.016574  1
  Al  Al7  1  0.673840  0.326160  0.977092  1
  Al  Al8  1  0.668841  0.331159  0.516099  1
  Al  Al9  1  0.334375  0.665625  0.488602  1
  Al  Al10  1  0.159851  0.324688  0.576632  1
  Al  Al11  1  0.836538  0.673820  0.424067  1
  Al  Al12  1  0.675312  0.840149  0.576632  1
  Al  Al13  1  0.848109  0.677463  0.079671  1
  Al  Al14  1  0.326180  0.163462  0.424067  1
  Al  Al15  1  0.148145  0.321039  0.919681  1
  Al  Al16  1  0.163530  0.836470  0.580078  1
  Al  Al17  1  0.322537  0.151891  0.079671  1
  Al  Al18  1  0.836595  0.163405  0.425947  1
  Al  Al19  1  0.678961  0.851855  0.919681  1
  Al  Al20  1  0.836573  0.163427  0.074854  1
  Al  Al21  1  0.163658  0.836342  0.920867  1
  Al  Al22  1  0.565005  0.128779  0.249245  1
  Al  Al23  1  0.441238  0.876604  0.750213  1
  Al  Al24  1  0.871221  0.434995  0.249245  1
  Al  Al25  1  0.123396  0.558762  0.750213  1
  Al  Al26  1  0.565246  0.434754  0.256448  1
  Al  Al27  1  0.434087  0.565913  0.744379  1
  Al  Al28  1  0.998894  0.001106  0.250363  1
  Al  Al29  1  0.998174  0.001826  0.749336  1
  Os  Os30  1  0.499629  0.999234  0.001083  1
  Os  Os31  1  0.000766  0.500371  0.001083  1
  Os  Os32  1  0.499158  0.998705  0.498186  1
  Os  Os33  1  0.001295  0.500842  0.498186  1
  Os  Os34  1  0.501135  0.498865  0.501618  1
  Os  Os35  1  0.999811  0.000189  0.999376  1
  Os  Os36  1  0.999737  0.000263  0.500358  1
  Au  Au37  1  0.500894  0.499106  0.999629  1
