# generated using pymatgen
data_Ac7Ho(Sc3Pb4)4
_symmetry_space_group_name_H-M   'P 1'
_cell_length_a   8.22625260
_cell_length_b   15.60749780
_cell_length_c   8.28870143
_cell_angle_alpha   89.89690585
_cell_angle_beta   90.01281262
_cell_angle_gamma   90.16598431
_symmetry_Int_Tables_number   1
_chemical_formula_structural   Ac7Ho(Sc3Pb4)4
_chemical_formula_sum   'Ac7 Ho1 Sc12 Pb16'
_cell_volume   1064.19026951
_cell_formula_units_Z   1
loop_
 _symmetry_equiv_pos_site_id
 _symmetry_equiv_pos_as_xyz
  1  'x, y, z'
loop_
 _atom_site_type_symbol
 _atom_site_label
 _atom_site_symmetry_multiplicity
 _atom_site_fract_x
 _atom_site_fract_y
 _atom_site_fract_z
 _atom_site_occupancy
  Ac  Ac0  1  0.480584  0.594269  0.674331  1
  Ac  Ac1  1  0.982189  0.906377  0.827648  1
  Ac  Ac2  1  0.519805  0.093602  0.327945  1
  Ac  Ac3  1  0.020373  0.408156  0.171208  1
  Ac  Ac4  1  0.516499  0.409044  0.325022  1
  Ac  Ac5  1  0.019283  0.093549  0.173080  1
  Ac  Ac6  1  0.478828  0.902681  0.673704  1
  Ho  Ho7  1  0.973036  0.597205  0.823039  1
  Sc  Sc8  1  0.642428  0.625548  0.152272  1
  Sc  Sc9  1  0.141219  0.869065  0.346526  1
  Sc  Sc10  1  0.357968  0.127111  0.843079  1
  Sc  Sc11  1  0.858173  0.375176  0.658956  1
  Sc  Sc12  1  0.361687  0.375638  0.845382  1
  Sc  Sc13  1  0.857805  0.127367  0.654951  1
  Sc  Sc14  1  0.643717  0.871305  0.155468  1
  Sc  Sc15  1  0.143484  0.626974  0.344261  1
  Sc  Sc16  1  0.808498  0.747988  0.491505  1
  Sc  Sc17  1  0.305563  0.747637  0.006783  1
  Sc  Sc18  1  0.192977  0.250667  0.510966  1
  Sc  Sc19  1  0.694959  0.251569  0.990495  1
  Pb  Pb20  1  0.696796  0.457567  0.944440  1
  Pb  Pb21  1  0.186057  0.047611  0.553490  1
  Pb  Pb22  1  0.315957  0.949988  0.055822  1
  Pb  Pb23  1  0.818597  0.548720  0.455664  1
  Pb  Pb24  1  0.300503  0.551059  0.042945  1
  Pb  Pb25  1  0.814286  0.950024  0.446643  1
  Pb  Pb26  1  0.684730  0.048738  0.945236  1
  Pb  Pb27  1  0.181636  0.454592  0.557559  1
  Pb  Pb28  1  0.448617  0.748480  0.355949  1
  Pb  Pb29  1  0.948002  0.746979  0.139859  1
  Pb  Pb30  1  0.552217  0.251956  0.643131  1
  Pb  Pb31  1  0.053106  0.250453  0.856722  1
  Pb  Pb32  1  0.675047  0.747511  0.859766  1
  Pb  Pb33  1  0.159542  0.743827  0.647716  1
  Pb  Pb34  1  0.333780  0.250482  0.137872  1
  Pb  Pb35  1  0.832053  0.251083  0.360566  1
