# generated using pymatgen
data_NaYCo8(ReP3)2
_symmetry_space_group_name_H-M   'P 1'
_cell_length_a   3.67232300
_cell_length_b   10.31971001
_cell_length_c   11.77924401
_cell_angle_alpha   89.99487631
_cell_angle_beta   90.00000000
_cell_angle_gamma   90.00000000
_symmetry_Int_Tables_number   1
_chemical_formula_structural   NaYCo8(ReP3)2
_chemical_formula_sum   'Na2 Y2 Co16 Re4 P12'
_cell_volume   446.40164153
_cell_formula_units_Z   2
loop_
 _symmetry_equiv_pos_site_id
 _symmetry_equiv_pos_as_xyz
  1  'x, y, z'
loop_
 _atom_site_type_symbol
 _atom_site_label
 _atom_site_symmetry_multiplicity
 _atom_site_fract_x
 _atom_site_fract_y
 _atom_site_fract_z
 _atom_site_occupancy
  Na  Na0  1  0.250000  0.918463  0.203651  1
  Na  Na1  1  0.750000  0.081537  0.796349  1
  Y  Y2  1  0.750000  0.415553  0.296829  1
  Y  Y3  1  0.250000  0.584447  0.703171  1
  Co  Co4  1  0.250000  0.094168  0.990047  1
  Co  Co5  1  0.750000  0.905832  0.009953  1
  Co  Co6  1  0.750000  0.594205  0.511014  1
  Co  Co7  1  0.250000  0.405795  0.488986  1
  Co  Co8  1  0.250000  0.281528  0.677519  1
  Co  Co9  1  0.750000  0.718472  0.322481  1
  Co  Co10  1  0.750000  0.778156  0.822712  1
  Co  Co11  1  0.250000  0.221844  0.177288  1
  Co  Co12  1  0.250000  0.612413  0.198918  1
  Co  Co13  1  0.750000  0.387587  0.801082  1
  Co  Co14  1  0.750000  0.113219  0.299283  1
  Co  Co15  1  0.250000  0.886781  0.700717  1
  Co  Co16  1  0.250000  0.034029  0.435128  1
  Co  Co17  1  0.750000  0.965971  0.564872  1
  Co  Co18  1  0.750000  0.535706  0.065935  1
  Co  Co19  1  0.250000  0.464294  0.934065  1
  Re  Re20  1  0.250000  0.792025  0.487340  1
  Re  Re21  1  0.750000  0.207975  0.512660  1
  Re  Re22  1  0.750000  0.289978  0.011697  1
  Re  Re23  1  0.250000  0.710022  0.988303  1
  P  P24  1  0.250000  0.081816  0.619127  1
  P  P25  1  0.750000  0.918184  0.380873  1
  P  P26  1  0.750000  0.581544  0.885251  1
  P  P27  1  0.250000  0.418456  0.114749  1
  P  P28  1  0.250000  0.228666  0.365762  1
  P  P29  1  0.750000  0.771334  0.634238  1
  P  P30  1  0.750000  0.736627  0.134416  1
  P  P31  1  0.250000  0.263373  0.865584  1
  P  P32  1  0.250000  0.906964  0.890212  1
  P  P33  1  0.750000  0.093036  0.109788  1
  P  P34  1  0.750000  0.403267  0.609982  1
  P  P35  1  0.250000  0.596733  0.390018  1
