# generated using pymatgen
data_Yb3MnNiO6
_symmetry_space_group_name_H-M   'P 1'
_cell_length_a   6.27695386
_cell_length_b   6.27695746
_cell_length_c   6.27693010
_cell_angle_alpha   91.64781730
_cell_angle_beta   91.64762693
_cell_angle_gamma   91.64712200
_symmetry_Int_Tables_number   1
_chemical_formula_structural   Yb3MnNiO6
_chemical_formula_sum   'Yb6 Mn2 Ni2 O12'
_cell_volume   246.99940891
_cell_formula_units_Z   2
loop_
 _symmetry_equiv_pos_site_id
 _symmetry_equiv_pos_as_xyz
  1  'x, y, z'
loop_
 _atom_site_type_symbol
 _atom_site_label
 _atom_site_symmetry_multiplicity
 _atom_site_fract_x
 _atom_site_fract_y
 _atom_site_fract_z
 _atom_site_occupancy
  Yb  Yb0  1  0.249997  0.613850  0.886148  1
  Yb  Yb1  1  0.386168  0.113835  0.749995  1
  Yb  Yb2  1  0.113831  0.749996  0.386165  1
  Yb  Yb3  1  0.749995  0.386165  0.113835  1
  Yb  Yb4  1  0.613851  0.886150  0.249998  1
  Yb  Yb5  1  0.886146  0.249999  0.613851  1
  Mn  Mn6  1  0.500018  0.500010  0.500020  1
  Mn  Mn7  1  0.999977  0.999973  0.999975  1
  Ni  Ni8  1  0.750002  0.749998  0.749999  1
  Ni  Ni9  1  0.250007  0.250009  0.250006  1
  O  O10  1  0.545928  0.207353  0.420887  1
  O  O11  1  0.454054  0.792616  0.579088  1
  O  O12  1  0.792611  0.579087  0.454055  1
  O  O13  1  0.579087  0.454055  0.792617  1
  O  O14  1  0.707388  0.045947  0.920914  1
  O  O15  1  0.045951  0.920915  0.707381  1
  O  O16  1  0.079112  0.292657  0.954066  1
  O  O17  1  0.954066  0.079113  0.292661  1
  O  O18  1  0.292658  0.954067  0.079112  1
  O  O19  1  0.420883  0.545933  0.207345  1
  O  O20  1  0.207350  0.420889  0.545933  1
  O  O21  1  0.920917  0.707388  0.045947  1
