# generated using pymatgen
data_Zr2Sn2Rh3
_symmetry_space_group_name_H-M   'P 1'
_cell_length_a   7.92296213
_cell_length_b   7.92296182
_cell_length_c   7.92296083
_cell_angle_alpha   33.37328330
_cell_angle_beta   33.37328768
_cell_angle_gamma   33.37329093
_symmetry_Int_Tables_number   1
_chemical_formula_structural   Zr2Sn2Rh3
_chemical_formula_sum   'Zr2 Sn2 Rh3'
_cell_volume   134.01218276
_cell_formula_units_Z   1
loop_
 _symmetry_equiv_pos_site_id
 _symmetry_equiv_pos_as_xyz
  1  'x, y, z'
loop_
 _atom_site_type_symbol
 _atom_site_label
 _atom_site_symmetry_multiplicity
 _atom_site_fract_x
 _atom_site_fract_y
 _atom_site_fract_z
 _atom_site_occupancy
  Zr  Zr0  1  0.504091  0.504091  0.504091  1
  Zr  Zr1  1  0.996395  0.996395  0.996395  1
  Sn  Sn2  1  0.253108  0.253108  0.253108  1
  Sn  Sn3  1  0.746693  0.746693  0.746693  1
  Rh  Rh4  1  0.122947  0.122947  0.122947  1
  Rh  Rh5  1  0.376892  0.376892  0.376892  1
  Rh  Rh6  1  0.874874  0.874874  0.874874  1
