# generated using pymatgen
data_Ce6Sb8Pt3Rh2Au
_symmetry_space_group_name_H-M   'P 1'
_cell_length_a   8.55973522
_cell_length_b   8.55927047
_cell_length_c   8.55754278
_cell_angle_alpha   109.39648345
_cell_angle_beta   109.53480071
_cell_angle_gamma   109.47154377
_symmetry_Int_Tables_number   1
_chemical_formula_structural   Ce6Sb8Pt3Rh2Au
_chemical_formula_sum   'Ce6 Sb8 Pt3 Rh2 Au1'
_cell_volume   482.70505558
_cell_formula_units_Z   1
loop_
 _symmetry_equiv_pos_site_id
 _symmetry_equiv_pos_as_xyz
  1  'x, y, z'
loop_
 _atom_site_type_symbol
 _atom_site_label
 _atom_site_symmetry_multiplicity
 _atom_site_fract_x
 _atom_site_fract_y
 _atom_site_fract_z
 _atom_site_occupancy
  Ce  Ce0  1  0.878132  0.253687  0.127332  1
  Ce  Ce1  1  0.622212  0.749374  0.375655  1
  Ce  Ce2  1  0.246932  0.119348  0.879244  1
  Ce  Ce3  1  0.760079  0.380812  0.627644  1
  Ce  Ce4  1  0.122332  0.865167  0.241321  1
  Ce  Ce5  1  0.371002  0.631246  0.749426  1
  Sb  Sb6  1  0.673468  0.504775  0.006451  1
  Sb  Sb7  1  0.499417  0.991935  0.666636  1
  Sb  Sb8  1  0.003963  0.672367  0.501880  1
  Sb  Sb9  1  0.831215  0.827508  0.829692  1
  Sb  Sb10  1  0.496903  0.998720  0.168977  1
  Sb  Sb11  1  0.171587  0.502375  0.001424  1
  Sb  Sb12  1  0.993312  0.166926  0.498217  1
  Sb  Sb13  1  0.329561  0.335492  0.326264  1
  Pt  Pt14  1  0.748806  0.876143  0.123662  1
  Pt  Pt15  1  0.626738  0.374723  0.251495  1
  Pt  Pt16  1  0.876566  0.125635  0.752799  1
  Rh  Rh17  1  0.124693  0.749908  0.874394  1
  Rh  Rh18  1  0.247760  0.624209  0.372870  1
  Au  Au19  1  0.375321  0.249653  0.624618  1
