# generated using pymatgen
data_DyHo7(MnS4)4
_symmetry_space_group_name_H-M   'P 1'
_cell_length_a   6.41287500
_cell_length_b   7.92528902
_cell_length_c   13.54430800
_cell_angle_alpha   90.00248694
_cell_angle_beta   89.99826671
_cell_angle_gamma   89.99748421
_symmetry_Int_Tables_number   1
_chemical_formula_structural   DyHo7(MnS4)4
_chemical_formula_sum   'Dy1 Ho7 Mn4 S16'
_cell_volume   688.37438871
_cell_formula_units_Z   1
loop_
 _symmetry_equiv_pos_site_id
 _symmetry_equiv_pos_as_xyz
  1  'x, y, z'
loop_
 _atom_site_type_symbol
 _atom_site_label
 _atom_site_symmetry_multiplicity
 _atom_site_fract_x
 _atom_site_fract_y
 _atom_site_fract_z
 _atom_site_occupancy
  Dy  Dy0  1  0.500000  0.500000  0.500000  1
  Ho  Ho1  1  0.000000  0.500000  0.000000  1
  Ho  Ho2  1  0.500000  0.000000  0.500000  1
  Ho  Ho3  1  0.000000  0.000000  0.000000  1
  Ho  Ho4  1  0.994847  0.750045  0.265754  1
  Ho  Ho5  1  0.505153  0.750058  0.765888  1
  Ho  Ho6  1  0.005153  0.249955  0.734246  1
  Ho  Ho7  1  0.494847  0.249942  0.234112  1
  Mn  Mn8  1  0.411226  0.749997  0.092346  1
  Mn  Mn9  1  0.088787  0.750037  0.592356  1
  Mn  Mn10  1  0.588774  0.250003  0.907654  1
  Mn  Mn11  1  0.911213  0.249963  0.407644  1
  S  S12  1  0.780429  0.750012  0.090060  1
  S  S13  1  0.720026  0.750681  0.590304  1
  S  S14  1  0.219571  0.249988  0.909940  1
  S  S15  1  0.279974  0.249319  0.409696  1
  S  S16  1  0.244221  0.750677  0.429909  1
  S  S17  1  0.255156  0.749997  0.930036  1
  S  S18  1  0.755779  0.249323  0.570091  1
  S  S19  1  0.744844  0.250003  0.069964  1
  S  S20  1  0.742301  0.486961  0.330878  1
  S  S21  1  0.758252  0.012918  0.831282  1
  S  S22  1  0.258295  0.987064  0.668722  1
  S  S23  1  0.241777  0.512912  0.168718  1
  S  S24  1  0.257699  0.513039  0.669122  1
  S  S25  1  0.241748  0.987082  0.168718  1
  S  S26  1  0.741705  0.012936  0.331278  1
  S  S27  1  0.758223  0.487088  0.831282  1
