# generated using pymatgen
data_Tb6Dy6Tc3Ru
_symmetry_space_group_name_H-M   'P 1'
_cell_length_a   6.30306570
_cell_length_b   7.39894491
_cell_length_c   9.20009020
_cell_angle_alpha   89.99544207
_cell_angle_beta   90.02342539
_cell_angle_gamma   89.91685249
_symmetry_Int_Tables_number   1
_chemical_formula_structural   Tb6Dy6Tc3Ru
_chemical_formula_sum   'Tb6 Dy6 Tc3 Ru1'
_cell_volume   429.05524751
_cell_formula_units_Z   1
loop_
 _symmetry_equiv_pos_site_id
 _symmetry_equiv_pos_as_xyz
  1  'x, y, z'
loop_
 _atom_site_type_symbol
 _atom_site_label
 _atom_site_symmetry_multiplicity
 _atom_site_fract_x
 _atom_site_fract_y
 _atom_site_fract_z
 _atom_site_occupancy
  Tb  Tb0  1  0.335580  0.676701  0.063722  1
  Tb  Tb1  1  0.162483  0.175703  0.437300  1
  Tb  Tb2  1  0.874176  0.542450  0.250078  1
  Tb  Tb3  1  0.625463  0.040681  0.249910  1
  Tb  Tb4  1  0.130508  0.457104  0.749980  1
  Tb  Tb5  1  0.373686  0.956061  0.750003  1
  Dy  Dy6  1  0.661939  0.324321  0.563165  1
  Dy  Dy7  1  0.836709  0.824644  0.937071  1
  Dy  Dy8  1  0.662053  0.323930  0.936754  1
  Dy  Dy9  1  0.836645  0.824253  0.562951  1
  Dy  Dy10  1  0.335842  0.676562  0.436363  1
  Dy  Dy11  1  0.162345  0.175573  0.062616  1
  Tc  Tc12  1  0.038277  0.886028  0.250080  1
  Tc  Tc13  1  0.462600  0.387738  0.249933  1
  Tc  Tc14  1  0.961888  0.114067  0.750405  1
  Ru  Ru15  1  0.539809  0.614186  0.749669  1
