# generated using pymatgen
data_Sr4SmTl(SbO6)2
_symmetry_space_group_name_H-M   'P 1'
_cell_length_a   5.89616515
_cell_length_b   5.99173900
_cell_length_c   8.37353599
_cell_angle_alpha   89.57051409
_cell_angle_beta   90.27078992
_cell_angle_gamma   90.00395804
_symmetry_Int_Tables_number   1
_chemical_formula_structural   Sr4SmTl(SbO6)2
_chemical_formula_sum   'Sr4 Sm1 Tl1 Sb2 O12'
_cell_volume   295.81103150
_cell_formula_units_Z   1
loop_
 _symmetry_equiv_pos_site_id
 _symmetry_equiv_pos_as_xyz
  1  'x, y, z'
loop_
 _atom_site_type_symbol
 _atom_site_label
 _atom_site_symmetry_multiplicity
 _atom_site_fract_x
 _atom_site_fract_y
 _atom_site_fract_z
 _atom_site_occupancy
  Sr  Sr0  1  0.490879  0.543259  0.245465  1
  Sr  Sr1  1  0.011487  0.039850  0.245678  1
  Sr  Sr2  1  0.988512  0.960150  0.754322  1
  Sr  Sr3  1  0.509121  0.456742  0.754536  1
  Sm  Sm4  1  0.000001  0.500000  0.499999  1
  Tl  Tl5  1  0.500000  0.000000  0.000000  1
  Sb  Sb6  1  0.000000  0.500000  0.000000  1
  Sb  Sb7  1  0.499999  0.000000  0.500000  1
  O  O8  1  0.276445  0.307287  0.045806  1
  O  O9  1  0.188248  0.775003  0.051726  1
  O  O10  1  0.915879  0.471916  0.231344  1
  O  O11  1  0.592083  0.968040  0.265751  1
  O  O12  1  0.310854  0.273972  0.452496  1
  O  O13  1  0.226679  0.807224  0.457468  1
  O  O14  1  0.773322  0.192777  0.542532  1
  O  O15  1  0.689147  0.726028  0.547504  1
  O  O16  1  0.407918  0.031959  0.734249  1
  O  O17  1  0.084122  0.528083  0.768656  1
  O  O18  1  0.811752  0.224997  0.948274  1
  O  O19  1  0.723555  0.692713  0.954194  1
