# generated using pymatgen
data_ErZr2U5Ir8
_symmetry_space_group_name_H-M   'P 1'
_cell_length_a   10.43311303
_cell_length_b   5.58914453
_cell_length_c   5.59111777
_cell_angle_alpha   80.86035940
_cell_angle_beta   90.24227592
_cell_angle_gamma   90.05465223
_symmetry_Int_Tables_number   1
_chemical_formula_structural   ErZr2U5Ir8
_chemical_formula_sum   'Er1 Zr2 U5 Ir8'
_cell_volume   321.88812436
_cell_formula_units_Z   1
loop_
 _symmetry_equiv_pos_site_id
 _symmetry_equiv_pos_as_xyz
  1  'x, y, z'
loop_
 _atom_site_type_symbol
 _atom_site_label
 _atom_site_symmetry_multiplicity
 _atom_site_fract_x
 _atom_site_fract_y
 _atom_site_fract_z
 _atom_site_occupancy
  Er  Er0  1  0.498826  0.100188  0.847865  1
  Zr  Zr1  1  0.000786  0.897718  0.154694  1
  Zr  Zr2  1  0.498275  0.661742  0.397955  1
  U  U3  1  0.988426  0.332123  0.593176  1
  U  U4  1  0.220984  0.383670  0.116668  1
  U  U5  1  0.713721  0.610135  0.882283  1
  U  U6  1  0.219830  0.857443  0.640089  1
  U  U7  1  0.714621  0.153231  0.369000  1
  Ir  Ir8  1  0.771666  0.111426  0.877091  1
  Ir  Ir9  1  0.263327  0.880161  0.140844  1
  Ir  Ir10  1  0.760824  0.650391  0.374829  1
  Ir  Ir11  1  0.257024  0.361207  0.615363  1
  Ir  Ir12  1  0.958918  0.409632  0.088020  1
  Ir  Ir13  1  0.451625  0.591575  0.905980  1
  Ir  Ir14  1  0.960237  0.823957  0.662781  1
  Ir  Ir15  1  0.456914  0.175400  0.333362  1
