# generated using pymatgen
data_Ce2MnRe3(SiC)2
_symmetry_space_group_name_H-M   'P 1'
_cell_length_a   5.78611120
_cell_length_b   5.78611162
_cell_length_c   7.21152425
_cell_angle_alpha   88.36117479
_cell_angle_beta   91.63882624
_cell_angle_gamma   139.65320356
_symmetry_Int_Tables_number   1
_chemical_formula_structural   Ce2MnRe3(SiC)2
_chemical_formula_sum   'Ce2 Mn1 Re3 Si2 C2'
_cell_volume   156.23561508
_cell_formula_units_Z   1
loop_
 _symmetry_equiv_pos_site_id
 _symmetry_equiv_pos_as_xyz
  1  'x, y, z'
loop_
 _atom_site_type_symbol
 _atom_site_label
 _atom_site_symmetry_multiplicity
 _atom_site_fract_x
 _atom_site_fract_y
 _atom_site_fract_z
 _atom_site_occupancy
  Ce  Ce0  1  0.543953  0.456047  0.254270  1
  Ce  Ce1  1  0.455881  0.544119  0.743894  1
  Mn  Mn2  1  0.830771  0.169229  0.430382  1
  Re  Re3  1  0.821008  0.178992  0.059627  1
  Re  Re4  1  0.179924  0.820076  0.944235  1
  Re  Re5  1  0.165127  0.834873  0.566804  1
  Si  Si6  1  0.270950  0.729050  0.274998  1
  Si  Si7  1  0.739206  0.260794  0.725736  1
  C  C8  1  0.000860  0.999140  0.003075  1
  C  C9  1  0.992320  0.007680  0.496980  1
