# generated using pymatgen
data_SmYFe2Co5
_symmetry_space_group_name_H-M   'P 1'
_cell_length_a   12.20944093
_cell_length_b   12.20944106
_cell_length_c   12.20944184
_cell_angle_alpha   23.99401073
_cell_angle_beta   23.99401092
_cell_angle_gamma   23.99401600
_symmetry_Int_Tables_number   1
_chemical_formula_structural   SmYFe2Co5
_chemical_formula_sum   'Sm2 Y2 Fe4 Co10'
_cell_volume   264.44664454
_cell_formula_units_Z   2
loop_
 _symmetry_equiv_pos_site_id
 _symmetry_equiv_pos_as_xyz
  1  'x, y, z'
loop_
 _atom_site_type_symbol
 _atom_site_label
 _atom_site_symmetry_multiplicity
 _atom_site_fract_x
 _atom_site_fract_y
 _atom_site_fract_z
 _atom_site_occupancy
  Sm  Sm0  1  0.948601  0.948601  0.948601  1
  Sm  Sm1  1  0.051399  0.051399  0.051399  1
  Y  Y2  1  0.851291  0.851291  0.851291  1
  Y  Y3  1  0.148709  0.148709  0.148709  1
  Fe  Fe4  1  0.721787  0.721787  0.721787  1
  Fe  Fe5  1  0.278213  0.278213  0.278213  1
  Fe  Fe6  1  0.611871  0.611871  0.611871  1
  Fe  Fe7  1  0.388129  0.388129  0.388129  1
  Co  Co8  1  0.500000  0.500000  0.500000  1
  Co  Co9  1  0.500000  0.500000  0.000000  1
  Co  Co10  1  0.000000  0.500000  0.500000  1
  Co  Co11  1  0.500000  0.000000  0.500000  1
  Co  Co12  1  0.390823  0.889221  0.390823  1
  Co  Co13  1  0.390823  0.390823  0.889221  1
  Co  Co14  1  0.889221  0.390823  0.390823  1
  Co  Co15  1  0.609177  0.110779  0.609177  1
  Co  Co16  1  0.609177  0.609177  0.110779  1
  Co  Co17  1  0.110779  0.609177  0.609177  1
