# generated using pymatgen
data_YbEr2Hf(Ga3Rh)6
_symmetry_space_group_name_H-M   'P 1'
_cell_length_a   7.54561310
_cell_length_b   7.52249268
_cell_length_c   9.45535200
_cell_angle_alpha   90.00000000
_cell_angle_beta   90.00000000
_cell_angle_gamma   119.84463912
_symmetry_Int_Tables_number   1
_chemical_formula_structural   YbEr2Hf(Ga3Rh)6
_chemical_formula_sum   'Yb1 Er2 Hf1 Ga18 Rh6'
_cell_volume   465.52435804
_cell_formula_units_Z   1
loop_
 _symmetry_equiv_pos_site_id
 _symmetry_equiv_pos_as_xyz
  1  'x, y, z'
loop_
 _atom_site_type_symbol
 _atom_site_label
 _atom_site_symmetry_multiplicity
 _atom_site_fract_x
 _atom_site_fract_y
 _atom_site_fract_z
 _atom_site_occupancy
  Yb  Yb0  1  0.669282  0.997528  0.250000  1
  Er  Er1  1  0.003539  0.330584  0.750000  1
  Er  Er2  1  0.331629  0.003459  0.750000  1
  Hf  Hf3  1  0.996836  0.668270  0.250000  1
  Ga  Ga4  1  0.123438  0.122627  0.250000  1
  Ga  Ga5  1  0.873366  0.873243  0.750000  1
  Ga  Ga6  1  0.998754  0.337039  0.084390  1
  Ga  Ga7  1  0.000733  0.665373  0.921795  1
  Ga  Ga8  1  0.000733  0.665373  0.578205  1
  Ga  Ga9  1  0.331878  0.996970  0.415492  1
  Ga  Ga10  1  0.998754  0.337039  0.415610  1
  Ga  Ga11  1  0.665576  0.999668  0.579858  1
  Ga  Ga12  1  0.665576  0.999668  0.920142  1
  Ga  Ga13  1  0.331878  0.996970  0.084508  1
  Ga  Ga14  1  0.332871  0.332596  0.565289  1
  Ga  Ga15  1  0.669870  0.668467  0.429717  1
  Ga  Ga16  1  0.669870  0.668467  0.070283  1
  Ga  Ga17  1  0.332871  0.332596  0.934711  1
  Ga  Ga18  1  0.337138  0.548957  0.250000  1
  Ga  Ga19  1  0.661970  0.453110  0.750000  1
  Ga  Ga20  1  0.551987  0.340632  0.250000  1
  Ga  Ga21  1  0.452072  0.661256  0.750000  1
  Rh  Rh22  1  0.672106  0.328725  0.000389  1
  Rh  Rh23  1  0.327719  0.671895  0.000962  1
  Rh  Rh24  1  0.327719  0.671895  0.499038  1
  Rh  Rh25  1  0.672106  0.328725  0.499611  1
  Rh  Rh26  1  0.999867  0.999433  0.000613  1
  Rh  Rh27  1  0.999867  0.999433  0.499387  1
