# generated using pymatgen
data_Ho3BCl3
_symmetry_space_group_name_H-M   'P 1'
_cell_length_a   9.38785951
_cell_length_b   9.38785817
_cell_length_c   9.38785900
_cell_angle_alpha   109.47122026
_cell_angle_beta   109.47121739
_cell_angle_gamma   109.47122370
_symmetry_Int_Tables_number   1
_chemical_formula_structural   Ho3BCl3
_chemical_formula_sum   'Ho12 B4 Cl12'
_cell_volume   636.90956599
_cell_formula_units_Z   4
loop_
 _symmetry_equiv_pos_site_id
 _symmetry_equiv_pos_as_xyz
  1  'x, y, z'
loop_
 _atom_site_type_symbol
 _atom_site_label
 _atom_site_symmetry_multiplicity
 _atom_site_fract_x
 _atom_site_fract_y
 _atom_site_fract_z
 _atom_site_occupancy
  Ho  Ho0  1  0.468769  0.484384  0.234384  1
  Ho  Ho1  1  0.750000  0.234384  0.265616  1
  Ho  Ho2  1  0.750000  0.015616  0.484384  1
  Ho  Ho3  1  0.234384  0.468769  0.484384  1
  Ho  Ho4  1  0.265616  0.750000  0.234384  1
  Ho  Ho5  1  0.031231  0.265616  0.015616  1
  Ho  Ho6  1  0.015616  0.031231  0.265616  1
  Ho  Ho7  1  0.484384  0.750000  0.015616  1
  Ho  Ho8  1  0.484384  0.234384  0.468769  1
  Ho  Ho9  1  0.015616  0.484384  0.750000  1
  Ho  Ho10  1  0.265616  0.015616  0.031231  1
  Ho  Ho11  1  0.234384  0.265616  0.750000  1
  B  B12  1  0.250000  0.250000  0.250000  1
  B  B13  1  0.500000  0.000000  0.250000  1
  B  B14  1  0.000000  0.250000  0.500000  1
  B  B15  1  0.250000  0.500000  0.000000  1
  Cl  Cl16  1  0.250000  0.756339  0.743661  1
  Cl  Cl17  1  0.512680  0.506339  0.756339  1
  Cl  Cl18  1  0.987320  0.743661  0.993661  1
  Cl  Cl19  1  0.743661  0.250000  0.756339  1
  Cl  Cl20  1  0.993661  0.987320  0.743661  1
  Cl  Cl21  1  0.250000  0.993661  0.506339  1
  Cl  Cl22  1  0.756339  0.512680  0.506339  1
  Cl  Cl23  1  0.506339  0.250000  0.993661  1
  Cl  Cl24  1  0.756339  0.743661  0.250000  1
  Cl  Cl25  1  0.743661  0.993661  0.987320  1
  Cl  Cl26  1  0.993661  0.506339  0.250000  1
  Cl  Cl27  1  0.506339  0.756339  0.512680  1
