# generated using pymatgen
data_Tm12Co4CuPb
_symmetry_space_group_name_H-M   'P 1'
_cell_length_a   8.21014596
_cell_length_b   8.21014560
_cell_length_c   8.21014580
_cell_angle_alpha   110.45685529
_cell_angle_beta   111.20148992
_cell_angle_gamma   106.78906978
_symmetry_Int_Tables_number   1
_chemical_formula_structural   Tm12Co4CuPb
_chemical_formula_sum   'Tm12 Co4 Cu1 Pb1'
_cell_volume   425.30579470
_cell_formula_units_Z   1
loop_
 _symmetry_equiv_pos_site_id
 _symmetry_equiv_pos_as_xyz
  1  'x, y, z'
loop_
 _atom_site_type_symbol
 _atom_site_label
 _atom_site_symmetry_multiplicity
 _atom_site_fract_x
 _atom_site_fract_y
 _atom_site_fract_z
 _atom_site_occupancy
  Tm  Tm0  1  0.288254  0.184452  0.472706  1
  Tm  Tm1  1  0.711746  0.815548  0.527294  1
  Tm  Tm2  1  0.288254  0.815548  0.103801  1
  Tm  Tm3  1  0.711746  0.184452  0.896199  1
  Tm  Tm4  1  0.619749  0.313720  0.306030  1
  Tm  Tm5  1  0.380251  0.686280  0.693970  1
  Tm  Tm6  1  0.007690  0.313720  0.693970  1
  Tm  Tm7  1  0.992310  0.686280  0.306030  1
  Tm  Tm8  1  0.215791  0.416872  0.201082  1
  Tm  Tm9  1  0.784209  0.583128  0.798918  1
  Tm  Tm10  1  0.215791  0.014709  0.798918  1
  Tm  Tm11  1  0.784209  0.985291  0.201082  1
  Co  Co12  1  0.000000  0.376366  0.376366  1
  Co  Co13  1  0.000000  0.623634  0.623634  1
  Co  Co14  1  0.386856  0.886856  0.500000  1
  Co  Co15  1  0.613144  0.113144  0.500000  1
  Cu  Cu16  1  0.000000  0.000000  0.000000  1
  Pb  Pb17  1  0.500000  0.500000  0.000000  1
