# generated using pymatgen
data_Na5CaVP4
_symmetry_space_group_name_H-M   'P 1'
_cell_length_a   9.12007226
_cell_length_b   9.12007259
_cell_length_c   7.12173109
_cell_angle_alpha   90.57313516
_cell_angle_beta   90.57313726
_cell_angle_gamma   120.27146347
_symmetry_Int_Tables_number   1
_chemical_formula_structural   Na5CaVP4
_chemical_formula_sum   'Na10 Ca2 V2 P8'
_cell_volume   511.48232562
_cell_formula_units_Z   2
loop_
 _symmetry_equiv_pos_site_id
 _symmetry_equiv_pos_as_xyz
  1  'x, y, z'
loop_
 _atom_site_type_symbol
 _atom_site_label
 _atom_site_symmetry_multiplicity
 _atom_site_fract_x
 _atom_site_fract_y
 _atom_site_fract_z
 _atom_site_occupancy
  Na  Na0  1  0.535360  0.472989  0.609966  1
  Na  Na1  1  0.940216  0.472071  0.611094  1
  Na  Na2  1  0.472989  0.535360  0.109966  1
  Na  Na3  1  0.472071  0.940216  0.111094  1
  Na  Na4  1  0.136070  0.854244  0.783038  1
  Na  Na5  1  0.712199  0.848683  0.802657  1
  Na  Na6  1  0.147067  0.289418  0.773446  1
  Na  Na7  1  0.854244  0.136070  0.283038  1
  Na  Na8  1  0.289418  0.147067  0.273446  1
  Na  Na9  1  0.848683  0.712199  0.302657  1
  Ca  Ca10  1  0.532258  0.058734  0.607624  1
  Ca  Ca11  1  0.058734  0.532258  0.107624  1
  V  V12  1  0.331414  0.664234  0.499772  1
  V  V13  1  0.664234  0.331414  0.999772  1
  P  P14  1  0.807210  0.198866  0.893441  1
  P  P15  1  0.393847  0.193865  0.882781  1
  P  P16  1  0.810588  0.609510  0.912312  1
  P  P17  1  0.198866  0.807210  0.393441  1
  P  P18  1  0.609510  0.810588  0.412312  1
  P  P19  1  0.193865  0.393847  0.382781  1
  P  P20  1  0.324415  0.666742  0.820968  1
  P  P21  1  0.666742  0.324415  0.320968  1
