# generated using pymatgen
data_ErSb16
_symmetry_space_group_name_H-M   'P 1'
_cell_length_a   4.27528577
_cell_length_b   4.27528571
_cell_length_c   32.75553100
_cell_angle_alpha   86.25819335
_cell_angle_beta   86.25819341
_cell_angle_gamma   60.00000712
_symmetry_Int_Tables_number   1
_chemical_formula_structural   ErSb16
_chemical_formula_sum   'Er1 Sb16'
_cell_volume   517.02197277
_cell_formula_units_Z   1
loop_
 _symmetry_equiv_pos_site_id
 _symmetry_equiv_pos_as_xyz
  1  'x, y, z'
loop_
 _atom_site_type_symbol
 _atom_site_label
 _atom_site_symmetry_multiplicity
 _atom_site_fract_x
 _atom_site_fract_y
 _atom_site_fract_z
 _atom_site_occupancy
  Er  Er0  1  0.000000  0.000000  0.000000  1
  Sb  Sb1  1  0.292350  0.292350  0.122950  1
  Sb  Sb2  1  0.707650  0.707650  0.877050  1
  Sb  Sb3  1  0.236346  0.236346  0.290962  1
  Sb  Sb4  1  0.763654  0.763654  0.709038  1
  Sb  Sb5  1  0.469116  0.469116  0.592653  1
  Sb  Sb6  1  0.530884  0.530884  0.407347  1
  Sb  Sb7  1  0.352509  0.352509  0.942472  1
  Sb  Sb8  1  0.647491  0.647491  0.057528  1
  Sb  Sb9  1  0.058068  0.058068  0.825795  1
  Sb  Sb10  1  0.941932  0.941932  0.174205  1
  Sb  Sb11  1  0.413873  0.413873  0.758383  1
  Sb  Sb12  1  0.586127  0.586127  0.241617  1
  Sb  Sb13  1  0.119711  0.119711  0.640867  1
  Sb  Sb14  1  0.880289  0.880289  0.359133  1
  Sb  Sb15  1  0.174664  0.174664  0.476007  1
  Sb  Sb16  1  0.825336  0.825336  0.523993  1
