# generated using pymatgen
data_Cs2LiErBr6
_symmetry_space_group_name_H-M   'P 1'
_cell_length_a   13.91150342
_cell_length_b   13.91150357
_cell_length_c   13.91150439
_cell_angle_alpha   33.28692671
_cell_angle_beta   33.28692817
_cell_angle_gamma   33.28692089
_symmetry_Int_Tables_number   1
_chemical_formula_structural   Cs2LiErBr6
_chemical_formula_sum   'Cs4 Li2 Er2 Br12'
_cell_volume   722.02417803
_cell_formula_units_Z   2
loop_
 _symmetry_equiv_pos_site_id
 _symmetry_equiv_pos_as_xyz
  1  'x, y, z'
loop_
 _atom_site_type_symbol
 _atom_site_label
 _atom_site_symmetry_multiplicity
 _atom_site_fract_x
 _atom_site_fract_y
 _atom_site_fract_z
 _atom_site_occupancy
  Cs  Cs0  1  0.126052  0.126052  0.126052  1
  Cs  Cs1  1  0.289614  0.289614  0.289614  1
  Cs  Cs2  1  0.873948  0.873948  0.873948  1
  Cs  Cs3  1  0.710386  0.710386  0.710386  1
  Li  Li4  1  0.588390  0.588391  0.588391  1
  Li  Li5  1  0.411610  0.411609  0.411609  1
  Er  Er6  1  0.000000  0.000000  0.000000  1
  Er  Er7  1  0.500000  0.500000  0.500000  1
  Br  Br8  1  0.794818  0.794818  0.288501  1
  Br  Br9  1  0.205182  0.205182  0.711499  1
  Br  Br10  1  0.382160  0.863206  0.382160  1
  Br  Br11  1  0.382160  0.382160  0.863206  1
  Br  Br12  1  0.617840  0.136794  0.617840  1
  Br  Br13  1  0.863206  0.382160  0.382160  1
  Br  Br14  1  0.794818  0.288501  0.794818  1
  Br  Br15  1  0.136794  0.617840  0.617840  1
  Br  Br16  1  0.711499  0.205182  0.205182  1
  Br  Br17  1  0.617840  0.617840  0.136794  1
  Br  Br18  1  0.205182  0.711499  0.205182  1
  Br  Br19  1  0.288501  0.794818  0.794818  1
