# generated using pymatgen
data_Ho6Ni16P13Pd4
_symmetry_space_group_name_H-M   'P 1'
_cell_length_a   12.77759100
_cell_length_b   12.77759090
_cell_length_c   3.78244000
_cell_angle_alpha   90.00000000
_cell_angle_beta   90.00000000
_cell_angle_gamma   120.00000285
_symmetry_Int_Tables_number   1
_chemical_formula_structural   Ho6Ni16P13Pd4
_chemical_formula_sum   'Ho6 Ni16 P13 Pd4'
_cell_volume   534.81136624
_cell_formula_units_Z   1
loop_
 _symmetry_equiv_pos_site_id
 _symmetry_equiv_pos_as_xyz
  1  'x, y, z'
loop_
 _atom_site_type_symbol
 _atom_site_label
 _atom_site_symmetry_multiplicity
 _atom_site_fract_x
 _atom_site_fract_y
 _atom_site_fract_z
 _atom_site_occupancy
  Ho  Ho0  1  0.468553  0.185707  0.000000  1
  Ho  Ho1  1  0.717155  0.531447  0.000000  1
  Ho  Ho2  1  0.814293  0.282845  0.000000  1
  Ho  Ho3  1  0.529107  0.811995  0.500000  1
  Ho  Ho4  1  0.282889  0.470893  0.500000  1
  Ho  Ho5  1  0.188005  0.717111  0.500000  1
  Ni  Ni6  1  0.333333  0.666667  0.000000  1
  Ni  Ni7  1  0.198885  0.093784  0.000000  1
  Ni  Ni8  1  0.894899  0.801115  0.000000  1
  Ni  Ni9  1  0.906216  0.105101  0.000000  1
  Ni  Ni10  1  0.439071  0.420743  0.000000  1
  Ni  Ni11  1  0.981671  0.560929  0.000000  1
  Ni  Ni12  1  0.579257  0.018329  0.000000  1
  Ni  Ni13  1  0.564330  0.589439  0.500000  1
  Ni  Ni14  1  0.025109  0.435670  0.500000  1
  Ni  Ni15  1  0.410561  0.974891  0.500000  1
  Ni  Ni16  1  0.079753  0.322637  0.000000  1
  Ni  Ni17  1  0.242883  0.920247  0.000000  1
  Ni  Ni18  1  0.677363  0.757117  0.000000  1
  Ni  Ni19  1  0.926975  0.678692  0.500000  1
  Ni  Ni20  1  0.751717  0.073025  0.500000  1
  Ni  Ni21  1  0.321308  0.248283  0.500000  1
  P  P22  1  0.240581  0.287833  0.000000  1
  P  P23  1  0.047252  0.759419  0.000000  1
  P  P24  1  0.712167  0.952748  0.000000  1
  P  P25  1  0.764664  0.712133  0.500000  1
  P  P26  1  0.947469  0.235336  0.500000  1
  P  P27  1  0.287867  0.052531  0.500000  1
  P  P28  1  0.476556  0.616617  0.000000  1
  P  P29  1  0.140061  0.523444  0.000000  1
  P  P30  1  0.383383  0.859939  0.000000  1
  P  P31  1  0.518129  0.391176  0.500000  1
  P  P32  1  0.873047  0.481871  0.500000  1
  P  P33  1  0.608824  0.126953  0.500000  1
  P  P34  1  0.000000  0.000000  0.000000  1
  Pd  Pd35  1  0.666667  0.333333  0.500000  1
  Pd  Pd36  1  0.840524  0.924091  0.500000  1
  Pd  Pd37  1  0.083567  0.159476  0.500000  1
  Pd  Pd38  1  0.075909  0.916433  0.500000  1
