# generated using pymatgen
data_Sc2U6P13Rh18
_symmetry_space_group_name_H-M   'P 1'
_cell_length_a   13.67318869
_cell_length_b   13.71691959
_cell_length_c   3.82176400
_cell_angle_alpha   90.00000000
_cell_angle_beta   90.00000000
_cell_angle_gamma   120.16270734
_symmetry_Int_Tables_number   1
_chemical_formula_structural   Sc2U6P13Rh18
_chemical_formula_sum   'Sc2 U6 P13 Rh18'
_cell_volume   619.73569814
_cell_formula_units_Z   1
loop_
 _symmetry_equiv_pos_site_id
 _symmetry_equiv_pos_as_xyz
  1  'x, y, z'
loop_
 _atom_site_type_symbol
 _atom_site_label
 _atom_site_symmetry_multiplicity
 _atom_site_fract_x
 _atom_site_fract_y
 _atom_site_fract_z
 _atom_site_occupancy
  Sc  Sc0  1  0.434484  0.019341  0.500000  1
  Sc  Sc1  1  0.981355  0.412906  0.500000  1
  U  U2  1  0.197922  0.471183  0.000000  1
  U  U3  1  0.527681  0.719842  0.000000  1
  U  U4  1  0.275141  0.799973  0.000000  1
  U  U5  1  0.721129  0.190269  0.500000  1
  U  U6  1  0.807957  0.532327  0.500000  1
  U  U7  1  0.472836  0.285614  0.500000  1
  P  P8  1  0.388563  0.523455  0.500000  1
  P  P9  1  0.473853  0.857394  0.500000  1
  P  P10  1  0.144036  0.615981  0.500000  1
  P  P11  1  0.770803  0.049920  0.000000  1
  P  P12  1  0.944793  0.715155  0.000000  1
  P  P13  1  0.284114  0.227261  0.000000  1
  P  P14  1  0.059742  0.277887  0.500000  1
  P  P15  1  0.715823  0.770948  0.500000  1
  P  P16  1  0.219571  0.941284  0.500000  1
  P  P17  1  0.539999  0.153267  0.000000  1
  P  P18  1  0.849513  0.388761  0.000000  1
  P  P19  1  0.609795  0.478942  0.000000  1
  P  P20  1  0.000201  0.000929  0.000000  1
  Rh  Rh21  1  0.583574  0.566142  0.500000  1
  Rh  Rh22  1  0.663703  0.345345  0.000000  1
  Rh  Rh23  1  0.419169  0.441146  0.000000  1
  Rh  Rh24  1  0.567033  0.983039  0.000000  1
  Rh  Rh25  1  0.017180  0.580736  0.000000  1
  Rh  Rh26  1  0.909070  0.245846  0.000000  1
  Rh  Rh27  1  0.750324  0.672483  0.000000  1
  Rh  Rh28  1  0.335548  0.085247  0.000000  1
  Rh  Rh29  1  0.338128  0.662866  0.500000  1
  Rh  Rh30  1  0.905696  0.088791  0.500000  1
  Rh  Rh31  1  0.907324  0.813252  0.500000  1
  Rh  Rh32  1  0.180761  0.091737  0.500000  1
  Rh  Rh33  1  0.095435  0.191139  0.000000  1
  Rh  Rh34  1  0.810603  0.901087  0.000000  1
  Rh  Rh35  1  0.093821  0.904563  0.000000  1
  Rh  Rh36  1  0.257125  0.325340  0.500000  1
  Rh  Rh37  1  0.673828  0.921079  0.500000  1
  Rh  Rh38  1  0.072366  0.747525  0.500000  1
