# generated using pymatgen
data_La14ZnNi4Hg
_symmetry_space_group_name_H-M   'P 1'
_cell_length_a   12.42773500
_cell_length_b   12.42773500
_cell_length_c   3.81428200
_cell_angle_alpha   90.00000000
_cell_angle_beta   90.00000000
_cell_angle_gamma   90.00000000
_symmetry_Int_Tables_number   1
_chemical_formula_structural   La14ZnNi4Hg
_chemical_formula_sum   'La14 Zn1 Ni4 Hg1'
_cell_volume   589.11050434
_cell_formula_units_Z   1
loop_
 _symmetry_equiv_pos_site_id
 _symmetry_equiv_pos_as_xyz
  1  'x, y, z'
loop_
 _atom_site_type_symbol
 _atom_site_label
 _atom_site_symmetry_multiplicity
 _atom_site_fract_x
 _atom_site_fract_y
 _atom_site_fract_z
 _atom_site_occupancy
  La  La0  1  0.678349  0.180563  0.000000  1
  La  La1  1  0.180563  0.321651  0.000000  1
  La  La2  1  0.819437  0.678349  0.000000  1
  La  La3  1  0.321651  0.819437  0.000000  1
  La  La4  1  0.500000  0.000000  0.500001  1
  La  La5  1  0.213188  0.063530  0.500001  1
  La  La6  1  0.936470  0.213188  0.500001  1
  La  La7  1  0.439068  0.294901  0.500001  1
  La  La8  1  0.705099  0.439068  0.500001  1
  La  La9  1  0.000000  0.500000  0.500001  1
  La  La10  1  0.294901  0.560932  0.500001  1
  La  La11  1  0.560932  0.705099  0.500001  1
  La  La12  1  0.063530  0.786812  0.500001  1
  La  La13  1  0.786812  0.936470  0.500001  1
  Zn  Zn14  1  0.500000  0.500000  0.000000  1
  Ni  Ni15  1  0.371836  0.127523  0.000000  1
  Ni  Ni16  1  0.872477  0.371836  0.000000  1
  Ni  Ni17  1  0.127523  0.628164  0.000000  1
  Ni  Ni18  1  0.628164  0.872477  0.000000  1
  Hg  Hg19  1  0.000000  0.000000  0.000000  1
