# generated using pymatgen
data_ThRe2SeO12
_symmetry_space_group_name_H-M   'P 1'
_cell_length_a   10.15356801
_cell_length_b   10.31302183
_cell_length_c   6.19446600
_cell_angle_alpha   90.00000000
_cell_angle_beta   90.00000000
_cell_angle_gamma   119.49088024
_symmetry_Int_Tables_number   1
_chemical_formula_structural   ThRe2SeO12
_chemical_formula_sum   'Th2 Re4 Se2 O24'
_cell_volume   564.60454653
_cell_formula_units_Z   2
loop_
 _symmetry_equiv_pos_site_id
 _symmetry_equiv_pos_as_xyz
  1  'x, y, z'
loop_
 _atom_site_type_symbol
 _atom_site_label
 _atom_site_symmetry_multiplicity
 _atom_site_fract_x
 _atom_site_fract_y
 _atom_site_fract_z
 _atom_site_occupancy
  Th  Th0  1  0.656365  0.331258  0.750000  1
  Th  Th1  1  0.310594  0.632399  0.250000  1
  Re  Re2  1  0.610986  0.701153  0.750000  1
  Re  Re3  1  0.906542  0.609314  0.250000  1
  Re  Re4  1  0.300532  0.905955  0.750000  1
  Re  Re5  1  0.696701  0.087146  0.250000  1
  Se  Se6  1  0.086249  0.390384  0.750000  1
  Se  Se7  1  0.397312  0.299837  0.250000  1
  O  O8  1  0.494817  0.653264  0.519876  1
  O  O9  1  0.349968  0.838502  0.519823  1
  O  O10  1  0.840178  0.734394  0.250000  1
  O  O11  1  0.108276  0.841148  0.750000  1
  O  O12  1  0.280777  0.121735  0.250000  1
  O  O13  1  0.153442  0.276896  0.750000  1
  O  O14  1  0.516132  0.356157  0.032511  1
  O  O15  1  0.888401  0.151930  0.250000  1
  O  O16  1  0.105409  0.703658  0.250000  1
  O  O17  1  0.152116  0.509884  0.966997  1
  O  O18  1  0.152116  0.509884  0.533003  1
  O  O19  1  0.897625  0.310043  0.750000  1
  O  O20  1  0.312957  0.405201  0.250000  1
  O  O21  1  0.708818  0.600349  0.750000  1
  O  O22  1  0.841144  0.494106  0.479144  1
  O  O23  1  0.400690  0.102222  0.750000  1
  O  O24  1  0.647719  0.154300  0.017494  1
  O  O25  1  0.494817  0.653264  0.980124  1
  O  O26  1  0.349968  0.838502  0.980177  1
  O  O27  1  0.647719  0.154300  0.482506  1
  O  O28  1  0.516132  0.356157  0.467489  1
  O  O29  1  0.841144  0.494106  0.020856  1
  O  O30  1  0.735834  0.889925  0.750000  1
  O  O31  1  0.598518  0.892626  0.250000  1
