# generated using pymatgen
data_Er4Si10Ir5Ru
_symmetry_space_group_name_H-M   'P 1'
_cell_length_a   8.12940227
_cell_length_b   8.12940391
_cell_length_c   8.12940253
_cell_angle_alpha   138.11947811
_cell_angle_beta   104.77466944
_cell_angle_gamma   90.02539025
_symmetry_Int_Tables_number   1
_chemical_formula_structural   Er4Si10Ir5Ru
_chemical_formula_sum   'Er4 Si10 Ir5 Ru1'
_cell_volume   331.38297572
_cell_formula_units_Z   1
loop_
 _symmetry_equiv_pos_site_id
 _symmetry_equiv_pos_as_xyz
  1  'x, y, z'
loop_
 _atom_site_type_symbol
 _atom_site_label
 _atom_site_symmetry_multiplicity
 _atom_site_fract_x
 _atom_site_fract_y
 _atom_site_fract_z
 _atom_site_occupancy
  Er  Er0  1  0.904030  0.131467  0.770908  1
  Er  Er1  1  0.095970  0.866878  0.227437  1
  Er  Er2  1  0.639441  0.368533  0.272563  1
  Er  Er3  1  0.360559  0.633122  0.729092  1
  Si  Si4  1  0.000000  0.750000  0.750000  1
  Si  Si5  1  0.000000  0.250000  0.250000  1
  Si  Si6  1  0.722981  0.472981  0.750000  1
  Si  Si7  1  0.277019  0.027019  0.750000  1
  Si  Si8  1  0.278593  0.528593  0.250000  1
  Si  Si9  1  0.721407  0.971407  0.250000  1
  Si  Si10  1  0.240874  0.399851  0.847363  1
  Si  Si11  1  0.552486  0.893511  0.652637  1
  Si  Si12  1  0.447514  0.100149  0.341023  1
  Si  Si13  1  0.759126  0.606489  0.158977  1
  Ir  Ir14  1  0.745631  0.860539  0.888693  1
  Ir  Ir15  1  0.500000  0.250000  0.750000  1
  Ir  Ir16  1  0.971846  0.356939  0.611307  1
  Ir  Ir17  1  0.028154  0.639461  0.385093  1
  Ir  Ir18  1  0.254369  0.143061  0.114907  1
  Ru  Ru19  1  0.500000  0.750000  0.250000  1
