# generated using pymatgen
data_Nd4Rh3Pb2Au
_symmetry_space_group_name_H-M   'P 1'
_cell_length_a   8.01517500
_cell_length_b   8.01517660
_cell_length_c   3.77796200
_cell_angle_alpha   90.00000000
_cell_angle_beta   90.00000000
_cell_angle_gamma   89.20962513
_symmetry_Int_Tables_number   1
_chemical_formula_structural   Nd4Rh3Pb2Au
_chemical_formula_sum   'Nd4 Rh3 Pb2 Au1'
_cell_volume   242.68468330
_cell_formula_units_Z   1
loop_
 _symmetry_equiv_pos_site_id
 _symmetry_equiv_pos_as_xyz
  1  'x, y, z'
loop_
 _atom_site_type_symbol
 _atom_site_label
 _atom_site_symmetry_multiplicity
 _atom_site_fract_x
 _atom_site_fract_y
 _atom_site_fract_z
 _atom_site_occupancy
  Nd  Nd0  1  0.677048  0.177048  0.500000  1
  Nd  Nd1  1  0.346335  0.846335  0.500000  1
  Nd  Nd2  1  0.165033  0.307762  0.500000  1
  Nd  Nd3  1  0.807762  0.665033  0.500000  1
  Rh  Rh4  1  0.875762  0.375762  0.000000  1
  Rh  Rh5  1  0.634084  0.878797  0.000000  1
  Rh  Rh6  1  0.378797  0.134084  0.000000  1
  Pb  Pb7  1  0.994042  0.996346  0.000000  1
  Pb  Pb8  1  0.496346  0.494042  0.000000  1
  Au  Au9  1  0.124788  0.624788  0.000000  1
