# generated using pymatgen
data_Nd6Mn(GeS7)2
_symmetry_space_group_name_H-M   'P 1'
_cell_length_a   10.24444700
_cell_length_b   10.24444695
_cell_length_c   5.78834400
_cell_angle_alpha   90.00000000
_cell_angle_beta   90.00000000
_cell_angle_gamma   120.00000340
_symmetry_Int_Tables_number   1
_chemical_formula_structural   Nd6Mn(GeS7)2
_chemical_formula_sum   'Nd6 Mn1 Ge2 S14'
_cell_volume   526.09235125
_cell_formula_units_Z   1
loop_
 _symmetry_equiv_pos_site_id
 _symmetry_equiv_pos_as_xyz
  1  'x, y, z'
loop_
 _atom_site_type_symbol
 _atom_site_label
 _atom_site_symmetry_multiplicity
 _atom_site_fract_x
 _atom_site_fract_y
 _atom_site_fract_z
 _atom_site_occupancy
  Nd  Nd0  1  0.877038  0.232907  0.249532  1
  Nd  Nd1  1  0.767093  0.644132  0.249532  1
  Nd  Nd2  1  0.355868  0.122962  0.249532  1
  Nd  Nd3  1  0.122749  0.767342  0.750855  1
  Nd  Nd4  1  0.232658  0.355408  0.750855  1
  Nd  Nd5  1  0.644592  0.877251  0.750855  1
  Mn  Mn6  1  0.000000  0.000000  0.488228  1
  Ge  Ge7  1  0.666667  0.333333  0.831256  1
  Ge  Ge8  1  0.333333  0.666667  0.333927  1
  S  S9  1  0.666667  0.333333  0.452555  1
  S  S10  1  0.333333  0.666667  0.954814  1
  S  S11  1  0.914211  0.160142  0.725242  1
  S  S12  1  0.839858  0.754069  0.725242  1
  S  S13  1  0.245931  0.085789  0.725242  1
  S  S14  1  0.083596  0.837886  0.247762  1
  S  S15  1  0.162114  0.245710  0.247762  1
  S  S16  1  0.754290  0.916404  0.247762  1
  S  S17  1  0.588111  0.105233  0.987995  1
  S  S18  1  0.894767  0.482879  0.987995  1
  S  S19  1  0.517121  0.411889  0.987995  1
  S  S20  1  0.412332  0.894755  0.490240  1
  S  S21  1  0.105245  0.517576  0.490240  1
  S  S22  1  0.482424  0.587668  0.490240  1
