# generated using pymatgen
data_Sc3Ta(SiMo)4
_symmetry_space_group_name_H-M   'P 1'
_cell_length_a   3.46016900
_cell_length_b   6.98640402
_cell_length_c   8.19599460
_cell_angle_alpha   90.03798513
_cell_angle_beta   90.00000000
_cell_angle_gamma   90.00000000
_symmetry_Int_Tables_number   1
_chemical_formula_structural   Sc3Ta(SiMo)4
_chemical_formula_sum   'Sc3 Ta1 Si4 Mo4'
_cell_volume   198.13106621
_cell_formula_units_Z   1
loop_
 _symmetry_equiv_pos_site_id
 _symmetry_equiv_pos_as_xyz
  1  'x, y, z'
loop_
 _atom_site_type_symbol
 _atom_site_label
 _atom_site_symmetry_multiplicity
 _atom_site_fract_x
 _atom_site_fract_y
 _atom_site_fract_z
 _atom_site_occupancy
  Sc  Sc0  1  0.250000  0.044142  0.334132  1
  Sc  Sc1  1  0.250000  0.542506  0.162822  1
  Sc  Sc2  1  0.750000  0.955619  0.666818  1
  Ta  Ta3  1  0.750000  0.455574  0.831958  1
  Si  Si4  1  0.250000  0.259408  0.640293  1
  Si  Si5  1  0.250000  0.751306  0.863153  1
  Si  Si6  1  0.750000  0.740510  0.361183  1
  Si  Si7  1  0.750000  0.244537  0.137368  1
  Mo  Mo8  1  0.250000  0.135427  0.935897  1
  Mo  Mo9  1  0.250000  0.628705  0.565030  1
  Mo  Mo10  1  0.750000  0.871128  0.060198  1
  Mo  Mo11  1  0.750000  0.371139  0.441149  1
