# generated using pymatgen
data_Lu16In5HgIr2
_symmetry_space_group_name_H-M   'P 1'
_cell_length_a   10.18271600
_cell_length_b   10.17535512
_cell_length_c   6.91562507
_cell_angle_alpha   90.01458747
_cell_angle_beta   90.00000000
_cell_angle_gamma   120.02393285
_symmetry_Int_Tables_number   1
_chemical_formula_structural   Lu16In5HgIr2
_chemical_formula_sum   'Lu16 In5 Hg1 Ir2'
_cell_volume   620.39811982
_cell_formula_units_Z   1
loop_
 _symmetry_equiv_pos_site_id
 _symmetry_equiv_pos_as_xyz
  1  'x, y, z'
loop_
 _atom_site_type_symbol
 _atom_site_label
 _atom_site_symmetry_multiplicity
 _atom_site_fract_x
 _atom_site_fract_y
 _atom_site_fract_z
 _atom_site_occupancy
  Lu  Lu0  1  0.531652  0.063303  0.523734  1
  Lu  Lu1  1  0.932733  0.471233  0.524191  1
  Lu  Lu2  1  0.538501  0.471233  0.524191  1
  Lu  Lu3  1  0.467393  0.934787  0.021172  1
  Lu  Lu4  1  0.066928  0.530963  0.024593  1
  Lu  Lu5  1  0.464034  0.530963  0.024593  1
  Lu  Lu6  1  0.177040  0.354080  0.726197  1
  Lu  Lu7  1  0.651062  0.821395  0.733314  1
  Lu  Lu8  1  0.170333  0.821395  0.733314  1
  Lu  Lu9  1  0.823044  0.646088  0.213660  1
  Lu  Lu10  1  0.353792  0.176636  0.230874  1
  Lu  Lu11  1  0.822844  0.176636  0.230874  1
  Lu  Lu12  1  0.668087  0.336173  0.900800  1
  Lu  Lu13  1  0.334028  0.668056  0.402621  1
  Lu  Lu14  1  0.999046  0.998093  0.507200  1
  Lu  Lu15  1  0.001795  0.003590  0.008177  1
  In  In16  1  0.327062  0.163331  0.770161  1
  In  In17  1  0.836269  0.163331  0.770161  1
  In  In18  1  0.162727  0.325455  0.272769  1
  In  In19  1  0.673385  0.836076  0.270405  1
  In  In20  1  0.162691  0.836076  0.270405  1
  Hg  Hg21  1  0.834726  0.669452  0.776769  1
  Ir  Ir22  1  0.666756  0.333512  0.298225  1
  Ir  Ir23  1  0.334071  0.668143  0.797287  1
