# generated using pymatgen
data_TbDy9(In2Rh)4
_symmetry_space_group_name_H-M   'P 1'
_cell_length_a   3.63366100
_cell_length_b   8.01051423
_cell_length_c   18.31851052
_cell_angle_alpha   89.97261667
_cell_angle_beta   90.00000000
_cell_angle_gamma   90.00000000
_symmetry_Int_Tables_number   1
_chemical_formula_structural   TbDy9(In2Rh)4
_chemical_formula_sum   'Tb1 Dy9 In8 Rh4'
_cell_volume   533.20585854
_cell_formula_units_Z   1
loop_
 _symmetry_equiv_pos_site_id
 _symmetry_equiv_pos_as_xyz
  1  'x, y, z'
loop_
 _atom_site_type_symbol
 _atom_site_label
 _atom_site_symmetry_multiplicity
 _atom_site_fract_x
 _atom_site_fract_y
 _atom_site_fract_z
 _atom_site_occupancy
  Tb  Tb0  1  0.500000  0.500000  0.000000  1
  Dy  Dy1  1  0.500000  0.382940  0.588320  1
  Dy  Dy2  1  0.500000  0.882889  0.911610  1
  Dy  Dy3  1  0.500000  0.117111  0.088390  1
  Dy  Dy4  1  0.500000  0.753469  0.721402  1
  Dy  Dy5  1  0.500000  0.253465  0.778600  1
  Dy  Dy6  1  0.500000  0.746535  0.221400  1
  Dy  Dy7  1  0.500000  0.246531  0.278598  1
  Dy  Dy8  1  0.500000  0.000000  0.500000  1
  Dy  Dy9  1  0.500000  0.617060  0.411680  1
  In  In10  1  0.000000  0.792280  0.068854  1
  In  In11  1  0.000000  0.927835  0.349332  1
  In  In12  1  0.000000  0.072165  0.650668  1
  In  In13  1  0.000000  0.572218  0.849171  1
  In  In14  1  0.000000  0.707927  0.568821  1
  In  In15  1  0.000000  0.207720  0.931146  1
  In  In16  1  0.000000  0.292073  0.431179  1
  In  In17  1  0.000000  0.427782  0.150829  1
  Rh  Rh18  1  0.000000  0.976522  0.805289  1
  Rh  Rh19  1  0.000000  0.523544  0.305318  1
  Rh  Rh20  1  0.000000  0.476456  0.694682  1
  Rh  Rh21  1  0.000000  0.023478  0.194711  1
