# generated using pymatgen
data_DyY3Fe16(ReP3)4
_symmetry_space_group_name_H-M   'P 1'
_cell_length_a   3.72969800
_cell_length_b   10.40898534
_cell_length_c   11.82678539
_cell_angle_alpha   90.02948782
_cell_angle_beta   90.00000000
_cell_angle_gamma   90.00000000
_symmetry_Int_Tables_number   1
_chemical_formula_structural   DyY3Fe16(ReP3)4
_chemical_formula_sum   'Dy1 Y3 Fe16 Re4 P12'
_cell_volume   459.14379912
_cell_formula_units_Z   1
loop_
 _symmetry_equiv_pos_site_id
 _symmetry_equiv_pos_as_xyz
  1  'x, y, z'
loop_
 _atom_site_type_symbol
 _atom_site_label
 _atom_site_symmetry_multiplicity
 _atom_site_fract_x
 _atom_site_fract_y
 _atom_site_fract_z
 _atom_site_occupancy
  Dy  Dy0  1  0.750000  0.082153  0.795851  1
  Y  Y1  1  0.250000  0.582417  0.704225  1
  Y  Y2  1  0.250000  0.917709  0.204085  1
  Y  Y3  1  0.750000  0.417672  0.295794  1
  Fe  Fe4  1  0.250000  0.404640  0.490371  1
  Fe  Fe5  1  0.250000  0.095286  0.989990  1
  Fe  Fe6  1  0.750000  0.595287  0.509673  1
  Fe  Fe7  1  0.750000  0.904795  0.009475  1
  Fe  Fe8  1  0.250000  0.216984  0.177819  1
  Fe  Fe9  1  0.250000  0.282763  0.678052  1
  Fe  Fe10  1  0.750000  0.783189  0.822010  1
  Fe  Fe11  1  0.750000  0.717077  0.322167  1
  Fe  Fe12  1  0.250000  0.877708  0.702175  1
  Fe  Fe13  1  0.250000  0.622608  0.201985  1
  Fe  Fe14  1  0.750000  0.122640  0.297995  1
  Fe  Fe15  1  0.750000  0.377042  0.797898  1
  Fe  Fe16  1  0.250000  0.462759  0.933688  1
  Fe  Fe17  1  0.250000  0.037061  0.434032  1
  Fe  Fe18  1  0.750000  0.537050  0.066160  1
  Fe  Fe19  1  0.750000  0.963078  0.566418  1
  Re  Re20  1  0.250000  0.705210  0.986780  1
  Re  Re21  1  0.250000  0.794926  0.487136  1
  Re  Re22  1  0.750000  0.294878  0.012885  1
  Re  Re23  1  0.750000  0.205057  0.513155  1
  P  P24  1  0.250000  0.422665  0.114483  1
  P  P25  1  0.250000  0.077326  0.614778  1
  P  P26  1  0.750000  0.577333  0.885482  1
  P  P27  1  0.750000  0.922715  0.385672  1
  P  P28  1  0.250000  0.265361  0.870147  1
  P  P29  1  0.250000  0.234242  0.370352  1
  P  P30  1  0.750000  0.734376  0.129722  1
  P  P31  1  0.750000  0.765809  0.629760  1
  P  P32  1  0.250000  0.594812  0.394995  1
  P  P33  1  0.250000  0.905519  0.894901  1
  P  P34  1  0.750000  0.405193  0.605050  1
  P  P35  1  0.750000  0.094658  0.104835  1
