# generated using pymatgen
data_Lu8TiV6Si16Mo5
_symmetry_space_group_name_H-M   'P 1'
_cell_length_a   6.63134782
_cell_length_b   6.83793803
_cell_length_c   12.85130191
_cell_angle_alpha   89.97028567
_cell_angle_beta   90.00552502
_cell_angle_gamma   90.01026473
_symmetry_Int_Tables_number   1
_chemical_formula_structural   Lu8TiV6Si16Mo5
_chemical_formula_sum   'Lu8 Ti1 V6 Si16 Mo5'
_cell_volume   582.73892292
_cell_formula_units_Z   1
loop_
 _symmetry_equiv_pos_site_id
 _symmetry_equiv_pos_as_xyz
  1  'x, y, z'
loop_
 _atom_site_type_symbol
 _atom_site_label
 _atom_site_symmetry_multiplicity
 _atom_site_fract_x
 _atom_site_fract_y
 _atom_site_fract_z
 _atom_site_occupancy
  Lu  Lu0  1  0.500268  0.330452  0.094535  1
  Lu  Lu1  1  0.999546  0.170375  0.405337  1
  Lu  Lu2  1  0.500271  0.671490  0.593777  1
  Lu  Lu3  1  0.000513  0.830671  0.906100  1
  Lu  Lu4  1  0.500194  0.670488  0.905616  1
  Lu  Lu5  1  0.001513  0.830457  0.593384  1
  Lu  Lu6  1  0.499437  0.330097  0.405442  1
  Lu  Lu7  1  0.999681  0.169897  0.095643  1
  Ti  Ti8  1  0.833714  0.329838  0.874761  1
  V  V9  1  0.835859  0.331461  0.624841  1
  V  V10  1  0.332100  0.168007  0.873725  1
  V  V11  1  0.167444  0.669391  0.126513  1
  V  V12  1  0.666321  0.832766  0.374664  1
  V  V13  1  0.165745  0.667754  0.374523  1
  V  V14  1  0.664930  0.832002  0.127333  1
  Si  Si15  1  0.665105  0.042855  0.541866  1
  Si  Si16  1  0.167195  0.457438  0.959043  1
  Si  Si17  1  0.336549  0.955701  0.043059  1
  Si  Si18  1  0.837047  0.544135  0.456615  1
  Si  Si19  1  0.337865  0.953097  0.454561  1
  Si  Si20  1  0.838949  0.545065  0.045280  1
  Si  Si21  1  0.659608  0.039104  0.959177  1
  Si  Si22  1  0.160740  0.459653  0.541844  1
  Si  Si23  1  0.534356  0.371276  0.749146  1
  Si  Si24  1  0.037117  0.127626  0.749080  1
  Si  Si25  1  0.463381  0.630679  0.250685  1
  Si  Si26  1  0.963332  0.869174  0.250648  1
  Si  Si27  1  0.797899  0.628739  0.748976  1
  Si  Si28  1  0.300237  0.871422  0.751018  1
  Si  Si29  1  0.201003  0.375258  0.250034  1
  Si  Si30  1  0.700351  0.125292  0.250087  1
  Mo  Mo31  1  0.332225  0.166615  0.622877  1
  Mo  Mo32  1  0.664527  0.007118  0.749859  1
  Mo  Mo33  1  0.160973  0.493729  0.749612  1
  Mo  Mo34  1  0.337017  0.992052  0.249725  1
  Mo  Mo35  1  0.836990  0.508824  0.250612  1
