# generated using pymatgen
data_SCl12
_symmetry_space_group_name_H-M   'P 1'
_cell_length_a   12.14883763
_cell_length_b   11.41172002
_cell_length_c   7.62985611
_cell_angle_alpha   56.57216510
_cell_angle_beta   38.41996366
_cell_angle_gamma   58.87764647
_symmetry_Int_Tables_number   1
_chemical_formula_structural   SCl12
_chemical_formula_sum   'S1 Cl12'
_cell_volume   541.13625514
_cell_formula_units_Z   1
loop_
 _symmetry_equiv_pos_site_id
 _symmetry_equiv_pos_as_xyz
  1  'x, y, z'
loop_
 _atom_site_type_symbol
 _atom_site_label
 _atom_site_symmetry_multiplicity
 _atom_site_fract_x
 _atom_site_fract_y
 _atom_site_fract_z
 _atom_site_occupancy
  S  S0  1  0.971179  0.967942  0.089245  1
  Cl  Cl1  1  0.504388  0.630084  0.091717  1
  Cl  Cl2  1  0.728658  0.540640  0.008536  1
  Cl  Cl3  1  0.898109  0.794945  0.202509  1
  Cl  Cl4  1  0.532203  0.871625  0.337649  1
  Cl  Cl5  1  0.753989  0.041496  0.454022  1
  Cl  Cl6  1  0.119148  0.838817  0.228782  1
  Cl  Cl7  1  0.873934  0.117443  0.855684  1
  Cl  Cl8  1  0.301026  0.959892  0.440505  1
  Cl  Cl9  1  0.379158  0.179145  0.638897  1
  Cl  Cl10  1  0.138897  0.245921  0.775564  1
  Cl  Cl11  1  0.288677  0.460789  0.978084  1
  Cl  Cl12  1  0.510629  0.351256  0.898805  1
