# generated using pymatgen
data_Hf3ZrNp2F22
_symmetry_space_group_name_H-M   'P 1'
_cell_length_a   8.48687779
_cell_length_b   8.48687809
_cell_length_c   8.48856472
_cell_angle_alpha   125.09398510
_cell_angle_beta   106.45427625
_cell_angle_gamma   98.14391199
_symmetry_Int_Tables_number   1
_chemical_formula_structural   Hf3ZrNp2F22
_chemical_formula_sum   'Hf3 Zr1 Np2 F22'
_cell_volume   442.17515594
_cell_formula_units_Z   1
loop_
 _symmetry_equiv_pos_site_id
 _symmetry_equiv_pos_as_xyz
  1  'x, y, z'
loop_
 _atom_site_type_symbol
 _atom_site_label
 _atom_site_symmetry_multiplicity
 _atom_site_fract_x
 _atom_site_fract_y
 _atom_site_fract_z
 _atom_site_occupancy
  Hf  Hf0  1  0.178174  0.133709  0.311881  1
  Hf  Hf1  1  0.817445  0.867955  0.685401  1
  Hf  Hf2  1  0.682035  0.366655  0.048690  1
  Zr  Zr3  1  0.319861  0.632412  0.952274  1
  Np  Np4  1  0.247957  0.754292  0.501382  1
  Np  Np5  1  0.747090  0.253425  0.501382  1
  F  F6  1  0.207642  0.391549  0.340501  1
  F  F7  1  0.793200  0.609886  0.660043  1
  F  F8  1  0.050157  0.866842  0.660043  1
  F  F9  1  0.450869  0.108273  0.816865  1
  F  F10  1  0.948952  0.132859  0.340501  1
  F  F11  1  0.554860  0.893462  0.187028  1
  F  F12  1  0.293564  0.632167  0.187028  1
  F  F13  1  0.708594  0.365996  0.816865  1
  F  F14  1  0.998336  0.999868  0.998204  1
  F  F15  1  0.502780  0.497238  0.000019  1
  F  F16  1  0.280465  0.367435  0.647899  1
  F  F17  1  0.721272  0.628747  0.350020  1
  F  F18  1  0.779927  0.129773  0.909700  1
  F  F19  1  0.218545  0.872667  0.091211  1
  F  F20  1  0.448182  0.237342  0.416432  1
  F  F21  1  0.550731  0.761885  0.582726  1
  F  F22  1  0.820842  0.031996  0.582726  1
  F  F23  1  0.679901  0.260714  0.210679  1
  F  F24  1  0.179089  0.968249  0.416432  1
  F  F25  1  0.321752  0.738883  0.786694  1
  F  F26  1  0.047811  0.464942  0.786694  1
  F  F27  1  0.949965  0.530778  0.210679  1
