# generated using pymatgen
data_AlCu11(SiNi)4
_symmetry_space_group_name_H-M   'P 1'
_cell_length_a   6.17251618
_cell_length_b   6.20372700
_cell_length_c   6.16660352
_cell_angle_alpha   90.02104531
_cell_angle_beta   90.35270707
_cell_angle_gamma   90.36856138
_symmetry_Int_Tables_number   1
_chemical_formula_structural   AlCu11(SiNi)4
_chemical_formula_sum   'Al1 Cu11 Si4 Ni4'
_cell_volume   236.12593572
_cell_formula_units_Z   1
loop_
 _symmetry_equiv_pos_site_id
 _symmetry_equiv_pos_as_xyz
  1  'x, y, z'
loop_
 _atom_site_type_symbol
 _atom_site_label
 _atom_site_symmetry_multiplicity
 _atom_site_fract_x
 _atom_site_fract_y
 _atom_site_fract_z
 _atom_site_occupancy
  Al  Al0  1  0.121683  0.201554  0.460484  1
  Cu  Cu1  1  0.378996  0.793132  0.954829  1
  Cu  Cu2  1  0.879256  0.705709  0.046590  1
  Cu  Cu3  1  0.453986  0.123390  0.206123  1
  Cu  Cu4  1  0.620238  0.293237  0.545232  1
  Cu  Cu5  1  0.954241  0.382833  0.794501  1
  Cu  Cu6  1  0.044447  0.875740  0.706249  1
  Cu  Cu7  1  0.544284  0.619418  0.292891  1
  Cu  Cu8  1  0.208056  0.453112  0.123215  1
  Cu  Cu9  1  0.705112  0.046424  0.879957  1
  Cu  Cu10  1  0.291437  0.545703  0.617797  1
  Cu  Cu11  1  0.792084  0.955546  0.378365  1
  Si  Si12  1  0.063012  0.060856  0.054001  1
  Si  Si13  1  0.444947  0.928807  0.568353  1
  Si  Si14  1  0.929122  0.578022  0.431909  1
  Si  Si15  1  0.563752  0.434242  0.936714  1
  Ni  Ni16  1  0.683531  0.679389  0.686186  1
  Ni  Ni17  1  0.823157  0.315062  0.187395  1
  Ni  Ni18  1  0.314600  0.182519  0.810692  1
  Ni  Ni19  1  0.184059  0.825306  0.318518  1
