# generated using pymatgen
data_Pa4Ga2Ge4Os7
_symmetry_space_group_name_H-M   'P 1'
_cell_length_a   7.28085250
_cell_length_b   7.28861955
_cell_length_c   7.28861961
_cell_angle_alpha   109.75664678
_cell_angle_beta   109.35013755
_cell_angle_gamma   109.35013071
_symmetry_Int_Tables_number   1
_chemical_formula_structural   Pa4Ga2Ge4Os7
_chemical_formula_sum   'Pa4 Ga2 Ge4 Os7'
_cell_volume   297.58661552
_cell_formula_units_Z   1
loop_
 _symmetry_equiv_pos_site_id
 _symmetry_equiv_pos_as_xyz
  1  'x, y, z'
loop_
 _atom_site_type_symbol
 _atom_site_label
 _atom_site_symmetry_multiplicity
 _atom_site_fract_x
 _atom_site_fract_y
 _atom_site_fract_z
 _atom_site_occupancy
  Pa  Pa0  1  0.000000  0.998732  0.504576  1
  Pa  Pa1  1  0.000000  0.495424  0.001268  1
  Pa  Pa2  1  0.500000  0.998640  0.001360  1
  Pa  Pa3  1  0.500000  0.498640  0.501360  1
  Ga  Ga4  1  0.696539  0.694349  0.002191  1
  Ga  Ga5  1  0.303461  0.997809  0.305651  1
  Ge  Ge6  1  0.000000  0.307963  0.311674  1
  Ge  Ge7  1  0.316462  0.314713  0.001749  1
  Ge  Ge8  1  0.683538  0.998251  0.685287  1
  Ge  Ge9  1  0.000000  0.688326  0.692037  1
  Os  Os10  1  0.748635  0.248924  0.499711  1
  Os  Os11  1  0.751392  0.500566  0.250826  1
  Os  Os12  1  0.500000  0.250405  0.749595  1
  Os  Os13  1  0.251365  0.500289  0.751076  1
  Os  Os14  1  0.248608  0.749174  0.499434  1
  Os  Os15  1  0.500000  0.750405  0.249595  1
  Os  Os16  1  0.000000  0.007391  0.992609  1
