# generated using pymatgen
data_SrMgMn7O16
_symmetry_space_group_name_H-M   'P 1'
_cell_length_a   5.86570188
_cell_length_b   7.04803284
_cell_length_c   7.21948317
_cell_angle_alpha   88.83059958
_cell_angle_beta   78.32689526
_cell_angle_gamma   77.88956574
_symmetry_Int_Tables_number   1
_chemical_formula_structural   SrMgMn7O16
_chemical_formula_sum   'Sr1 Mg1 Mn7 O16'
_cell_volume   285.71185282
_cell_formula_units_Z   1
loop_
 _symmetry_equiv_pos_site_id
 _symmetry_equiv_pos_as_xyz
  1  'x, y, z'
loop_
 _atom_site_type_symbol
 _atom_site_label
 _atom_site_symmetry_multiplicity
 _atom_site_fract_x
 _atom_site_fract_y
 _atom_site_fract_z
 _atom_site_occupancy
  Sr  Sr0  1  0.003458  0.976616  0.993625  1
  Mg  Mg1  1  0.579048  0.518003  0.185148  1
  Mn  Mn2  1  0.081271  0.506393  0.181300  1
  Mn  Mn3  1  0.173045  0.817573  0.519451  1
  Mn  Mn4  1  0.665778  0.820761  0.526830  1
  Mn  Mn5  1  0.336227  0.188001  0.474881  1
  Mn  Mn6  1  0.840121  0.186137  0.481645  1
  Mn  Mn7  1  0.429404  0.485477  0.821349  1
  Mn  Mn8  1  0.924812  0.491447  0.821694  1
  O  O9  1  0.848029  0.651123  0.045820  1
  O  O10  1  0.311378  0.647999  0.045310  1
  O  O11  1  0.980262  0.704742  0.382976  1
  O  O12  1  0.482179  0.708118  0.398184  1
  O  O13  1  0.857067  0.959737  0.650590  1
  O  O14  1  0.346984  0.963655  0.650054  1
  O  O15  1  0.332100  0.364383  0.285396  1
  O  O16  1  0.855562  0.354654  0.279929  1
  O  O17  1  0.166813  0.635746  0.718972  1
  O  O18  1  0.663463  0.635769  0.723095  1
  O  O19  1  0.152957  0.038947  0.355498  1
  O  O20  1  0.658727  0.040864  0.357613  1
  O  O21  1  0.027855  0.298808  0.615961  1
  O  O22  1  0.524764  0.304986  0.607850  1
  O  O23  1  0.177353  0.349067  0.944554  1
  O  O24  1  0.688439  0.350993  0.932268  1
