# generated using pymatgen
data_Er3Th(CdNi2)2
_symmetry_space_group_name_H-M   'P 1'
_cell_length_a   7.41780868
_cell_length_b   7.41780879
_cell_length_c   3.64829200
_cell_angle_alpha   90.00000000
_cell_angle_beta   90.00000000
_cell_angle_gamma   91.32876256
_symmetry_Int_Tables_number   1
_chemical_formula_structural   Er3Th(CdNi2)2
_chemical_formula_sum   'Er3 Th1 Cd2 Ni4'
_cell_volume   200.68922370
_cell_formula_units_Z   1
loop_
 _symmetry_equiv_pos_site_id
 _symmetry_equiv_pos_as_xyz
  1  'x, y, z'
loop_
 _atom_site_type_symbol
 _atom_site_label
 _atom_site_symmetry_multiplicity
 _atom_site_fract_x
 _atom_site_fract_y
 _atom_site_fract_z
 _atom_site_occupancy
  Er  Er0  1  0.826758  0.671438  0.500000  1
  Er  Er1  1  0.171438  0.326758  0.500000  1
  Er  Er2  1  0.674859  0.174859  0.500000  1
  Th  Th3  1  0.326465  0.826465  0.500000  1
  Cd  Cd4  1  0.990778  0.005822  0.000000  1
  Cd  Cd5  1  0.505822  0.490778  0.000000  1
  Ni  Ni6  1  0.375553  0.116206  0.000000  1
  Ni  Ni7  1  0.884928  0.384928  0.000000  1
  Ni  Ni8  1  0.127194  0.627194  0.000000  1
  Ni  Ni9  1  0.616206  0.875553  0.000000  1
