# generated using pymatgen
data_Ti4VBi2
_symmetry_space_group_name_H-M   'P 1'
_cell_length_a   7.91761229
_cell_length_b   7.91761269
_cell_length_c   7.91761234
_cell_angle_alpha   96.00973518
_cell_angle_beta   96.00974175
_cell_angle_gamma   142.24207979
_symmetry_Int_Tables_number   1
_chemical_formula_structural   Ti4VBi2
_chemical_formula_sum   'Ti8 V2 Bi4'
_cell_volume   287.57473838
_cell_formula_units_Z   2
loop_
 _symmetry_equiv_pos_site_id
 _symmetry_equiv_pos_as_xyz
  1  'x, y, z'
loop_
 _atom_site_type_symbol
 _atom_site_label
 _atom_site_symmetry_multiplicity
 _atom_site_fract_x
 _atom_site_fract_y
 _atom_site_fract_z
 _atom_site_occupancy
  Ti  Ti0  1  0.803572  0.918854  0.722426  1
  Ti  Ti1  1  0.918854  0.196428  0.115282  1
  Ti  Ti2  1  0.581146  0.696428  0.277574  1
  Ti  Ti3  1  0.696428  0.418854  0.115282  1
  Ti  Ti4  1  0.081146  0.803572  0.884718  1
  Ti  Ti5  1  0.196428  0.081146  0.277574  1
  Ti  Ti6  1  0.303572  0.581146  0.884718  1
  Ti  Ti7  1  0.418854  0.303572  0.722426  1
  V  V8  1  0.250000  0.250000  0.000000  1
  V  V9  1  0.750000  0.750000  0.000000  1
  Bi  Bi10  1  0.860284  0.639716  0.500000  1
  Bi  Bi11  1  0.139716  0.360284  0.500000  1
  Bi  Bi12  1  0.360284  0.860284  0.220569  1
  Bi  Bi13  1  0.639716  0.139716  0.779431  1
