# generated using pymatgen
data_Ce3Nd(TlRh2)2
_symmetry_space_group_name_H-M   'P 1'
_cell_length_a   7.80251600
_cell_length_b   7.80251690
_cell_length_c   3.73109100
_cell_angle_alpha   90.00000000
_cell_angle_beta   90.00000000
_cell_angle_gamma   91.64533291
_symmetry_Int_Tables_number   1
_chemical_formula_structural   Ce3Nd(TlRh2)2
_chemical_formula_sum   'Ce3 Nd1 Tl2 Rh4'
_cell_volume   227.05242003
_cell_formula_units_Z   1
loop_
 _symmetry_equiv_pos_site_id
 _symmetry_equiv_pos_as_xyz
  1  'x, y, z'
loop_
 _atom_site_type_symbol
 _atom_site_label
 _atom_site_symmetry_multiplicity
 _atom_site_fract_x
 _atom_site_fract_y
 _atom_site_fract_z
 _atom_site_occupancy
  Ce  Ce0  1  0.673182  0.168365  0.500000  1
  Ce  Ce1  1  0.331635  0.826818  0.500000  1
  Ce  Ce2  1  0.171389  0.328611  0.500000  1
  Nd  Nd3  1  0.829950  0.670050  0.500000  1
  Tl  Tl4  1  0.002148  0.995337  0.000000  1
  Tl  Tl5  1  0.504663  0.497852  0.000000  1
  Rh  Rh6  1  0.146415  0.629460  0.000000  1
  Rh  Rh7  1  0.870540  0.353585  0.000000  1
  Rh  Rh8  1  0.613575  0.886425  0.000000  1
  Rh  Rh9  1  0.356501  0.143499  0.000000  1
