# generated using pymatgen
data_Tb6Ho2Cu3Si12Pd
_symmetry_space_group_name_H-M   'P 1'
_cell_length_a   8.05100927
_cell_length_b   8.04420891
_cell_length_c   8.14311733
_cell_angle_alpha   89.90706825
_cell_angle_beta   90.08600408
_cell_angle_gamma   120.03249739
_symmetry_Int_Tables_number   1
_chemical_formula_structural   Tb6Ho2Cu3Si12Pd
_chemical_formula_sum   'Tb6 Ho2 Cu3 Si12 Pd1'
_cell_volume   456.57483714
_cell_formula_units_Z   1
loop_
 _symmetry_equiv_pos_site_id
 _symmetry_equiv_pos_as_xyz
  1  'x, y, z'
loop_
 _atom_site_type_symbol
 _atom_site_label
 _atom_site_symmetry_multiplicity
 _atom_site_fract_x
 _atom_site_fract_y
 _atom_site_fract_z
 _atom_site_occupancy
  Tb  Tb0  1  0.998447  0.499169  0.249310  1
  Tb  Tb1  1  0.998638  0.499254  0.750703  1
  Tb  Tb2  1  0.500729  0.499140  0.249326  1
  Tb  Tb3  1  0.500632  0.499233  0.750693  1
  Tb  Tb4  1  0.999994  0.999988  0.249171  1
  Tb  Tb5  1  0.999994  0.999987  0.750842  1
  Ho  Ho6  1  0.500616  0.001308  0.249475  1
  Ho  Ho7  1  0.500544  0.001149  0.750531  1
  Cu  Cu8  1  0.333244  0.667300  0.000230  1
  Cu  Cu9  1  0.666203  0.332622  0.998935  1
  Cu  Cu10  1  0.666660  0.332610  0.500648  1
  Si  Si11  1  0.169483  0.338853  0.000036  1
  Si  Si12  1  0.830969  0.662041  0.000043  1
  Si  Si13  1  0.660693  0.830509  0.000041  1
  Si  Si14  1  0.831094  0.662215  0.499982  1
  Si  Si15  1  0.338252  0.168828  0.000049  1
  Si  Si16  1  0.166302  0.332483  0.499970  1
  Si  Si17  1  0.169727  0.830732  0.000023  1
  Si  Si18  1  0.337765  0.168786  0.499977  1
  Si  Si19  1  0.830634  0.168644  0.000067  1
  Si  Si20  1  0.668079  0.834171  0.499979  1
  Si  Si21  1  0.831153  0.168630  0.499980  1
  Si  Si22  1  0.166130  0.834263  0.499958  1
  Pd  Pd23  1  0.334022  0.668082  0.500033  1
