# generated using pymatgen
data_BaTePtO6
_symmetry_space_group_name_H-M   'P 1'
_cell_length_a   5.32695000
_cell_length_b   5.32656583
_cell_length_c   11.73812900
_cell_angle_alpha   89.99998870
_cell_angle_beta   90.00002259
_cell_angle_gamma   120.00237341
_symmetry_Int_Tables_number   1
_chemical_formula_structural   BaTePtO6
_chemical_formula_sum   'Ba2 Te2 Pt2 O12'
_cell_volume   288.43306311
_cell_formula_units_Z   2
loop_
 _symmetry_equiv_pos_site_id
 _symmetry_equiv_pos_as_xyz
  1  'x, y, z'
loop_
 _atom_site_type_symbol
 _atom_site_label
 _atom_site_symmetry_multiplicity
 _atom_site_fract_x
 _atom_site_fract_y
 _atom_site_fract_z
 _atom_site_occupancy
  Ba  Ba0  1  0.000001  0.000001  0.250004  1
  Ba  Ba1  1  0.000001  0.000001  0.749995  1
  Te  Te2  1  0.666630  0.333260  0.000000  1
  Te  Te3  1  0.666600  0.333202  0.500000  1
  Pt  Pt4  1  0.333403  0.666805  0.000000  1
  Pt  Pt5  1  0.333386  0.666774  0.500000  1
  O  O6  1  0.377968  0.008984  0.094065  1
  O  O7  1  0.631019  0.622071  0.094075  1
  O  O8  1  0.991029  0.368984  0.094077  1
  O  O9  1  0.991014  0.368919  0.405938  1
  O  O10  1  0.631045  0.622073  0.405943  1
  O  O11  1  0.377914  0.008948  0.405951  1
  O  O12  1  0.631035  0.008948  0.594048  1
  O  O13  1  0.991027  0.622073  0.594057  1
  O  O14  1  0.377906  0.368919  0.594063  1
  O  O15  1  0.377954  0.368984  0.905924  1
  O  O16  1  0.991052  0.622071  0.905925  1
  O  O17  1  0.631016  0.008984  0.905935  1
