# generated using pymatgen
data_TbFe3P3Rh2
_symmetry_space_group_name_H-M   'P 1'
_cell_length_a   3.76452600
_cell_length_b   10.33621400
_cell_length_c   12.16933700
_cell_angle_alpha   90.00000000
_cell_angle_beta   90.00000000
_cell_angle_gamma   90.00000000
_symmetry_Int_Tables_number   1
_chemical_formula_structural   TbFe3P3Rh2
_chemical_formula_sum   'Tb4 Fe12 P12 Rh8'
_cell_volume   473.52041906
_cell_formula_units_Z   4
loop_
 _symmetry_equiv_pos_site_id
 _symmetry_equiv_pos_as_xyz
  1  'x, y, z'
loop_
 _atom_site_type_symbol
 _atom_site_label
 _atom_site_symmetry_multiplicity
 _atom_site_fract_x
 _atom_site_fract_y
 _atom_site_fract_z
 _atom_site_occupancy
  Tb  Tb0  1  0.250000  0.581000  0.710801  1
  Tb  Tb1  1  0.250000  0.919000  0.210801  1
  Tb  Tb2  1  0.750000  0.419000  0.289199  1
  Tb  Tb3  1  0.750000  0.081000  0.789199  1
  Fe  Fe4  1  0.250000  0.224235  0.170878  1
  Fe  Fe5  1  0.250000  0.275765  0.670878  1
  Fe  Fe6  1  0.750000  0.775765  0.829122  1
  Fe  Fe7  1  0.750000  0.724235  0.329122  1
  Fe  Fe8  1  0.250000  0.877802  0.697084  1
  Fe  Fe9  1  0.250000  0.622198  0.197084  1
  Fe  Fe10  1  0.750000  0.122198  0.302916  1
  Fe  Fe11  1  0.750000  0.377802  0.802916  1
  Fe  Fe12  1  0.250000  0.459283  0.935260  1
  Fe  Fe13  1  0.250000  0.040717  0.435260  1
  Fe  Fe14  1  0.750000  0.540717  0.064740  1
  Fe  Fe15  1  0.750000  0.959283  0.564740  1
  P  P16  1  0.250000  0.429651  0.112604  1
  P  P17  1  0.250000  0.070349  0.612604  1
  P  P18  1  0.750000  0.570349  0.887396  1
  P  P19  1  0.750000  0.929651  0.387396  1
  P  P20  1  0.250000  0.274329  0.853084  1
  P  P21  1  0.250000  0.225671  0.353084  1
  P  P22  1  0.750000  0.725671  0.146916  1
  P  P23  1  0.750000  0.774329  0.646916  1
  P  P24  1  0.250000  0.606499  0.377920  1
  P  P25  1  0.250000  0.893501  0.877920  1
  P  P26  1  0.750000  0.393501  0.622080  1
  P  P27  1  0.750000  0.106499  0.122080  1
  Rh  Rh28  1  0.250000  0.707251  0.985264  1
  Rh  Rh29  1  0.250000  0.792749  0.485264  1
  Rh  Rh30  1  0.750000  0.292749  0.014736  1
  Rh  Rh31  1  0.750000  0.207251  0.514736  1
  Rh  Rh32  1  0.250000  0.404849  0.479553  1
  Rh  Rh33  1  0.250000  0.095151  0.979553  1
  Rh  Rh34  1  0.750000  0.595151  0.520447  1
  Rh  Rh35  1  0.750000  0.904849  0.020447  1
