# generated using pymatgen
data_HoSc4(Al2Ni)2
_symmetry_space_group_name_H-M   'P 1'
_cell_length_a   3.38515800
_cell_length_b   7.44931800
_cell_length_c   16.66835100
_cell_angle_alpha   90.00000000
_cell_angle_beta   90.00000000
_cell_angle_gamma   90.00000000
_symmetry_Int_Tables_number   1
_chemical_formula_structural   HoSc4(Al2Ni)2
_chemical_formula_sum   'Ho2 Sc8 Al8 Ni4'
_cell_volume   420.32778107
_cell_formula_units_Z   2
loop_
 _symmetry_equiv_pos_site_id
 _symmetry_equiv_pos_as_xyz
  1  'x, y, z'
loop_
 _atom_site_type_symbol
 _atom_site_label
 _atom_site_symmetry_multiplicity
 _atom_site_fract_x
 _atom_site_fract_y
 _atom_site_fract_z
 _atom_site_occupancy
  Ho  Ho0  1  0.000000  0.500000  0.500000  1
  Ho  Ho1  1  0.000000  0.000000  0.000000  1
  Sc  Sc2  1  0.000000  0.740335  0.280409  1
  Sc  Sc3  1  0.000000  0.259665  0.719591  1
  Sc  Sc4  1  0.000000  0.759665  0.780409  1
  Sc  Sc5  1  0.000000  0.240335  0.219591  1
  Sc  Sc6  1  0.000000  0.619830  0.085199  1
  Sc  Sc7  1  0.000000  0.380170  0.914801  1
  Sc  Sc8  1  0.000000  0.880170  0.585199  1
  Sc  Sc9  1  0.000000  0.119830  0.414801  1
  Al  Al10  1  0.500000  0.697001  0.928145  1
  Al  Al11  1  0.500000  0.302999  0.071855  1
  Al  Al12  1  0.500000  0.802999  0.428145  1
  Al  Al13  1  0.500000  0.197001  0.571855  1
  Al  Al14  1  0.500000  0.580197  0.656465  1
  Al  Al15  1  0.500000  0.419803  0.343535  1
  Al  Al16  1  0.500000  0.919803  0.156465  1
  Al  Al17  1  0.500000  0.080197  0.843535  1
  Ni  Ni18  1  0.500000  0.523508  0.194308  1
  Ni  Ni19  1  0.500000  0.476492  0.805692  1
  Ni  Ni20  1  0.500000  0.976492  0.694308  1
  Ni  Ni21  1  0.500000  0.023508  0.305692  1
