# generated using pymatgen
data_LaY4FeCoB6
_symmetry_space_group_name_H-M   'P 1'
_cell_length_a   5.45865219
_cell_length_b   5.45865109
_cell_length_c   8.25914647
_cell_angle_alpha   70.70324008
_cell_angle_beta   70.70324654
_cell_angle_gamma   59.99999176
_symmetry_Int_Tables_number   1
_chemical_formula_structural   LaY4FeCoB6
_chemical_formula_sum   'La1 Y4 Fe1 Co1 B6'
_cell_volume   196.99973313
_cell_formula_units_Z   1
loop_
 _symmetry_equiv_pos_site_id
 _symmetry_equiv_pos_as_xyz
  1  'x, y, z'
loop_
 _atom_site_type_symbol
 _atom_site_label
 _atom_site_symmetry_multiplicity
 _atom_site_fract_x
 _atom_site_fract_y
 _atom_site_fract_z
 _atom_site_occupancy
  La  La0  1  0.003500  0.003500  0.989501  1
  Y  Y1  1  0.749446  0.749446  0.751662  1
  Y  Y2  1  0.250732  0.250732  0.247802  1
  Y  Y3  1  0.583582  0.583582  0.249253  1
  Y  Y4  1  0.416694  0.416694  0.749918  1
  Fe  Fe5  1  0.115059  0.115059  0.654823  1
  Co  Co6  1  0.883000  0.883000  0.350999  1
  B  B7  1  0.498908  0.167718  0.501007  1
  B  B8  1  0.832367  0.498908  0.501007  1
  B  B9  1  0.167718  0.832367  0.501007  1
  B  B10  1  0.167718  0.498908  0.501007  1
  B  B11  1  0.832367  0.167718  0.501007  1
  B  B12  1  0.498908  0.832367  0.501007  1
