# generated using pymatgen
data_Y6Zn4Pd9Pt4
_symmetry_space_group_name_H-M   'P 1'
_cell_length_a   8.27739795
_cell_length_b   8.27739882
_cell_length_c   8.25710300
_cell_angle_alpha   109.42156112
_cell_angle_beta   109.42156323
_cell_angle_gamma   109.52083716
_symmetry_Int_Tables_number   1
_chemical_formula_structural   Y6Zn4Pd9Pt4
_chemical_formula_sum   'Y6 Zn4 Pd9 Pt4'
_cell_volume   435.77197697
_cell_formula_units_Z   1
loop_
 _symmetry_equiv_pos_site_id
 _symmetry_equiv_pos_as_xyz
  1  'x, y, z'
loop_
 _atom_site_type_symbol
 _atom_site_label
 _atom_site_symmetry_multiplicity
 _atom_site_fract_x
 _atom_site_fract_y
 _atom_site_fract_z
 _atom_site_occupancy
  Y  Y0  1  0.702389  0.702389  0.002269  1
  Y  Y1  1  0.297611  0.000000  0.299880  1
  Y  Y2  1  0.000000  0.297611  0.299880  1
  Y  Y3  1  0.298656  0.298656  0.998704  1
  Y  Y4  1  0.701344  0.000000  0.700048  1
  Y  Y5  1  0.000000  0.701344  0.700048  1
  Zn  Zn6  1  0.000000  0.000000  0.499854  1
  Zn  Zn7  1  0.000000  0.500088  0.000140  1
  Zn  Zn8  1  0.500088  0.000000  0.000140  1
  Zn  Zn9  1  0.499912  0.499912  0.500052  1
  Pd  Pd10  1  0.665430  0.333889  0.999668  1
  Pd  Pd11  1  0.334570  0.668459  0.334237  1
  Pd  Pd12  1  0.000000  0.334772  0.666865  1
  Pd  Pd13  1  0.333889  0.665430  0.999668  1
  Pd  Pd14  1  0.334772  0.000000  0.666865  1
  Pd  Pd15  1  0.668459  0.334570  0.334237  1
  Pd  Pd16  1  0.665228  0.665228  0.332090  1
  Pd  Pd17  1  0.666111  0.331541  0.665779  1
  Pd  Pd18  1  0.331541  0.666111  0.665779  1
  Pt  Pt19  1  0.334648  0.334648  0.668182  1
  Pt  Pt20  1  0.665352  0.000000  0.333533  1
  Pt  Pt21  1  0.000000  0.665352  0.333533  1
  Pt  Pt22  1  0.000000  0.000000  0.998549  1
