# generated using pymatgen
data_Er7Tm9(InRu)4
_symmetry_space_group_name_H-M   'P 1'
_cell_length_a   9.51702205
_cell_length_b   9.51702156
_cell_length_c   9.56251900
_cell_angle_alpha   59.84172788
_cell_angle_beta   59.84172959
_cell_angle_gamma   59.75378257
_symmetry_Int_Tables_number   1
_chemical_formula_structural   Er7Tm9(InRu)4
_chemical_formula_sum   'Er7 Tm9 In4 Ru4'
_cell_volume   609.82547228
_cell_formula_units_Z   1
loop_
 _symmetry_equiv_pos_site_id
 _symmetry_equiv_pos_as_xyz
  1  'x, y, z'
loop_
 _atom_site_type_symbol
 _atom_site_label
 _atom_site_symmetry_multiplicity
 _atom_site_fract_x
 _atom_site_fract_y
 _atom_site_fract_z
 _atom_site_occupancy
  Er  Er0  1  0.059304  0.059304  0.440696  1
  Er  Er1  1  0.191373  0.808292  0.808395  1
  Er  Er2  1  0.808292  0.191373  0.191939  1
  Er  Er3  1  0.808292  0.191373  0.808395  1
  Er  Er4  1  0.191373  0.808292  0.191939  1
  Er  Er5  1  0.808299  0.808299  0.191701  1
  Er  Er6  1  0.192091  0.192091  0.807909  1
  Tm  Tm7  1  0.598296  0.598296  0.598260  1
  Tm  Tm8  1  0.598296  0.598296  0.205149  1
  Tm  Tm9  1  0.598671  0.205848  0.597740  1
  Tm  Tm10  1  0.205848  0.598671  0.597740  1
  Tm  Tm11  1  0.058970  0.440033  0.441571  1
  Tm  Tm12  1  0.440033  0.058970  0.059427  1
  Tm  Tm13  1  0.440033  0.058970  0.441571  1
  Tm  Tm14  1  0.058970  0.440033  0.059427  1
  Tm  Tm15  1  0.440240  0.440240  0.059760  1
  In  In16  1  0.832406  0.832406  0.832796  1
  In  In17  1  0.832406  0.832406  0.502392  1
  In  In18  1  0.832905  0.502471  0.832312  1
  In  In19  1  0.502471  0.832905  0.832312  1
  Ru  Ru20  1  0.390299  0.390299  0.389423  1
  Ru  Ru21  1  0.390299  0.390299  0.829980  1
  Ru  Ru22  1  0.392486  0.828350  0.389583  1
  Ru  Ru23  1  0.828350  0.392486  0.389583  1
