# generated using pymatgen
data_Zr5SnGeBi2
_symmetry_space_group_name_H-M   'P 1'
_cell_length_a   8.80960322
_cell_length_b   8.80960357
_cell_length_c   5.95934400
_cell_angle_alpha   90.00000000
_cell_angle_beta   90.00000000
_cell_angle_gamma   119.87404286
_symmetry_Int_Tables_number   1
_chemical_formula_structural   Zr5SnGeBi2
_chemical_formula_sum   'Zr10 Sn2 Ge2 Bi4'
_cell_volume   401.04362933
_cell_formula_units_Z   2
loop_
 _symmetry_equiv_pos_site_id
 _symmetry_equiv_pos_as_xyz
  1  'x, y, z'
loop_
 _atom_site_type_symbol
 _atom_site_label
 _atom_site_symmetry_multiplicity
 _atom_site_fract_x
 _atom_site_fract_y
 _atom_site_fract_z
 _atom_site_occupancy
  Zr  Zr0  1  0.667270  0.330859  0.003599  1
  Zr  Zr1  1  0.330859  0.667270  0.003599  1
  Zr  Zr2  1  0.330859  0.667270  0.496401  1
  Zr  Zr3  1  0.667270  0.330859  0.496401  1
  Zr  Zr4  1  0.739974  0.739974  0.750000  1
  Zr  Zr5  1  0.260051  0.999360  0.750000  1
  Zr  Zr6  1  0.999360  0.260051  0.750000  1
  Zr  Zr7  1  0.261581  0.261581  0.250000  1
  Zr  Zr8  1  0.738436  0.005273  0.250000  1
  Zr  Zr9  1  0.005273  0.738436  0.250000  1
  Sn  Sn10  1  0.392151  0.000592  0.250000  1
  Sn  Sn11  1  0.000592  0.392151  0.250000  1
  Ge  Ge12  1  0.999806  0.999806  0.000950  1
  Ge  Ge13  1  0.999806  0.999806  0.499050  1
  Bi  Bi14  1  0.394034  0.394034  0.750000  1
  Bi  Bi15  1  0.603802  0.999368  0.750000  1
  Bi  Bi16  1  0.999368  0.603802  0.750000  1
  Bi  Bi17  1  0.609507  0.609507  0.250000  1
