# generated using pymatgen
data_Na4Li2ScFe(Si2O5)6
_symmetry_space_group_name_H-M   'P 1'
_cell_length_a   11.30659400
_cell_length_b   11.30659437
_cell_length_c   10.21743900
_cell_angle_alpha   90.00000000
_cell_angle_beta   90.00000000
_cell_angle_gamma   101.77021440
_symmetry_Int_Tables_number   1
_chemical_formula_structural   Na4Li2ScFe(Si2O5)6
_chemical_formula_sum   'Na8 Li4 Sc2 Fe2 Si24 O60'
_cell_volume   1278.72344541
_cell_formula_units_Z   2
loop_
 _symmetry_equiv_pos_site_id
 _symmetry_equiv_pos_as_xyz
  1  'x, y, z'
loop_
 _atom_site_type_symbol
 _atom_site_label
 _atom_site_symmetry_multiplicity
 _atom_site_fract_x
 _atom_site_fract_y
 _atom_site_fract_z
 _atom_site_occupancy
  Na  Na0  1  0.083213  0.914438  0.251806  1
  Na  Na1  1  0.416787  0.585562  0.751806  1
  Na  Na2  1  0.914438  0.083213  0.748194  1
  Na  Na3  1  0.585562  0.416787  0.248194  1
  Na  Na4  1  0.527711  0.972289  0.250000  1
  Na  Na5  1  0.972289  0.527711  0.750000  1
  Na  Na6  1  0.473951  0.026049  0.750000  1
  Na  Na7  1  0.026049  0.473951  0.250000  1
  Li  Li8  1  0.747777  0.747777  0.000000  1
  Li  Li9  1  0.248019  0.248019  0.500000  1
  Li  Li10  1  0.251981  0.251981  0.000000  1
  Li  Li11  1  0.752223  0.752223  0.500000  1
  Sc  Sc12  1  0.336958  0.163042  0.250000  1
  Sc  Sc13  1  0.163042  0.336958  0.750000  1
  Fe  Fe14  1  0.663729  0.836271  0.750000  1
  Fe  Fe15  1  0.836271  0.663729  0.250000  1
  Si  Si16  1  0.756686  0.017522  0.012971  1
  Si  Si17  1  0.541938  0.686704  0.192585  1
  Si  Si18  1  0.813296  0.958062  0.307415  1
  Si  Si19  1  0.686704  0.541938  0.807415  1
  Si  Si20  1  0.037838  0.184874  0.310166  1
  Si  Si21  1  0.462162  0.315126  0.810166  1
  Si  Si22  1  0.184874  0.037838  0.689834  1
  Si  Si23  1  0.315126  0.462162  0.189834  1
  Si  Si24  1  0.017522  0.756686  0.987029  1
  Si  Si25  1  0.482478  0.743314  0.487029  1
  Si  Si26  1  0.958062  0.813296  0.692585  1
  Si  Si27  1  0.743314  0.482478  0.512971  1
  Si  Si28  1  0.979767  0.242415  0.016261  1
  Si  Si29  1  0.520233  0.257585  0.516261  1
  Si  Si30  1  0.803257  0.423920  0.041585  1
  Si  Si31  1  0.257585  0.520233  0.483739  1
  Si  Si32  1  0.197589  0.581073  0.958617  1
  Si  Si33  1  0.302411  0.918927  0.458617  1
  Si  Si34  1  0.581073  0.197589  0.041383  1
  Si  Si35  1  0.918927  0.302411  0.541383  1
  Si  Si36  1  0.076080  0.696743  0.458415  1
  Si  Si37  1  0.423920  0.803257  0.958415  1
  Si  Si38  1  0.696743  0.076080  0.541585  1
  Si  Si39  1  0.242415  0.979767  0.983739  1
  O  O40  1  0.910642  0.355287  0.994977  1
  O  O41  1  0.555140  0.447580  0.810384  1
  O  O42  1  0.052420  0.944860  0.689616  1
  O  O43  1  0.447580  0.555140  0.189616  1
  O  O44  1  0.677713  0.324833  0.069308  1
  O  O45  1  0.175167  0.822287  0.430692  1
  O  O46  1  0.324833  0.677713  0.930692  1
  O  O47  1  0.822287  0.175167  0.569308  1
  O  O48  1  0.883889  0.114809  0.986030  1
  O  O49  1  0.616111  0.385191  0.486030  1
  O  O50  1  0.114809  0.883889  0.013970  1
  O  O51  1  0.385191  0.616111  0.513970  1
  O  O52  1  0.663197  0.001157  0.673760  1
  O  O53  1  0.836803  0.498843  0.173760  1
  O  O54  1  0.001157  0.663197  0.326240  1
  O  O55  1  0.498843  0.836803  0.826240  1
  O  O56  1  0.337526  0.991781  0.325939  1
  O  O57  1  0.162474  0.508219  0.825939  1
  O  O58  1  0.991781  0.337526  0.674061  1
  O  O59  1  0.508219  0.162474  0.174061  1
  O  O60  1  0.280781  0.999974  0.585833  1
  O  O61  1  0.219219  0.500026  0.085833  1
  O  O62  1  0.999974  0.280781  0.414167  1
  O  O63  1  0.500026  0.219219  0.914167  1
  O  O64  1  0.251417  0.022345  0.829939  1
  O  O65  1  0.781953  0.503601  0.912705  1
  O  O66  1  0.996399  0.718047  0.587295  1
  O  O67  1  0.503601  0.781953  0.087295  1
  O  O68  1  0.663924  0.673972  0.838095  1
  O  O69  1  0.836076  0.826028  0.338095  1
  O  O70  1  0.673972  0.663924  0.161905  1
  O  O71  1  0.826028  0.836076  0.661905  1
  O  O72  1  0.336788  0.330226  0.158553  1
  O  O73  1  0.163212  0.169774  0.658553  1
  O  O74  1  0.330226  0.336788  0.841447  1
  O  O75  1  0.169774  0.163212  0.341447  1
  O  O76  1  0.646262  0.089066  0.991186  1
  O  O77  1  0.853738  0.410934  0.491186  1
  O  O78  1  0.089066  0.646262  0.008814  1
  O  O79  1  0.410934  0.853738  0.508814  1
  O  O80  1  0.355287  0.910642  0.005023  1
  O  O81  1  0.144713  0.589358  0.505023  1
  O  O82  1  0.944860  0.052420  0.310384  1
  O  O83  1  0.589358  0.144713  0.494977  1
  O  O84  1  0.408115  0.251985  0.420473  1
  O  O85  1  0.091885  0.248015  0.920473  1
  O  O86  1  0.251985  0.408115  0.579527  1
  O  O87  1  0.248015  0.091885  0.079527  1
  O  O88  1  0.593659  0.749431  0.584789  1
  O  O89  1  0.906341  0.750569  0.084789  1
  O  O90  1  0.749431  0.593659  0.415211  1
  O  O91  1  0.750569  0.906341  0.915211  1
  O  O92  1  0.526240  0.752506  0.333225  1
  O  O93  1  0.973760  0.747494  0.833225  1
  O  O94  1  0.752506  0.526240  0.666775  1
  O  O95  1  0.747494  0.973760  0.166775  1
  O  O96  1  0.477655  0.248583  0.670061  1
  O  O97  1  0.022345  0.251417  0.170061  1
  O  O98  1  0.248583  0.477655  0.329939  1
  O  O99  1  0.718047  0.996399  0.412705  1
