# generated using pymatgen
data_La2Ce7Pr2O20
_symmetry_space_group_name_H-M   'P 1'
_cell_length_a   6.79021616
_cell_length_b   6.81766953
_cell_length_c   10.39316008
_cell_angle_alpha   96.37077609
_cell_angle_beta   90.01121750
_cell_angle_gamma   99.82570333
_symmetry_Int_Tables_number   1
_chemical_formula_structural   La2Ce7Pr2O20
_chemical_formula_sum   'La2 Ce7 Pr2 O20'
_cell_volume   471.06014925
_cell_formula_units_Z   1
loop_
 _symmetry_equiv_pos_site_id
 _symmetry_equiv_pos_as_xyz
  1  'x, y, z'
loop_
 _atom_site_type_symbol
 _atom_site_label
 _atom_site_symmetry_multiplicity
 _atom_site_fract_x
 _atom_site_fract_y
 _atom_site_fract_z
 _atom_site_occupancy
  La  La0  1  0.997549  0.001378  0.999648  1
  La  La1  1  0.178930  0.103362  0.364982  1
  Ce  Ce2  1  0.879613  0.446131  0.826851  1
  Ce  Ce3  1  0.272272  0.640421  0.526893  1
  Ce  Ce4  1  0.730214  0.359270  0.474872  1
  Ce  Ce5  1  0.357739  0.146997  0.724248  1
  Ce  Ce6  1  0.643701  0.855043  0.275598  1
  Ce  Ce7  1  0.469380  0.733719  0.916937  1
  Ce  Ce8  1  0.527314  0.264496  0.080920  1
  Pr  Pr9  1  0.818836  0.895682  0.635911  1
  Pr  Pr10  1  0.122910  0.554926  0.172826  1
  O  O11  1  0.140873  0.650713  0.949340  1
  O  O12  1  0.853008  0.340853  0.030428  1
  O  O13  1  0.041638  0.173545  0.793870  1
  O  O14  1  0.951676  0.841289  0.206416  1
  O  O15  1  0.042928  0.437781  0.380981  1
  O  O16  1  0.956527  0.560222  0.632655  1
  O  O17  1  0.163145  0.937953  0.567816  1
  O  O18  1  0.832568  0.059668  0.437523  1
  O  O19  1  0.351376  0.036073  0.923188  1
  O  O20  1  0.642774  0.964254  0.072721  1
  O  O21  1  0.213626  0.225609  0.151734  1
  O  O22  1  0.787628  0.762502  0.847597  1
  O  O23  1  0.323332  0.795250  0.338983  1
  O  O24  1  0.683138  0.208902  0.668336  1
  O  O25  1  0.367096  0.339670  0.548748  1
  O  O26  1  0.638029  0.658862  0.455121  1
  O  O27  1  0.452134  0.811489  0.700781  1
  O  O28  1  0.555403  0.192966  0.297840  1
  O  O29  1  0.476748  0.591145  0.123186  1
  O  O30  1  0.527896  0.409826  0.873049  1
