# generated using pymatgen
data_LiTa(TiH4)2
_symmetry_space_group_name_H-M   'P 1'
_cell_length_a   4.43541700
_cell_length_b   4.43541700
_cell_length_c   4.40285700
_cell_angle_alpha   90.00000000
_cell_angle_beta   90.00000000
_cell_angle_gamma   90.00000000
_symmetry_Int_Tables_number   1
_chemical_formula_structural   LiTa(TiH4)2
_chemical_formula_sum   'Li1 Ta1 Ti2 H8'
_cell_volume   86.61707098
_cell_formula_units_Z   1
loop_
 _symmetry_equiv_pos_site_id
 _symmetry_equiv_pos_as_xyz
  1  'x, y, z'
loop_
 _atom_site_type_symbol
 _atom_site_label
 _atom_site_symmetry_multiplicity
 _atom_site_fract_x
 _atom_site_fract_y
 _atom_site_fract_z
 _atom_site_occupancy
  Li  Li0  1  0.500000  0.500000  0.000000  1
  Ta  Ta1  1  0.000000  0.000000  0.000000  1
  Ti  Ti2  1  0.500000  0.000000  0.500000  1
  Ti  Ti3  1  0.000000  0.500000  0.500000  1
  H  H4  1  0.253100  0.253100  0.749136  1
  H  H5  1  0.253100  0.746900  0.250864  1
  H  H6  1  0.746900  0.253100  0.250864  1
  H  H7  1  0.746900  0.746900  0.749136  1
  H  H8  1  0.746900  0.746900  0.250864  1
  H  H9  1  0.746900  0.253100  0.749136  1
  H  H10  1  0.253100  0.746900  0.749136  1
  H  H11  1  0.253100  0.253100  0.250864  1
