# generated using pymatgen
data_Rb2Yb(BrCl)2
_symmetry_space_group_name_H-M   'P 1'
_cell_length_a   9.58152981
_cell_length_b   9.58153026
_cell_length_c   7.57764100
_cell_angle_alpha   90.00000000
_cell_angle_beta   90.00000000
_cell_angle_gamma   133.34872293
_symmetry_Int_Tables_number   1
_chemical_formula_structural   Rb2Yb(BrCl)2
_chemical_formula_sum   'Rb4 Yb2 Br4 Cl4'
_cell_volume   505.88433567
_cell_formula_units_Z   2
loop_
 _symmetry_equiv_pos_site_id
 _symmetry_equiv_pos_as_xyz
  1  'x, y, z'
loop_
 _atom_site_type_symbol
 _atom_site_label
 _atom_site_symmetry_multiplicity
 _atom_site_fract_x
 _atom_site_fract_y
 _atom_site_fract_z
 _atom_site_occupancy
  Rb  Rb0  1  0.139172  0.860828  0.500000  1
  Rb  Rb1  1  0.639172  0.360828  0.000000  1
  Rb  Rb2  1  0.860828  0.139172  0.500000  1
  Rb  Rb3  1  0.360828  0.639172  0.000000  1
  Yb  Yb4  1  0.500000  0.500000  0.500000  1
  Yb  Yb5  1  0.000000  0.000000  0.000000  1
  Br  Br6  1  0.336088  0.663912  0.500000  1
  Br  Br7  1  0.836088  0.163912  0.000000  1
  Br  Br8  1  0.663912  0.336088  0.500000  1
  Br  Br9  1  0.163912  0.836088  0.000000  1
  Cl  Cl10  1  0.250920  0.250920  0.249849  1
  Cl  Cl11  1  0.749080  0.749080  0.750151  1
  Cl  Cl12  1  0.249080  0.249080  0.749849  1
  Cl  Cl13  1  0.750920  0.750920  0.250151  1
