# generated using pymatgen
data_Tb3YTcPt3F28
_symmetry_space_group_name_H-M   'P 1'
_cell_length_a   5.57306281
_cell_length_b   8.93671832
_cell_length_c   12.04264811
_cell_angle_alpha   62.34810374
_cell_angle_beta   90.03696003
_cell_angle_gamma   90.05417526
_symmetry_Int_Tables_number   1
_chemical_formula_structural   Tb3YTcPt3F28
_chemical_formula_sum   'Tb3 Y1 Tc1 Pt3 F28'
_cell_volume   531.27749966
_cell_formula_units_Z   1
loop_
 _symmetry_equiv_pos_site_id
 _symmetry_equiv_pos_as_xyz
  1  'x, y, z'
loop_
 _atom_site_type_symbol
 _atom_site_label
 _atom_site_symmetry_multiplicity
 _atom_site_fract_x
 _atom_site_fract_y
 _atom_site_fract_z
 _atom_site_occupancy
  Tb  Tb0  1  0.739831  0.186163  0.736030  1
  Tb  Tb1  1  0.760598  0.185215  0.236472  1
  Tb  Tb2  1  0.239855  0.813749  0.763660  1
  Y  Y3  1  0.259584  0.813725  0.265079  1
  Tc  Tc4  1  0.757543  0.726260  0.043013  1
  Pt  Pt5  1  0.241123  0.272782  0.957485  1
  Pt  Pt6  1  0.258918  0.272936  0.457349  1
  Pt  Pt7  1  0.741178  0.726522  0.542988  1
  F  F8  1  0.935182  0.704367  0.415124  1
  F  F9  1  0.063920  0.295087  0.584835  1
  F  F10  1  0.436531  0.295224  0.085077  1
  F  F11  1  0.555081  0.708714  0.916827  1
  F  F12  1  0.473799  0.729434  0.138277  1
  F  F13  1  0.532216  0.272786  0.865336  1
  F  F14  1  0.967635  0.273246  0.364792  1
  F  F15  1  0.033027  0.726385  0.635025  1
  F  F16  1  0.955619  0.744652  0.171831  1
  F  F17  1  0.050852  0.256541  0.825578  1
  F  F18  1  0.450182  0.256956  0.325503  1
  F  F19  1  0.551936  0.742620  0.675288  1
  F  F20  1  0.770560  0.479145  0.140391  1
  F  F21  1  0.229442  0.520527  0.858914  1
  F  F22  1  0.269718  0.520717  0.358746  1
  F  F23  1  0.730305  0.478754  0.641578  1
  F  F24  1  0.942957  0.279898  0.043343  1
  F  F25  1  0.052230  0.720850  0.954204  1
  F  F26  1  0.442441  0.718860  0.457894  1
  F  F27  1  0.556909  0.280136  0.543025  1
  F  F28  1  0.741776  0.974439  0.449580  1
  F  F29  1  0.258667  0.024888  0.550513  1
  F  F30  1  0.241498  0.024823  0.051026  1
  F  F31  1  0.758985  0.972861  0.946428  1
  F  F32  1  0.585775  0.968850  0.232114  1
  F  F33  1  0.413462  0.031198  0.767508  1
  F  F34  1  0.086567  0.030434  0.268510  1
  F  F35  1  0.914098  0.970256  0.730657  1
