# generated using pymatgen
data_CsKCo3Se4
_symmetry_space_group_name_H-M   'P 1'
_cell_length_a   9.63947320
_cell_length_b   8.66915759
_cell_length_c   5.98236443
_cell_angle_alpha   79.99324899
_cell_angle_beta   62.33260331
_cell_angle_gamma   37.67414797
_symmetry_Int_Tables_number   1
_chemical_formula_structural   CsKCo3Se4
_chemical_formula_sum   'Cs1 K1 Co3 Se4'
_cell_volume   252.67117774
_cell_formula_units_Z   1
loop_
 _symmetry_equiv_pos_site_id
 _symmetry_equiv_pos_as_xyz
  1  'x, y, z'
loop_
 _atom_site_type_symbol
 _atom_site_label
 _atom_site_symmetry_multiplicity
 _atom_site_fract_x
 _atom_site_fract_y
 _atom_site_fract_z
 _atom_site_occupancy
  Cs  Cs0  1  0.332879  0.332879  0.667120  1
  K  K1  1  0.613951  0.613950  0.386049  1
  Co  Co2  1  0.007353  0.007353  0.992647  1
  Co  Co3  1  0.507158  0.507157  0.992843  1
  Co  Co4  1  0.007157  0.007157  0.492843  1
  Se  Se5  1  0.272212  0.938144  0.061855  1
  Se  Se6  1  0.077101  0.744048  0.255951  1
  Se  Se7  1  0.938144  0.272211  0.727788  1
  Se  Se8  1  0.744048  0.077101  0.922898  1
