# generated using pymatgen
data_Dy8Tm12Si15Ni
_symmetry_space_group_name_H-M   'P 1'
_cell_length_a   7.28198900
_cell_length_b   7.68405084
_cell_length_c   14.43789800
_cell_angle_alpha   90.00000000
_cell_angle_beta   90.00000000
_cell_angle_gamma   90.07064993
_symmetry_Int_Tables_number   1
_chemical_formula_structural   Dy8Tm12Si15Ni
_chemical_formula_sum   'Dy8 Tm12 Si15 Ni1'
_cell_volume   807.87447634
_cell_formula_units_Z   1
loop_
 _symmetry_equiv_pos_site_id
 _symmetry_equiv_pos_as_xyz
  1  'x, y, z'
loop_
 _atom_site_type_symbol
 _atom_site_label
 _atom_site_symmetry_multiplicity
 _atom_site_fract_x
 _atom_site_fract_y
 _atom_site_fract_z
 _atom_site_occupancy
  Dy  Dy0  1  0.016404  0.182944  0.096817  1
  Dy  Dy1  1  0.985198  0.821598  0.905760  1
  Dy  Dy2  1  0.485435  0.679473  0.905053  1
  Dy  Dy3  1  0.985198  0.821598  0.594240  1
  Dy  Dy4  1  0.516341  0.320141  0.096216  1
  Dy  Dy5  1  0.016404  0.182944  0.403183  1
  Dy  Dy6  1  0.516341  0.320141  0.403784  1
  Dy  Dy7  1  0.485435  0.679473  0.594947  1
  Tm  Tm8  1  0.159917  0.517839  0.750000  1
  Tm  Tm9  1  0.839429  0.489451  0.250000  1
  Tm  Tm10  1  0.341518  0.012436  0.250000  1
  Tm  Tm11  1  0.671286  0.990945  0.750000  1
  Tm  Tm12  1  0.313044  0.172936  0.626649  1
  Tm  Tm13  1  0.674779  0.824322  0.375261  1
  Tm  Tm14  1  0.173714  0.679651  0.375876  1
  Tm  Tm15  1  0.674779  0.824322  0.124739  1
  Tm  Tm16  1  0.833721  0.316753  0.625763  1
  Tm  Tm17  1  0.313044  0.172936  0.873351  1
  Tm  Tm18  1  0.833721  0.316753  0.874237  1
  Tm  Tm19  1  0.173714  0.679651  0.124124  1
  Si  Si20  1  0.971661  0.894022  0.250000  1
  Si  Si21  1  0.469856  0.607769  0.250000  1
  Si  Si22  1  0.531144  0.392502  0.750000  1
  Si  Si23  1  0.276837  0.873349  0.750000  1
  Si  Si24  1  0.720176  0.131751  0.250000  1
  Si  Si25  1  0.219561  0.370894  0.250000  1
  Si  Si26  1  0.772535  0.623884  0.750000  1
  Si  Si27  1  0.158296  0.470255  0.538180  1
  Si  Si28  1  0.842145  0.532777  0.462694  1
  Si  Si29  1  0.345894  0.969647  0.461419  1
  Si  Si30  1  0.842145  0.532777  0.037306  1
  Si  Si31  1  0.653714  0.031047  0.539232  1
  Si  Si32  1  0.158296  0.470255  0.961820  1
  Si  Si33  1  0.653714  0.031047  0.960768  1
  Si  Si34  1  0.345894  0.969647  0.038581  1
  Ni  Ni35  1  0.028709  0.092069  0.750000  1
