# generated using pymatgen
data_Hf6Zr2Co8Si13P
_symmetry_space_group_name_H-M   'P 1'
_cell_length_a   9.41407513
_cell_length_b   9.41407728
_cell_length_c   9.42097000
_cell_angle_alpha   94.16599188
_cell_angle_beta   94.16599290
_cell_angle_gamma   148.71568318
_symmetry_Int_Tables_number   1
_chemical_formula_structural   Hf6Zr2Co8Si13P
_chemical_formula_sum   'Hf6 Zr2 Co8 Si13 P1'
_cell_volume   417.53431554
_cell_formula_units_Z   1
loop_
 _symmetry_equiv_pos_site_id
 _symmetry_equiv_pos_as_xyz
  1  'x, y, z'
loop_
 _atom_site_type_symbol
 _atom_site_label
 _atom_site_symmetry_multiplicity
 _atom_site_fract_x
 _atom_site_fract_y
 _atom_site_fract_z
 _atom_site_occupancy
  Hf  Hf0  1  0.137347  0.862372  0.999719  1
  Hf  Hf1  1  0.862372  0.137347  0.999719  1
  Hf  Hf2  1  0.303797  0.498617  0.802414  1
  Hf  Hf3  1  0.695533  0.499514  0.195048  1
  Hf  Hf4  1  0.499514  0.695533  0.195048  1
  Hf  Hf5  1  0.498617  0.303797  0.802414  1
  Zr  Zr6  1  0.138644  0.138644  0.277289  1
  Zr  Zr7  1  0.861688  0.861688  0.723376  1
  Co  Co8  1  0.102003  0.602003  0.204007  1
  Co  Co9  1  0.398189  0.898189  0.796380  1
  Co  Co10  1  0.901779  0.102843  0.501477  1
  Co  Co11  1  0.599699  0.398634  0.501477  1
  Co  Co12  1  0.602003  0.102003  0.204007  1
  Co  Co13  1  0.898189  0.398189  0.796380  1
  Co  Co14  1  0.102843  0.901779  0.501477  1
  Co  Co15  1  0.398634  0.599699  0.501477  1
  Si  Si16  1  0.707437  0.707437  0.414873  1
  Si  Si17  1  0.290295  0.709421  0.999718  1
  Si  Si18  1  0.709421  0.290295  0.999718  1
  Si  Si19  1  0.091436  0.500294  0.591730  1
  Si  Si20  1  0.907990  0.500775  0.408765  1
  Si  Si21  1  0.500775  0.907990  0.408765  1
  Si  Si22  1  0.500294  0.091436  0.591730  1
  Si  Si23  1  0.251648  0.251648  0.999310  1
  Si  Si24  1  0.747663  0.747663  0.999310  1
  Si  Si25  1  0.301346  0.999729  0.301075  1
  Si  Si26  1  0.698737  0.000381  0.699118  1
  Si  Si27  1  0.000381  0.698737  0.699118  1
  Si  Si28  1  0.999729  0.301346  0.301075  1
  P  P29  1  0.291994  0.291994  0.583990  1
