# generated using pymatgen
data_Yb4Ga18Pt5Rh
_symmetry_space_group_name_H-M   'P 1'
_cell_length_a   7.65987036
_cell_length_b   7.65987054
_cell_length_c   9.50261656
_cell_angle_alpha   89.96803481
_cell_angle_beta   89.96803474
_cell_angle_gamma   119.91106907
_symmetry_Int_Tables_number   1
_chemical_formula_structural   Yb4Ga18Pt5Rh
_chemical_formula_sum   'Yb4 Ga18 Pt5 Rh1'
_cell_volume   483.28676536
_cell_formula_units_Z   1
loop_
 _symmetry_equiv_pos_site_id
 _symmetry_equiv_pos_as_xyz
  1  'x, y, z'
loop_
 _atom_site_type_symbol
 _atom_site_label
 _atom_site_symmetry_multiplicity
 _atom_site_fract_x
 _atom_site_fract_y
 _atom_site_fract_z
 _atom_site_occupancy
  Yb  Yb0  1  0.998785  0.669119  0.250211  1
  Yb  Yb1  1  0.002352  0.331736  0.750080  1
  Yb  Yb2  1  0.668264  0.997648  0.249920  1
  Yb  Yb3  1  0.330881  0.001215  0.749789  1
  Ga  Ga4  1  0.128326  0.128979  0.250405  1
  Ga  Ga5  1  0.871021  0.871674  0.749595  1
  Ga  Ga6  1  0.997284  0.334202  0.082835  1
  Ga  Ga7  1  0.002119  0.666079  0.916688  1
  Ga  Ga8  1  0.998671  0.661658  0.580276  1
  Ga  Ga9  1  0.338342  0.001329  0.419724  1
  Ga  Ga10  1  0.992219  0.333876  0.419278  1
  Ga  Ga11  1  0.666124  0.007781  0.580722  1
  Ga  Ga12  1  0.665798  0.002716  0.917165  1
  Ga  Ga13  1  0.333921  0.997881  0.083312  1
  Ga  Ga14  1  0.334416  0.330369  0.566902  1
  Ga  Ga15  1  0.669631  0.665584  0.433098  1
  Ga  Ga16  1  0.668705  0.668695  0.069822  1
  Ga  Ga17  1  0.331305  0.331295  0.930178  1
  Ga  Ga18  1  0.337792  0.543136  0.250629  1
  Ga  Ga19  1  0.661939  0.452923  0.746899  1
  Ga  Ga20  1  0.547077  0.338061  0.253101  1
  Ga  Ga21  1  0.456864  0.662208  0.749371  1
  Pt  Pt22  1  0.670136  0.329864  0.000000  1
  Pt  Pt23  1  0.329181  0.670819  0.000000  1
  Pt  Pt24  1  0.329081  0.670919  0.500000  1
  Pt  Pt25  1  0.999904  0.000096  0.000000  1
  Pt  Pt26  1  0.999935  0.000065  0.500000  1
  Rh  Rh27  1  0.669928  0.330072  0.500000  1
