# generated using pymatgen
data_EuPa5(Sb4Pt3)2
_symmetry_space_group_name_H-M   'P 1'
_cell_length_a   8.50915139
_cell_length_b   8.50915240
_cell_length_c   8.50915300
_cell_angle_alpha   109.37423336
_cell_angle_beta   109.66536224
_cell_angle_gamma   109.37424195
_symmetry_Int_Tables_number   1
_chemical_formula_structural   EuPa5(Sb4Pt3)2
_chemical_formula_sum   'Eu1 Pa5 Sb8 Pt6'
_cell_volume   474.27829228
_cell_formula_units_Z   1
loop_
 _symmetry_equiv_pos_site_id
 _symmetry_equiv_pos_as_xyz
  1  'x, y, z'
loop_
 _atom_site_type_symbol
 _atom_site_label
 _atom_site_symmetry_multiplicity
 _atom_site_fract_x
 _atom_site_fract_y
 _atom_site_fract_z
 _atom_site_occupancy
  Eu  Eu0  1  0.875000  0.250000  0.125000  1
  Pa  Pa1  1  0.625000  0.750000  0.375000  1
  Pa  Pa2  1  0.248985  0.123572  0.876363  1
  Pa  Pa3  1  0.752792  0.376428  0.625413  1
  Pa  Pa4  1  0.123637  0.872621  0.247208  1
  Pa  Pa5  1  0.374587  0.627379  0.751015  1
  Sb  Sb6  1  0.675590  0.496559  0.997348  1
  Sb  Sb7  1  0.500789  0.003441  0.679031  1
  Sb  Sb8  1  0.001750  0.675329  0.497333  1
  Sb  Sb9  1  0.822004  0.824671  0.826421  1
  Sb  Sb10  1  0.502667  0.004417  0.177996  1
  Sb  Sb11  1  0.173579  0.495583  0.998250  1
  Sb  Sb12  1  0.002652  0.178243  0.499211  1
  Sb  Sb13  1  0.320969  0.321757  0.324410  1
  Pt  Pt14  1  0.375000  0.250000  0.625000  1
  Pt  Pt15  1  0.125000  0.750000  0.875000  1
  Pt  Pt16  1  0.270521  0.638517  0.382964  1
  Pt  Pt17  1  0.744446  0.861483  0.132004  1
  Pt  Pt18  1  0.617036  0.387556  0.255554  1
  Pt  Pt19  1  0.867996  0.112444  0.729479  1
