# generated using pymatgen
data_Ho3TaInPd15
_symmetry_space_group_name_H-M   'P 1'
_cell_length_a   4.09297900
_cell_length_b   4.09297900
_cell_length_c   20.46313400
_cell_angle_alpha   90.00000000
_cell_angle_beta   90.00000000
_cell_angle_gamma   90.00000000
_symmetry_Int_Tables_number   1
_chemical_formula_structural   Ho3TaInPd15
_chemical_formula_sum   'Ho3 Ta1 In1 Pd15'
_cell_volume   342.80818362
_cell_formula_units_Z   1
loop_
 _symmetry_equiv_pos_site_id
 _symmetry_equiv_pos_as_xyz
  1  'x, y, z'
loop_
 _atom_site_type_symbol
 _atom_site_label
 _atom_site_symmetry_multiplicity
 _atom_site_fract_x
 _atom_site_fract_y
 _atom_site_fract_z
 _atom_site_occupancy
  Ho  Ho0  1  0.000000  0.000000  0.199001  1
  Ho  Ho1  1  0.000000  0.000000  0.397964  1
  Ho  Ho2  1  0.000000  0.000000  0.601514  1
  Ta  Ta3  1  0.000000  0.000000  0.999110  1
  In  In4  1  0.000000  0.000000  0.801969  1
  Pd  Pd5  1  0.500000  0.500000  0.999229  1
  Pd  Pd6  1  0.500000  0.500000  0.193475  1
  Pd  Pd7  1  0.500000  0.500000  0.398271  1
  Pd  Pd8  1  0.500000  0.500000  0.602797  1
  Pd  Pd9  1  0.500000  0.500000  0.806200  1
  Pd  Pd10  1  0.500000  0.000000  0.090852  1
  Pd  Pd11  1  0.500000  0.000000  0.296533  1
  Pd  Pd12  1  0.500000  0.000000  0.500055  1
  Pd  Pd13  1  0.500000  0.000000  0.704853  1
  Pd  Pd14  1  0.500000  0.000000  0.907943  1
  Pd  Pd15  1  0.000000  0.500000  0.090852  1
  Pd  Pd16  1  0.000000  0.500000  0.296533  1
  Pd  Pd17  1  0.000000  0.500000  0.500055  1
  Pd  Pd18  1  0.000000  0.500000  0.704853  1
  Pd  Pd19  1  0.000000  0.500000  0.907943  1
