# generated using pymatgen
data_MgFeBi2(AsO5)2
_symmetry_space_group_name_H-M   'P 1'
_cell_length_a   5.38209222
_cell_length_b   7.78595391
_cell_length_c   11.45643864
_cell_angle_alpha   94.03035525
_cell_angle_beta   96.46518913
_cell_angle_gamma   71.34633104
_symmetry_Int_Tables_number   1
_chemical_formula_structural   MgFeBi2(AsO5)2
_chemical_formula_sum   'Mg2 Fe2 Bi4 As4 O20'
_cell_volume   451.66770613
_cell_formula_units_Z   2
loop_
 _symmetry_equiv_pos_site_id
 _symmetry_equiv_pos_as_xyz
  1  'x, y, z'
loop_
 _atom_site_type_symbol
 _atom_site_label
 _atom_site_symmetry_multiplicity
 _atom_site_fract_x
 _atom_site_fract_y
 _atom_site_fract_z
 _atom_site_occupancy
  Mg  Mg0  1  0.718370  0.952104  0.320136  1
  Mg  Mg1  1  0.281603  0.047776  0.679846  1
  Fe  Fe2  1  0.214244  0.450407  0.820053  1
  Fe  Fe3  1  0.785723  0.549486  0.179966  1
  Bi  Bi4  1  0.298960  0.603597  0.363029  1
  Bi  Bi5  1  0.798528  0.100175  0.861993  1
  Bi  Bi6  1  0.700980  0.396538  0.636894  1
  Bi  Bi7  1  0.201396  0.899983  0.138002  1
  As  As8  1  0.628375  0.716686  0.897219  1
  As  As9  1  0.131635  0.213079  0.399142  1
  As  As10  1  0.371820  0.283287  0.102804  1
  As  As11  1  0.868285  0.786939  0.600841  1
  O  O12  1  0.962223  0.673367  0.907975  1
  O  O13  1  0.464525  0.163116  0.406266  1
  O  O14  1  0.038096  0.326471  0.092132  1
  O  O15  1  0.535413  0.836877  0.593773  1
  O  O16  1  0.512091  0.575625  0.798008  1
  O  O17  1  0.006312  0.075689  0.300355  1
  O  O18  1  0.488299  0.424320  0.201979  1
  O  O19  1  0.993630  0.924301  0.699631  1
  O  O20  1  0.996771  0.269189  0.772177  1
  O  O21  1  0.496009  0.774658  0.274007  1
  O  O22  1  0.003114  0.730791  0.227781  1
  O  O23  1  0.503715  0.225553  0.726036  1
  O  O24  1  0.989852  0.436382  0.357193  1
  O  O25  1  0.481993  0.938667  0.852539  1
  O  O26  1  0.010006  0.563620  0.642780  1
  O  O27  1  0.518177  0.061335  0.147476  1
  O  O28  1  0.534201  0.693634  0.033195  1
  O  O29  1  0.042966  0.190336  0.536417  1
  O  O30  1  0.465843  0.306447  0.966825  1
  O  O31  1  0.956848  0.809561  0.463534  1
