# generated using pymatgen
data_Hf6Mn5Si12Os
_symmetry_space_group_name_H-M   'P 1'
_cell_length_a   9.80648258
_cell_length_b   9.80656023
_cell_length_c   9.80651669
_cell_angle_alpha   149.69734166
_cell_angle_beta   132.53122111
_cell_angle_gamma   57.35903093
_symmetry_Int_Tables_number   1
_chemical_formula_structural   Hf6Mn5Si12Os
_chemical_formula_sum   'Hf6 Mn5 Si12 Os1'
_cell_volume   348.16031138
_cell_formula_units_Z   1
loop_
 _symmetry_equiv_pos_site_id
 _symmetry_equiv_pos_as_xyz
  1  'x, y, z'
loop_
 _atom_site_type_symbol
 _atom_site_label
 _atom_site_symmetry_multiplicity
 _atom_site_fract_x
 _atom_site_fract_y
 _atom_site_fract_z
 _atom_site_occupancy
  Hf  Hf0  1  0.858474  0.596284  0.262185  1
  Hf  Hf1  1  0.139580  0.403851  0.735740  1
  Hf  Hf2  1  0.665883  0.403679  0.262161  1
  Hf  Hf3  1  0.331909  0.596195  0.735767  1
  Hf  Hf4  1  0.140365  0.141828  0.998467  1
  Hf  Hf5  1  0.856621  0.858172  0.998526  1
  Mn  Mn6  1  0.747403  0.000001  0.747384  1
  Mn  Mn7  1  0.999656  0.000873  0.500659  1
  Mn  Mn8  1  0.499787  0.501013  0.500668  1
  Mn  Mn9  1  0.499792  0.999123  0.998784  1
  Mn  Mn10  1  0.999652  0.498973  0.998744  1
  Si  Si11  1  0.492237  0.140313  0.352021  1
  Si  Si12  1  0.512764  0.863341  0.649343  1
  Si  Si13  1  0.211696  0.859767  0.352013  1
  Si  Si14  1  0.786029  0.136612  0.649370  1
  Si  Si15  1  0.701271  0.701203  0.999877  1
  Si  Si16  1  0.298621  0.298798  0.000020  1
  Si  Si17  1  0.508970  0.734537  0.243510  1
  Si  Si18  1  0.508978  0.265445  0.774430  1
  Si  Si19  1  0.993166  0.259270  0.252439  1
  Si  Si20  1  0.211072  0.711419  0.499570  1
  Si  Si21  1  0.993164  0.740723  0.733893  1
  Si  Si22  1  0.788169  0.288577  0.499672  1
  Os  Os23  1  0.254741  0.000002  0.254756  1
