# generated using pymatgen
data_Ir2OsSe12
_symmetry_space_group_name_H-M   'P 1'
_cell_length_a   7.42892162
_cell_length_b   7.02329597
_cell_length_c   7.80984706
_cell_angle_alpha   104.79580803
_cell_angle_beta   94.04141487
_cell_angle_gamma   90.45997264
_symmetry_Int_Tables_number   1
_chemical_formula_structural   Ir2OsSe12
_chemical_formula_sum   'Ir2 Os1 Se12'
_cell_volume   392.84872711
_cell_formula_units_Z   1
loop_
 _symmetry_equiv_pos_site_id
 _symmetry_equiv_pos_as_xyz
  1  'x, y, z'
loop_
 _atom_site_type_symbol
 _atom_site_label
 _atom_site_symmetry_multiplicity
 _atom_site_fract_x
 _atom_site_fract_y
 _atom_site_fract_z
 _atom_site_occupancy
  Ir  Ir0  1  0.028757  0.591052  0.302781  1
  Ir  Ir1  1  0.971242  0.408947  0.697219  1
  Os  Os2  1  0.000000  0.000000  0.000001  1
  Se  Se3  1  0.263140  0.529979  0.095093  1
  Se  Se4  1  0.826584  0.294963  0.141434  1
  Se  Se5  1  0.824035  0.786653  0.147874  1
  Se  Se6  1  0.237165  0.075148  0.248236  1
  Se  Se7  1  0.202805  0.395406  0.477133  1
  Se  Se8  1  0.233283  0.871984  0.458181  1
  Se  Se9  1  0.766718  0.128017  0.541820  1
  Se  Se10  1  0.797196  0.604594  0.522868  1
  Se  Se11  1  0.762835  0.924852  0.751764  1
  Se  Se12  1  0.175964  0.213348  0.852126  1
  Se  Se13  1  0.173416  0.705036  0.858567  1
  Se  Se14  1  0.736861  0.470021  0.904907  1
