# generated using pymatgen
data_Tb8Al2CoOs
_symmetry_space_group_name_H-M   'P 1'
_cell_length_a   9.55414170
_cell_length_b   9.51098235
_cell_length_c   9.51095423
_cell_angle_alpha   59.75643001
_cell_angle_beta   59.84986755
_cell_angle_gamma   59.84958612
_symmetry_Int_Tables_number   1
_chemical_formula_structural   Tb8Al2CoOs
_chemical_formula_sum   'Tb16 Al4 Co2 Os2'
_cell_volume   608.60255487
_cell_formula_units_Z   2
loop_
 _symmetry_equiv_pos_site_id
 _symmetry_equiv_pos_as_xyz
  1  'x, y, z'
loop_
 _atom_site_type_symbol
 _atom_site_label
 _atom_site_symmetry_multiplicity
 _atom_site_fract_x
 _atom_site_fract_y
 _atom_site_fract_z
 _atom_site_occupancy
  Tb  Tb0  1  0.445243  0.441050  0.052855  1
  Tb  Tb1  1  0.594514  0.601324  0.601320  1
  Tb  Tb2  1  0.186065  0.813935  0.813935  1
  Tb  Tb3  1  0.060851  0.052855  0.441050  1
  Tb  Tb4  1  0.443097  0.056903  0.056903  1
  Tb  Tb5  1  0.813799  0.189126  0.807524  1
  Tb  Tb6  1  0.445243  0.052853  0.441053  1
  Tb  Tb7  1  0.597939  0.197584  0.606539  1
  Tb  Tb8  1  0.813795  0.807525  0.189128  1
  Tb  Tb9  1  0.202841  0.601320  0.601324  1
  Tb  Tb10  1  0.805336  0.194664  0.194664  1
  Tb  Tb11  1  0.056686  0.443314  0.443314  1
  Tb  Tb12  1  0.189550  0.807524  0.189126  1
  Tb  Tb13  1  0.597939  0.606539  0.197584  1
  Tb  Tb14  1  0.189552  0.189128  0.807525  1
  Tb  Tb15  1  0.060849  0.441053  0.052853  1
  Al  Al16  1  0.827473  0.824585  0.520467  1
  Al  Al17  1  0.828164  0.825667  0.825667  1
  Al  Al18  1  0.520502  0.825667  0.825667  1
  Al  Al19  1  0.827475  0.520467  0.824585  1
  Co  Co20  1  0.388153  0.831789  0.391911  1
  Co  Co21  1  0.388149  0.391911  0.831789  1
  Os  Os22  1  0.388893  0.391609  0.391608  1
  Os  Os23  1  0.827890  0.391608  0.391609  1
