# generated using pymatgen
data_Pu2PaO6
_symmetry_space_group_name_H-M   'P 1'
_cell_length_a   6.66105477
_cell_length_b   6.66105356
_cell_length_c   6.66105400
_cell_angle_alpha   146.40753942
_cell_angle_beta   131.74868283
_cell_angle_gamma   60.07548449
_symmetry_Int_Tables_number   1
_chemical_formula_structural   Pu2PaO6
_chemical_formula_sum   'Pu2 Pa1 O6'
_cell_volume   120.87917444
_cell_formula_units_Z   1
loop_
 _symmetry_equiv_pos_site_id
 _symmetry_equiv_pos_as_xyz
  1  'x, y, z'
loop_
 _atom_site_type_symbol
 _atom_site_label
 _atom_site_symmetry_multiplicity
 _atom_site_fract_x
 _atom_site_fract_y
 _atom_site_fract_z
 _atom_site_occupancy
  Pu  Pu0  1  0.167972  0.667972  0.500000  1
  Pu  Pu1  1  0.832028  0.332028  0.500000  1
  Pa  Pa2  1  0.500000  0.000000  0.500000  1
  O  O3  1  0.417113  0.162481  0.254633  1
  O  O4  1  0.259675  0.500000  0.759675  1
  O  O5  1  0.907848  0.162481  0.745367  1
  O  O6  1  0.092152  0.837519  0.254633  1
  O  O7  1  0.740325  0.500000  0.240325  1
  O  O8  1  0.582887  0.837519  0.745367  1
