# generated using pymatgen
data_DyLu15(C2Cl3)4
_symmetry_space_group_name_H-M   'P 1'
_cell_length_a   3.57421000
_cell_length_b   10.20714325
_cell_length_c   19.31167626
_cell_angle_alpha   90.12665376
_cell_angle_beta   90.00000000
_cell_angle_gamma   90.00000000
_symmetry_Int_Tables_number   1
_chemical_formula_structural   DyLu15(C2Cl3)4
_chemical_formula_sum   'Dy1 Lu15 C8 Cl12'
_cell_volume   704.53599572
_cell_formula_units_Z   1
loop_
 _symmetry_equiv_pos_site_id
 _symmetry_equiv_pos_as_xyz
  1  'x, y, z'
loop_
 _atom_site_type_symbol
 _atom_site_label
 _atom_site_symmetry_multiplicity
 _atom_site_fract_x
 _atom_site_fract_y
 _atom_site_fract_z
 _atom_site_occupancy
  Dy  Dy0  1  0.250000  0.864281  0.573703  1
  Lu  Lu1  1  0.750000  0.136109  0.424086  1
  Lu  Lu2  1  0.750000  0.635708  0.076103  1
  Lu  Lu3  1  0.250000  0.364372  0.924176  1
  Lu  Lu4  1  0.250000  0.866636  0.743867  1
  Lu  Lu5  1  0.750000  0.132868  0.256481  1
  Lu  Lu6  1  0.750000  0.634108  0.243493  1
  Lu  Lu7  1  0.250000  0.366645  0.756597  1
  Lu  Lu8  1  0.250000  0.870597  0.166539  1
  Lu  Lu9  1  0.750000  0.129332  0.833355  1
  Lu  Lu10  1  0.750000  0.629696  0.666849  1
  Lu  Lu11  1  0.250000  0.370033  0.333453  1
  Lu  Lu12  1  0.250000  0.897062  0.330653  1
  Lu  Lu13  1  0.750000  0.102635  0.669288  1
  Lu  Lu14  1  0.750000  0.603741  0.830896  1
  Lu  Lu15  1  0.250000  0.396892  0.169411  1
  C  C16  1  0.250000  0.614258  0.751083  1
  C  C17  1  0.750000  0.384153  0.249576  1
  C  C18  1  0.750000  0.883766  0.250030  1
  C  C19  1  0.250000  0.117842  0.750061  1
  C  C20  1  0.250000  0.631813  0.153286  1
  C  C21  1  0.750000  0.367927  0.847246  1
  C  C22  1  0.750000  0.867243  0.655392  1
  C  C23  1  0.250000  0.133030  0.346498  1
  Cl  Cl24  1  0.250000  0.608155  0.558365  1
  Cl  Cl25  1  0.750000  0.385635  0.442819  1
  Cl  Cl26  1  0.750000  0.884636  0.056648  1
  Cl  Cl27  1  0.250000  0.115250  0.943040  1
  Cl  Cl28  1  0.250000  0.623635  0.953775  1
  Cl  Cl29  1  0.750000  0.376278  0.046228  1
  Cl  Cl30  1  0.750000  0.876141  0.450044  1
  Cl  Cl31  1  0.250000  0.129854  0.545930  1
  Cl  Cl32  1  0.250000  0.635631  0.353762  1
  Cl  Cl33  1  0.750000  0.363765  0.646695  1
  Cl  Cl34  1  0.750000  0.864646  0.854631  1
  Cl  Cl35  1  0.250000  0.135626  0.145937  1
