# generated using pymatgen
data_ThSeS
_symmetry_space_group_name_H-M   'P 1'
_cell_length_a   4.35720100
_cell_length_b   7.51920700
_cell_length_c   8.75841100
_cell_angle_alpha   90.00000000
_cell_angle_beta   90.00000000
_cell_angle_gamma   90.00000000
_symmetry_Int_Tables_number   1
_chemical_formula_structural   ThSeS
_chemical_formula_sum   'Th4 Se4 S4'
_cell_volume   286.94915931
_cell_formula_units_Z   4
loop_
 _symmetry_equiv_pos_site_id
 _symmetry_equiv_pos_as_xyz
  1  'x, y, z'
loop_
 _atom_site_type_symbol
 _atom_site_label
 _atom_site_symmetry_multiplicity
 _atom_site_fract_x
 _atom_site_fract_y
 _atom_site_fract_z
 _atom_site_occupancy
  Th  Th0  1  0.250000  0.232013  0.877807  1
  Th  Th1  1  0.250000  0.732013  0.622193  1
  Th  Th2  1  0.750000  0.767987  0.122193  1
  Th  Th3  1  0.750000  0.267987  0.377807  1
  Se  Se4  1  0.250000  0.467700  0.165982  1
  Se  Se5  1  0.250000  0.967700  0.334018  1
  Se  Se6  1  0.750000  0.532300  0.834018  1
  Se  Se7  1  0.750000  0.032300  0.665982  1
  S  S8  1  0.250000  0.357143  0.569130  1
  S  S9  1  0.250000  0.857143  0.930870  1
  S  S10  1  0.750000  0.642857  0.430870  1
  S  S11  1  0.750000  0.142857  0.069130  1
