# generated using pymatgen
data_ErTm19(CoSb5)2
_symmetry_space_group_name_H-M   'P 1'
_cell_length_a   7.88885447
_cell_length_b   9.11795700
_cell_length_c   11.80405800
_cell_angle_alpha   90.00000000
_cell_angle_beta   90.14842432
_cell_angle_gamma   90.00000000
_symmetry_Int_Tables_number   1
_chemical_formula_structural   ErTm19(CoSb5)2
_chemical_formula_sum   'Er1 Tm19 Co2 Sb10'
_cell_volume   849.06582683
_cell_formula_units_Z   1
loop_
 _symmetry_equiv_pos_site_id
 _symmetry_equiv_pos_as_xyz
  1  'x, y, z'
loop_
 _atom_site_type_symbol
 _atom_site_label
 _atom_site_symmetry_multiplicity
 _atom_site_fract_x
 _atom_site_fract_y
 _atom_site_fract_z
 _atom_site_occupancy
  Er  Er0  1  0.574958  0.500000  0.774176  1
  Tm  Tm1  1  0.432908  0.180585  0.564939  1
  Tm  Tm2  1  0.567082  0.819607  0.064481  1
  Tm  Tm3  1  0.070371  0.725977  0.434992  1
  Tm  Tm4  1  0.928814  0.274374  0.934933  1
  Tm  Tm5  1  0.070371  0.274023  0.434992  1
  Tm  Tm6  1  0.928814  0.725626  0.934933  1
  Tm  Tm7  1  0.432908  0.819415  0.564939  1
  Tm  Tm8  1  0.567082  0.180393  0.064481  1
  Tm  Tm9  1  0.427076  0.500000  0.273190  1
  Tm  Tm10  1  0.908134  0.000000  0.203851  1
  Tm  Tm11  1  0.092062  0.000000  0.702895  1
  Tm  Tm12  1  0.264253  0.500000  0.994344  1
  Tm  Tm13  1  0.735814  0.500000  0.494485  1
  Tm  Tm14  1  0.196934  0.000000  0.997519  1
  Tm  Tm15  1  0.800939  0.000000  0.496378  1
  Tm  Tm16  1  0.092305  0.500000  0.715741  1
  Tm  Tm17  1  0.908708  0.500000  0.217205  1
  Tm  Tm18  1  0.375564  0.000000  0.306022  1
  Tm  Tm19  1  0.625166  0.000000  0.806065  1
  Co  Co20  1  0.173586  0.000000  0.487315  1
  Co  Co21  1  0.826275  0.000000  0.988144  1
  Sb  Sb22  1  0.815066  0.741228  0.671153  1
  Sb  Sb23  1  0.185803  0.259663  0.171894  1
  Sb  Sb24  1  0.681331  0.242759  0.325812  1
  Sb  Sb25  1  0.317664  0.757655  0.826031  1
  Sb  Sb26  1  0.681331  0.757241  0.325812  1
  Sb  Sb27  1  0.317664  0.242345  0.826031  1
  Sb  Sb28  1  0.815066  0.258772  0.671153  1
  Sb  Sb29  1  0.185803  0.740337  0.171894  1
  Sb  Sb30  1  0.345467  0.500000  0.525973  1
  Sb  Sb31  1  0.654678  0.500000  0.028228  1
