# generated using pymatgen
data_Ac2HgRhPb
_symmetry_space_group_name_H-M   'P 1'
_cell_length_a   8.50466100
_cell_length_b   8.50466113
_cell_length_c   3.96979000
_cell_angle_alpha   90.00000000
_cell_angle_beta   90.00000000
_cell_angle_gamma   88.69404353
_symmetry_Int_Tables_number   1
_chemical_formula_structural   Ac2HgRhPb
_chemical_formula_sum   'Ac4 Hg2 Rh2 Pb2'
_cell_volume   287.05738836
_cell_formula_units_Z   2
loop_
 _symmetry_equiv_pos_site_id
 _symmetry_equiv_pos_as_xyz
  1  'x, y, z'
loop_
 _atom_site_type_symbol
 _atom_site_label
 _atom_site_symmetry_multiplicity
 _atom_site_fract_x
 _atom_site_fract_y
 _atom_site_fract_z
 _atom_site_occupancy
  Ac  Ac0  1  0.657710  0.157710  0.500000  1
  Ac  Ac1  1  0.342290  0.842290  0.500000  1
  Ac  Ac2  1  0.196820  0.303180  0.500000  1
  Ac  Ac3  1  0.803180  0.696820  0.500000  1
  Hg  Hg4  1  0.123655  0.623655  0.000000  1
  Hg  Hg5  1  0.876345  0.376345  0.000000  1
  Rh  Rh6  1  0.624046  0.875954  0.000000  1
  Rh  Rh7  1  0.375954  0.124046  0.000000  1
  Pb  Pb8  1  0.000000  0.000000  0.000000  1
  Pb  Pb9  1  0.500000  0.500000  0.000000  1
