# generated using pymatgen
data_La6NiPtI6
_symmetry_space_group_name_H-M   'P 1'
_cell_length_a   10.94878258
_cell_length_b   10.94878351
_cell_length_c   11.00665350
_cell_angle_alpha   109.42779574
_cell_angle_beta   109.42779744
_cell_angle_gamma   109.34444313
_symmetry_Int_Tables_number   1
_chemical_formula_structural   La6NiPtI6
_chemical_formula_sum   'La12 Ni2 Pt2 I12'
_cell_volume   1018.36766046
_cell_formula_units_Z   2
loop_
 _symmetry_equiv_pos_site_id
 _symmetry_equiv_pos_as_xyz
  1  'x, y, z'
loop_
 _atom_site_type_symbol
 _atom_site_label
 _atom_site_symmetry_multiplicity
 _atom_site_fract_x
 _atom_site_fract_y
 _atom_site_fract_z
 _atom_site_occupancy
  La  La0  1  0.460738  0.477438  0.231939  1
  La  La1  1  0.745499  0.228800  0.268061  1
  La  La2  1  0.743460  0.017718  0.476270  1
  La  La3  1  0.232811  0.458551  0.476270  1
  La  La4  1  0.271200  0.754501  0.231939  1
  La  La5  1  0.041449  0.267189  0.023730  1
  La  La6  1  0.022562  0.039262  0.268061  1
  La  La7  1  0.482282  0.756540  0.023730  1
  La  La8  1  0.478083  0.228083  0.456164  1
  La  La9  1  0.018330  0.481670  0.750000  1
  La  La10  1  0.271917  0.021917  0.043836  1
  La  La11  1  0.231670  0.268330  0.750000  1
  Ni  Ni12  1  0.250822  0.249178  0.250000  1
  Ni  Ni13  1  0.499178  0.000822  0.250000  1
  Pt  Pt14  1  0.999711  0.249711  0.499422  1
  Pt  Pt15  1  0.250289  0.500289  0.000578  1
  I  I16  1  0.249979  0.759869  0.740574  1
  I  I17  1  0.519296  0.509404  0.759426  1
  I  I18  1  0.978974  0.740756  0.989422  1
  I  I19  1  0.740131  0.250021  0.759426  1
  I  I20  1  0.990596  0.980704  0.740574  1
  I  I21  1  0.251334  0.989551  0.510578  1
  I  I22  1  0.759244  0.521026  0.510578  1
  I  I23  1  0.510449  0.248666  0.989422  1
  I  I24  1  0.759778  0.740222  0.250000  1
  I  I25  1  0.740044  0.990044  0.980088  1
  I  I26  1  0.990222  0.509778  0.250000  1
  I  I27  1  0.509956  0.759956  0.519912  1
