# generated using pymatgen
data_Nd5Sn3P
_symmetry_space_group_name_H-M   'P 1'
_cell_length_a   9.37200600
_cell_length_b   9.37200489
_cell_length_c   7.07828500
_cell_angle_alpha   90.00000000
_cell_angle_beta   90.00000000
_cell_angle_gamma   120.00000391
_symmetry_Int_Tables_number   1
_chemical_formula_structural   Nd5Sn3P
_chemical_formula_sum   'Nd10 Sn6 P2'
_cell_volume   538.42314960
_cell_formula_units_Z   2
loop_
 _symmetry_equiv_pos_site_id
 _symmetry_equiv_pos_as_xyz
  1  'x, y, z'
loop_
 _atom_site_type_symbol
 _atom_site_label
 _atom_site_symmetry_multiplicity
 _atom_site_fract_x
 _atom_site_fract_y
 _atom_site_fract_z
 _atom_site_occupancy
  Nd  Nd0  1  0.761802  0.761802  0.250000  1
  Nd  Nd1  1  0.238198  0.000000  0.250000  1
  Nd  Nd2  1  0.000000  0.238198  0.250000  1
  Nd  Nd3  1  0.238198  0.238198  0.750000  1
  Nd  Nd4  1  0.761802  0.000000  0.750000  1
  Nd  Nd5  1  0.000000  0.761802  0.750000  1
  Nd  Nd6  1  0.666667  0.333333  0.500000  1
  Nd  Nd7  1  0.333333  0.666667  0.500000  1
  Nd  Nd8  1  0.333333  0.666667  0.000000  1
  Nd  Nd9  1  0.666667  0.333333  0.000000  1
  Sn  Sn10  1  0.401514  0.401514  0.250000  1
  Sn  Sn11  1  0.598486  0.000000  0.250000  1
  Sn  Sn12  1  0.000000  0.598486  0.250000  1
  Sn  Sn13  1  0.598486  0.598486  0.750000  1
  Sn  Sn14  1  0.401514  0.000000  0.750000  1
  Sn  Sn15  1  0.000000  0.401514  0.750000  1
  P  P16  1  0.000000  0.000000  0.500000  1
  P  P17  1  0.000000  0.000000  0.000000  1
