# generated using pymatgen
data_Y5Ho3Sc12Si15Ge
_symmetry_space_group_name_H-M   'P 1'
_cell_length_a   7.10085472
_cell_length_b   7.38750595
_cell_length_c   14.00009506
_cell_angle_alpha   90.01108710
_cell_angle_beta   89.82760745
_cell_angle_gamma   90.04814051
_symmetry_Int_Tables_number   1
_chemical_formula_structural   Y5Ho3Sc12Si15Ge
_chemical_formula_sum   'Y5 Ho3 Sc12 Si15 Ge1'
_cell_volume   734.40788058
_cell_formula_units_Z   1
loop_
 _symmetry_equiv_pos_site_id
 _symmetry_equiv_pos_as_xyz
  1  'x, y, z'
loop_
 _atom_site_type_symbol
 _atom_site_label
 _atom_site_symmetry_multiplicity
 _atom_site_fract_x
 _atom_site_fract_y
 _atom_site_fract_z
 _atom_site_occupancy
  Y  Y0  1  0.011278  0.175494  0.096612  1
  Y  Y1  1  0.988796  0.824751  0.903431  1
  Y  Y2  1  0.489282  0.675472  0.903441  1
  Y  Y3  1  0.988919  0.824926  0.596638  1
  Y  Y4  1  0.510874  0.324755  0.096769  1
  Ho  Ho5  1  0.009787  0.175464  0.402641  1
  Ho  Ho6  1  0.511262  0.323120  0.402326  1
  Ho  Ho7  1  0.492092  0.677196  0.597216  1
  Sc  Sc8  1  0.162410  0.502099  0.751214  1
  Sc  Sc9  1  0.837434  0.497743  0.250312  1
  Sc  Sc10  1  0.337729  0.002310  0.250150  1
  Sc  Sc11  1  0.662120  0.997782  0.749946  1
  Sc  Sc12  1  0.334905  0.174047  0.626444  1
  Sc  Sc13  1  0.666502  0.823937  0.374039  1
  Sc  Sc14  1  0.166008  0.677141  0.374181  1
  Sc  Sc15  1  0.667699  0.822852  0.125371  1
  Sc  Sc16  1  0.831552  0.323977  0.625178  1
  Sc  Sc17  1  0.332079  0.176686  0.874586  1
  Sc  Sc18  1  0.831958  0.323105  0.874689  1
  Sc  Sc19  1  0.167773  0.677053  0.125390  1
  Si  Si20  1  0.034789  0.116859  0.750124  1
  Si  Si21  1  0.965065  0.884344  0.249654  1
  Si  Si22  1  0.464350  0.616279  0.249764  1
  Si  Si23  1  0.534880  0.383965  0.750271  1
  Si  Si24  1  0.286838  0.872392  0.750158  1
  Si  Si25  1  0.713502  0.126975  0.249872  1
  Si  Si26  1  0.212893  0.373142  0.250264  1
  Si  Si27  1  0.787028  0.626745  0.750027  1
  Si  Si28  1  0.834643  0.536501  0.459560  1
  Si  Si29  1  0.340142  0.964504  0.460608  1
  Si  Si30  1  0.841666  0.535417  0.039526  1
  Si  Si31  1  0.659493  0.036198  0.539031  1
  Si  Si32  1  0.158218  0.464517  0.960712  1
  Si  Si33  1  0.658106  0.035670  0.960685  1
  Si  Si34  1  0.341769  0.964477  0.039439  1
  Ge  Ge35  1  0.166159  0.462101  0.539734  1
