# generated using pymatgen
data_Tb8MgRe(SiB4)4
_symmetry_space_group_name_H-M   'P 1'
_cell_length_a   7.15859500
_cell_length_b   7.15859500
_cell_length_c   7.74734800
_cell_angle_alpha   90.00000000
_cell_angle_beta   90.00000000
_cell_angle_gamma   90.00000000
_symmetry_Int_Tables_number   1
_chemical_formula_structural   Tb8MgRe(SiB4)4
_chemical_formula_sum   'Tb8 Mg1 Re1 Si4 B16'
_cell_volume   397.01658538
_cell_formula_units_Z   1
loop_
 _symmetry_equiv_pos_site_id
 _symmetry_equiv_pos_as_xyz
  1  'x, y, z'
loop_
 _atom_site_type_symbol
 _atom_site_label
 _atom_site_symmetry_multiplicity
 _atom_site_fract_x
 _atom_site_fract_y
 _atom_site_fract_z
 _atom_site_occupancy
  Tb  Tb0  1  0.681230  0.181167  0.236333  1
  Tb  Tb1  1  0.318770  0.818833  0.763667  1
  Tb  Tb2  1  0.318770  0.818833  0.236333  1
  Tb  Tb3  1  0.818833  0.681230  0.236333  1
  Tb  Tb4  1  0.818833  0.681230  0.763667  1
  Tb  Tb5  1  0.681230  0.181167  0.763667  1
  Tb  Tb6  1  0.181167  0.318770  0.763667  1
  Tb  Tb7  1  0.181167  0.318770  0.236333  1
  Mg  Mg8  1  0.000000  0.000000  0.500000  1
  Re  Re9  1  0.500000  0.500000  0.500000  1
  Si  Si10  1  0.131998  0.606209  0.500000  1
  Si  Si11  1  0.868002  0.393791  0.500000  1
  Si  Si12  1  0.393791  0.131998  0.500000  1
  Si  Si13  1  0.606209  0.868002  0.500000  1
  B  B14  1  0.172725  0.039756  0.000000  1
  B  B15  1  0.827275  0.960244  0.000000  1
  B  B16  1  0.960244  0.172725  0.000000  1
  B  B17  1  0.328316  0.540141  0.000000  1
  B  B18  1  0.039756  0.827275  0.000000  1
  B  B19  1  0.671684  0.459859  0.000000  1
  B  B20  1  0.540141  0.671684  0.000000  1
  B  B21  1  0.459859  0.328316  0.000000  1
  B  B22  1  0.089542  0.589881  0.000000  1
  B  B23  1  0.910458  0.410119  0.000000  1
  B  B24  1  0.410119  0.089542  0.000000  1
  B  B25  1  0.589881  0.910458  0.000000  1
  B  B26  1  0.000000  0.000000  0.164633  1
  B  B27  1  0.000000  0.000000  0.835367  1
  B  B28  1  0.500000  0.500000  0.826825  1
  B  B29  1  0.500000  0.500000  0.173175  1
