# generated using pymatgen
data_Tb3Tm13In3HgRh4
_symmetry_space_group_name_H-M   'P 1'
_cell_length_a   9.54780095
_cell_length_b   9.53191740
_cell_length_c   9.53607225
_cell_angle_alpha   60.02061766
_cell_angle_beta   60.01098710
_cell_angle_gamma   60.06450367
_symmetry_Int_Tables_number   1
_chemical_formula_structural   Tb3Tm13In3HgRh4
_chemical_formula_sum   'Tb3 Tm13 In3 Hg1 Rh4'
_cell_volume   614.11996067
_cell_formula_units_Z   1
loop_
 _symmetry_equiv_pos_site_id
 _symmetry_equiv_pos_as_xyz
  1  'x, y, z'
loop_
 _atom_site_type_symbol
 _atom_site_label
 _atom_site_symmetry_multiplicity
 _atom_site_fract_x
 _atom_site_fract_y
 _atom_site_fract_z
 _atom_site_occupancy
  Tb  Tb0  1  0.061202  0.061288  0.438852  1
  Tb  Tb1  1  0.437043  0.066594  0.435552  1
  Tb  Tb2  1  0.062574  0.438654  0.061522  1
  Tm  Tm3  1  0.052249  0.647604  0.648282  1
  Tm  Tm4  1  0.437922  0.437284  0.064453  1
  Tm  Tm5  1  0.647877  0.051777  0.648724  1
  Tm  Tm6  1  0.188785  0.812442  0.188653  1
  Tm  Tm7  1  0.188455  0.188648  0.813317  1
  Tm  Tm8  1  0.810219  0.810491  0.190607  1
  Tm  Tm9  1  0.440020  0.060935  0.059861  1
  Tm  Tm10  1  0.812576  0.188894  0.188481  1
  Tm  Tm11  1  0.064292  0.438575  0.437601  1
  Tm  Tm12  1  0.809632  0.190592  0.811228  1
  Tm  Tm13  1  0.190617  0.809695  0.810989  1
  Tm  Tm14  1  0.648003  0.648294  0.051806  1
  Tm  Tm15  1  0.651691  0.651392  0.651777  1
  In  In16  1  0.746952  0.418123  0.418107  1
  In  In17  1  0.418454  0.746668  0.417354  1
  In  In18  1  0.418389  0.417057  0.747803  1
  Hg  Hg19  1  0.412950  0.414954  0.413509  1
  Rh  Rh20  1  0.858758  0.857438  0.427173  1
  Rh  Rh21  1  0.856439  0.857233  0.857258  1
  Rh  Rh22  1  0.427001  0.858032  0.859309  1
  Rh  Rh23  1  0.857896  0.427331  0.857780  1
