# generated using pymatgen
data_RbMn(Sb4Ru)3
_symmetry_space_group_name_H-M   'P 1'
_cell_length_a   8.15800581
_cell_length_b   8.20213065
_cell_length_c   8.20213174
_cell_angle_alpha   109.57994937
_cell_angle_beta   109.36227882
_cell_angle_gamma   109.36227855
_symmetry_Int_Tables_number   1
_chemical_formula_structural   RbMn(Sb4Ru)3
_chemical_formula_sum   'Rb1 Mn1 Sb12 Ru3'
_cell_volume   423.05579188
_cell_formula_units_Z   1
loop_
 _symmetry_equiv_pos_site_id
 _symmetry_equiv_pos_as_xyz
  1  'x, y, z'
loop_
 _atom_site_type_symbol
 _atom_site_label
 _atom_site_symmetry_multiplicity
 _atom_site_fract_x
 _atom_site_fract_y
 _atom_site_fract_z
 _atom_site_occupancy
  Rb  Rb0  1  0.000000  0.000000  0.000000  1
  Mn  Mn1  1  0.500000  0.000000  0.000000  1
  Sb  Sb2  1  0.159152  0.500588  0.341239  1
  Sb  Sb3  1  0.497581  0.650624  0.839140  1
  Sb  Sb4  1  0.341559  0.839140  0.188518  1
  Sb  Sb5  1  0.817912  0.658761  0.159350  1
  Sb  Sb6  1  0.658563  0.840650  0.499412  1
  Sb  Sb7  1  0.182088  0.341239  0.840650  1
  Sb  Sb8  1  0.658441  0.160860  0.811482  1
  Sb  Sb9  1  0.341437  0.159350  0.500588  1
  Sb  Sb10  1  0.502419  0.349376  0.160860  1
  Sb  Sb11  1  0.840848  0.499412  0.658761  1
  Sb  Sb12  1  0.846958  0.188518  0.349376  1
  Sb  Sb13  1  0.153042  0.811482  0.650624  1
  Ru  Ru14  1  0.500000  0.500000  0.500000  1
  Ru  Ru15  1  0.000000  0.500000  0.000000  1
  Ru  Ru16  1  0.000000  0.000000  0.500000  1
