# generated using pymatgen
data_MnNb2Fe(BRu2)2
_symmetry_space_group_name_H-M   'P 1'
_cell_length_a   9.15361400
_cell_length_b   9.15361400
_cell_length_c   2.98896900
_cell_angle_alpha   90.00000000
_cell_angle_beta   90.00000000
_cell_angle_gamma   90.00000000
_symmetry_Int_Tables_number   1
_chemical_formula_structural   MnNb2Fe(BRu2)2
_chemical_formula_sum   'Mn2 Nb4 Fe2 B4 Ru8'
_cell_volume   250.44167519
_cell_formula_units_Z   2
loop_
 _symmetry_equiv_pos_site_id
 _symmetry_equiv_pos_as_xyz
  1  'x, y, z'
loop_
 _atom_site_type_symbol
 _atom_site_label
 _atom_site_symmetry_multiplicity
 _atom_site_fract_x
 _atom_site_fract_y
 _atom_site_fract_z
 _atom_site_occupancy
  Mn  Mn0  1  0.500000  0.500000  0.000000  1
  Mn  Mn1  1  0.000000  0.000000  0.000000  1
  Nb  Nb2  1  0.826549  0.673451  0.000000  1
  Nb  Nb3  1  0.173451  0.326549  0.000000  1
  Nb  Nb4  1  0.326549  0.826549  0.000000  1
  Nb  Nb5  1  0.673451  0.173451  0.000000  1
  Fe  Fe6  1  0.500000  0.000000  0.500000  1
  Fe  Fe7  1  0.000000  0.500000  0.500000  1
  B  B8  1  0.614434  0.885566  0.000000  1
  B  B9  1  0.385566  0.114434  0.000000  1
  B  B10  1  0.114434  0.614434  0.000000  1
  B  B11  1  0.885566  0.385566  0.000000  1
  Ru  Ru12  1  0.567068  0.718353  0.500000  1
  Ru  Ru13  1  0.432932  0.281647  0.500000  1
  Ru  Ru14  1  0.067068  0.781647  0.500000  1
  Ru  Ru15  1  0.932932  0.218353  0.500000  1
  Ru  Ru16  1  0.281647  0.567068  0.500000  1
  Ru  Ru17  1  0.718353  0.432932  0.500000  1
  Ru  Ru18  1  0.218353  0.067068  0.500000  1
  Ru  Ru19  1  0.781647  0.932932  0.500000  1
