# generated using pymatgen
data_Ho2Tm10Co5Pb
_symmetry_space_group_name_H-M   'P 1'
_cell_length_a   8.18325815
_cell_length_b   8.18325714
_cell_length_c   8.17812214
_cell_angle_alpha   110.93886831
_cell_angle_beta   110.74063667
_cell_angle_gamma   106.79431001
_symmetry_Int_Tables_number   1
_chemical_formula_structural   Ho2Tm10Co5Pb
_chemical_formula_sum   'Ho2 Tm10 Co5 Pb1'
_cell_volume   420.75067627
_cell_formula_units_Z   1
loop_
 _symmetry_equiv_pos_site_id
 _symmetry_equiv_pos_as_xyz
  1  'x, y, z'
loop_
 _atom_site_type_symbol
 _atom_site_label
 _atom_site_symmetry_multiplicity
 _atom_site_fract_x
 _atom_site_fract_y
 _atom_site_fract_z
 _atom_site_occupancy
  Ho  Ho0  1  0.287529  0.184529  0.472058  1
  Ho  Ho1  1  0.712471  0.815471  0.527942  1
  Tm  Tm2  1  0.286858  0.814601  0.101458  1
  Tm  Tm3  1  0.713142  0.185399  0.898542  1
  Tm  Tm4  1  0.619740  0.312303  0.305972  1
  Tm  Tm5  1  0.380260  0.687697  0.694028  1
  Tm  Tm6  1  0.006331  0.313768  0.694028  1
  Tm  Tm7  1  0.993669  0.686232  0.305972  1
  Tm  Tm8  1  0.210256  0.405097  0.193428  1
  Tm  Tm9  1  0.789744  0.594903  0.806572  1
  Tm  Tm10  1  0.211670  0.016828  0.806572  1
  Tm  Tm11  1  0.788330  0.983172  0.193428  1
  Co  Co12  1  0.999866  0.375746  0.375612  1
  Co  Co13  1  0.000134  0.624254  0.624388  1
  Co  Co14  1  0.387565  0.887565  0.500000  1
  Co  Co15  1  0.612435  0.112435  0.500000  1
  Co  Co16  1  0.000000  0.000000  0.000000  1
  Pb  Pb17  1  0.500000  0.500000  0.000000  1
