# generated using pymatgen
data_K2PrU(AgSe3)2
_symmetry_space_group_name_H-M   'P 1'
_cell_length_a   4.24433800
_cell_length_b   8.07687407
_cell_length_c   10.90662400
_cell_angle_alpha   89.59738062
_cell_angle_beta   90.00000000
_cell_angle_gamma   74.76691788
_symmetry_Int_Tables_number   1
_chemical_formula_structural   K2PrU(AgSe3)2
_chemical_formula_sum   'K2 Pr1 U1 Ag2 Se6'
_cell_volume   360.74359281
_cell_formula_units_Z   1
loop_
 _symmetry_equiv_pos_site_id
 _symmetry_equiv_pos_as_xyz
  1  'x, y, z'
loop_
 _atom_site_type_symbol
 _atom_site_label
 _atom_site_symmetry_multiplicity
 _atom_site_fract_x
 _atom_site_fract_y
 _atom_site_fract_z
 _atom_site_occupancy
  K  K0  1  0.255663  0.488673  0.208502  1
  K  K1  1  0.744337  0.511326  0.791499  1
  Pr  Pr2  1  0.000000  0.000000  0.000000  1
  U  U3  1  0.000000  0.000000  0.500000  1
  Ag  Ag4  1  0.537841  0.924317  0.250631  1
  Ag  Ag5  1  0.462159  0.075682  0.749369  1
  Se  Se6  1  0.629779  0.740441  0.052722  1
  Se  Se7  1  0.931606  0.136788  0.264823  1
  Se  Se8  1  0.616867  0.766267  0.462154  1
  Se  Se9  1  0.383133  0.233732  0.537846  1
  Se  Se10  1  0.068394  0.863213  0.735177  1
  Se  Se11  1  0.370221  0.259559  0.947278  1
