# generated using pymatgen
data_TmMgZn3Ru
_symmetry_space_group_name_H-M   'P 1'
_cell_length_a   5.28419141
_cell_length_b   5.28419140
_cell_length_c   5.28419200
_cell_angle_alpha   59.20514389
_cell_angle_beta   59.20515654
_cell_angle_gamma   59.20513874
_symmetry_Int_Tables_number   1
_chemical_formula_structural   TmMgZn3Ru
_chemical_formula_sum   'Tm1 Mg1 Zn3 Ru1'
_cell_volume   102.44338103
_cell_formula_units_Z   1
loop_
 _symmetry_equiv_pos_site_id
 _symmetry_equiv_pos_as_xyz
  1  'x, y, z'
loop_
 _atom_site_type_symbol
 _atom_site_label
 _atom_site_symmetry_multiplicity
 _atom_site_fract_x
 _atom_site_fract_y
 _atom_site_fract_z
 _atom_site_occupancy
  Tm  Tm0  1  0.996380  0.996380  0.996380  1
  Mg  Mg1  1  0.254470  0.254470  0.254470  1
  Zn  Zn2  1  0.624013  0.624013  0.126348  1
  Zn  Zn3  1  0.624013  0.126348  0.624013  1
  Zn  Zn4  1  0.126348  0.624013  0.624013  1
  Ru  Ru5  1  0.624775  0.624775  0.624775  1
