# generated using pymatgen
data_Nd2Th2Pd11Pt
_symmetry_space_group_name_H-M   'P 1'
_cell_length_a   5.94427554
_cell_length_b   5.95435638
_cell_length_c   9.76319088
_cell_angle_alpha   90.00000091
_cell_angle_beta   89.80454260
_cell_angle_gamma   120.05612456
_symmetry_Int_Tables_number   1
_chemical_formula_structural   Nd2Th2Pd11Pt
_chemical_formula_sum   'Nd2 Th2 Pd11 Pt1'
_cell_volume   299.09345072
_cell_formula_units_Z   1
loop_
 _symmetry_equiv_pos_site_id
 _symmetry_equiv_pos_as_xyz
  1  'x, y, z'
loop_
 _atom_site_type_symbol
 _atom_site_label
 _atom_site_symmetry_multiplicity
 _atom_site_fract_x
 _atom_site_fract_y
 _atom_site_fract_z
 _atom_site_occupancy
  Nd  Nd0  1  0.000000  0.000000  0.500000  1
  Nd  Nd1  1  0.000000  0.000000  0.000000  1
  Th  Th2  1  0.332297  0.666149  0.250371  1
  Th  Th3  1  0.667703  0.333851  0.749629  1
  Pd  Pd4  1  0.500000  0.500000  0.500000  1
  Pd  Pd5  1  0.500000  0.000000  0.500000  1
  Pd  Pd6  1  0.500000  0.500000  0.000000  1
  Pd  Pd7  1  0.500000  0.000000  0.000000  1
  Pd  Pd8  1  0.000000  0.500000  0.000000  1
  Pd  Pd9  1  0.822947  0.646731  0.249723  1
  Pd  Pd10  1  0.351967  0.175983  0.248802  1
  Pd  Pd11  1  0.822947  0.176216  0.249723  1
  Pd  Pd12  1  0.177053  0.353269  0.750277  1
  Pd  Pd13  1  0.648033  0.824017  0.751198  1
  Pd  Pd14  1  0.177053  0.823784  0.750277  1
  Pt  Pt15  1  0.000000  0.500000  0.500000  1
