# generated using pymatgen
data_Ho2TmPa(Al3Ir)6
_symmetry_space_group_name_H-M   'P 1'
_cell_length_a   7.56815608
_cell_length_b   7.56413918
_cell_length_c   9.40974600
_cell_angle_alpha   90.00000000
_cell_angle_beta   90.00000000
_cell_angle_gamma   119.60611887
_symmetry_Int_Tables_number   1
_chemical_formula_structural   Ho2TmPa(Al3Ir)6
_chemical_formula_sum   'Ho2 Tm1 Pa1 Al18 Ir6'
_cell_volume   468.34748758
_cell_formula_units_Z   1
loop_
 _symmetry_equiv_pos_site_id
 _symmetry_equiv_pos_as_xyz
  1  'x, y, z'
loop_
 _atom_site_type_symbol
 _atom_site_label
 _atom_site_symmetry_multiplicity
 _atom_site_fract_x
 _atom_site_fract_y
 _atom_site_fract_z
 _atom_site_occupancy
  Ho  Ho0  1  0.004758  0.328804  0.750000  1
  Ho  Ho1  1  0.672490  0.994916  0.250000  1
  Tm  Tm2  1  0.328973  0.004318  0.750000  1
  Pa  Pa3  1  0.996010  0.671504  0.250000  1
  Al  Al4  1  0.131978  0.130978  0.250000  1
  Al  Al5  1  0.872838  0.874291  0.750000  1
  Al  Al6  1  0.000889  0.332178  0.074632  1
  Al  Al7  1  0.999516  0.664951  0.920194  1
  Al  Al8  1  0.999516  0.664951  0.579806  1
  Al  Al9  1  0.338786  0.003981  0.425465  1
  Al  Al10  1  0.000889  0.332178  0.425368  1
  Al  Al11  1  0.664674  0.000057  0.576440  1
  Al  Al12  1  0.664674  0.000057  0.923560  1
  Al  Al13  1  0.338786  0.003981  0.074535  1
  Al  Al14  1  0.332494  0.332303  0.556495  1
  Al  Al15  1  0.663126  0.665852  0.448484  1
  Al  Al16  1  0.663126  0.665852  0.051516  1
  Al  Al17  1  0.332494  0.332303  0.943505  1
  Al  Al18  1  0.339592  0.547177  0.250000  1
  Al  Al19  1  0.658887  0.449165  0.750000  1
  Al  Al20  1  0.546723  0.341442  0.250000  1
  Al  Al21  1  0.450449  0.661093  0.750000  1
  Ir  Ir22  1  0.673766  0.329746  0.001779  1
  Ir  Ir23  1  0.325819  0.672214  0.001840  1
  Ir  Ir24  1  0.325819  0.672214  0.498160  1
  Ir  Ir25  1  0.673766  0.329746  0.498221  1
  Ir  Ir26  1  0.999581  0.996875  0.002688  1
  Ir  Ir27  1  0.999581  0.996875  0.497312  1
