# generated using pymatgen
data_Tb6GdNiI12
_symmetry_space_group_name_H-M   'P 1'
_cell_length_a   9.73338960
_cell_length_b   9.73338970
_cell_length_c   9.73339021
_cell_angle_alpha   107.33729055
_cell_angle_beta   107.33728649
_cell_angle_gamma   107.33728447
_symmetry_Int_Tables_number   1
_chemical_formula_structural   Tb6GdNiI12
_chemical_formula_sum   'Tb6 Gd1 Ni1 I12'
_cell_volume   760.78260854
_cell_formula_units_Z   1
loop_
 _symmetry_equiv_pos_site_id
 _symmetry_equiv_pos_as_xyz
  1  'x, y, z'
loop_
 _atom_site_type_symbol
 _atom_site_label
 _atom_site_symmetry_multiplicity
 _atom_site_fract_x
 _atom_site_fract_y
 _atom_site_fract_z
 _atom_site_occupancy
  Tb  Tb0  1  0.901020  0.969835  0.701466  1
  Tb  Tb1  1  0.701466  0.901020  0.969835  1
  Tb  Tb2  1  0.969835  0.701466  0.901020  1
  Tb  Tb3  1  0.098980  0.030165  0.298534  1
  Tb  Tb4  1  0.298534  0.098980  0.030165  1
  Tb  Tb5  1  0.030165  0.298534  0.098980  1
  Gd  Gd6  1  0.500000  0.500000  0.500000  1
  Ni  Ni7  1  0.000000  0.000000  0.000000  1
  I  I8  1  0.925497  0.319597  0.773665  1
  I  I9  1  0.773665  0.925497  0.319597  1
  I  I10  1  0.319597  0.773665  0.925497  1
  I  I11  1  0.074503  0.680403  0.226335  1
  I  I12  1  0.226335  0.074503  0.680403  1
  I  I13  1  0.680403  0.226335  0.074503  1
  I  I14  1  0.530933  0.847932  0.611208  1
  I  I15  1  0.611208  0.530933  0.847932  1
  I  I16  1  0.847932  0.611208  0.530933  1
  I  I17  1  0.469067  0.152068  0.388792  1
  I  I18  1  0.388792  0.469067  0.152068  1
  I  I19  1  0.152068  0.388792  0.469067  1
