# generated using pymatgen
data_Sc8GaTe3
_symmetry_space_group_name_H-M   'P 1'
_cell_length_a   3.99554300
_cell_length_b   10.68382405
_cell_length_c   19.82883631
_cell_angle_alpha   90.04743828
_cell_angle_beta   90.00000000
_cell_angle_gamma   90.00000000
_symmetry_Int_Tables_number   1
_chemical_formula_structural   Sc8GaTe3
_chemical_formula_sum   'Sc24 Ga3 Te9'
_cell_volume   846.44669729
_cell_formula_units_Z   3
loop_
 _symmetry_equiv_pos_site_id
 _symmetry_equiv_pos_as_xyz
  1  'x, y, z'
loop_
 _atom_site_type_symbol
 _atom_site_label
 _atom_site_symmetry_multiplicity
 _atom_site_fract_x
 _atom_site_fract_y
 _atom_site_fract_z
 _atom_site_occupancy
  Sc  Sc0  1  0.500000  0.124682  0.023857  1
  Sc  Sc1  1  0.500000  0.373772  0.523070  1
  Sc  Sc2  1  0.000000  0.875664  0.976542  1
  Sc  Sc3  1  0.000000  0.616351  0.466773  1
  Sc  Sc4  1  0.500000  0.607120  0.994661  1
  Sc  Sc5  1  0.500000  0.896401  0.491967  1
  Sc  Sc6  1  0.000000  0.392351  0.006205  1
  Sc  Sc7  1  0.000000  0.107803  0.506098  1
  Sc  Sc8  1  0.500000  0.038105  0.844096  1
  Sc  Sc9  1  0.500000  0.460696  0.345119  1
  Sc  Sc10  1  0.000000  0.962020  0.156613  1
  Sc  Sc11  1  0.000000  0.532391  0.662361  1
  Sc  Sc12  1  0.500000  0.069105  0.637858  1
  Sc  Sc13  1  0.500000  0.432369  0.138005  1
  Sc  Sc14  1  0.000000  0.933765  0.361046  1
  Sc  Sc15  1  0.000000  0.568230  0.863597  1
  Sc  Sc16  1  0.500000  0.749856  0.728821  1
  Sc  Sc17  1  0.500000  0.750713  0.225692  1
  Sc  Sc18  1  0.000000  0.249981  0.272790  1
  Sc  Sc19  1  0.000000  0.249699  0.773194  1
  Sc  Sc20  1  0.500000  0.328418  0.894212  1
  Sc  Sc21  1  0.500000  0.169247  0.393032  1
  Sc  Sc22  1  0.000000  0.671160  0.106982  1
  Sc  Sc23  1  0.000000  0.839721  0.607445  1
  Ga  Ga24  1  0.500000  0.856146  0.076978  1
  Ga  Ga25  1  0.000000  0.352797  0.422979  1
  Ga  Ga26  1  0.000000  0.143731  0.923736  1
  Te  Te27  1  0.500000  0.035319  0.262412  1
  Te  Te28  1  0.500000  0.464130  0.764913  1
  Te  Te29  1  0.000000  0.966034  0.738193  1
  Te  Te30  1  0.000000  0.534603  0.237240  1
  Te  Te31  1  0.500000  0.774548  0.876414  1
  Te  Te32  1  0.500000  0.728234  0.373901  1
  Te  Te33  1  0.000000  0.226003  0.124474  1
  Te  Te34  1  0.000000  0.275552  0.624020  1
  Te  Te35  1  0.500000  0.643280  0.574705  1
