# generated using pymatgen
data_Li2Sc2Co5(P2Ir)3
_symmetry_space_group_name_H-M   'P 1'
_cell_length_a   3.67966400
_cell_length_b   10.37125700
_cell_length_c   12.21857300
_cell_angle_alpha   90.00000000
_cell_angle_beta   90.00000000
_cell_angle_gamma   90.00000000
_symmetry_Int_Tables_number   1
_chemical_formula_structural   Li2Sc2Co5(P2Ir)3
_chemical_formula_sum   'Li4 Sc4 Co10 P12 Ir6'
_cell_volume   466.29423700
_cell_formula_units_Z   2
loop_
 _symmetry_equiv_pos_site_id
 _symmetry_equiv_pos_as_xyz
  1  'x, y, z'
loop_
 _atom_site_type_symbol
 _atom_site_label
 _atom_site_symmetry_multiplicity
 _atom_site_fract_x
 _atom_site_fract_y
 _atom_site_fract_z
 _atom_site_occupancy
  Li  Li0  1  0.250000  0.706319  0.990811  1
  Li  Li1  1  0.250000  0.793681  0.490811  1
  Li  Li2  1  0.750000  0.291708  0.010256  1
  Li  Li3  1  0.750000  0.208292  0.510256  1
  Sc  Sc4  1  0.250000  0.584802  0.712739  1
  Sc  Sc5  1  0.250000  0.915198  0.212739  1
  Sc  Sc6  1  0.750000  0.423566  0.289042  1
  Sc  Sc7  1  0.750000  0.076434  0.789042  1
  Co  Co8  1  0.750000  0.780161  0.824006  1
  Co  Co9  1  0.750000  0.719839  0.324006  1
  Co  Co10  1  0.250000  0.880181  0.697017  1
  Co  Co11  1  0.250000  0.619819  0.197017  1
  Co  Co12  1  0.750000  0.113488  0.306152  1
  Co  Co13  1  0.750000  0.386512  0.806152  1
  Co  Co14  1  0.250000  0.470104  0.933260  1
  Co  Co15  1  0.250000  0.029896  0.433260  1
  Co  Co16  1  0.750000  0.538270  0.065538  1
  Co  Co17  1  0.750000  0.961730  0.565538  1
  P  P18  1  0.250000  0.431157  0.112959  1
  P  P19  1  0.250000  0.068843  0.612959  1
  P  P20  1  0.750000  0.579353  0.883640  1
  P  P21  1  0.750000  0.920647  0.383640  1
  P  P22  1  0.250000  0.273799  0.863002  1
  P  P23  1  0.250000  0.226201  0.363002  1
  P  P24  1  0.750000  0.728023  0.144541  1
  P  P25  1  0.750000  0.771977  0.644541  1
  P  P26  1  0.250000  0.604691  0.377598  1
  P  P27  1  0.250000  0.895309  0.877598  1
  P  P28  1  0.750000  0.407064  0.620031  1
  P  P29  1  0.750000  0.092936  0.120031  1
  Ir  Ir30  1  0.250000  0.405871  0.469329  1
  Ir  Ir31  1  0.250000  0.094129  0.969329  1
  Ir  Ir32  1  0.750000  0.601262  0.525584  1
  Ir  Ir33  1  0.750000  0.898738  0.025584  1
  Ir  Ir34  1  0.250000  0.221145  0.174493  1
  Ir  Ir35  1  0.250000  0.278856  0.674493  1
