# generated using pymatgen
data_Ac5IrAu2
_symmetry_space_group_name_H-M   'P 1'
_cell_length_a   9.35845200
_cell_length_b   8.98371300
_cell_length_c   13.05911000
_cell_angle_alpha   90.00000000
_cell_angle_beta   90.00000000
_cell_angle_gamma   90.00000000
_symmetry_Int_Tables_number   1
_chemical_formula_structural   Ac5IrAu2
_chemical_formula_sum   'Ac20 Ir4 Au8'
_cell_volume   1097.92700287
_cell_formula_units_Z   4
loop_
 _symmetry_equiv_pos_site_id
 _symmetry_equiv_pos_as_xyz
  1  'x, y, z'
loop_
 _atom_site_type_symbol
 _atom_site_label
 _atom_site_symmetry_multiplicity
 _atom_site_fract_x
 _atom_site_fract_y
 _atom_site_fract_z
 _atom_site_occupancy
  Ac  Ac0  1  0.663514  0.750000  0.709741  1
  Ac  Ac1  1  0.336486  0.250000  0.290259  1
  Ac  Ac2  1  0.163514  0.250000  0.790259  1
  Ac  Ac3  1  0.836486  0.750000  0.209741  1
  Ac  Ac4  1  0.129453  0.750000  0.807096  1
  Ac  Ac5  1  0.870547  0.250000  0.192904  1
  Ac  Ac6  1  0.629453  0.250000  0.692904  1
  Ac  Ac7  1  0.370547  0.750000  0.307096  1
  Ac  Ac8  1  0.536421  0.750000  0.002713  1
  Ac  Ac9  1  0.463579  0.250000  0.997287  1
  Ac  Ac10  1  0.036421  0.250000  0.497287  1
  Ac  Ac11  1  0.963579  0.750000  0.502713  1
  Ac  Ac12  1  0.830933  0.463493  0.918903  1
  Ac  Ac13  1  0.169067  0.536507  0.081097  1
  Ac  Ac14  1  0.330933  0.536507  0.581097  1
  Ac  Ac15  1  0.169067  0.963493  0.081097  1
  Ac  Ac16  1  0.669067  0.463493  0.418903  1
  Ac  Ac17  1  0.830933  0.036507  0.918903  1
  Ac  Ac18  1  0.669067  0.036507  0.418903  1
  Ac  Ac19  1  0.330933  0.963493  0.581097  1
  Ir  Ir20  1  0.933883  0.750000  0.993024  1
  Ir  Ir21  1  0.066117  0.250000  0.006976  1
  Ir  Ir22  1  0.433883  0.250000  0.506976  1
  Ir  Ir23  1  0.566117  0.750000  0.493024  1
  Au  Au24  1  0.942980  0.015508  0.677677  1
  Au  Au25  1  0.057020  0.984492  0.322323  1
  Au  Au26  1  0.442980  0.984492  0.822323  1
  Au  Au27  1  0.057020  0.515508  0.322323  1
  Au  Au28  1  0.557020  0.015508  0.177677  1
  Au  Au29  1  0.942980  0.484492  0.677677  1
  Au  Au30  1  0.557020  0.484492  0.177677  1
  Au  Au31  1  0.442980  0.515508  0.822323  1
