# generated using pymatgen
data_Dy5TmAl24(Ru3Rh)2
_symmetry_space_group_name_H-M   'P 1'
_cell_length_a   8.77989143
_cell_length_b   8.78547218
_cell_length_c   9.56266000
_cell_angle_alpha   90.00000000
_cell_angle_beta   90.00000000
_cell_angle_gamma   119.45165038
_symmetry_Int_Tables_number   1
_chemical_formula_structural   Dy5TmAl24(Ru3Rh)2
_chemical_formula_sum   'Dy5 Tm1 Al24 Ru6 Rh2'
_cell_volume   642.29846786
_cell_formula_units_Z   1
loop_
 _symmetry_equiv_pos_site_id
 _symmetry_equiv_pos_as_xyz
  1  'x, y, z'
loop_
 _atom_site_type_symbol
 _atom_site_label
 _atom_site_symmetry_multiplicity
 _atom_site_fract_x
 _atom_site_fract_y
 _atom_site_fract_z
 _atom_site_occupancy
  Dy  Dy0  1  0.805358  0.194460  0.750000  1
  Dy  Dy1  1  0.194472  0.805315  0.250000  1
  Dy  Dy2  1  0.385917  0.189254  0.750000  1
  Dy  Dy3  1  0.614049  0.810594  0.250000  1
  Dy  Dy4  1  0.810704  0.613956  0.750000  1
  Tm  Tm5  1  0.189786  0.387614  0.250000  1
  Al  Al6  1  0.667595  0.332166  0.979860  1
  Al  Al7  1  0.332087  0.667219  0.020583  1
  Al  Al8  1  0.332087  0.667219  0.479417  1
  Al  Al9  1  0.667595  0.332166  0.520140  1
  Al  Al10  1  0.837352  0.163472  0.422151  1
  Al  Al11  1  0.163186  0.836732  0.577405  1
  Al  Al12  1  0.323738  0.161738  0.421633  1
  Al  Al13  1  0.163186  0.836732  0.922595  1
  Al  Al14  1  0.675995  0.838526  0.577991  1
  Al  Al15  1  0.837352  0.163472  0.077849  1
  Al  Al16  1  0.838567  0.676063  0.421755  1
  Al  Al17  1  0.675995  0.838526  0.922009  1
  Al  Al18  1  0.161411  0.323876  0.577586  1
  Al  Al19  1  0.323738  0.161738  0.078367  1
  Al  Al20  1  0.161411  0.323876  0.922414  1
  Al  Al21  1  0.838567  0.676063  0.078245  1
  Al  Al22  1  0.438924  0.560900  0.750000  1
  Al  Al23  1  0.560157  0.438917  0.250000  1
  Al  Al24  1  0.123698  0.560708  0.750000  1
  Al  Al25  1  0.877006  0.439060  0.250000  1
  Al  Al26  1  0.439206  0.876350  0.750000  1
  Al  Al27  1  0.560822  0.123684  0.250000  1
  Al  Al28  1  0.000453  0.999482  0.750000  1
  Al  Al29  1  0.000254  0.001762  0.250000  1
  Ru  Ru30  1  0.000213  0.499776  0.000362  1
  Ru  Ru31  1  0.499862  0.999648  0.000160  1
  Ru  Ru32  1  0.000213  0.499776  0.499638  1
  Ru  Ru33  1  0.499862  0.999648  0.499840  1
  Ru  Ru34  1  0.999971  0.999928  0.000069  1
  Ru  Ru35  1  0.999971  0.999928  0.499931  1
  Rh  Rh36  1  0.499620  0.499827  0.000290  1
  Rh  Rh37  1  0.499620  0.499827  0.499710  1
