# generated using pymatgen
data_Hf18MnRe5SiMo3
_symmetry_space_group_name_H-M   'P 1'
_cell_length_a   8.61347908
_cell_length_b   8.61347964
_cell_length_c   8.57689900
_cell_angle_alpha   90.00000000
_cell_angle_beta   90.00000000
_cell_angle_gamma   119.98401033
_symmetry_Int_Tables_number   1
_chemical_formula_structural   Hf18MnRe5SiMo3
_chemical_formula_sum   'Hf18 Mn1 Re5 Si1 Mo3'
_cell_volume   551.17322795
_cell_formula_units_Z   1
loop_
 _symmetry_equiv_pos_site_id
 _symmetry_equiv_pos_as_xyz
  1  'x, y, z'
loop_
 _atom_site_type_symbol
 _atom_site_label
 _atom_site_symmetry_multiplicity
 _atom_site_fract_x
 _atom_site_fract_y
 _atom_site_fract_z
 _atom_site_occupancy
  Hf  Hf0  1  0.202641  0.797359  0.442240  1
  Hf  Hf1  1  0.202278  0.404909  0.443023  1
  Hf  Hf2  1  0.595091  0.797722  0.443023  1
  Hf  Hf3  1  0.805674  0.194326  0.547868  1
  Hf  Hf4  1  0.804665  0.610309  0.546714  1
  Hf  Hf5  1  0.389691  0.195335  0.546714  1
  Hf  Hf6  1  0.805674  0.194326  0.952132  1
  Hf  Hf7  1  0.804665  0.610309  0.953286  1
  Hf  Hf8  1  0.389691  0.195335  0.953286  1
  Hf  Hf9  1  0.202641  0.797359  0.057760  1
  Hf  Hf10  1  0.202278  0.404909  0.056977  1
  Hf  Hf11  1  0.595091  0.797722  0.056977  1
  Hf  Hf12  1  0.539035  0.460965  0.250000  1
  Hf  Hf13  1  0.539711  0.078654  0.250000  1
  Hf  Hf14  1  0.921346  0.460289  0.250000  1
  Hf  Hf15  1  0.461364  0.538636  0.750000  1
  Hf  Hf16  1  0.463352  0.923874  0.750000  1
  Hf  Hf17  1  0.076126  0.536648  0.750000  1
  Mn  Mn18  1  0.333806  0.666194  0.250000  1
  Re  Re19  1  0.889030  0.110970  0.250000  1
  Re  Re20  1  0.888539  0.777120  0.250000  1
  Re  Re21  1  0.222880  0.111461  0.250000  1
  Re  Re22  1  0.111151  0.223567  0.750000  1
  Re  Re23  1  0.776433  0.888849  0.750000  1
  Si  Si24  1  0.666807  0.333193  0.750000  1
  Mo  Mo25  1  0.110671  0.889329  0.750000  1
  Mo  Mo26  1  0.999836  0.000164  0.500236  1
  Mo  Mo27  1  0.999836  0.000164  0.999764  1
