# generated using pymatgen
data_HoFeCuSi
_symmetry_space_group_name_H-M   'P 1'
_cell_length_a   8.48486506
_cell_length_b   8.48486453
_cell_length_c   3.99960600
_cell_angle_alpha   90.00000000
_cell_angle_beta   90.00000000
_cell_angle_gamma   153.00212994
_symmetry_Int_Tables_number   1
_chemical_formula_structural   HoFeCuSi
_chemical_formula_sum   'Ho2 Fe2 Cu2 Si2'
_cell_volume   130.71401091
_cell_formula_units_Z   2
loop_
 _symmetry_equiv_pos_site_id
 _symmetry_equiv_pos_as_xyz
  1  'x, y, z'
loop_
 _atom_site_type_symbol
 _atom_site_label
 _atom_site_symmetry_multiplicity
 _atom_site_fract_x
 _atom_site_fract_y
 _atom_site_fract_z
 _atom_site_occupancy
  Ho  Ho0  1  0.613001  0.386999  0.250000  1
  Ho  Ho1  1  0.386999  0.613001  0.750000  1
  Fe  Fe2  1  0.250001  0.749999  0.250000  1
  Fe  Fe3  1  0.749999  0.250001  0.750000  1
  Cu  Cu4  1  0.960038  0.039962  0.250000  1
  Cu  Cu5  1  0.039962  0.960038  0.750000  1
  Si  Si6  1  0.815851  0.184149  0.250000  1
  Si  Si7  1  0.184149  0.815851  0.750000  1
