# generated using pymatgen
data_Pr8Cu3Si12Ir
_symmetry_space_group_name_H-M   'P 1'
_cell_length_a   8.18905200
_cell_length_b   8.18905244
_cell_length_c   8.66278800
_cell_angle_alpha   90.00000000
_cell_angle_beta   90.00000000
_cell_angle_gamma   120.00000629
_symmetry_Int_Tables_number   1
_chemical_formula_structural   Pr8Cu3Si12Ir
_chemical_formula_sum   'Pr8 Cu3 Si12 Ir1'
_cell_volume   503.10145313
_cell_formula_units_Z   1
loop_
 _symmetry_equiv_pos_site_id
 _symmetry_equiv_pos_as_xyz
  1  'x, y, z'
loop_
 _atom_site_type_symbol
 _atom_site_label
 _atom_site_symmetry_multiplicity
 _atom_site_fract_x
 _atom_site_fract_y
 _atom_site_fract_z
 _atom_site_occupancy
  Pr  Pr0  1  0.500931  0.499069  0.751698  1
  Pr  Pr1  1  0.501410  0.498590  0.248331  1
  Pr  Pr2  1  0.998139  0.499069  0.751698  1
  Pr  Pr3  1  0.997180  0.498590  0.248331  1
  Pr  Pr4  1  0.500931  0.001861  0.751698  1
  Pr  Pr5  1  0.501410  0.002820  0.248331  1
  Pr  Pr6  1  0.000000  0.000000  0.748837  1
  Pr  Pr7  1  0.000000  0.000000  0.251082  1
  Cu  Cu8  1  0.333333  0.666667  0.001532  1
  Cu  Cu9  1  0.333333  0.666667  0.498642  1
  Cu  Cu10  1  0.666667  0.333333  0.500768  1
  Si  Si11  1  0.832185  0.167815  0.999882  1
  Si  Si12  1  0.167752  0.832248  0.000041  1
  Si  Si13  1  0.335630  0.167815  0.999882  1
  Si  Si14  1  0.168694  0.831306  0.500240  1
  Si  Si15  1  0.664494  0.832248  0.000041  1
  Si  Si16  1  0.831065  0.168935  0.499714  1
  Si  Si17  1  0.832185  0.664370  0.999882  1
  Si  Si18  1  0.662612  0.831306  0.500240  1
  Si  Si19  1  0.167752  0.335506  0.000041  1
  Si  Si20  1  0.337869  0.168935  0.499714  1
  Si  Si21  1  0.168694  0.337388  0.500240  1
  Si  Si22  1  0.831065  0.662131  0.499714  1
  Ir  Ir23  1  0.666667  0.333333  0.999424  1
