# generated using pymatgen
data_Bi6Sb2RuO18
_symmetry_space_group_name_H-M   'P 1'
_cell_length_a   9.28739200
_cell_length_b   9.28739165
_cell_length_c   5.35192400
_cell_angle_alpha   90.00000000
_cell_angle_beta   90.00000000
_cell_angle_gamma   120.00000126
_symmetry_Int_Tables_number   1
_chemical_formula_structural   Bi6Sb2RuO18
_chemical_formula_sum   'Bi6 Sb2 Ru1 O18'
_cell_volume   399.78647757
_cell_formula_units_Z   1
loop_
 _symmetry_equiv_pos_site_id
 _symmetry_equiv_pos_as_xyz
  1  'x, y, z'
loop_
 _atom_site_type_symbol
 _atom_site_label
 _atom_site_symmetry_multiplicity
 _atom_site_fract_x
 _atom_site_fract_y
 _atom_site_fract_z
 _atom_site_occupancy
  Bi  Bi0  1  0.000000  0.379867  0.500000  1
  Bi  Bi1  1  0.282273  0.282273  0.000000  1
  Bi  Bi2  1  0.000000  0.717727  0.000000  1
  Bi  Bi3  1  0.620133  0.620133  0.500000  1
  Bi  Bi4  1  0.379867  0.000000  0.500000  1
  Bi  Bi5  1  0.717727  0.000000  0.000000  1
  Sb  Sb6  1  0.333333  0.666667  0.003821  1
  Sb  Sb7  1  0.666667  0.333333  0.996179  1
  Ru  Ru8  1  0.000000  0.000000  0.500000  1
  O  O9  1  0.068547  0.191661  0.710983  1
  O  O10  1  0.225777  0.460467  0.218520  1
  O  O11  1  0.130490  0.599857  0.787495  1
  O  O12  1  0.400143  0.530633  0.787495  1
  O  O13  1  0.234691  0.774223  0.218520  1
  O  O14  1  0.123115  0.931453  0.710983  1
  O  O15  1  0.539533  0.765309  0.218520  1
  O  O16  1  0.191661  0.068547  0.289017  1
  O  O17  1  0.469367  0.869510  0.787495  1
  O  O18  1  0.808339  0.876885  0.710983  1
  O  O19  1  0.460467  0.225777  0.781480  1
  O  O20  1  0.599857  0.130490  0.212505  1
  O  O21  1  0.530633  0.400143  0.212505  1
  O  O22  1  0.774223  0.234691  0.781480  1
  O  O23  1  0.931453  0.123115  0.289017  1
  O  O24  1  0.765309  0.539533  0.781480  1
  O  O25  1  0.869510  0.469367  0.212505  1
  O  O26  1  0.876885  0.808339  0.289017  1
