# generated using pymatgen
data_Er6MnAl24RuPtRh5
_symmetry_space_group_name_H-M   'P 1'
_cell_length_a   8.75974500
_cell_length_b   8.77861608
_cell_length_c   9.48301900
_cell_angle_alpha   90.10990391
_cell_angle_beta   90.00000000
_cell_angle_gamma   119.92891134
_symmetry_Int_Tables_number   1
_chemical_formula_structural   Er6MnAl24RuPtRh5
_chemical_formula_sum   'Er6 Mn1 Al24 Ru1 Pt1 Rh5'
_cell_volume   631.98149839
_cell_formula_units_Z   1
loop_
 _symmetry_equiv_pos_site_id
 _symmetry_equiv_pos_as_xyz
  1  'x, y, z'
loop_
 _atom_site_type_symbol
 _atom_site_label
 _atom_site_symmetry_multiplicity
 _atom_site_fract_x
 _atom_site_fract_y
 _atom_site_fract_z
 _atom_site_occupancy
  Er  Er0  1  0.192962  0.385924  0.249010  1
  Er  Er1  1  0.807038  0.614076  0.750990  1
  Er  Er2  1  0.614611  0.807594  0.249898  1
  Er  Er3  1  0.385389  0.192406  0.750102  1
  Er  Er4  1  0.192982  0.807594  0.249898  1
  Er  Er5  1  0.807018  0.192406  0.750102  1
  Mn  Mn6  1  0.000000  0.000000  0.000000  1
  Al  Al7  1  0.333076  0.666154  0.026346  1
  Al  Al8  1  0.666924  0.333846  0.973654  1
  Al  Al9  1  0.668435  0.336869  0.527739  1
  Al  Al10  1  0.331565  0.663131  0.472261  1
  Al  Al11  1  0.162682  0.325366  0.579022  1
  Al  Al12  1  0.837318  0.674634  0.420978  1
  Al  Al13  1  0.674688  0.833862  0.578912  1
  Al  Al14  1  0.839830  0.679659  0.076978  1
  Al  Al15  1  0.325312  0.166138  0.421088  1
  Al  Al16  1  0.160170  0.320341  0.923022  1
  Al  Al17  1  0.159175  0.833862  0.578912  1
  Al  Al18  1  0.320079  0.160416  0.076540  1
  Al  Al19  1  0.840825  0.166138  0.421088  1
  Al  Al20  1  0.679921  0.839584  0.923460  1
  Al  Al21  1  0.840337  0.160416  0.076540  1
  Al  Al22  1  0.159663  0.839584  0.923460  1
  Al  Al23  1  0.563492  0.126985  0.246537  1
  Al  Al24  1  0.436508  0.873015  0.753463  1
  Al  Al25  1  0.876600  0.438661  0.249386  1
  Al  Al26  1  0.123400  0.561339  0.750614  1
  Al  Al27  1  0.562060  0.438661  0.249386  1
  Al  Al28  1  0.437940  0.561339  0.750614  1
  Al  Al29  1  0.999954  0.999909  0.245143  1
  Al  Al30  1  0.000046  0.000091  0.754857  1
  Ru  Ru31  1  0.000000  0.000000  0.500000  1
  Pt  Pt32  1  0.500000  0.000000  0.500000  1
  Rh  Rh33  1  0.500000  0.000000  0.000000  1
  Rh  Rh34  1  0.000000  0.500000  0.000000  1
  Rh  Rh35  1  0.500000  0.500000  0.000000  1
  Rh  Rh36  1  0.000000  0.500000  0.500000  1
  Rh  Rh37  1  0.500000  0.500000  0.500000  1
