# generated using pymatgen
data_Sr3DySb3
_symmetry_space_group_name_H-M   'P 1'
_cell_length_a   8.46663182
_cell_length_b   8.58789672
_cell_length_c   8.46663155
_cell_angle_alpha   109.69520249
_cell_angle_beta   108.97446536
_cell_angle_gamma   109.69520750
_symmetry_Int_Tables_number   1
_chemical_formula_structural   Sr3DySb3
_chemical_formula_sum   'Sr6 Dy2 Sb6'
_cell_volume   474.16589844
_cell_formula_units_Z   2
loop_
 _symmetry_equiv_pos_site_id
 _symmetry_equiv_pos_as_xyz
  1  'x, y, z'
loop_
 _atom_site_type_symbol
 _atom_site_label
 _atom_site_symmetry_multiplicity
 _atom_site_fract_x
 _atom_site_fract_y
 _atom_site_fract_z
 _atom_site_occupancy
  Sr  Sr0  1  0.503901  0.004039  0.140527  1
  Sr  Sr1  1  0.640527  0.504039  0.003901  1
  Sr  Sr2  1  0.997544  0.640868  0.500323  1
  Sr  Sr3  1  0.857582  0.855347  0.858999  1
  Sr  Sr4  1  0.000323  0.140868  0.497544  1
  Sr  Sr5  1  0.358999  0.355347  0.357582  1
  Dy  Dy6  1  0.137990  0.501733  0.001617  1
  Dy  Dy7  1  0.501617  0.001733  0.637990  1
  Sb  Sb8  1  0.606136  0.752804  0.376510  1
  Sb  Sb9  1  0.755693  0.365449  0.639323  1
  Sb  Sb10  1  0.252663  0.129761  0.871193  1
  Sb  Sb11  1  0.371193  0.629761  0.752663  1
  Sb  Sb12  1  0.139323  0.865449  0.255693  1
  Sb  Sb13  1  0.876510  0.252804  0.106136  1
