# generated using pymatgen
data_Lu8Th4CoTc3
_symmetry_space_group_name_H-M   'P 1'
_cell_length_a   6.23803548
_cell_length_b   7.18462829
_cell_length_c   9.35502600
_cell_angle_alpha   90.00000000
_cell_angle_beta   90.00000000
_cell_angle_gamma   90.01902873
_symmetry_Int_Tables_number   1
_chemical_formula_structural   Lu8Th4CoTc3
_chemical_formula_sum   'Lu8 Th4 Co1 Tc3'
_cell_volume   419.27321558
_cell_formula_units_Z   1
loop_
 _symmetry_equiv_pos_site_id
 _symmetry_equiv_pos_as_xyz
  1  'x, y, z'
loop_
 _atom_site_type_symbol
 _atom_site_label
 _atom_site_symmetry_multiplicity
 _atom_site_fract_x
 _atom_site_fract_y
 _atom_site_fract_z
 _atom_site_occupancy
  Lu  Lu0  1  0.328985  0.674260  0.065914  1
  Lu  Lu1  1  0.164709  0.173246  0.436159  1
  Lu  Lu2  1  0.664971  0.332870  0.568567  1
  Lu  Lu3  1  0.833593  0.823875  0.932781  1
  Lu  Lu4  1  0.664971  0.332870  0.931433  1
  Lu  Lu5  1  0.833593  0.823875  0.567219  1
  Lu  Lu6  1  0.328985  0.674260  0.434086  1
  Lu  Lu7  1  0.164709  0.173246  0.063841  1
  Th  Th8  1  0.856611  0.544890  0.250000  1
  Th  Th9  1  0.636238  0.046316  0.250000  1
  Th  Th10  1  0.155607  0.453040  0.750000  1
  Th  Th11  1  0.363169  0.946511  0.750000  1
  Co  Co12  1  0.535719  0.633360  0.750000  1
  Tc  Tc13  1  0.021894  0.867787  0.250000  1
  Tc  Tc14  1  0.470324  0.369045  0.250000  1
  Tc  Tc15  1  0.975921  0.130549  0.750000  1
