# generated using pymatgen
data_GaPCl14
_symmetry_space_group_name_H-M   'P 1'
_cell_length_a   10.23136101
_cell_length_b   10.41424391
_cell_length_c   11.26311842
_cell_angle_alpha   81.59237762
_cell_angle_beta   89.99687261
_cell_angle_gamma   90.00069477
_symmetry_Int_Tables_number   1
_chemical_formula_structural   GaPCl14
_chemical_formula_sum   'Ga2 P2 Cl28'
_cell_volume   1187.20886449
_cell_formula_units_Z   2
loop_
 _symmetry_equiv_pos_site_id
 _symmetry_equiv_pos_as_xyz
  1  'x, y, z'
loop_
 _atom_site_type_symbol
 _atom_site_label
 _atom_site_symmetry_multiplicity
 _atom_site_fract_x
 _atom_site_fract_y
 _atom_site_fract_z
 _atom_site_occupancy
  Ga  Ga0  1  0.242930  0.328371  0.081612  1
  Ga  Ga1  1  0.742921  0.671629  0.418392  1
  P  P2  1  0.758407  0.675950  0.915628  1
  P  P3  1  0.258419  0.324046  0.584369  1
  Cl  Cl4  1  0.234500  0.758266  0.362328  1
  Cl  Cl5  1  0.734567  0.241734  0.137649  1
  Cl  Cl6  1  0.744493  0.253162  0.637069  1
  Cl  Cl7  1  0.244401  0.746847  0.862963  1
  Cl  Cl8  1  0.572244  0.053104  0.036268  1
  Cl  Cl9  1  0.072243  0.946928  0.463710  1
  Cl  Cl10  1  0.440071  0.939649  0.965084  1
  Cl  Cl11  1  0.940070  0.060331  0.534957  1
  Cl  Cl12  1  0.812327  0.170458  0.297016  1
  Cl  Cl13  1  0.312392  0.829543  0.202999  1
  Cl  Cl14  1  0.185224  0.829864  0.698088  1
  Cl  Cl15  1  0.685174  0.170133  0.801912  1
  Cl  Cl16  1  0.344549  0.220254  0.235518  1
  Cl  Cl17  1  0.844554  0.779746  0.264475  1
  Cl  Cl18  1  0.667988  0.728243  0.762191  1
  Cl  Cl19  1  0.167965  0.271737  0.737802  1
  Cl  Cl20  1  0.386091  0.407953  0.942295  1
  Cl  Cl21  1  0.886078  0.592050  0.557689  1
  Cl  Cl22  1  0.638052  0.630055  0.049675  1
  Cl  Cl23  1  0.138089  0.369916  0.450328  1
  Cl  Cl24  1  0.868773  0.524833  0.902645  1
  Cl  Cl25  1  0.368780  0.475179  0.597331  1
  Cl  Cl26  1  0.127469  0.488123  0.136667  1
  Cl  Cl27  1  0.627425  0.511893  0.363345  1
  Cl  Cl28  1  0.105865  0.197642  0.001604  1
  Cl  Cl29  1  0.605871  0.802362  0.498413  1
  Cl  Cl30  1  0.871030  0.819775  0.946921  1
  Cl  Cl31  1  0.371037  0.180226  0.553059  1
