# generated using pymatgen
data_Sr8Li3Si12Hg
_symmetry_space_group_name_H-M   'P 1'
_cell_length_a   11.81605837
_cell_length_b   10.14569271
_cell_length_c   8.54348594
_cell_angle_alpha   77.90268173
_cell_angle_beta   56.97318846
_cell_angle_gamma   45.15096900
_symmetry_Int_Tables_number   1
_chemical_formula_structural   Sr8Li3Si12Hg
_chemical_formula_sum   'Sr8 Li3 Si12 Hg1'
_cell_volume   581.87939270
_cell_formula_units_Z   1
loop_
 _symmetry_equiv_pos_site_id
 _symmetry_equiv_pos_as_xyz
  1  'x, y, z'
loop_
 _atom_site_type_symbol
 _atom_site_label
 _atom_site_symmetry_multiplicity
 _atom_site_fract_x
 _atom_site_fract_y
 _atom_site_fract_z
 _atom_site_occupancy
  Sr  Sr0  1  0.122706  0.120296  0.877503  1
  Sr  Sr1  1  0.877209  0.879830  0.122774  1
  Sr  Sr2  1  0.124592  0.123039  0.376353  1
  Sr  Sr3  1  0.376693  0.375865  0.124534  1
  Sr  Sr4  1  0.621782  0.622650  0.377989  1
  Sr  Sr5  1  0.377780  0.377442  0.622098  1
  Sr  Sr6  1  0.624381  0.624402  0.875339  1
  Sr  Sr7  1  0.874867  0.876328  0.624593  1
  Li  Li8  1  0.833415  0.166860  0.832368  1
  Li  Li9  1  0.166786  0.833184  0.167580  1
  Li  Li10  1  0.416921  0.083060  0.417529  1
  Si  Si11  1  0.910184  0.597366  0.432546  1
  Si  Si12  1  0.073601  0.418560  0.589625  1
  Si  Si13  1  0.432077  0.059257  0.910465  1
  Si  Si14  1  0.589831  0.917331  0.073613  1
  Si  Si15  1  0.336810  0.659349  0.824503  1
  Si  Si16  1  0.659299  0.336488  0.179679  1
  Si  Si17  1  0.824350  0.179969  0.336510  1
  Si  Si18  1  0.180262  0.824198  0.659261  1
  Si  Si19  1  0.907772  0.593312  0.906763  1
  Si  Si20  1  0.586573  0.914112  0.584603  1
  Si  Si21  1  0.338661  0.661179  0.338271  1
  Si  Si22  1  0.661001  0.338608  0.662071  1
  Hg  Hg23  1  0.082452  0.417318  0.083426  1
