# generated using pymatgen
data_LaTb7Sm(SbO)5
_symmetry_space_group_name_H-M   'P 1'
_cell_length_a   9.98337861
_cell_length_b   9.98514534
_cell_length_c   9.03030727
_cell_angle_alpha   89.91766956
_cell_angle_beta   89.98453479
_cell_angle_gamma   89.94753421
_symmetry_Int_Tables_number   1
_chemical_formula_structural   LaTb7Sm(SbO)5
_chemical_formula_sum   'La2 Tb14 Sm2 Sb10 O10'
_cell_volume   900.18923349
_cell_formula_units_Z   2
loop_
 _symmetry_equiv_pos_site_id
 _symmetry_equiv_pos_as_xyz
  1  'x, y, z'
loop_
 _atom_site_type_symbol
 _atom_site_label
 _atom_site_symmetry_multiplicity
 _atom_site_fract_x
 _atom_site_fract_y
 _atom_site_fract_z
 _atom_site_occupancy
  La  La0  1  0.204627  0.895410  0.346570  1
  La  La1  1  0.500071  0.999437  0.666799  1
  Tb  Tb2  1  0.705536  0.394544  0.661183  1
  Tb  Tb3  1  0.725425  0.917150  0.004803  1
  Tb  Tb4  1  0.395473  0.293412  0.339311  1
  Tb  Tb5  1  0.105650  0.207433  0.660702  1
  Tb  Tb6  1  0.603128  0.704306  0.338677  1
  Tb  Tb7  1  0.894695  0.793734  0.661293  1
  Tb  Tb8  1  0.274761  0.082964  0.001378  1
  Tb  Tb9  1  0.774273  0.582531  0.997258  1
  Tb  Tb10  1  0.225742  0.417465  0.999010  1
  Tb  Tb11  1  0.796429  0.105726  0.338632  1
  Tb  Tb12  1  0.583144  0.225327  0.004072  1
  Tb  Tb13  1  0.917958  0.275207  0.996901  1
  Tb  Tb14  1  0.082360  0.725753  0.996449  1
  Tb  Tb15  1  0.416878  0.773420  0.001928  1
  Sm  Sm16  1  0.294137  0.604671  0.656559  1
  Sm  Sm17  1  0.999518  0.501568  0.330016  1
  Sb  Sb18  1  0.598868  0.690384  0.697848  1
  Sb  Sb19  1  0.898263  0.804760  0.302227  1
  Sb  Sb20  1  0.693773  0.403439  0.303015  1
  Sb  Sb21  1  0.997596  0.499645  0.684772  1
  Sb  Sb22  1  0.189369  0.904798  0.707881  1
  Sb  Sb23  1  0.809788  0.097397  0.697823  1
  Sb  Sb24  1  0.307093  0.591440  0.298374  1
  Sb  Sb25  1  0.403313  0.307391  0.698625  1
  Sb  Sb26  1  0.095560  0.199839  0.301538  1
  Sb  Sb27  1  0.505736  0.001325  0.306946  1
  O  O28  1  0.225553  0.879127  0.081703  1
  O  O29  1  0.724552  0.379145  0.913684  1
  O  O30  1  0.501621  0.000143  0.939978  1
  O  O31  1  0.620043  0.723715  0.085941  1
  O  O32  1  0.998512  0.500470  0.061116  1
  O  O33  1  0.878401  0.774863  0.914115  1
  O  O34  1  0.120820  0.226009  0.913622  1
  O  O35  1  0.379926  0.275069  0.086253  1
  O  O36  1  0.777198  0.120906  0.086218  1
  O  O37  1  0.274209  0.620079  0.916779  1
