# generated using pymatgen
data_HoTm2PdRh2Pb3
_symmetry_space_group_name_H-M   'P 1'
_cell_length_a   7.88262601
_cell_length_b   7.87716422
_cell_length_c   3.68503600
_cell_angle_alpha   90.00000000
_cell_angle_beta   90.00000000
_cell_angle_gamma   120.05776856
_symmetry_Int_Tables_number   1
_chemical_formula_structural   HoTm2PdRh2Pb3
_chemical_formula_sum   'Ho1 Tm2 Pd1 Rh2 Pb3'
_cell_volume   198.04326827
_cell_formula_units_Z   1
loop_
 _symmetry_equiv_pos_site_id
 _symmetry_equiv_pos_as_xyz
  1  'x, y, z'
loop_
 _atom_site_type_symbol
 _atom_site_label
 _atom_site_symmetry_multiplicity
 _atom_site_fract_x
 _atom_site_fract_y
 _atom_site_fract_z
 _atom_site_occupancy
  Ho  Ho0  1  0.404266  0.390341  0.500000  1
  Tm  Tm1  1  0.610124  0.014373  0.500000  1
  Tm  Tm2  1  0.985485  0.595733  0.500000  1
  Pd  Pd3  1  0.333548  0.667472  0.000000  1
  Rh  Rh4  1  0.667903  0.332955  0.000000  1
  Rh  Rh5  1  0.999417  0.999451  0.500000  1
  Pb  Pb6  1  0.727394  0.732890  0.000000  1
  Pb  Pb7  1  0.267323  0.993799  0.000000  1
  Pb  Pb8  1  0.004539  0.272986  0.000000  1
