# generated using pymatgen
data_Li3La3ThAlRh4
_symmetry_space_group_name_H-M   'P 1'
_cell_length_a   4.04780300
_cell_length_b   7.17136829
_cell_length_c   8.75717222
_cell_angle_alpha   89.97081209
_cell_angle_beta   90.00000000
_cell_angle_gamma   90.00000000
_symmetry_Int_Tables_number   1
_chemical_formula_structural   Li3La3ThAlRh4
_chemical_formula_sum   'Li3 La3 Th1 Al1 Rh4'
_cell_volume   254.20566748
_cell_formula_units_Z   1
loop_
 _symmetry_equiv_pos_site_id
 _symmetry_equiv_pos_as_xyz
  1  'x, y, z'
loop_
 _atom_site_type_symbol
 _atom_site_label
 _atom_site_symmetry_multiplicity
 _atom_site_fract_x
 _atom_site_fract_y
 _atom_site_fract_z
 _atom_site_occupancy
  Li  Li0  1  0.250000  0.622284  0.548734  1
  Li  Li1  1  0.750000  0.373882  0.451926  1
  Li  Li2  1  0.250000  0.128559  0.950794  1
  La  La3  1  0.750000  0.453160  0.818859  1
  La  La4  1  0.750000  0.957025  0.686589  1
  La  La5  1  0.250000  0.040463  0.314386  1
  Th  Th6  1  0.250000  0.547396  0.179522  1
  Al  Al7  1  0.750000  0.881423  0.054986  1
  Rh  Rh8  1  0.250000  0.755667  0.903950  1
  Rh  Rh9  1  0.750000  0.264437  0.118013  1
  Rh  Rh10  1  0.750000  0.744864  0.342412  1
  Rh  Rh11  1  0.250000  0.230838  0.629831  1
