# generated using pymatgen
data_CaLa2(PrIr)2
_symmetry_space_group_name_H-M   'P 1'
_cell_length_a   9.04568662
_cell_length_b   9.04568524
_cell_length_c   7.48164968
_cell_angle_alpha   83.65209352
_cell_angle_beta   83.65209518
_cell_angle_gamma   43.63706137
_symmetry_Int_Tables_number   1
_chemical_formula_structural   CaLa2(PrIr)2
_chemical_formula_sum   'Ca2 La4 Pr4 Ir4'
_cell_volume   419.45238356
_cell_formula_units_Z   2
loop_
 _symmetry_equiv_pos_site_id
 _symmetry_equiv_pos_as_xyz
  1  'x, y, z'
loop_
 _atom_site_type_symbol
 _atom_site_label
 _atom_site_symmetry_multiplicity
 _atom_site_fract_x
 _atom_site_fract_y
 _atom_site_fract_z
 _atom_site_occupancy
  Ca  Ca0  1  0.013748  0.802249  0.916067  1
  Ca  Ca1  1  0.197751  0.986252  0.583933  1
  La  La2  1  0.987909  0.197030  0.089106  1
  La  La3  1  0.802970  0.012091  0.410894  1
  La  La4  1  0.352783  0.218038  0.818515  1
  La  La5  1  0.781962  0.647217  0.681485  1
  Pr  Pr6  1  0.653585  0.786103  0.182473  1
  Pr  Pr7  1  0.213897  0.346415  0.317527  1
  Pr  Pr8  1  0.561803  0.438197  0.750000  1
  Pr  Pr9  1  0.427866  0.572134  0.250000  1
  Ir  Ir10  1  0.177839  0.588115  0.572150  1
  Ir  Ir11  1  0.411885  0.822161  0.927850  1
  Ir  Ir12  1  0.818597  0.402594  0.421535  1
  Ir  Ir13  1  0.597406  0.181403  0.078465  1
