# generated using pymatgen
data_Y3Si2Rh3
_symmetry_space_group_name_H-M   'P 1'
_cell_length_a   5.54202300
_cell_length_b   7.55471400
_cell_length_c   14.91785500
_cell_angle_alpha   90.00000000
_cell_angle_beta   90.00000000
_cell_angle_gamma   90.00000000
_symmetry_Int_Tables_number   1
_chemical_formula_structural   Y3Si2Rh3
_chemical_formula_sum   'Y12 Si8 Rh12'
_cell_volume   624.58670158
_cell_formula_units_Z   4
loop_
 _symmetry_equiv_pos_site_id
 _symmetry_equiv_pos_as_xyz
  1  'x, y, z'
loop_
 _atom_site_type_symbol
 _atom_site_label
 _atom_site_symmetry_multiplicity
 _atom_site_fract_x
 _atom_site_fract_y
 _atom_site_fract_z
 _atom_site_occupancy
  Y  Y0  1  0.888154  0.831307  0.750000  1
  Y  Y1  1  0.867090  0.525691  0.392261  1
  Y  Y2  1  0.367090  0.974309  0.607739  1
  Y  Y3  1  0.132910  0.474309  0.892261  1
  Y  Y4  1  0.632910  0.025692  0.107739  1
  Y  Y5  1  0.111846  0.168693  0.250000  1
  Y  Y6  1  0.132910  0.474309  0.607739  1
  Y  Y7  1  0.632910  0.025692  0.392261  1
  Y  Y8  1  0.388154  0.668693  0.250000  1
  Y  Y9  1  0.367090  0.974309  0.892261  1
  Y  Y10  1  0.611846  0.331307  0.750000  1
  Y  Y11  1  0.867090  0.525691  0.107739  1
  Si  Si12  1  0.625319  0.624308  0.897413  1
  Si  Si13  1  0.874681  0.124308  0.602587  1
  Si  Si14  1  0.125319  0.875692  0.102587  1
  Si  Si15  1  0.125319  0.875692  0.397413  1
  Si  Si16  1  0.625319  0.624308  0.602587  1
  Si  Si17  1  0.874681  0.124308  0.897413  1
  Si  Si18  1  0.374681  0.375692  0.102587  1
  Si  Si19  1  0.374681  0.375692  0.397413  1
  Rh  Rh20  1  0.598089  0.331602  0.961716  1
  Rh  Rh21  1  0.098089  0.168398  0.461716  1
  Rh  Rh22  1  0.098089  0.168398  0.038284  1
  Rh  Rh23  1  0.410346  0.681450  0.750000  1
  Rh  Rh24  1  0.901911  0.831602  0.961716  1
  Rh  Rh25  1  0.589654  0.318550  0.250000  1
  Rh  Rh26  1  0.901911  0.831602  0.538284  1
  Rh  Rh27  1  0.910346  0.818550  0.250000  1
  Rh  Rh28  1  0.598089  0.331602  0.538284  1
  Rh  Rh29  1  0.401911  0.668398  0.461716  1
  Rh  Rh30  1  0.089654  0.181450  0.750000  1
  Rh  Rh31  1  0.401911  0.668398  0.038284  1
