# generated using pymatgen
data_TbEr7(SiI6)2
_symmetry_space_group_name_H-M   'P 1'
_cell_length_a   4.17964600
_cell_length_b   13.89632339
_cell_length_c   14.67110442
_cell_angle_alpha   89.97271206
_cell_angle_beta   90.00000000
_cell_angle_gamma   90.00000000
_symmetry_Int_Tables_number   1
_chemical_formula_structural   TbEr7(SiI6)2
_chemical_formula_sum   'Tb1 Er7 Si2 I12'
_cell_volume   852.12277193
_cell_formula_units_Z   1
loop_
 _symmetry_equiv_pos_site_id
 _symmetry_equiv_pos_as_xyz
  1  'x, y, z'
loop_
 _atom_site_type_symbol
 _atom_site_label
 _atom_site_symmetry_multiplicity
 _atom_site_fract_x
 _atom_site_fract_y
 _atom_site_fract_z
 _atom_site_occupancy
  Tb  Tb0  1  0.000000  0.111194  0.574512  1
  Er  Er1  1  0.500000  0.113814  0.347988  1
  Er  Er2  1  0.500000  0.886077  0.651945  1
  Er  Er3  1  0.500000  0.613785  0.151843  1
  Er  Er4  1  0.500000  0.386207  0.848098  1
  Er  Er5  1  0.000000  0.888970  0.425653  1
  Er  Er6  1  0.000000  0.610492  0.925993  1
  Er  Er7  1  0.000000  0.389507  0.073996  1
  Si  Si8  1  0.500000  0.998726  0.499147  1
  Si  Si9  1  0.500000  0.500002  0.000004  1
  I  I10  1  0.500000  0.245858  0.161545  1
  I  I11  1  0.500000  0.754091  0.838415  1
  I  I12  1  0.500000  0.745761  0.338306  1
  I  I13  1  0.500000  0.255791  0.662617  1
  I  I14  1  0.000000  0.258976  0.413088  1
  I  I15  1  0.000000  0.741514  0.585956  1
  I  I16  1  0.000000  0.758405  0.085841  1
  I  I17  1  0.000000  0.241618  0.914185  1
  I  I18  1  0.000000  0.999654  0.240436  1
  I  I19  1  0.000000  0.999481  0.760410  1
  I  I20  1  0.000000  0.499607  0.259444  1
  I  I21  1  0.000000  0.500471  0.740577  1
