# generated using pymatgen
data_Fe3Cl4O
_symmetry_space_group_name_H-M   'P 1'
_cell_length_a   9.18853400
_cell_length_b   9.18941900
_cell_length_c   9.18530100
_cell_angle_alpha   90.00000000
_cell_angle_beta   90.00000000
_cell_angle_gamma   90.00000000
_symmetry_Int_Tables_number   1
_chemical_formula_structural   Fe3Cl4O
_chemical_formula_sum   'Fe12 Cl16 O4'
_cell_volume   775.58191437
_cell_formula_units_Z   4
loop_
 _symmetry_equiv_pos_site_id
 _symmetry_equiv_pos_as_xyz
  1  'x, y, z'
loop_
 _atom_site_type_symbol
 _atom_site_label
 _atom_site_symmetry_multiplicity
 _atom_site_fract_x
 _atom_site_fract_y
 _atom_site_fract_z
 _atom_site_occupancy
  Fe  Fe0  1  0.157843  0.776926  0.015027  1
  Fe  Fe1  1  0.776647  0.015067  0.157866  1
  Fe  Fe2  1  0.514991  0.342208  0.223102  1
  Fe  Fe3  1  0.485008  0.842209  0.276898  1
  Fe  Fe4  1  0.223353  0.515067  0.342133  1
  Fe  Fe5  1  0.842157  0.276926  0.484972  1
  Fe  Fe6  1  0.342156  0.223074  0.515027  1
  Fe  Fe7  1  0.723353  0.984933  0.657866  1
  Fe  Fe8  1  0.985009  0.657791  0.723102  1
  Fe  Fe9  1  0.014991  0.157791  0.776898  1
  Fe  Fe10  1  0.276647  0.484932  0.842134  1
  Fe  Fe11  1  0.657843  0.723074  0.984973  1
  Cl  Cl12  1  0.632892  0.202951  0.045696  1
  Cl  Cl13  1  0.439830  0.560260  0.060155  1
  Cl  Cl14  1  0.297192  0.954209  0.132930  1
  Cl  Cl15  1  0.045922  0.632840  0.202853  1
  Cl  Cl16  1  0.954078  0.132839  0.297147  1
  Cl  Cl17  1  0.702807  0.454210  0.367069  1
  Cl  Cl18  1  0.560169  0.060260  0.439844  1
  Cl  Cl19  1  0.367108  0.702950  0.454305  1
  Cl  Cl20  1  0.867108  0.797050  0.545696  1
  Cl  Cl21  1  0.060169  0.439739  0.560155  1
  Cl  Cl22  1  0.202808  0.045791  0.632931  1
  Cl  Cl23  1  0.454079  0.367160  0.702852  1
  Cl  Cl24  1  0.545922  0.867160  0.797148  1
  Cl  Cl25  1  0.797193  0.545791  0.867069  1
  Cl  Cl26  1  0.939831  0.939740  0.939845  1
  Cl  Cl27  1  0.132891  0.297049  0.954304  1
  O  O28  1  0.659909  0.840100  0.159920  1
  O  O29  1  0.340091  0.340100  0.340079  1
  O  O30  1  0.840091  0.159899  0.659921  1
  O  O31  1  0.159908  0.659900  0.840079  1
