# generated using pymatgen
data_DyHo11Tc3Pt
_symmetry_space_group_name_H-M   'P 1'
_cell_length_a   6.27208943
_cell_length_b   7.37332584
_cell_length_c   9.13106100
_cell_angle_alpha   90.00000000
_cell_angle_beta   90.00000000
_cell_angle_gamma   89.98076924
_symmetry_Int_Tables_number   1
_chemical_formula_structural   DyHo11Tc3Pt
_chemical_formula_sum   'Dy1 Ho11 Tc3 Pt1'
_cell_volume   422.27647567
_cell_formula_units_Z   1
loop_
 _symmetry_equiv_pos_site_id
 _symmetry_equiv_pos_as_xyz
  1  'x, y, z'
loop_
 _atom_site_type_symbol
 _atom_site_label
 _atom_site_symmetry_multiplicity
 _atom_site_fract_x
 _atom_site_fract_y
 _atom_site_fract_z
 _atom_site_occupancy
  Dy  Dy0  1  0.128133  0.455799  0.750000  1
  Ho  Ho1  1  0.329715  0.676432  0.066902  1
  Ho  Ho2  1  0.164681  0.177549  0.436083  1
  Ho  Ho3  1  0.667270  0.318093  0.558671  1
  Ho  Ho4  1  0.837292  0.827015  0.940131  1
  Ho  Ho5  1  0.667270  0.318093  0.941329  1
  Ho  Ho6  1  0.837292  0.827015  0.559869  1
  Ho  Ho7  1  0.329715  0.676432  0.433098  1
  Ho  Ho8  1  0.164681  0.177549  0.063917  1
  Ho  Ho9  1  0.872987  0.542704  0.250000  1
  Ho  Ho10  1  0.623031  0.038214  0.250000  1
  Ho  Ho11  1  0.371445  0.964993  0.750000  1
  Tc  Tc12  1  0.038209  0.885667  0.250000  1
  Tc  Tc13  1  0.464151  0.386965  0.250000  1
  Tc  Tc14  1  0.957613  0.113806  0.750000  1
  Pt  Pt15  1  0.546515  0.613672  0.750000  1
