# generated using pymatgen
data_TbHo6Cd(Co3Sn11)2
_symmetry_space_group_name_H-M   'P 1'
_cell_length_a   9.66132600
_cell_length_b   9.66132485
_cell_length_c   9.99620700
_cell_angle_alpha   90.00000000
_cell_angle_beta   90.00000000
_cell_angle_gamma   119.99999709
_symmetry_Int_Tables_number   1
_chemical_formula_structural   TbHo6Cd(Co3Sn11)2
_chemical_formula_sum   'Tb1 Ho6 Cd1 Co6 Sn22'
_cell_volume   808.05199518
_cell_formula_units_Z   1
loop_
 _symmetry_equiv_pos_site_id
 _symmetry_equiv_pos_as_xyz
  1  'x, y, z'
loop_
 _atom_site_type_symbol
 _atom_site_label
 _atom_site_symmetry_multiplicity
 _atom_site_fract_x
 _atom_site_fract_y
 _atom_site_fract_z
 _atom_site_occupancy
  Tb  Tb0  1  0.000000  0.000000  0.000000  1
  Ho  Ho1  1  0.521027  0.478973  0.693630  1
  Ho  Ho2  1  0.521027  0.042053  0.693630  1
  Ho  Ho3  1  0.957947  0.478973  0.693630  1
  Ho  Ho4  1  0.042053  0.521027  0.306370  1
  Ho  Ho5  1  0.478973  0.957947  0.306370  1
  Ho  Ho6  1  0.478973  0.521027  0.306370  1
  Cd  Cd7  1  0.000000  0.000000  0.500000  1
  Co  Co8  1  0.167982  0.832018  0.803051  1
  Co  Co9  1  0.167982  0.335965  0.803051  1
  Co  Co10  1  0.664035  0.832018  0.803051  1
  Co  Co11  1  0.335965  0.167982  0.196949  1
  Co  Co12  1  0.832018  0.664035  0.196949  1
  Co  Co13  1  0.832018  0.167982  0.196949  1
  Sn  Sn14  1  0.666667  0.333333  0.181434  1
  Sn  Sn15  1  0.666667  0.333333  0.880714  1
  Sn  Sn16  1  0.333333  0.666667  0.119286  1
  Sn  Sn17  1  0.346131  0.346131  0.000000  1
  Sn  Sn18  1  0.000000  0.653869  0.000000  1
  Sn  Sn19  1  0.653869  0.000000  0.000000  1
  Sn  Sn20  1  0.653869  0.653869  0.000000  1
  Sn  Sn21  1  0.333333  0.666667  0.818566  1
  Sn  Sn22  1  0.435479  0.217739  0.452977  1
  Sn  Sn23  1  0.217739  0.782261  0.547023  1
  Sn  Sn24  1  0.217739  0.435479  0.547023  1
  Sn  Sn25  1  0.564521  0.782261  0.547023  1
  Sn  Sn26  1  0.116655  0.883345  0.271295  1
  Sn  Sn27  1  0.782261  0.564521  0.452977  1
  Sn  Sn28  1  0.782261  0.217739  0.452977  1
  Sn  Sn29  1  0.346131  0.000000  0.000000  1
  Sn  Sn30  1  0.116655  0.233310  0.271295  1
  Sn  Sn31  1  0.766690  0.883345  0.271295  1
  Sn  Sn32  1  0.233310  0.116655  0.728705  1
  Sn  Sn33  1  0.883345  0.766690  0.728705  1
  Sn  Sn34  1  0.883345  0.116655  0.728705  1
  Sn  Sn35  1  0.000000  0.346131  0.000000  1
