# generated using pymatgen
data_Na6Li4TiSnAs6
_symmetry_space_group_name_H-M   'P 1'
_cell_length_a   9.67223870
_cell_length_b   9.67223852
_cell_length_c   14.11632500
_cell_angle_alpha   90.00000000
_cell_angle_beta   90.00000000
_cell_angle_gamma   143.10677065
_symmetry_Int_Tables_number   1
_chemical_formula_structural   Na6Li4TiSnAs6
_chemical_formula_sum   'Na12 Li8 Ti2 Sn2 As12'
_cell_volume   792.79810643
_cell_formula_units_Z   2
loop_
 _symmetry_equiv_pos_site_id
 _symmetry_equiv_pos_as_xyz
  1  'x, y, z'
loop_
 _atom_site_type_symbol
 _atom_site_label
 _atom_site_symmetry_multiplicity
 _atom_site_fract_x
 _atom_site_fract_y
 _atom_site_fract_z
 _atom_site_occupancy
  Na  Na0  1  0.599359  0.939312  0.824920  1
  Na  Na1  1  0.265082  0.265242  0.320968  1
  Na  Na2  1  0.234918  0.234758  0.820968  1
  Na  Na3  1  0.734758  0.734918  0.679032  1
  Na  Na4  1  0.439312  0.099359  0.675080  1
  Na  Na5  1  0.900641  0.560688  0.324920  1
  Na  Na6  1  0.060688  0.400641  0.175080  1
  Na  Na7  1  0.409271  0.068935  0.179657  1
  Na  Na8  1  0.568935  0.909271  0.320343  1
  Na  Na9  1  0.090729  0.431065  0.679657  1
  Na  Na10  1  0.931065  0.590729  0.820343  1
  Na  Na11  1  0.765242  0.765082  0.179032  1
  Li  Li12  1  0.083797  0.916203  0.000000  1
  Li  Li13  1  0.583911  0.416089  0.500000  1
  Li  Li14  1  0.916089  0.083911  0.000000  1
  Li  Li15  1  0.755497  0.244503  0.000000  1
  Li  Li16  1  0.744503  0.255497  0.500000  1
  Li  Li17  1  0.246283  0.753717  0.000000  1
  Li  Li18  1  0.253717  0.746283  0.500000  1
  Li  Li19  1  0.416203  0.583797  0.500000  1
  Ti  Ti20  1  0.085721  0.914279  0.500000  1
  Ti  Ti21  1  0.414279  0.585721  0.000000  1
  Sn  Sn22  1  0.911271  0.088729  0.500000  1
  Sn  Sn23  1  0.588729  0.411271  0.000000  1
  As  As24  1  0.082276  0.413829  0.386322  1
  As  As25  1  0.913829  0.582276  0.113678  1
  As  As26  1  0.417724  0.086171  0.886322  1
  As  As27  1  0.586171  0.917724  0.613678  1
  As  As28  1  0.935316  0.611799  0.604834  1
  As  As29  1  0.111799  0.435316  0.895166  1
  As  As30  1  0.564684  0.888201  0.104834  1
  As  As31  1  0.388201  0.064684  0.395166  1
  As  As32  1  0.241936  0.230934  0.604898  1
  As  As33  1  0.730934  0.741936  0.895102  1
  As  As34  1  0.258064  0.269066  0.104898  1
  As  As35  1  0.769066  0.758064  0.395102  1
