# generated using pymatgen
data_Tb4Y6Sn5Bi3
_symmetry_space_group_name_H-M   'P 1'
_cell_length_a   8.20123200
_cell_length_b   8.21632208
_cell_length_c   15.60187103
_cell_angle_alpha   90.27637067
_cell_angle_beta   90.00000000
_cell_angle_gamma   90.00000000
_symmetry_Int_Tables_number   1
_chemical_formula_structural   Tb4Y6Sn5Bi3
_chemical_formula_sum   'Tb8 Y12 Sn10 Bi6'
_cell_volume   1051.30367847
_cell_formula_units_Z   2
loop_
 _symmetry_equiv_pos_site_id
 _symmetry_equiv_pos_as_xyz
  1  'x, y, z'
loop_
 _atom_site_type_symbol
 _atom_site_label
 _atom_site_symmetry_multiplicity
 _atom_site_fract_x
 _atom_site_fract_y
 _atom_site_fract_z
 _atom_site_occupancy
  Tb  Tb0  1  0.554941  0.334668  0.891721  1
  Tb  Tb1  1  0.054941  0.165332  0.608279  1
  Tb  Tb2  1  0.450321  0.678505  0.391226  1
  Tb  Tb3  1  0.950321  0.821495  0.108774  1
  Tb  Tb4  1  0.458797  0.666189  0.108035  1
  Tb  Tb5  1  0.958797  0.833811  0.391965  1
  Tb  Tb6  1  0.543338  0.323390  0.607138  1
  Tb  Tb7  1  0.043338  0.176610  0.892862  1
  Y  Y8  1  0.381591  0.840300  0.876665  1
  Y  Y9  1  0.881591  0.659700  0.623335  1
  Y  Y10  1  0.614591  0.159873  0.376373  1
  Y  Y11  1  0.114591  0.340127  0.123627  1
  Y  Y12  1  0.619329  0.164208  0.122850  1
  Y  Y13  1  0.119329  0.335792  0.377150  1
  Y  Y14  1  0.378031  0.843595  0.622777  1
  Y  Y15  1  0.878031  0.656405  0.877223  1
  Y  Y16  1  0.213989  0.499879  0.749989  1
  Y  Y17  1  0.713989  0.000121  0.750011  1
  Y  Y18  1  0.786220  0.500132  0.247327  1
  Y  Y19  1  0.286220  0.999868  0.252673  1
  Sn  Sn20  1  0.277520  0.027113  0.456217  1
  Sn  Sn21  1  0.777520  0.472887  0.043783  1
  Sn  Sn22  1  0.576978  0.627374  0.748247  1
  Sn  Sn23  1  0.076978  0.872626  0.751753  1
  Sn  Sn24  1  0.420474  0.374210  0.250070  1
  Sn  Sn25  1  0.920474  0.125790  0.249930  1
  Sn  Sn26  1  0.353336  0.146678  0.752475  1
  Sn  Sn27  1  0.853336  0.353322  0.747525  1
  Sn  Sn28  1  0.649233  0.856140  0.249515  1
  Sn  Sn29  1  0.149233  0.643860  0.250485  1
  Bi  Bi30  1  0.271948  0.021640  0.045167  1
  Bi  Bi31  1  0.771948  0.478360  0.454833  1
  Bi  Bi32  1  0.724578  0.974871  0.543737  1
  Bi  Bi33  1  0.224578  0.525129  0.956263  1
  Bi  Bi34  1  0.724786  0.975129  0.955648  1
  Bi  Bi35  1  0.224786  0.524871  0.544352  1
