# generated using pymatgen
data_Y4Ho4Ti3Si16Mo9
_symmetry_space_group_name_H-M   'P 1'
_cell_length_a   6.91148145
_cell_length_b   6.91156372
_cell_length_c   12.79848974
_cell_angle_alpha   90.01088287
_cell_angle_beta   89.99419102
_cell_angle_gamma   89.81129026
_symmetry_Int_Tables_number   1
_chemical_formula_structural   Y4Ho4Ti3Si16Mo9
_chemical_formula_sum   'Y4 Ho4 Ti3 Si16 Mo9'
_cell_volume   611.36957518
_cell_formula_units_Z   1
loop_
 _symmetry_equiv_pos_site_id
 _symmetry_equiv_pos_as_xyz
  1  'x, y, z'
loop_
 _atom_site_type_symbol
 _atom_site_label
 _atom_site_symmetry_multiplicity
 _atom_site_fract_x
 _atom_site_fract_y
 _atom_site_fract_z
 _atom_site_occupancy
  Y  Y0  1  0.340142  0.002475  0.468426  1
  Y  Y1  1  0.496347  0.839887  0.719183  1
  Y  Y2  1  0.500288  0.160689  0.217302  1
  Y  Y3  1  0.840109  0.496458  0.280914  1
  Ho  Ho4  1  0.160466  0.499919  0.782625  1
  Ho  Ho5  1  0.658520  0.999408  0.968652  1
  Ho  Ho6  1  0.002178  0.340671  0.531667  1
  Ho  Ho7  1  0.999464  0.658537  0.031222  1
  Ti  Ti8  1  0.170899  0.830430  0.248524  1
  Ti  Ti9  1  0.830671  0.171199  0.751430  1
  Ti  Ti10  1  0.669851  0.669451  0.500059  1
  Si  Si11  1  0.199481  0.130398  0.684065  1
  Si  Si12  1  0.372845  0.696314  0.934547  1
  Si  Si13  1  0.629570  0.300016  0.434255  1
  Si  Si14  1  0.696706  0.373297  0.065111  1
  Si  Si15  1  0.299465  0.628588  0.566093  1
  Si  Si16  1  0.798077  0.871095  0.184115  1
  Si  Si17  1  0.129336  0.200002  0.315963  1
  Si  Si18  1  0.871490  0.797629  0.815868  1
  Si  Si19  1  0.286906  0.962309  0.061465  1
  Si  Si20  1  0.540588  0.789740  0.313412  1
  Si  Si21  1  0.456969  0.212243  0.815271  1
  Si  Si22  1  0.790685  0.540208  0.686466  1
  Si  Si23  1  0.211880  0.457387  0.184699  1
  Si  Si24  1  0.711443  0.042363  0.563678  1
  Si  Si25  1  0.962661  0.287287  0.938273  1
  Si  Si26  1  0.041966  0.710610  0.436436  1
  Mo  Mo27  1  0.330691  0.330961  0.999842  1
  Mo  Mo28  1  0.154918  0.001886  0.873342  1
  Mo  Mo29  1  0.496217  0.666121  0.124461  1
  Mo  Mo30  1  0.505866  0.341179  0.624838  1
  Mo  Mo31  1  0.666122  0.496290  0.875452  1
  Mo  Mo32  1  0.340725  0.505959  0.375481  1
  Mo  Mo33  1  0.841228  0.993141  0.374455  1
  Mo  Mo34  1  0.002054  0.154943  0.126595  1
  Mo  Mo35  1  0.993176  0.840912  0.625813  1
