# generated using pymatgen
data_Li4Dy3YSb4
_symmetry_space_group_name_H-M   'P 1'
_cell_length_a   4.59793200
_cell_length_b   7.22072851
_cell_length_c   8.26262300
_cell_angle_alpha   89.92307903
_cell_angle_beta   90.00000000
_cell_angle_gamma   90.00000000
_symmetry_Int_Tables_number   1
_chemical_formula_structural   Li4Dy3YSb4
_chemical_formula_sum   'Li4 Dy3 Y1 Sb4'
_cell_volume   274.32229567
_cell_formula_units_Z   1
loop_
 _symmetry_equiv_pos_site_id
 _symmetry_equiv_pos_as_xyz
  1  'x, y, z'
loop_
 _atom_site_type_symbol
 _atom_site_label
 _atom_site_symmetry_multiplicity
 _atom_site_fract_x
 _atom_site_fract_y
 _atom_site_fract_z
 _atom_site_occupancy
  Li  Li0  1  0.250000  0.820142  0.921847  1
  Li  Li1  1  0.750000  0.180351  0.077904  1
  Li  Li2  1  0.750000  0.681295  0.421730  1
  Li  Li3  1  0.250000  0.318512  0.578680  1
  Dy  Dy4  1  0.250000  0.491776  0.212410  1
  Dy  Dy5  1  0.750000  0.507348  0.787241  1
  Dy  Dy6  1  0.750000  0.008119  0.711780  1
  Y  Y7  1  0.250000  0.992017  0.288256  1
  Sb  Sb8  1  0.250000  0.729807  0.591884  1
  Sb  Sb9  1  0.750000  0.271385  0.409006  1
  Sb  Sb10  1  0.750000  0.768992  0.090583  1
  Sb  Sb11  1  0.250000  0.230255  0.908681  1
