# generated using pymatgen
data_Dy2ErIn3AgRh2
_symmetry_space_group_name_H-M   'P 1'
_cell_length_a   7.79138439
_cell_length_b   7.79501617
_cell_length_c   3.79120700
_cell_angle_alpha   90.00000000
_cell_angle_beta   90.00000000
_cell_angle_gamma   120.02082473
_symmetry_Int_Tables_number   1
_chemical_formula_structural   Dy2ErIn3AgRh2
_chemical_formula_sum   'Dy2 Er1 In3 Ag1 Rh2'
_cell_volume   199.36485815
_cell_formula_units_Z   1
loop_
 _symmetry_equiv_pos_site_id
 _symmetry_equiv_pos_as_xyz
  1  'x, y, z'
loop_
 _atom_site_type_symbol
 _atom_site_label
 _atom_site_symmetry_multiplicity
 _atom_site_fract_x
 _atom_site_fract_y
 _atom_site_fract_z
 _atom_site_occupancy
  Dy  Dy0  1  0.028194  0.614367  0.500000  1
  Dy  Dy1  1  0.385584  0.414257  0.500000  1
  Er  Er2  1  0.586750  0.970481  0.500000  1
  In  In3  1  0.261826  0.004616  0.000000  1
  In  In4  1  0.743097  0.738111  0.000000  1
  In  In5  1  0.995126  0.257529  0.000000  1
  Ag  Ag6  1  0.665971  0.331659  0.000000  1
  Rh  Rh7  1  0.334743  0.668159  0.000000  1
  Rh  Rh8  1  0.998710  0.000821  0.500000  1
