# generated using pymatgen
data_EuTm3(Si5Pt3)2
_symmetry_space_group_name_H-M   'P 1'
_cell_length_a   8.17472979
_cell_length_b   8.17371344
_cell_length_c   8.17371381
_cell_angle_alpha   136.71105300
_cell_angle_beta   103.90116412
_cell_angle_gamma   91.82307349
_symmetry_Int_Tables_number   1
_chemical_formula_structural   EuTm3(Si5Pt3)2
_chemical_formula_sum   'Eu1 Tm3 Si10 Pt6'
_cell_volume   345.54374753
_cell_formula_units_Z   1
loop_
 _symmetry_equiv_pos_site_id
 _symmetry_equiv_pos_as_xyz
  1  'x, y, z'
loop_
 _atom_site_type_symbol
 _atom_site_label
 _atom_site_symmetry_multiplicity
 _atom_site_fract_x
 _atom_site_fract_y
 _atom_site_fract_z
 _atom_site_occupancy
  Eu  Eu0  1  0.361706  0.629066  0.732641  1
  Tm  Tm1  1  0.098804  0.870719  0.228084  1
  Tm  Tm2  1  0.900283  0.129036  0.771247  1
  Tm  Tm3  1  0.641483  0.371245  0.270239  1
  Si  Si4  1  0.001249  0.745757  0.746225  1
  Si  Si5  1  0.001249  0.255024  0.255492  1
  Si  Si6  1  0.270952  0.019273  0.748351  1
  Si  Si7  1  0.728021  0.479983  0.749523  1
  Si  Si8  1  0.728021  0.978498  0.248037  1
  Si  Si9  1  0.270952  0.522601  0.251680  1
  Si  Si10  1  0.761119  0.611513  0.149606  1
  Si  Si11  1  0.235478  0.385776  0.849702  1
  Si  Si12  1  0.459014  0.111482  0.347532  1
  Si  Si13  1  0.542187  0.889800  0.652387  1
  Pt  Pt14  1  0.500135  0.750060  0.252026  1
  Pt  Pt15  1  0.500135  0.248109  0.750075  1
  Pt  Pt16  1  0.020110  0.638376  0.381734  1
  Pt  Pt17  1  0.974969  0.359080  0.615890  1
  Pt  Pt18  1  0.250567  0.137545  0.113022  1
  Pt  Pt19  1  0.753566  0.867059  0.886506  1
