# generated using pymatgen
data_LaPr5(PtBr3)2
_symmetry_space_group_name_H-M   'P 1'
_cell_length_a   10.66633938
_cell_length_b   10.66633856
_cell_length_c   10.63383827
_cell_angle_alpha   109.32986622
_cell_angle_beta   109.56778936
_cell_angle_gamma   109.63949226
_symmetry_Int_Tables_number   1
_chemical_formula_structural   LaPr5(PtBr3)2
_chemical_formula_sum   'La2 Pr10 Pt4 Br12'
_cell_volume   929.89238753
_cell_formula_units_Z   2
loop_
 _symmetry_equiv_pos_site_id
 _symmetry_equiv_pos_as_xyz
  1  'x, y, z'
loop_
 _atom_site_type_symbol
 _atom_site_label
 _atom_site_symmetry_multiplicity
 _atom_site_fract_x
 _atom_site_fract_y
 _atom_site_fract_z
 _atom_site_occupancy
  La  La0  1  0.469480  0.485711  0.234370  1
  La  La1  1  0.751341  0.235111  0.265630  1
  Pr  Pr2  1  0.750847  0.014445  0.486955  1
  Pr  Pr3  1  0.235202  0.469593  0.484662  1
  Pr  Pr4  1  0.265213  0.751661  0.235422  1
  Pr  Pr5  1  0.027490  0.263892  0.013045  1
  Pr  Pr6  1  0.016239  0.029791  0.264578  1
  Pr  Pr7  1  0.484931  0.750540  0.015338  1
  Pr  Pr8  1  0.485371  0.234038  0.470244  1
  Pr  Pr9  1  0.016709  0.486328  0.752701  1
  Pr  Pr10  1  0.263794  0.015127  0.029756  1
  Pr  Pr11  1  0.233627  0.264007  0.747299  1
  Pt  Pt12  1  0.249985  0.250267  0.249217  1
  Pt  Pt13  1  0.501050  0.000769  0.250783  1
  Pt  Pt14  1  0.998656  0.249137  0.499189  1
  Pt  Pt15  1  0.249948  0.499467  0.000811  1
  Br  Br16  1  0.249976  0.753397  0.746547  1
  Br  Br17  1  0.506850  0.503429  0.753453  1
  Br  Br18  1  0.992873  0.746563  0.996514  1
  Br  Br19  1  0.746739  0.249917  0.753859  1
  Br  Br20  1  0.996059  0.992880  0.746141  1
  Br  Br21  1  0.250050  0.996360  0.503486  1
  Br  Br22  1  0.754666  0.507320  0.506631  1
  Br  Br23  1  0.500689  0.248035  0.993369  1
  Br  Br24  1  0.754695  0.748295  0.250145  1
  Br  Br25  1  0.746641  0.994718  0.991987  1
  Br  Br26  1  0.998149  0.504549  0.249855  1
  Br  Br27  1  0.502731  0.754654  0.508013  1
