# generated using pymatgen
data_CsK2Sb2Au3
_symmetry_space_group_name_H-M   'P 1'
_cell_length_a   8.22378740
_cell_length_b   8.22378727
_cell_length_c   8.22378655
_cell_angle_alpha   47.02669112
_cell_angle_beta   47.02669133
_cell_angle_gamma   47.02668245
_symmetry_Int_Tables_number   1
_chemical_formula_structural   CsK2Sb2Au3
_chemical_formula_sum   'Cs1 K2 Sb2 Au3'
_cell_volume   272.18917877
_cell_formula_units_Z   1
loop_
 _symmetry_equiv_pos_site_id
 _symmetry_equiv_pos_as_xyz
  1  'x, y, z'
loop_
 _atom_site_type_symbol
 _atom_site_label
 _atom_site_symmetry_multiplicity
 _atom_site_fract_x
 _atom_site_fract_y
 _atom_site_fract_z
 _atom_site_occupancy
  Cs  Cs0  1  0.500000  0.500000  0.500000  1
  K  K1  1  0.919423  0.919423  0.919423  1
  K  K2  1  0.080577  0.080577  0.080577  1
  Sb  Sb3  1  0.246071  0.246071  0.246071  1
  Sb  Sb4  1  0.753929  0.753929  0.753929  1
  Au  Au5  1  0.000000  0.500000  0.500000  1
  Au  Au6  1  0.500000  0.000000  0.500000  1
  Au  Au7  1  0.500000  0.500000  0.000000  1
