# generated using pymatgen
data_Er3Tm17(Cd3Ni)2
_symmetry_space_group_name_H-M   'P 1'
_cell_length_a   9.46941660
_cell_length_b   9.48586309
_cell_length_c   9.63169400
_cell_angle_alpha   90.00000000
_cell_angle_beta   90.00000000
_cell_angle_gamma   120.02752754
_symmetry_Int_Tables_number   1
_chemical_formula_structural   Er3Tm17(Cd3Ni)2
_chemical_formula_sum   'Er3 Tm17 Cd6 Ni2'
_cell_volume   749.05352077
_cell_formula_units_Z   1
loop_
 _symmetry_equiv_pos_site_id
 _symmetry_equiv_pos_as_xyz
  1  'x, y, z'
loop_
 _atom_site_type_symbol
 _atom_site_label
 _atom_site_symmetry_multiplicity
 _atom_site_fract_x
 _atom_site_fract_y
 _atom_site_fract_z
 _atom_site_occupancy
  Er  Er0  1  0.457051  0.543008  0.750000  1
  Er  Er1  1  0.457244  0.914364  0.750000  1
  Er  Er2  1  0.085695  0.542978  0.750000  1
  Tm  Tm3  1  0.000047  0.999906  0.500016  1
  Tm  Tm4  1  0.000047  0.999906  0.999984  1
  Tm  Tm5  1  0.542905  0.457079  0.250000  1
  Tm  Tm6  1  0.543145  0.086475  0.250000  1
  Tm  Tm7  1  0.913783  0.457001  0.250000  1
  Tm  Tm8  1  0.211074  0.788942  0.438426  1
  Tm  Tm9  1  0.210914  0.421953  0.438501  1
  Tm  Tm10  1  0.577886  0.788993  0.438354  1
  Tm  Tm11  1  0.788861  0.211235  0.560761  1
  Tm  Tm12  1  0.788704  0.577538  0.560800  1
  Tm  Tm13  1  0.422493  0.211304  0.560862  1
  Tm  Tm14  1  0.788861  0.211235  0.939239  1
  Tm  Tm15  1  0.788704  0.577538  0.939200  1
  Tm  Tm16  1  0.422493  0.211304  0.939138  1
  Tm  Tm17  1  0.211074  0.788942  0.061574  1
  Tm  Tm18  1  0.210914  0.421953  0.061499  1
  Tm  Tm19  1  0.577886  0.788993  0.061646  1
  Cd  Cd20  1  0.885367  0.114921  0.250000  1
  Cd  Cd21  1  0.885090  0.770402  0.250000  1
  Cd  Cd22  1  0.229541  0.114978  0.250000  1
  Cd  Cd23  1  0.114275  0.885450  0.750000  1
  Cd  Cd24  1  0.114236  0.228669  0.750000  1
  Cd  Cd25  1  0.771283  0.885547  0.750000  1
  Ni  Ni26  1  0.333484  0.665932  0.250000  1
  Ni  Ni27  1  0.666947  0.333449  0.750000  1
