# generated using pymatgen
data_Y8Hf12Si15Pd
_symmetry_space_group_name_H-M   'P 1'
_cell_length_a   7.28076678
_cell_length_b   7.32806658
_cell_length_c   13.42742432
_cell_angle_alpha   89.96007880
_cell_angle_beta   89.86410398
_cell_angle_gamma   90.11193532
_symmetry_Int_Tables_number   1
_chemical_formula_structural   Y8Hf12Si15Pd
_chemical_formula_sum   'Y8 Hf12 Si15 Pd1'
_cell_volume   716.40248307
_cell_formula_units_Z   1
loop_
 _symmetry_equiv_pos_site_id
 _symmetry_equiv_pos_as_xyz
  1  'x, y, z'
loop_
 _atom_site_type_symbol
 _atom_site_label
 _atom_site_symmetry_multiplicity
 _atom_site_fract_x
 _atom_site_fract_y
 _atom_site_fract_z
 _atom_site_occupancy
  Y  Y0  1  0.992833  0.347198  0.214493  1
  Y  Y1  1  0.004949  0.655071  0.715229  1
  Y  Y2  1  0.156557  0.497381  0.465461  1
  Y  Y3  1  0.504052  0.843061  0.033471  1
  Y  Y4  1  0.843404  0.502663  0.965233  1
  Y  Y5  1  0.497082  0.154944  0.537559  1
  Y  Y6  1  0.343406  0.997738  0.784996  1
  Y  Y7  1  0.661755  0.998389  0.283736  1
  Hf  Hf8  1  0.174493  0.176184  0.999013  1
  Hf  Hf9  1  0.827141  0.825113  0.500186  1
  Hf  Hf10  1  0.325494  0.679010  0.250017  1
  Hf  Hf11  1  0.675277  0.324646  0.750212  1
  Hf  Hf12  1  0.149073  0.000378  0.373964  1
  Hf  Hf13  1  0.851078  0.003754  0.874729  1
  Hf  Hf14  1  0.504384  0.649957  0.624642  1
  Hf  Hf15  1  0.351564  0.495812  0.874849  1
  Hf  Hf16  1  0.493464  0.348954  0.124404  1
  Hf  Hf17  1  0.648462  0.507526  0.379843  1
  Hf  Hf18  1  0.996588  0.148751  0.626106  1
  Hf  Hf19  1  0.000834  0.849043  0.123645  1
  Si  Si20  1  0.637545  0.705904  0.818130  1
  Si  Si21  1  0.204459  0.862213  0.567194  1
  Si  Si22  1  0.137725  0.795118  0.931912  1
  Si  Si23  1  0.795399  0.137722  0.066801  1
  Si  Si24  1  0.860221  0.200853  0.434725  1
  Si  Si25  1  0.295811  0.362455  0.683315  1
  Si  Si26  1  0.703677  0.638746  0.182244  1
  Si  Si27  1  0.291671  0.046049  0.182642  1
  Si  Si28  1  0.705432  0.950775  0.685825  1
  Si  Si29  1  0.449634  0.796520  0.436326  1
  Si  Si30  1  0.204577  0.549560  0.063421  1
  Si  Si31  1  0.548578  0.204560  0.935280  1
  Si  Si32  1  0.795515  0.450191  0.566132  1
  Si  Si33  1  0.048345  0.296246  0.814632  1
  Si  Si34  1  0.951039  0.705578  0.313571  1
  Pd  Pd35  1  0.368483  0.291937  0.316058  1
