# generated using pymatgen
data_Y2Er10InCo4Cu
_symmetry_space_group_name_H-M   'P 1'
_cell_length_a   8.28253929
_cell_length_b   8.28253904
_cell_length_c   8.25707700
_cell_angle_alpha   110.92859704
_cell_angle_beta   110.77643203
_cell_angle_gamma   106.87363463
_symmetry_Int_Tables_number   1
_chemical_formula_structural   Y2Er10InCo4Cu
_chemical_formula_sum   'Y2 Er10 In1 Co4 Cu1'
_cell_volume   434.63573465
_cell_formula_units_Z   1
loop_
 _symmetry_equiv_pos_site_id
 _symmetry_equiv_pos_as_xyz
  1  'x, y, z'
loop_
 _atom_site_type_symbol
 _atom_site_label
 _atom_site_symmetry_multiplicity
 _atom_site_fract_x
 _atom_site_fract_y
 _atom_site_fract_z
 _atom_site_occupancy
  Y  Y0  1  0.186465  0.288951  0.475414  1
  Y  Y1  1  0.813535  0.711049  0.524586  1
  Er  Er2  1  0.185692  0.710438  0.896131  1
  Er  Er3  1  0.814308  0.289562  0.103869  1
  Er  Er4  1  0.314876  0.621185  0.304877  1
  Er  Er5  1  0.685124  0.378815  0.695123  1
  Er  Er6  1  0.316310  0.010000  0.695123  1
  Er  Er7  1  0.683690  0.990000  0.304877  1
  Er  Er8  1  0.417943  0.217545  0.198419  1
  Er  Er9  1  0.582057  0.782455  0.801581  1
  Er  Er10  1  0.019126  0.219523  0.801581  1
  Er  Er11  1  0.980874  0.780477  0.198419  1
  In  In12  1  0.500000  0.500000  0.000000  1
  Co  Co13  1  0.112949  0.612949  0.500000  1
  Co  Co14  1  0.887051  0.387051  0.500000  1
  Co  Co15  1  0.376862  0.999716  0.376577  1
  Co  Co16  1  0.623138  0.000284  0.623423  1
  Cu  Cu17  1  0.000000  0.000000  0.000000  1
