# generated using pymatgen
data_Tm6Cr3Co2P12Rh13
_symmetry_space_group_name_H-M   'P 1'
_cell_length_a   3.82011300
_cell_length_b   11.08256297
_cell_length_c   12.69089113
_cell_angle_alpha   90.04822146
_cell_angle_beta   90.00000000
_cell_angle_gamma   90.00000000
_symmetry_Int_Tables_number   1
_chemical_formula_structural   Tm6Cr3Co2P12Rh13
_chemical_formula_sum   'Tm6 Cr3 Co2 P12 Rh13'
_cell_volume   537.28953553
_cell_formula_units_Z   1
loop_
 _symmetry_equiv_pos_site_id
 _symmetry_equiv_pos_as_xyz
  1  'x, y, z'
loop_
 _atom_site_type_symbol
 _atom_site_label
 _atom_site_symmetry_multiplicity
 _atom_site_fract_x
 _atom_site_fract_y
 _atom_site_fract_z
 _atom_site_occupancy
  Tm  Tm0  1  0.000000  0.501444  0.520378  1
  Tm  Tm1  1  0.500000  0.999844  0.479003  1
  Tm  Tm2  1  0.500000  0.817387  0.199398  1
  Tm  Tm3  1  0.500000  0.182986  0.202046  1
  Tm  Tm4  1  0.000000  0.679539  0.799164  1
  Tm  Tm5  1  0.000000  0.318856  0.797366  1
  Cr  Cr6  1  0.500000  0.495528  0.157472  1
  Cr  Cr7  1  0.000000  0.000282  0.842529  1
  Cr  Cr8  1  0.500000  0.334095  0.996346  1
  Co  Co9  1  0.000000  0.498094  0.987505  1
  Co  Co10  1  0.500000  0.000306  0.011803  1
  P  P11  1  0.500000  0.491868  0.884493  1
  P  P12  1  0.000000  0.001272  0.115936  1
  P  P13  1  0.500000  0.500701  0.345818  1
  P  P14  1  0.000000  0.000134  0.654480  1
  P  P15  1  0.500000  0.315374  0.620110  1
  P  P16  1  0.500000  0.685102  0.619839  1
  P  P17  1  0.000000  0.185597  0.380476  1
  P  P18  1  0.000000  0.816388  0.379346  1
  P  P19  1  0.500000  0.851839  0.893050  1
  P  P20  1  0.500000  0.153735  0.893724  1
  P  P21  1  0.000000  0.646432  0.105882  1
  P  P22  1  0.000000  0.352330  0.106666  1
  Rh  Rh23  1  0.500000  0.500491  0.702361  1
  Rh  Rh24  1  0.000000  0.001179  0.296204  1
  Rh  Rh25  1  0.500000  0.663948  0.991087  1
  Rh  Rh26  1  0.000000  0.167786  0.007445  1
  Rh  Rh27  1  0.000000  0.834659  0.008054  1
  Rh  Rh28  1  0.500000  0.296288  0.432261  1
  Rh  Rh29  1  0.500000  0.705851  0.430475  1
  Rh  Rh30  1  0.000000  0.204275  0.569457  1
  Rh  Rh31  1  0.000000  0.795694  0.569007  1
  Rh  Rh32  1  0.500000  0.874392  0.712982  1
  Rh  Rh33  1  0.500000  0.125432  0.712723  1
  Rh  Rh34  1  0.000000  0.625791  0.286616  1
  Rh  Rh35  1  0.000000  0.375083  0.288497  1
