# generated using pymatgen
data_Pr10Si16Ni
_symmetry_space_group_name_H-M   'P 1'
_cell_length_a   11.37838310
_cell_length_b   11.37954436
_cell_length_c   11.37838400
_cell_angle_alpha   144.06150860
_cell_angle_beta   136.70014502
_cell_angle_gamma   57.48979759
_symmetry_Int_Tables_number   1
_chemical_formula_structural   Pr10Si16Ni
_chemical_formula_sum   'Pr10 Si16 Ni1'
_cell_volume   588.09182302
_cell_formula_units_Z   1
loop_
 _symmetry_equiv_pos_site_id
 _symmetry_equiv_pos_as_xyz
  1  'x, y, z'
loop_
 _atom_site_type_symbol
 _atom_site_label
 _atom_site_symmetry_multiplicity
 _atom_site_fract_x
 _atom_site_fract_y
 _atom_site_fract_z
 _atom_site_occupancy
  Pr  Pr0  1  0.049982  0.565819  0.015442  1
  Pr  Pr1  1  0.350371  0.366639  0.517920  1
  Pr  Pr2  1  0.146935  0.163490  0.512850  1
  Pr  Pr3  1  0.454647  0.966895  0.019670  1
  Pr  Pr4  1  0.650643  0.163490  0.016556  1
  Pr  Pr5  1  0.947224  0.966895  0.512248  1
  Pr  Pr6  1  0.848719  0.366639  0.016267  1
  Pr  Pr7  1  0.550378  0.565819  0.515837  1
  Pr  Pr8  1  0.248034  0.763867  0.011926  1
  Pr  Pr9  1  0.751941  0.763867  0.515833  1
  Si  Si10  1  0.109953  0.050940  0.940987  1
  Si  Si11  1  0.802564  0.234436  0.431873  1
  Si  Si12  1  0.299630  0.900593  0.600963  1
  Si  Si13  1  0.399905  0.500297  0.100391  1
  Si  Si14  1  0.895890  0.826526  0.930636  1
  Si  Si15  1  0.100891  0.701448  0.600557  1
  Si  Si16  1  0.199259  0.610903  0.411644  1
  Si  Si17  1  0.699390  0.298886  0.599497  1
  Si  Si18  1  0.996107  0.432783  0.436675  1
  Si  Si19  1  0.705080  0.647122  0.942042  1
  Si  Si20  1  0.599622  0.700181  0.100559  1
  Si  Si21  1  0.000783  0.095204  0.094421  1
  Si  Si22  1  0.500046  0.412424  0.912378  1
  Si  Si23  1  0.293491  0.236986  0.943495  1
  Si  Si24  1  0.591827  0.033582  0.441754  1
  Si  Si25  1  0.406341  0.849314  0.442973  1
  Ni  Ni26  1  0.900347  0.503870  0.603525  1
