# generated using pymatgen
data_YTm2Pa(Ga3Ir)6
_symmetry_space_group_name_H-M   'P 1'
_cell_length_a   7.60469039
_cell_length_b   7.59359963
_cell_length_c   9.42221100
_cell_angle_alpha   90.00000000
_cell_angle_beta   90.00000000
_cell_angle_gamma   119.90153440
_symmetry_Int_Tables_number   1
_chemical_formula_structural   YTm2Pa(Ga3Ir)6
_chemical_formula_sum   'Y1 Tm2 Pa1 Ga18 Ir6'
_cell_volume   471.67487605
_cell_formula_units_Z   1
loop_
 _symmetry_equiv_pos_site_id
 _symmetry_equiv_pos_as_xyz
  1  'x, y, z'
loop_
 _atom_site_type_symbol
 _atom_site_label
 _atom_site_symmetry_multiplicity
 _atom_site_fract_x
 _atom_site_fract_y
 _atom_site_fract_z
 _atom_site_occupancy
  Y  Y0  1  0.669666  0.996628  0.750000  1
  Tm  Tm1  1  0.003789  0.331230  0.250000  1
  Tm  Tm2  1  0.330604  0.002735  0.250000  1
  Pa  Pa3  1  0.997370  0.669087  0.750000  1
  Ga  Ga4  1  0.130639  0.130354  0.750000  1
  Ga  Ga5  1  0.873261  0.874511  0.250000  1
  Ga  Ga6  1  0.998831  0.330820  0.579232  1
  Ga  Ga7  1  0.001958  0.665490  0.415152  1
  Ga  Ga8  1  0.001958  0.665490  0.084848  1
  Ga  Ga9  1  0.338221  0.002464  0.920660  1
  Ga  Ga10  1  0.998831  0.330820  0.920768  1
  Ga  Ga11  1  0.665735  0.002544  0.082663  1
  Ga  Ga12  1  0.665735  0.002544  0.417337  1
  Ga  Ga13  1  0.338221  0.002464  0.579340  1
  Ga  Ga14  1  0.330833  0.330752  0.069632  1
  Ga  Ga15  1  0.664049  0.667650  0.934512  1
  Ga  Ga16  1  0.664049  0.667650  0.565488  1
  Ga  Ga17  1  0.330833  0.330752  0.430368  1
  Ga  Ga18  1  0.338791  0.544529  0.750000  1
  Ga  Ga19  1  0.660182  0.451833  0.250000  1
  Ga  Ga20  1  0.543978  0.339584  0.750000  1
  Ga  Ga21  1  0.452144  0.661288  0.250000  1
  Ir  Ir22  1  0.674123  0.331570  0.501482  1
  Ir  Ir23  1  0.325912  0.671087  0.501426  1
  Ir  Ir24  1  0.325912  0.671087  0.998574  1
  Ir  Ir25  1  0.674123  0.331570  0.998518  1
  Ir  Ir26  1  0.000128  0.996733  0.501801  1
  Ir  Ir27  1  0.000128  0.996733  0.998199  1
