# generated using pymatgen
data_NaSb12(RuRh)2
_symmetry_space_group_name_H-M   'P 1'
_cell_length_a   8.12478184
_cell_length_b   8.14397214
_cell_length_c   8.14171050
_cell_angle_alpha   109.54416209
_cell_angle_beta   109.46759673
_cell_angle_gamma   109.43215132
_symmetry_Int_Tables_number   1
_chemical_formula_structural   NaSb12(RuRh)2
_chemical_formula_sum   'Na1 Sb12 Ru2 Rh2'
_cell_volume   414.55217454
_cell_formula_units_Z   1
loop_
 _symmetry_equiv_pos_site_id
 _symmetry_equiv_pos_as_xyz
  1  'x, y, z'
loop_
 _atom_site_type_symbol
 _atom_site_label
 _atom_site_symmetry_multiplicity
 _atom_site_fract_x
 _atom_site_fract_y
 _atom_site_fract_z
 _atom_site_occupancy
  Na  Na0  1  0.000000  0.000000  0.000000  1
  Sb  Sb1  1  0.657432  0.841910  0.502601  1
  Sb  Sb2  1  0.342568  0.158090  0.497399  1
  Sb  Sb3  1  0.841841  0.183633  0.339548  1
  Sb  Sb4  1  0.813199  0.658118  0.155490  1
  Sb  Sb5  1  0.842692  0.502876  0.658163  1
  Sb  Sb6  1  0.186801  0.341882  0.844510  1
  Sb  Sb7  1  0.158159  0.816367  0.660452  1
  Sb  Sb8  1  0.503040  0.661137  0.841993  1
  Sb  Sb9  1  0.496960  0.338863  0.158007  1
  Sb  Sb10  1  0.157308  0.497124  0.341837  1
  Sb  Sb11  1  0.342071  0.844494  0.184081  1
  Sb  Sb12  1  0.657929  0.155506  0.815919  1
  Ru  Ru13  1  0.500000  0.500000  0.500000  1
  Ru  Ru14  1  0.500000  0.000000  0.000000  1
  Rh  Rh15  1  0.000000  0.000000  0.500000  1
  Rh  Rh16  1  0.000000  0.500000  0.000000  1
