# generated using pymatgen
data_Bi2SbPt3
_symmetry_space_group_name_H-M   'P 1'
_cell_length_a   7.52377707
_cell_length_b   7.52377613
_cell_length_c   5.58679900
_cell_angle_alpha   90.00000000
_cell_angle_beta   90.00000000
_cell_angle_gamma   59.70167695
_symmetry_Int_Tables_number   1
_chemical_formula_structural   Bi2SbPt3
_chemical_formula_sum   'Bi4 Sb2 Pt6'
_cell_volume   273.05621377
_cell_formula_units_Z   2
loop_
 _symmetry_equiv_pos_site_id
 _symmetry_equiv_pos_as_xyz
  1  'x, y, z'
loop_
 _atom_site_type_symbol
 _atom_site_label
 _atom_site_symmetry_multiplicity
 _atom_site_fract_x
 _atom_site_fract_y
 _atom_site_fract_z
 _atom_site_occupancy
  Bi  Bi0  1  0.166467  0.491779  0.249999  1
  Bi  Bi1  1  0.508221  0.833533  0.249999  1
  Bi  Bi2  1  0.491779  0.166467  0.750000  1
  Bi  Bi3  1  0.833533  0.508221  0.750000  1
  Sb  Sb4  1  0.825108  0.174892  0.249999  1
  Sb  Sb5  1  0.174892  0.825108  0.750000  1
  Pt  Pt6  1  0.151845  0.151845  0.000000  1
  Pt  Pt7  1  0.500000  0.500000  0.000000  1
  Pt  Pt8  1  0.848155  0.848155  0.000000  1
  Pt  Pt9  1  0.151845  0.151845  0.500001  1
  Pt  Pt10  1  0.500000  0.500000  0.500001  1
  Pt  Pt11  1  0.848155  0.848155  0.500001  1
