# generated using pymatgen
data_Nd8Dy3Y9Si16
_symmetry_space_group_name_H-M   'P 1'
_cell_length_a   7.76542301
_cell_length_b   7.76543900
_cell_length_c   14.51668201
_cell_angle_alpha   90.00013348
_cell_angle_beta   89.99525948
_cell_angle_gamma   89.99902607
_symmetry_Int_Tables_number   1
_chemical_formula_structural   Nd8Dy3Y9Si16
_chemical_formula_sum   'Nd8 Dy3 Y9 Si16'
_cell_volume   875.38377497
_cell_formula_units_Z   1
loop_
 _symmetry_equiv_pos_site_id
 _symmetry_equiv_pos_as_xyz
  1  'x, y, z'
loop_
 _atom_site_type_symbol
 _atom_site_label
 _atom_site_symmetry_multiplicity
 _atom_site_fract_x
 _atom_site_fract_y
 _atom_site_fract_z
 _atom_site_occupancy
  Nd  Nd0  1  0.634183  0.990211  0.454662  1
  Nd  Nd1  1  0.365349  0.010065  0.954570  1
  Nd  Nd2  1  0.990258  0.634318  0.545453  1
  Nd  Nd3  1  0.489963  0.865479  0.204634  1
  Nd  Nd4  1  0.509765  0.134316  0.704520  1
  Nd  Nd5  1  0.865819  0.490166  0.795363  1
  Nd  Nd6  1  0.134694  0.510006  0.295441  1
  Nd  Nd7  1  0.010151  0.365500  0.045355  1
  Dy  Dy8  1  0.487914  0.365151  0.124932  1
  Dy  Dy9  1  0.314313  0.314166  0.500025  1
  Dy  Dy10  1  0.185717  0.814209  0.749970  1
  Y  Y11  1  0.988119  0.134821  0.624985  1
  Y  Y12  1  0.865283  0.012141  0.874861  1
  Y  Y13  1  0.135059  0.988061  0.375098  1
  Y  Y14  1  0.511858  0.634817  0.624990  1
  Y  Y15  1  0.364888  0.488032  0.874877  1
  Y  Y16  1  0.634643  0.512137  0.375125  1
  Y  Y17  1  0.012330  0.865045  0.125044  1
  Y  Y18  1  0.814005  0.185865  0.249971  1
  Y  Y19  1  0.685747  0.685649  0.000026  1
  Si  Si20  1  0.287658  0.930829  0.561287  1
  Si  Si21  1  0.712173  0.069413  0.061376  1
  Si  Si22  1  0.930954  0.287732  0.438727  1
  Si  Si23  1  0.430806  0.212421  0.311256  1
  Si  Si24  1  0.569053  0.787766  0.811260  1
  Si  Si25  1  0.212293  0.430843  0.688720  1
  Si  Si26  1  0.787418  0.568996  0.188645  1
  Si  Si27  1  0.069294  0.712362  0.938653  1
  Si  Si28  1  0.801365  0.839687  0.693831  1
  Si  Si29  1  0.199117  0.160283  0.193687  1
  Si  Si30  1  0.839757  0.801180  0.306198  1
  Si  Si31  1  0.339690  0.698738  0.443802  1
  Si  Si32  1  0.660161  0.301340  0.943945  1
  Si  Si33  1  0.698691  0.339693  0.556185  1
  Si  Si34  1  0.301234  0.659813  0.056317  1
  Si  Si35  1  0.160275  0.198747  0.806208  1
