# generated using pymatgen
data_SrLaSm5OsBr12
_symmetry_space_group_name_H-M   'P 1'
_cell_length_a   9.58199976
_cell_length_b   9.36922422
_cell_length_c   9.60568687
_cell_angle_alpha   105.78160476
_cell_angle_beta   106.18200628
_cell_angle_gamma   106.61653072
_symmetry_Int_Tables_number   1
_chemical_formula_structural   SrLaSm5OsBr12
_chemical_formula_sum   'Sr1 La1 Sm5 Os1 Br12'
_cell_volume   733.37968471
_cell_formula_units_Z   1
loop_
 _symmetry_equiv_pos_site_id
 _symmetry_equiv_pos_as_xyz
  1  'x, y, z'
loop_
 _atom_site_type_symbol
 _atom_site_label
 _atom_site_symmetry_multiplicity
 _atom_site_fract_x
 _atom_site_fract_y
 _atom_site_fract_z
 _atom_site_occupancy
  Sr  Sr0  1  0.500245  0.499091  0.501316  1
  La  La1  1  0.097998  0.299224  0.018169  1
  Sm  Sm2  1  0.316748  0.021168  0.105348  1
  Sm  Sm3  1  0.018701  0.102696  0.313170  1
  Sm  Sm4  1  0.980523  0.894062  0.684988  1
  Sm  Sm5  1  0.683129  0.980824  0.894763  1
  Sm  Sm6  1  0.902234  0.705445  0.981147  1
  Os  Os7  1  0.002835  0.008969  0.999141  1
  Br  Br8  1  0.215043  0.682681  0.071301  1
  Br  Br9  1  0.455709  0.365781  0.154233  1
  Br  Br10  1  0.679205  0.069896  0.215458  1
  Br  Br11  1  0.926641  0.779107  0.315600  1
  Br  Br12  1  0.150002  0.448218  0.373376  1
  Br  Br13  1  0.362093  0.142053  0.444640  1
  Br  Br14  1  0.637356  0.855026  0.554582  1
  Br  Br15  1  0.852331  0.552823  0.639309  1
  Br  Br16  1  0.070220  0.212394  0.670896  1
  Br  Br17  1  0.320393  0.927721  0.784238  1
  Br  Br18  1  0.556440  0.635170  0.853112  1
  Br  Br19  1  0.772152  0.317651  0.925212  1
