# generated using pymatgen
data_Ca2Sn(AsRh2)6
_symmetry_space_group_name_H-M   'P 1'
_cell_length_a   10.08712100
_cell_length_b   10.08712035
_cell_length_c   3.94736500
_cell_angle_alpha   90.00000000
_cell_angle_beta   90.00000000
_cell_angle_gamma   120.00000540
_symmetry_Int_Tables_number   1
_chemical_formula_structural   Ca2Sn(AsRh2)6
_chemical_formula_sum   'Ca2 Sn1 As6 Rh12'
_cell_volume   347.83423707
_cell_formula_units_Z   1
loop_
 _symmetry_equiv_pos_site_id
 _symmetry_equiv_pos_as_xyz
  1  'x, y, z'
loop_
 _atom_site_type_symbol
 _atom_site_label
 _atom_site_symmetry_multiplicity
 _atom_site_fract_x
 _atom_site_fract_y
 _atom_site_fract_z
 _atom_site_occupancy
  Ca  Ca0  1  0.333333  0.666667  0.753215  1
  Ca  Ca1  1  0.000000  0.000000  0.247955  1
  Sn  Sn2  1  0.666667  0.333333  0.591083  1
  As  As3  1  0.955464  0.215660  0.748626  1
  As  As4  1  0.784340  0.739803  0.748626  1
  As  As5  1  0.260197  0.044536  0.748626  1
  As  As6  1  0.377216  0.449417  0.252926  1
  As  As7  1  0.550583  0.927799  0.252926  1
  As  As8  1  0.072201  0.622784  0.252926  1
  Rh  Rh9  1  0.729683  0.950695  0.749465  1
  Rh  Rh10  1  0.049305  0.778987  0.749465  1
  Rh  Rh11  1  0.221013  0.270317  0.749465  1
  Rh  Rh12  1  0.607418  0.720254  0.251506  1
  Rh  Rh13  1  0.279746  0.887166  0.251506  1
  Rh  Rh14  1  0.112834  0.392582  0.251506  1
  Rh  Rh15  1  0.952462  0.457564  0.756286  1
  Rh  Rh16  1  0.542436  0.494899  0.756286  1
  Rh  Rh17  1  0.505101  0.047538  0.756286  1
  Rh  Rh18  1  0.396154  0.214740  0.245168  1
  Rh  Rh19  1  0.785260  0.181414  0.245168  1
  Rh  Rh20  1  0.818586  0.603846  0.245168  1
