# generated using pymatgen
data_YHo3TcB12Os
_symmetry_space_group_name_H-M   'P 1'
_cell_length_a   3.65981300
_cell_length_b   9.13450253
_cell_length_c   11.52079500
_cell_angle_alpha   89.91748356
_cell_angle_beta   90.00000000
_cell_angle_gamma   90.00000000
_symmetry_Int_Tables_number   1
_chemical_formula_structural   YHo3TcB12Os
_chemical_formula_sum   'Y2 Ho6 Tc2 B24 Os2'
_cell_volume   385.14635706
_cell_formula_units_Z   2
loop_
 _symmetry_equiv_pos_site_id
 _symmetry_equiv_pos_as_xyz
  1  'x, y, z'
loop_
 _atom_site_type_symbol
 _atom_site_label
 _atom_site_symmetry_multiplicity
 _atom_site_fract_x
 _atom_site_fract_y
 _atom_site_fract_z
 _atom_site_occupancy
  Y  Y0  1  0.000000  0.324584  0.415393  1
  Y  Y1  1  0.000000  0.675416  0.584607  1
  Ho  Ho2  1  0.000000  0.820846  0.087296  1
  Ho  Ho3  1  0.000000  0.179154  0.912704  1
  Ho  Ho4  1  0.000000  0.941537  0.370815  1
  Ho  Ho5  1  0.000000  0.058463  0.629185  1
  Ho  Ho6  1  0.000000  0.443544  0.129852  1
  Ho  Ho7  1  0.000000  0.556456  0.870148  1
  Tc  Tc8  1  0.000000  0.638588  0.319953  1
  Tc  Tc9  1  0.000000  0.361412  0.680047  1
  B  B10  1  0.500000  0.553183  0.432781  1
  B  B11  1  0.500000  0.446817  0.567219  1
  B  B12  1  0.500000  0.053577  0.066867  1
  B  B13  1  0.500000  0.946423  0.933133  1
  B  B14  1  0.500000  0.748415  0.418533  1
  B  B15  1  0.500000  0.251585  0.581467  1
  B  B16  1  0.500000  0.248625  0.081235  1
  B  B17  1  0.500000  0.751375  0.918765  1
  B  B18  1  0.500000  0.791266  0.265169  1
  B  B19  1  0.500000  0.208734  0.734831  1
  B  B20  1  0.500000  0.290320  0.234064  1
  B  B21  1  0.500000  0.709680  0.765936  1
  B  B22  1  0.500000  0.631211  0.185131  1
  B  B23  1  0.500000  0.368789  0.814869  1
  B  B24  1  0.500000  0.130411  0.313759  1
  B  B25  1  0.500000  0.869589  0.686241  1
  B  B26  1  0.500000  0.982535  0.211860  1
  B  B27  1  0.500000  0.017465  0.788140  1
  B  B28  1  0.500000  0.482711  0.287416  1
  B  B29  1  0.500000  0.517289  0.712584  1
  B  B30  1  0.500000  0.603372  0.028461  1
  B  B31  1  0.500000  0.396628  0.971539  1
  B  B32  1  0.500000  0.102947  0.471200  1
  B  B33  1  0.500000  0.897053  0.528800  1
  Os  Os34  1  0.000000  0.137094  0.177936  1
  Os  Os35  1  0.000000  0.862906  0.822064  1
