# generated using pymatgen
data_YEr3(Si2Rh)2
_symmetry_space_group_name_H-M   'P 1'
_cell_length_a   5.66294214
_cell_length_b   5.66294289
_cell_length_c   10.01802502
_cell_angle_alpha   63.77216446
_cell_angle_beta   63.77215843
_cell_angle_gamma   43.40945579
_symmetry_Int_Tables_number   1
_chemical_formula_structural   YEr3(Si2Rh)2
_chemical_formula_sum   'Y1 Er3 Si4 Rh2'
_cell_volume   194.20143904
_cell_formula_units_Z   1
loop_
 _symmetry_equiv_pos_site_id
 _symmetry_equiv_pos_as_xyz
  1  'x, y, z'
loop_
 _atom_site_type_symbol
 _atom_site_label
 _atom_site_symmetry_multiplicity
 _atom_site_fract_x
 _atom_site_fract_y
 _atom_site_fract_z
 _atom_site_occupancy
  Y  Y0  1  0.814403  0.814403  0.108734  1
  Er  Er1  1  0.000335  0.000335  0.326026  1
  Er  Er2  1  0.185334  0.185334  0.889604  1
  Er  Er3  1  0.998562  0.998562  0.674626  1
  Si  Si4  1  0.361423  0.361423  0.565555  1
  Si  Si5  1  0.489055  0.489055  0.878433  1
  Si  Si6  1  0.638253  0.638253  0.435520  1
  Si  Si7  1  0.512470  0.512470  0.120262  1
  Rh  Rh8  1  0.726058  0.726058  0.628735  1
  Rh  Rh9  1  0.274106  0.274106  0.372504  1
