# generated using pymatgen
data_U2AlGaSi4
_symmetry_space_group_name_H-M   'P 1'
_cell_length_a   4.18395400
_cell_length_b   4.17828300
_cell_length_c   7.84813500
_cell_angle_alpha   90.00000000
_cell_angle_beta   90.00000000
_cell_angle_gamma   90.00000000
_symmetry_Int_Tables_number   1
_chemical_formula_structural   U2AlGaSi4
_chemical_formula_sum   'U2 Al1 Ga1 Si4'
_cell_volume   137.19908593
_cell_formula_units_Z   1
loop_
 _symmetry_equiv_pos_site_id
 _symmetry_equiv_pos_as_xyz
  1  'x, y, z'
loop_
 _atom_site_type_symbol
 _atom_site_label
 _atom_site_symmetry_multiplicity
 _atom_site_fract_x
 _atom_site_fract_y
 _atom_site_fract_z
 _atom_site_occupancy
  U  U0  1  0.000000  0.000000  0.250357  1
  U  U1  1  0.000000  0.000000  0.749837  1
  Al  Al2  1  0.500000  0.500000  0.751186  1
  Ga  Ga3  1  0.500000  0.500000  0.248387  1
  Si  Si4  1  0.000000  0.500000  0.996891  1
  Si  Si5  1  0.500000  0.000000  0.503471  1
  Si  Si6  1  0.500000  0.000000  0.996646  1
  Si  Si7  1  0.000000  0.500000  0.503225  1
