# generated using pymatgen
data_Dy3YPt4F28
_symmetry_space_group_name_H-M   'P 1'
_cell_length_a   5.55261202
_cell_length_b   8.89427947
_cell_length_c   12.00402211
_cell_angle_alpha   62.44455971
_cell_angle_beta   89.99308805
_cell_angle_gamma   89.98938762
_symmetry_Int_Tables_number   1
_chemical_formula_structural   Dy3YPt4F28
_chemical_formula_sum   'Dy3 Y1 Pt4 F28'
_cell_volume   525.58720855
_cell_formula_units_Z   1
loop_
 _symmetry_equiv_pos_site_id
 _symmetry_equiv_pos_as_xyz
  1  'x, y, z'
loop_
 _atom_site_type_symbol
 _atom_site_label
 _atom_site_symmetry_multiplicity
 _atom_site_fract_x
 _atom_site_fract_y
 _atom_site_fract_z
 _atom_site_occupancy
  Dy  Dy0  1  0.260783  0.186796  0.735606  1
  Dy  Dy1  1  0.239055  0.186128  0.235686  1
  Dy  Dy2  1  0.739120  0.813875  0.264323  1
  Y  Y3  1  0.761071  0.814161  0.764292  1
  Pt  Pt4  1  0.758775  0.272306  0.957045  1
  Pt  Pt5  1  0.258845  0.727545  0.542887  1
  Pt  Pt6  1  0.241316  0.727484  0.043211  1
  Pt  Pt7  1  0.741159  0.272570  0.456851  1
  F  F8  1  0.435546  0.703093  0.915703  1
  F  F9  1  0.936067  0.296528  0.584449  1
  F  F10  1  0.563818  0.296396  0.084558  1
  F  F11  1  0.063627  0.703494  0.415248  1
  F  F12  1  0.440590  0.277944  0.542619  1
  F  F13  1  0.940514  0.721716  0.957846  1
  F  F14  1  0.559786  0.722150  0.457116  1
  F  F15  1  0.059414  0.277772  0.042772  1
  F  F16  1  0.774255  0.521067  0.858657  1
  F  F17  1  0.274175  0.478740  0.641280  1
  F  F18  1  0.225883  0.478635  0.141397  1
  F  F19  1  0.725839  0.521632  0.358553  1
  F  F20  1  0.754370  0.023291  0.050574  1
  F  F21  1  0.254393  0.976291  0.449537  1
  F  F22  1  0.245541  0.976261  0.949707  1
  F  F23  1  0.745603  0.023880  0.549872  1
  F  F24  1  0.965893  0.724893  0.635739  1
  F  F25  1  0.465987  0.274688  0.864097  1
  F  F26  1  0.034012  0.274716  0.363991  1
  F  F27  1  0.534418  0.725329  0.136108  1
  F  F28  1  0.051706  0.745772  0.175414  1
  F  F29  1  0.551842  0.254292  0.324733  1
  F  F30  1  0.948073  0.254223  0.824819  1
  F  F31  1  0.447522  0.745419  0.675359  1
  F  F32  1  0.415153  0.969904  0.232541  1
  F  F33  1  0.915105  0.030022  0.267450  1
  F  F34  1  0.584762  0.030815  0.767555  1
  F  F35  1  0.085982  0.970174  0.732405  1
