# generated using pymatgen
data_Hf18Ti2MnRe6P
_symmetry_space_group_name_H-M   'P 1'
_cell_length_a   8.60572400
_cell_length_b   8.60572484
_cell_length_c   8.51383500
_cell_angle_alpha   90.00000000
_cell_angle_beta   90.00000000
_cell_angle_gamma   120.00000444
_symmetry_Int_Tables_number   1
_chemical_formula_structural   Hf18Ti2MnRe6P
_chemical_formula_sum   'Hf18 Ti2 Mn1 Re6 P1'
_cell_volume   546.04786190
_cell_formula_units_Z   1
loop_
 _symmetry_equiv_pos_site_id
 _symmetry_equiv_pos_as_xyz
  1  'x, y, z'
loop_
 _atom_site_type_symbol
 _atom_site_label
 _atom_site_symmetry_multiplicity
 _atom_site_fract_x
 _atom_site_fract_y
 _atom_site_fract_z
 _atom_site_occupancy
  Hf  Hf0  1  0.201794  0.798206  0.442743  1
  Hf  Hf1  1  0.201794  0.403586  0.442743  1
  Hf  Hf2  1  0.596414  0.798206  0.442743  1
  Hf  Hf3  1  0.803878  0.196122  0.549706  1
  Hf  Hf4  1  0.803878  0.607757  0.549706  1
  Hf  Hf5  1  0.392243  0.196122  0.549706  1
  Hf  Hf6  1  0.803878  0.196122  0.950294  1
  Hf  Hf7  1  0.803878  0.607757  0.950294  1
  Hf  Hf8  1  0.392243  0.196122  0.950294  1
  Hf  Hf9  1  0.201794  0.798206  0.057257  1
  Hf  Hf10  1  0.201794  0.403586  0.057257  1
  Hf  Hf11  1  0.596414  0.798206  0.057257  1
  Hf  Hf12  1  0.540249  0.459751  0.250000  1
  Hf  Hf13  1  0.540249  0.080499  0.250000  1
  Hf  Hf14  1  0.919501  0.459751  0.250000  1
  Hf  Hf15  1  0.458571  0.541429  0.750000  1
  Hf  Hf16  1  0.458571  0.917142  0.750000  1
  Hf  Hf17  1  0.082858  0.541429  0.750000  1
  Ti  Ti18  1  0.000000  0.000000  0.498923  1
  Ti  Ti19  1  0.000000  0.000000  0.001077  1
  Mn  Mn20  1  0.333333  0.666667  0.250000  1
  Re  Re21  1  0.887008  0.112992  0.250000  1
  Re  Re22  1  0.887008  0.774015  0.250000  1
  Re  Re23  1  0.225985  0.112992  0.250000  1
  Re  Re24  1  0.112024  0.887976  0.750000  1
  Re  Re25  1  0.112024  0.224050  0.750000  1
  Re  Re26  1  0.775950  0.887976  0.750000  1
  P  P27  1  0.666667  0.333333  0.750000  1
