# generated using pymatgen
data_Cs4Tb3Dy9Te20
_symmetry_space_group_name_H-M   'P 1'
_cell_length_a   4.41980600
_cell_length_b   13.36803907
_cell_length_c   23.83982713
_cell_angle_alpha   90.01213751
_cell_angle_beta   90.00000000
_cell_angle_gamma   90.00000000
_symmetry_Int_Tables_number   1
_chemical_formula_structural   Cs4Tb3Dy9Te20
_chemical_formula_sum   'Cs4 Tb3 Dy9 Te20'
_cell_volume   1408.55563593
_cell_formula_units_Z   1
loop_
 _symmetry_equiv_pos_site_id
 _symmetry_equiv_pos_as_xyz
  1  'x, y, z'
loop_
 _atom_site_type_symbol
 _atom_site_label
 _atom_site_symmetry_multiplicity
 _atom_site_fract_x
 _atom_site_fract_y
 _atom_site_fract_z
 _atom_site_occupancy
  Cs  Cs0  1  0.250000  0.354004  0.089616  1
  Cs  Cs1  1  0.750000  0.645982  0.910389  1
  Cs  Cs2  1  0.750000  0.854025  0.410382  1
  Cs  Cs3  1  0.250000  0.145980  0.589611  1
  Tb  Tb4  1  0.250000  0.454380  0.697693  1
  Tb  Tb5  1  0.750000  0.545628  0.302310  1
  Tb  Tb6  1  0.750000  0.954375  0.802306  1
  Dy  Dy7  1  0.250000  0.045833  0.197685  1
  Dy  Dy8  1  0.250000  0.796748  0.674653  1
  Dy  Dy9  1  0.750000  0.203215  0.325326  1
  Dy  Dy10  1  0.750000  0.296751  0.825347  1
  Dy  Dy11  1  0.250000  0.703292  0.174661  1
  Dy  Dy12  1  0.250000  0.392169  0.444400  1
  Dy  Dy13  1  0.750000  0.607837  0.555598  1
  Dy  Dy14  1  0.750000  0.892183  0.055620  1
  Dy  Dy15  1  0.250000  0.107828  0.944433  1
  Te  Te16  1  0.250000  0.444549  0.568673  1
  Te  Te17  1  0.750000  0.555450  0.431328  1
  Te  Te18  1  0.750000  0.944560  0.931326  1
  Te  Te19  1  0.250000  0.055394  0.068871  1
  Te  Te20  1  0.250000  0.768083  0.546762  1
  Te  Te21  1  0.750000  0.231910  0.453237  1
  Te  Te22  1  0.750000  0.268085  0.953234  1
  Te  Te23  1  0.250000  0.731903  0.046767  1
  Te  Te24  1  0.250000  0.798783  0.803025  1
  Te  Te25  1  0.750000  0.200674  0.196958  1
  Te  Te26  1  0.750000  0.298777  0.696972  1
  Te  Te27  1  0.250000  0.701219  0.303025  1
  Te  Te28  1  0.250000  0.453157  0.826521  1
  Te  Te29  1  0.750000  0.546851  0.173477  1
  Te  Te30  1  0.750000  0.953158  0.673480  1
  Te  Te31  1  0.250000  0.046789  0.326268  1
  Te  Te32  1  0.250000  0.374639  0.313616  1
  Te  Te33  1  0.750000  0.625363  0.686381  1
  Te  Te34  1  0.750000  0.875064  0.186422  1
  Te  Te35  1  0.250000  0.125364  0.813625  1
