# generated using pymatgen
data_Y6Ho10MgHg3Rh4
_symmetry_space_group_name_H-M   'P 1'
_cell_length_a   9.60164423
_cell_length_b   9.59109479
_cell_length_c   9.59109500
_cell_angle_alpha   60.00000272
_cell_angle_beta   60.03634117
_cell_angle_gamma   60.03633746
_symmetry_Int_Tables_number   1
_chemical_formula_structural   Y6Ho10MgHg3Rh4
_chemical_formula_sum   'Y6 Ho10 Mg1 Hg3 Rh4'
_cell_volume   624.89251560
_cell_formula_units_Z   1
loop_
 _symmetry_equiv_pos_site_id
 _symmetry_equiv_pos_as_xyz
  1  'x, y, z'
loop_
 _atom_site_type_symbol
 _atom_site_label
 _atom_site_symmetry_multiplicity
 _atom_site_fract_x
 _atom_site_fract_y
 _atom_site_fract_z
 _atom_site_occupancy
  Y  Y0  1  0.185003  0.813782  0.813782  1
  Y  Y1  1  0.812736  0.186608  0.186608  1
  Y  Y2  1  0.812736  0.186608  0.814048  1
  Y  Y3  1  0.185003  0.813782  0.187433  1
  Y  Y4  1  0.812736  0.814048  0.186608  1
  Y  Y5  1  0.185003  0.187433  0.813782  1
  Ho  Ho6  1  0.601124  0.598745  0.598745  1
  Ho  Ho7  1  0.601124  0.598745  0.201389  1
  Ho  Ho8  1  0.601124  0.201389  0.598745  1
  Ho  Ho9  1  0.191204  0.602933  0.602933  1
  Ho  Ho10  1  0.060445  0.439455  0.439455  1
  Ho  Ho11  1  0.435865  0.063321  0.063321  1
  Ho  Ho12  1  0.435865  0.063321  0.437491  1
  Ho  Ho13  1  0.060445  0.439455  0.060646  1
  Ho  Ho14  1  0.435865  0.437491  0.063321  1
  Ho  Ho15  1  0.060445  0.060646  0.439455  1
  Mg  Mg16  1  0.534364  0.821878  0.821878  1
  Hg  Hg17  1  0.831325  0.835798  0.835798  1
  Hg  Hg18  1  0.831325  0.835798  0.497077  1
  Hg  Hg19  1  0.831325  0.497077  0.835798  1
  Rh  Rh20  1  0.390875  0.394015  0.394015  1
  Rh  Rh21  1  0.390875  0.394015  0.821097  1
  Rh  Rh22  1  0.390875  0.821097  0.394015  1
  Rh  Rh23  1  0.822316  0.392562  0.392562  1
