# generated using pymatgen
data_Dy4VFe3B16
_symmetry_space_group_name_H-M   'P 1'
_cell_length_a   3.40304600
_cell_length_b   5.92999406
_cell_length_c   11.47361784
_cell_angle_alpha   90.13399634
_cell_angle_beta   90.00000000
_cell_angle_gamma   90.00000000
_symmetry_Int_Tables_number   1
_chemical_formula_structural   Dy4VFe3B16
_chemical_formula_sum   'Dy4 V1 Fe3 B16'
_cell_volume   231.53746307
_cell_formula_units_Z   1
loop_
 _symmetry_equiv_pos_site_id
 _symmetry_equiv_pos_as_xyz
  1  'x, y, z'
loop_
 _atom_site_type_symbol
 _atom_site_label
 _atom_site_symmetry_multiplicity
 _atom_site_fract_x
 _atom_site_fract_y
 _atom_site_fract_z
 _atom_site_occupancy
  Dy  Dy0  1  0.000000  0.626578  0.352573  1
  Dy  Dy1  1  0.000000  0.372872  0.648417  1
  Dy  Dy2  1  0.000000  0.126037  0.153999  1
  Dy  Dy3  1  0.000000  0.876388  0.846669  1
  V  V4  1  0.000000  0.626756  0.082784  1
  Fe  Fe5  1  0.000000  0.375424  0.915981  1
  Fe  Fe6  1  0.000000  0.133037  0.414082  1
  Fe  Fe7  1  0.000000  0.865184  0.588943  1
  B  B8  1  0.500000  0.785652  0.186753  1
  B  B9  1  0.500000  0.219360  0.815859  1
  B  B10  1  0.500000  0.280196  0.317560  1
  B  B11  1  0.500000  0.717994  0.682984  1
  B  B12  1  0.500000  0.865838  0.030320  1
  B  B13  1  0.500000  0.138665  0.965872  1
  B  B14  1  0.500000  0.360051  0.468356  1
  B  B15  1  0.500000  0.639113  0.532153  1
  B  B16  1  0.500000  0.888591  0.454823  1
  B  B17  1  0.500000  0.111392  0.546191  1
  B  B18  1  0.500000  0.383369  0.043965  1
  B  B19  1  0.500000  0.609811  0.950341  1
  B  B20  1  0.500000  0.976832  0.311336  1
  B  B21  1  0.500000  0.025237  0.689714  1
  B  B22  1  0.500000  0.473078  0.192670  1
  B  B23  1  0.500000  0.522550  0.807655  1
