# generated using pymatgen
data_Y12Ho4Cd4Pd3Rh
_symmetry_space_group_name_H-M   'P 1'
_cell_length_a   9.71383668
_cell_length_b   9.71383631
_cell_length_c   9.71383654
_cell_angle_alpha   59.88992128
_cell_angle_beta   59.88992388
_cell_angle_gamma   59.88991766
_symmetry_Int_Tables_number   1
_chemical_formula_structural   Y12Ho4Cd4Pd3Rh
_chemical_formula_sum   'Y12 Ho4 Cd4 Pd3 Rh1'
_cell_volume   646.50422621
_cell_formula_units_Z   1
loop_
 _symmetry_equiv_pos_site_id
 _symmetry_equiv_pos_as_xyz
  1  'x, y, z'
loop_
 _atom_site_type_symbol
 _atom_site_label
 _atom_site_symmetry_multiplicity
 _atom_site_fract_x
 _atom_site_fract_y
 _atom_site_fract_z
 _atom_site_occupancy
  Y  Y0  1  0.814719  0.189475  0.189475  1
  Y  Y1  1  0.188741  0.810648  0.810648  1
  Y  Y2  1  0.189475  0.814719  0.189475  1
  Y  Y3  1  0.810648  0.188741  0.810648  1
  Y  Y4  1  0.189475  0.189475  0.814719  1
  Y  Y5  1  0.810648  0.810648  0.188741  1
  Y  Y6  1  0.934513  0.565954  0.565954  1
  Y  Y7  1  0.562984  0.935729  0.935729  1
  Y  Y8  1  0.565954  0.934513  0.565954  1
  Y  Y9  1  0.935729  0.562984  0.935729  1
  Y  Y10  1  0.565954  0.565954  0.934513  1
  Y  Y11  1  0.935729  0.935729  0.562984  1
  Ho  Ho12  1  0.352152  0.352152  0.352152  1
  Ho  Ho13  1  0.352176  0.352176  0.942064  1
  Ho  Ho14  1  0.352176  0.942064  0.352176  1
  Ho  Ho15  1  0.942064  0.352176  0.352176  1
  Cd  Cd16  1  0.581203  0.581203  0.581203  1
  Cd  Cd17  1  0.580896  0.580896  0.254079  1
  Cd  Cd18  1  0.580896  0.254079  0.580896  1
  Cd  Cd19  1  0.254079  0.580896  0.580896  1
  Pd  Pd20  1  0.144355  0.144355  0.565634  1
  Pd  Pd21  1  0.144355  0.565634  0.144355  1
  Pd  Pd22  1  0.565634  0.144355  0.144355  1
  Rh  Rh23  1  0.145445  0.145445  0.145445  1
