# generated using pymatgen
data_Nb12CrGa8Co(NiC2)2
_symmetry_space_group_name_H-M   'P 1'
_cell_length_a   8.25574998
_cell_length_b   8.25575085
_cell_length_c   8.25574900
_cell_angle_alpha   59.90675975
_cell_angle_beta   59.90675624
_cell_angle_gamma   59.90676195
_symmetry_Int_Tables_number   1
_chemical_formula_structural   Nb12CrGa8Co(NiC2)2
_chemical_formula_sum   'Nb12 Cr1 Ga8 Co1 Ni2 C4'
_cell_volume   397.04066071
_cell_formula_units_Z   1
loop_
 _symmetry_equiv_pos_site_id
 _symmetry_equiv_pos_as_xyz
  1  'x, y, z'
loop_
 _atom_site_type_symbol
 _atom_site_label
 _atom_site_symmetry_multiplicity
 _atom_site_fract_x
 _atom_site_fract_y
 _atom_site_fract_z
 _atom_site_occupancy
  Nb  Nb0  1  0.690552  0.310001  0.687242  1
  Nb  Nb1  1  0.939999  0.559448  0.562758  1
  Nb  Nb2  1  0.547737  0.943601  0.942959  1
  Nb  Nb3  1  0.943601  0.547737  0.942959  1
  Nb  Nb4  1  0.562266  0.562266  0.938354  1
  Nb  Nb5  1  0.944833  0.944833  0.547535  1
  Nb  Nb6  1  0.687734  0.687734  0.311646  1
  Nb  Nb7  1  0.310001  0.690552  0.687242  1
  Nb  Nb8  1  0.702263  0.306399  0.307041  1
  Nb  Nb9  1  0.305167  0.305167  0.702465  1
  Nb  Nb10  1  0.559448  0.939999  0.562758  1
  Nb  Nb11  1  0.306399  0.702263  0.307041  1
  Cr  Cr12  1  0.125000  0.125000  0.125000  1
  Ga  Ga13  1  0.335391  0.335391  0.337437  1
  Ga  Ga14  1  0.248923  0.914246  0.913537  1
  Ga  Ga15  1  0.914246  0.248923  0.913537  1
  Ga  Ga16  1  0.913414  0.913414  0.251092  1
  Ga  Ga17  1  0.335754  0.001077  0.336463  1
  Ga  Ga18  1  0.336586  0.336586  0.998908  1
  Ga  Ga19  1  0.001077  0.335754  0.336463  1
  Ga  Ga20  1  0.914609  0.914609  0.912563  1
  Co  Co21  1  0.125000  0.125000  0.625000  1
  Ni  Ni22  1  0.625000  0.125000  0.125000  1
  Ni  Ni23  1  0.125000  0.625000  0.125000  1
  C  C24  1  0.625000  0.625000  0.625000  1
  C  C25  1  0.125000  0.625000  0.625000  1
  C  C26  1  0.625000  0.125000  0.625000  1
  C  C27  1  0.625000  0.625000  0.125000  1
