# generated using pymatgen
data_YbBeCo12
_symmetry_space_group_name_H-M   'P 1'
_cell_length_a   7.82909598
_cell_length_b   7.82909610
_cell_length_c   7.82909700
_cell_angle_alpha   60.00000040
_cell_angle_beta   59.99999991
_cell_angle_gamma   59.99999555
_symmetry_Int_Tables_number   1
_chemical_formula_structural   YbBeCo12
_chemical_formula_sum   'Yb2 Be2 Co24'
_cell_volume   339.32816096
_cell_formula_units_Z   2
loop_
 _symmetry_equiv_pos_site_id
 _symmetry_equiv_pos_as_xyz
  1  'x, y, z'
loop_
 _atom_site_type_symbol
 _atom_site_label
 _atom_site_symmetry_multiplicity
 _atom_site_fract_x
 _atom_site_fract_y
 _atom_site_fract_z
 _atom_site_occupancy
  Yb  Yb0  1  0.750000  0.750000  0.750000  1
  Yb  Yb1  1  0.250000  0.250000  0.250000  1
  Be  Be2  1  0.500000  0.500000  0.500000  1
  Be  Be3  1  0.000000  0.000000  0.000000  1
  Co  Co4  1  0.441022  0.205637  0.794363  1
  Co  Co5  1  0.205637  0.441022  0.558978  1
  Co  Co6  1  0.558978  0.794363  0.205637  1
  Co  Co7  1  0.794363  0.558978  0.441022  1
  Co  Co8  1  0.441022  0.794363  0.558978  1
  Co  Co9  1  0.558978  0.441022  0.794363  1
  Co  Co10  1  0.794363  0.441022  0.205637  1
  Co  Co11  1  0.794363  0.205637  0.558978  1
  Co  Co12  1  0.205637  0.558978  0.794363  1
  Co  Co13  1  0.441022  0.558978  0.205637  1
  Co  Co14  1  0.558978  0.205637  0.441022  1
  Co  Co15  1  0.205637  0.794363  0.441022  1
  Co  Co16  1  0.941022  0.705637  0.058978  1
  Co  Co17  1  0.705637  0.941022  0.294363  1
  Co  Co18  1  0.058978  0.294363  0.941022  1
  Co  Co19  1  0.294363  0.058978  0.705637  1
  Co  Co20  1  0.705637  0.058978  0.941022  1
  Co  Co21  1  0.058978  0.941022  0.705637  1
  Co  Co22  1  0.058978  0.705637  0.294363  1
  Co  Co23  1  0.294363  0.705637  0.941022  1
  Co  Co24  1  0.941022  0.294363  0.705637  1
  Co  Co25  1  0.941022  0.058978  0.294363  1
  Co  Co26  1  0.294363  0.941022  0.058978  1
  Co  Co27  1  0.705637  0.294363  0.058978  1
