# generated using pymatgen
data_Pr4Mn5PtO19
_symmetry_space_group_name_H-M   'P 1'
_cell_length_a   7.66134865
_cell_length_b   7.69538386
_cell_length_c   7.69538450
_cell_angle_alpha   109.33426545
_cell_angle_beta   109.62721586
_cell_angle_gamma   109.63298479
_symmetry_Int_Tables_number   1
_chemical_formula_structural   Pr4Mn5PtO19
_chemical_formula_sum   'Pr4 Mn5 Pt1 O19'
_cell_volume   348.47224180
_cell_formula_units_Z   1
loop_
 _symmetry_equiv_pos_site_id
 _symmetry_equiv_pos_as_xyz
  1  'x, y, z'
loop_
 _atom_site_type_symbol
 _atom_site_label
 _atom_site_symmetry_multiplicity
 _atom_site_fract_x
 _atom_site_fract_y
 _atom_site_fract_z
 _atom_site_occupancy
  Pr  Pr0  1  0.673831  0.672719  0.674503  1
  Pr  Pr1  1  0.326169  0.000673  0.998888  1
  Pr  Pr2  1  0.986070  0.318313  0.994372  1
  Pr  Pr3  1  0.013930  0.008302  0.332243  1
  Mn  Mn4  1  0.341111  0.843030  0.503539  1
  Mn  Mn5  1  0.658889  0.162428  0.501919  1
  Mn  Mn6  1  0.841161  0.496768  0.340912  1
  Mn  Mn7  1  0.158839  0.499751  0.655608  1
  Mn  Mn8  1  0.500000  0.336161  0.836161  1
  Pt  Pt9  1  0.500000  0.658898  0.158898  1
  O  O10  1  0.654553  0.650570  0.997571  1
  O  O11  1  0.345447  0.343018  0.996017  1
  O  O12  1  0.648748  0.999581  0.647321  1
  O  O13  1  0.351252  0.998573  0.350833  1
  O  O14  1  0.000000  0.646011  0.646011  1
  O  O15  1  0.000000  0.350698  0.350698  1
  O  O16  1  0.000000  0.000129  0.000129  1
  O  O17  1  0.358228  0.611905  0.325716  1
  O  O18  1  0.641772  0.967488  0.253677  1
  O  O19  1  0.709360  0.384331  0.751952  1
  O  O20  1  0.613096  0.323695  0.364781  1
  O  O21  1  0.290640  0.042592  0.674971  1
  O  O22  1  0.960071  0.251347  0.635127  1
  O  O23  1  0.386904  0.751684  0.710600  1
  O  O24  1  0.039929  0.675056  0.291277  1
  O  O25  1  0.327931  0.369402  0.616943  1
  O  O26  1  0.756773  0.711690  0.392947  1
  O  O27  1  0.672069  0.289011  0.041470  1
  O  O28  1  0.243226  0.636175  0.954917  1
