# generated using pymatgen
data_Mg2Bi3Sb3O14
_symmetry_space_group_name_H-M   'P 1'
_cell_length_a   7.36080486
_cell_length_b   7.36081177
_cell_length_c   7.36080879
_cell_angle_alpha   61.21019658
_cell_angle_beta   61.21019775
_cell_angle_gamma   61.21019875
_symmetry_Int_Tables_number   1
_chemical_formula_structural   Mg2Bi3Sb3O14
_chemical_formula_sum   'Mg2 Bi3 Sb3 O14'
_cell_volume   289.68448599
_cell_formula_units_Z   1
loop_
 _symmetry_equiv_pos_site_id
 _symmetry_equiv_pos_as_xyz
  1  'x, y, z'
loop_
 _atom_site_type_symbol
 _atom_site_label
 _atom_site_symmetry_multiplicity
 _atom_site_fract_x
 _atom_site_fract_y
 _atom_site_fract_z
 _atom_site_occupancy
  Mg  Mg0  1  0.000000  0.499999  0.000001  1
  Mg  Mg1  1  0.499991  0.999930  0.500082  1
  Bi  Bi2  1  0.000002  0.999999  0.499998  1
  Bi  Bi3  1  0.500004  0.000004  0.000005  1
  Bi  Bi4  1  0.499997  0.499998  0.499995  1
  Sb  Sb5  1  0.500000  0.500001  0.999998  1
  Sb  Sb6  1  0.000003  0.500005  0.499997  1
  Sb  Sb7  1  0.999998  0.000002  0.999997  1
  O  O8  1  0.611792  0.111789  0.611799  1
  O  O9  1  0.388207  0.888205  0.388215  1
  O  O10  1  0.084319  0.177918  0.677911  1
  O  O11  1  0.677918  0.177921  0.084298  1
  O  O12  1  0.677911  0.584334  0.677907  1
  O  O13  1  0.915683  0.822088  0.322081  1
  O  O14  1  0.322090  0.822093  0.915663  1
  O  O15  1  0.322082  0.415700  0.322078  1
  O  O16  1  0.655598  0.586114  0.086106  1
  O  O17  1  0.086109  0.586112  0.655592  1
  O  O18  1  0.086113  0.155599  0.086107  1
  O  O19  1  0.344403  0.413893  0.913885  1
  O  O20  1  0.913888  0.413890  0.344397  1
  O  O21  1  0.913891  0.844405  0.913886  1
