# generated using pymatgen
data_Na4LiP2Au
_symmetry_space_group_name_H-M   'P 1'
_cell_length_a   5.59928893
_cell_length_b   5.59928943
_cell_length_c   5.47050700
_cell_angle_alpha   89.34674130
_cell_angle_beta   89.34674125
_cell_angle_gamma   102.97554581
_symmetry_Int_Tables_number   1
_chemical_formula_structural   Na4LiP2Au
_chemical_formula_sum   'Na4 Li1 P2 Au1'
_cell_volume   167.10415422
_cell_formula_units_Z   1
loop_
 _symmetry_equiv_pos_site_id
 _symmetry_equiv_pos_as_xyz
  1  'x, y, z'
loop_
 _atom_site_type_symbol
 _atom_site_label
 _atom_site_symmetry_multiplicity
 _atom_site_fract_x
 _atom_site_fract_y
 _atom_site_fract_z
 _atom_site_occupancy
  Na  Na0  1  0.032527  0.682947  0.255255  1
  Na  Na1  1  0.967473  0.317053  0.744745  1
  Na  Na2  1  0.682947  0.032527  0.255255  1
  Na  Na3  1  0.317053  0.967473  0.744745  1
  Li  Li4  1  0.500000  0.500000  0.000000  1
  P  P5  1  0.778203  0.778203  0.756080  1
  P  P6  1  0.221797  0.221797  0.243920  1
  Au  Au7  1  0.500000  0.500000  0.500000  1
