# generated using pymatgen
data_LaSn5HgIr4
_symmetry_space_group_name_H-M   'P 1'
_cell_length_a   7.20487068
_cell_length_b   6.91048048
_cell_length_c   7.03770720
_cell_angle_alpha   119.60262098
_cell_angle_beta   120.98229465
_cell_angle_gamma   89.68248913
_symmetry_Int_Tables_number   1
_chemical_formula_structural   LaSn5HgIr4
_chemical_formula_sum   'La1 Sn5 Hg1 Ir4'
_cell_volume   246.22471486
_cell_formula_units_Z   1
loop_
 _symmetry_equiv_pos_site_id
 _symmetry_equiv_pos_as_xyz
  1  'x, y, z'
loop_
 _atom_site_type_symbol
 _atom_site_label
 _atom_site_symmetry_multiplicity
 _atom_site_fract_x
 _atom_site_fract_y
 _atom_site_fract_z
 _atom_site_occupancy
  La  La0  1  0.998785  0.994170  0.000133  1
  Sn  Sn1  1  0.540226  0.869443  0.000031  1
  Sn  Sn2  1  0.464718  0.465863  0.340274  1
  Sn  Sn3  1  0.502758  0.005830  0.507122  1
  Sn  Sn4  1  0.995582  0.498709  0.492971  1
  Sn  Sn5  1  0.124449  0.125394  0.659646  1
  Hg  Hg6  1  0.885479  0.532161  0.999882  1
  Ir  Ir7  1  0.590816  0.244271  0.000025  1
  Ir  Ir8  1  0.258711  0.606313  0.999985  1
  Ir  Ir9  1  0.756835  0.766494  0.375132  1
  Ir  Ir10  1  0.381641  0.391353  0.624801  1
