# generated using pymatgen
data_Dy6Zn5GaC2
_symmetry_space_group_name_H-M   'P 1'
_cell_length_a   9.13745218
_cell_length_b   9.13745305
_cell_length_c   9.17044000
_cell_angle_alpha   59.88050745
_cell_angle_beta   59.88050426
_cell_angle_gamma   59.76091778
_symmetry_Int_Tables_number   1
_chemical_formula_structural   Dy6Zn5GaC2
_chemical_formula_sum   'Dy12 Zn10 Ga2 C4'
_cell_volume   539.44933049
_cell_formula_units_Z   2
loop_
 _symmetry_equiv_pos_site_id
 _symmetry_equiv_pos_as_xyz
  1  'x, y, z'
loop_
 _atom_site_type_symbol
 _atom_site_label
 _atom_site_symmetry_multiplicity
 _atom_site_fract_x
 _atom_site_fract_y
 _atom_site_fract_z
 _atom_site_occupancy
  Dy  Dy0  1  0.446995  0.446995  0.053005  1
  Dy  Dy1  1  0.053086  0.447270  0.052521  1
  Dy  Dy2  1  0.447270  0.053086  0.052521  1
  Dy  Dy3  1  0.052481  0.052481  0.447519  1
  Dy  Dy4  1  0.447270  0.053086  0.447123  1
  Dy  Dy5  1  0.053086  0.447270  0.447123  1
  Dy  Dy6  1  0.803005  0.803005  0.196995  1
  Dy  Dy7  1  0.196914  0.802730  0.197479  1
  Dy  Dy8  1  0.802730  0.196914  0.197479  1
  Dy  Dy9  1  0.197519  0.197519  0.802481  1
  Dy  Dy10  1  0.802730  0.196914  0.802877  1
  Dy  Dy11  1  0.196914  0.802730  0.802877  1
  Zn  Zn12  1  0.826100  0.826100  0.518026  1
  Zn  Zn13  1  0.824571  0.519491  0.827969  1
  Zn  Zn14  1  0.519491  0.824571  0.827969  1
  Zn  Zn15  1  0.826100  0.826100  0.829776  1
  Zn  Zn16  1  0.423900  0.423900  0.731974  1
  Zn  Zn17  1  0.425429  0.730509  0.422031  1
  Zn  Zn18  1  0.730509  0.425429  0.422031  1
  Zn  Zn19  1  0.423900  0.423900  0.420224  1
  Zn  Zn20  1  0.625000  0.625000  0.125000  1
  Zn  Zn21  1  0.625000  0.625000  0.625000  1
  Ga  Ga22  1  0.625000  0.125000  0.625000  1
  Ga  Ga23  1  0.125000  0.625000  0.625000  1
  C  C24  1  0.125000  0.125000  0.625000  1
  C  C25  1  0.125000  0.625000  0.125000  1
  C  C26  1  0.625000  0.125000  0.125000  1
  C  C27  1  0.125000  0.125000  0.125000  1
