# generated using pymatgen
data_Lu8Nb11Si16Mo
_symmetry_space_group_name_H-M   'P 1'
_cell_length_a   6.80607538
_cell_length_b   7.01372193
_cell_length_c   13.28969762
_cell_angle_alpha   90.04046190
_cell_angle_beta   89.93991142
_cell_angle_gamma   89.90333588
_symmetry_Int_Tables_number   1
_chemical_formula_structural   Lu8Nb11Si16Mo
_chemical_formula_sum   'Lu8 Nb11 Si16 Mo1'
_cell_volume   634.39453383
_cell_formula_units_Z   1
loop_
 _symmetry_equiv_pos_site_id
 _symmetry_equiv_pos_as_xyz
  1  'x, y, z'
loop_
 _atom_site_type_symbol
 _atom_site_label
 _atom_site_symmetry_multiplicity
 _atom_site_fract_x
 _atom_site_fract_y
 _atom_site_fract_z
 _atom_site_occupancy
  Lu  Lu0  1  0.503120  0.327648  0.095823  1
  Lu  Lu1  1  0.001170  0.173136  0.404326  1
  Lu  Lu2  1  0.496921  0.672597  0.595331  1
  Lu  Lu3  1  0.998026  0.827528  0.903816  1
  Lu  Lu4  1  0.497178  0.672217  0.903373  1
  Lu  Lu5  1  0.997960  0.827368  0.595541  1
  Lu  Lu6  1  0.502616  0.327568  0.405620  1
  Lu  Lu7  1  0.003127  0.172871  0.095979  1
  Nb  Nb8  1  0.837992  0.325040  0.624343  1
  Nb  Nb9  1  0.337654  0.174532  0.873624  1
  Nb  Nb10  1  0.163258  0.675065  0.125477  1
  Nb  Nb11  1  0.661119  0.826781  0.375535  1
  Nb  Nb12  1  0.165203  0.675486  0.376433  1
  Nb  Nb13  1  0.663521  0.825136  0.125455  1
  Nb  Nb14  1  0.836672  0.324433  0.873328  1
  Nb  Nb15  1  0.662167  0.006692  0.748872  1
  Nb  Nb16  1  0.161768  0.493427  0.749070  1
  Nb  Nb17  1  0.337604  0.995158  0.250724  1
  Nb  Nb18  1  0.837941  0.506196  0.250323  1
  Si  Si19  1  0.660807  0.036174  0.541942  1
  Si  Si20  1  0.164518  0.464319  0.958892  1
  Si  Si21  1  0.335514  0.964725  0.040616  1
  Si  Si22  1  0.835543  0.535829  0.459106  1
  Si  Si23  1  0.333147  0.966640  0.462057  1
  Si  Si24  1  0.835446  0.535173  0.040075  1
  Si  Si25  1  0.664793  0.035112  0.959474  1
  Si  Si26  1  0.166644  0.460103  0.541843  1
  Si  Si27  1  0.538532  0.378217  0.747933  1
  Si  Si28  1  0.042902  0.120487  0.748650  1
  Si  Si29  1  0.460390  0.619958  0.250443  1
  Si  Si30  1  0.959792  0.879399  0.250653  1
  Si  Si31  1  0.794123  0.630675  0.749418  1
  Si  Si32  1  0.296331  0.869782  0.749239  1
  Si  Si33  1  0.205451  0.369438  0.250632  1
  Si  Si34  1  0.704560  0.131871  0.250022  1
  Mo  Mo35  1  0.336488  0.173220  0.626015  1
