# generated using pymatgen
data_Cs2Nd10Os2Cl17
_symmetry_space_group_name_H-M   'P 1'
_cell_length_a   9.17036368
_cell_length_b   10.76817115
_cell_length_c   10.76868000
_cell_angle_alpha   107.61946189
_cell_angle_beta   93.64814347
_cell_angle_gamma   93.66088845
_symmetry_Int_Tables_number   1
_chemical_formula_structural   Cs2Nd10Os2Cl17
_chemical_formula_sum   'Cs2 Nd10 Os2 Cl17'
_cell_volume   1007.57804164
_cell_formula_units_Z   1
loop_
 _symmetry_equiv_pos_site_id
 _symmetry_equiv_pos_as_xyz
  1  'x, y, z'
loop_
 _atom_site_type_symbol
 _atom_site_label
 _atom_site_symmetry_multiplicity
 _atom_site_fract_x
 _atom_site_fract_y
 _atom_site_fract_z
 _atom_site_occupancy
  Cs  Cs0  1  0.998030  0.815932  0.181671  1
  Cs  Cs1  1  0.998026  0.181680  0.815947  1
  Nd  Nd2  1  0.432976  0.155155  0.155152  1
  Nd  Nd3  1  0.577162  0.513604  0.197982  1
  Nd  Nd4  1  0.840171  0.285638  0.285663  1
  Nd  Nd5  1  0.295953  0.432629  0.432635  1
  Nd  Nd6  1  0.422720  0.808712  0.483208  1
  Nd  Nd7  1  0.577107  0.198010  0.513598  1
  Nd  Nd8  1  0.703621  0.573534  0.573503  1
  Nd  Nd9  1  0.164345  0.712345  0.712388  1
  Nd  Nd10  1  0.422691  0.483198  0.808712  1
  Nd  Nd11  1  0.565444  0.842540  0.842525  1
  Os  Os12  1  0.572106  0.358120  0.358120  1
  Os  Os13  1  0.429620  0.642394  0.642418  1
  Cl  Cl14  1  0.580906  0.684605  0.018861  1
  Cl  Cl15  1  0.713395  0.068428  0.068413  1
  Cl  Cl16  1  0.856814  0.448418  0.121846  1
  Cl  Cl17  1  0.132659  0.200029  0.200000  1
  Cl  Cl18  1  0.289362  0.608055  0.256057  1
  Cl  Cl19  1  0.419650  0.983655  0.311697  1
  Cl  Cl20  1  0.710221  0.744808  0.393292  1
  Cl  Cl21  1  0.856724  0.121825  0.448384  1
  Cl  Cl22  1  0.999788  0.500025  0.500103  1
  Cl  Cl23  1  0.142950  0.877913  0.548779  1
  Cl  Cl24  1  0.289310  0.256031  0.608081  1
  Cl  Cl25  1  0.580866  0.018899  0.684609  1
  Cl  Cl26  1  0.710191  0.393293  0.744765  1
  Cl  Cl27  1  0.867881  0.799709  0.799633  1
  Cl  Cl28  1  0.142919  0.548778  0.877945  1
  Cl  Cl29  1  0.286719  0.930320  0.930334  1
  Cl  Cl30  1  0.419675  0.311716  0.983681  1
