# generated using pymatgen
data_ZrGeBr6
_symmetry_space_group_name_H-M   'P 1'
_cell_length_a   7.04223000
_cell_length_b   7.04222857
_cell_length_c   6.86113800
_cell_angle_alpha   90.00000000
_cell_angle_beta   90.00000000
_cell_angle_gamma   119.99999734
_symmetry_Int_Tables_number   1
_chemical_formula_structural   ZrGeBr6
_chemical_formula_sum   'Zr1 Ge1 Br6'
_cell_volume   294.67759687
_cell_formula_units_Z   1
loop_
 _symmetry_equiv_pos_site_id
 _symmetry_equiv_pos_as_xyz
  1  'x, y, z'
loop_
 _atom_site_type_symbol
 _atom_site_label
 _atom_site_symmetry_multiplicity
 _atom_site_fract_x
 _atom_site_fract_y
 _atom_site_fract_z
 _atom_site_occupancy
  Zr  Zr0  1  0.333333  0.666667  0.000000  1
  Ge  Ge1  1  0.666667  0.333333  0.000000  1
  Br  Br2  1  0.630256  0.647209  0.225083  1
  Br  Br3  1  0.352791  0.369744  0.774917  1
  Br  Br4  1  0.016953  0.369744  0.225083  1
  Br  Br5  1  0.352791  0.983047  0.225083  1
  Br  Br6  1  0.630256  0.983047  0.774917  1
  Br  Br7  1  0.016953  0.647209  0.774917  1
