# generated using pymatgen
data_Tm4Al18NiRh5
_symmetry_space_group_name_H-M   'P 1'
_cell_length_a   7.53165789
_cell_length_b   7.53165760
_cell_length_c   9.39660596
_cell_angle_alpha   90.17139455
_cell_angle_beta   90.17140112
_cell_angle_gamma   119.74566041
_symmetry_Int_Tables_number   1
_chemical_formula_structural   Tm4Al18NiRh5
_chemical_formula_sum   'Tm4 Al18 Ni1 Rh5'
_cell_volume   462.78837554
_cell_formula_units_Z   1
loop_
 _symmetry_equiv_pos_site_id
 _symmetry_equiv_pos_as_xyz
  1  'x, y, z'
loop_
 _atom_site_type_symbol
 _atom_site_label
 _atom_site_symmetry_multiplicity
 _atom_site_fract_x
 _atom_site_fract_y
 _atom_site_fract_z
 _atom_site_occupancy
  Tm  Tm0  1  0.994620  0.668982  0.249619  1
  Tm  Tm1  1  0.005380  0.331018  0.750381  1
  Tm  Tm2  1  0.668982  0.994620  0.249619  1
  Tm  Tm3  1  0.331018  0.005380  0.750381  1
  Al  Al4  1  0.122972  0.122972  0.246873  1
  Al  Al5  1  0.877028  0.877028  0.753127  1
  Al  Al6  1  0.999249  0.332112  0.075250  1
  Al  Al7  1  0.000751  0.667888  0.924750  1
  Al  Al8  1  0.000010  0.665967  0.575781  1
  Al  Al9  1  0.334033  0.999990  0.424219  1
  Al  Al10  1  0.999990  0.334033  0.424219  1
  Al  Al11  1  0.665967  0.000010  0.575781  1
  Al  Al12  1  0.667888  0.000751  0.924750  1
  Al  Al13  1  0.332112  0.999249  0.075250  1
  Al  Al14  1  0.332963  0.332963  0.552334  1
  Al  Al15  1  0.667037  0.667037  0.447666  1
  Al  Al16  1  0.669830  0.669830  0.050861  1
  Al  Al17  1  0.330170  0.330170  0.949139  1
  Al  Al18  1  0.338903  0.548648  0.249511  1
  Al  Al19  1  0.661097  0.451352  0.750489  1
  Al  Al20  1  0.548648  0.338903  0.249511  1
  Al  Al21  1  0.451352  0.661097  0.750489  1
  Ni  Ni22  1  0.000000  0.000000  0.000000  1
  Rh  Rh23  1  0.672252  0.327748  0.000000  1
  Rh  Rh24  1  0.327748  0.672252  0.000000  1
  Rh  Rh25  1  0.327609  0.672391  0.500000  1
  Rh  Rh26  1  0.672391  0.327609  0.500000  1
  Rh  Rh27  1  0.000000  0.000000  0.500000  1
