# generated using pymatgen
data_CaYb11Si11Ag12Ge
_symmetry_space_group_name_H-M   'P 1'
_cell_length_a   4.51615000
_cell_length_b   7.70684934
_cell_length_c   21.32252204
_cell_angle_alpha   90.02069177
_cell_angle_beta   90.00000000
_cell_angle_gamma   90.00000000
_symmetry_Int_Tables_number   1
_chemical_formula_structural   CaYb11Si11Ag12Ge
_chemical_formula_sum   'Ca1 Yb11 Si11 Ag12 Ge1'
_cell_volume   742.13646494
_cell_formula_units_Z   1
loop_
 _symmetry_equiv_pos_site_id
 _symmetry_equiv_pos_as_xyz
  1  'x, y, z'
loop_
 _atom_site_type_symbol
 _atom_site_label
 _atom_site_symmetry_multiplicity
 _atom_site_fract_x
 _atom_site_fract_y
 _atom_site_fract_z
 _atom_site_occupancy
  Ca  Ca0  1  0.750000  0.706597  0.832796  1
  Yb  Yb1  1  0.250000  0.219292  0.000263  1
  Yb  Yb2  1  0.250000  0.278116  0.499930  1
  Yb  Yb3  1  0.750000  0.780766  0.000652  1
  Yb  Yb4  1  0.750000  0.719749  0.499204  1
  Yb  Yb5  1  0.250000  0.204734  0.333339  1
  Yb  Yb6  1  0.250000  0.295504  0.833514  1
  Yb  Yb7  1  0.750000  0.796637  0.666545  1
  Yb  Yb8  1  0.750000  0.704401  0.166626  1
  Yb  Yb9  1  0.250000  0.207677  0.666854  1
  Yb  Yb10  1  0.250000  0.292095  0.167382  1
  Yb  Yb11  1  0.750000  0.791511  0.332454  1
  Si  Si12  1  0.250000  0.580757  0.724583  1
  Si  Si13  1  0.250000  0.919039  0.224583  1
  Si  Si14  1  0.750000  0.419114  0.275366  1
  Si  Si15  1  0.750000  0.081060  0.775538  1
  Si  Si16  1  0.250000  0.913403  0.106683  1
  Si  Si17  1  0.250000  0.586860  0.606968  1
  Si  Si18  1  0.750000  0.087130  0.893425  1
  Si  Si19  1  0.750000  0.413145  0.393268  1
  Si  Si20  1  0.250000  0.591121  0.928771  1
  Si  Si21  1  0.250000  0.909261  0.428505  1
  Si  Si22  1  0.750000  0.409243  0.071656  1
  Ag  Ag23  1  0.250000  0.913766  0.761514  1
  Ag  Ag24  1  0.250000  0.588263  0.262135  1
  Ag  Ag25  1  0.750000  0.088230  0.237832  1
  Ag  Ag26  1  0.750000  0.409303  0.736775  1
  Ag  Ag27  1  0.250000  0.920286  0.906612  1
  Ag  Ag28  1  0.250000  0.580936  0.405804  1
  Ag  Ag29  1  0.750000  0.081368  0.094386  1
  Ag  Ag30  1  0.750000  0.426499  0.594448  1
  Ag  Ag31  1  0.250000  0.908906  0.564146  1
  Ag  Ag32  1  0.250000  0.583781  0.065612  1
  Ag  Ag33  1  0.750000  0.083481  0.432494  1
  Ag  Ag34  1  0.750000  0.415449  0.935914  1
  Ge  Ge35  1  0.750000  0.092517  0.573427  1
