# generated using pymatgen
data_Dy2MgInRh2
_symmetry_space_group_name_H-M   'P 1'
_cell_length_a   4.10477900
_cell_length_b   7.12646900
_cell_length_c   8.65826900
_cell_angle_alpha   90.00000000
_cell_angle_beta   90.00000000
_cell_angle_gamma   90.00000000
_symmetry_Int_Tables_number   1
_chemical_formula_structural   Dy2MgInRh2
_chemical_formula_sum   'Dy4 Mg2 In2 Rh4'
_cell_volume   253.27670914
_cell_formula_units_Z   2
loop_
 _symmetry_equiv_pos_site_id
 _symmetry_equiv_pos_as_xyz
  1  'x, y, z'
loop_
 _atom_site_type_symbol
 _atom_site_label
 _atom_site_symmetry_multiplicity
 _atom_site_fract_x
 _atom_site_fract_y
 _atom_site_fract_z
 _atom_site_occupancy
  Dy  Dy0  1  0.250000  0.040040  0.324348  1
  Dy  Dy1  1  0.250000  0.540040  0.175652  1
  Dy  Dy2  1  0.750000  0.961230  0.676900  1
  Dy  Dy3  1  0.750000  0.461230  0.823100  1
  Mg  Mg4  1  0.250000  0.137479  0.940764  1
  Mg  Mg5  1  0.250000  0.637479  0.559236  1
  In  In6  1  0.750000  0.864299  0.059099  1
  In  In7  1  0.750000  0.364299  0.440901  1
  Rh  Rh8  1  0.250000  0.245933  0.632770  1
  Rh  Rh9  1  0.250000  0.745933  0.867230  1
  Rh  Rh10  1  0.750000  0.751017  0.370253  1
  Rh  Rh11  1  0.750000  0.251017  0.129747  1
