# generated using pymatgen
data_YbHoEr2(Ga3Ir)6
_symmetry_space_group_name_H-M   'P 1'
_cell_length_a   7.57337339
_cell_length_b   7.56764080
_cell_length_c   9.50381600
_cell_angle_alpha   90.00000000
_cell_angle_beta   90.00000000
_cell_angle_gamma   119.87194732
_symmetry_Int_Tables_number   1
_chemical_formula_structural   YbHoEr2(Ga3Ir)6
_chemical_formula_sum   'Yb1 Ho1 Er2 Ga18 Ir6'
_cell_volume   472.32123902
_cell_formula_units_Z   1
loop_
 _symmetry_equiv_pos_site_id
 _symmetry_equiv_pos_as_xyz
  1  'x, y, z'
loop_
 _atom_site_type_symbol
 _atom_site_label
 _atom_site_symmetry_multiplicity
 _atom_site_fract_x
 _atom_site_fract_y
 _atom_site_fract_z
 _atom_site_occupancy
  Yb  Yb0  1  0.667817  0.996981  0.750000  1
  Ho  Ho1  1  0.997470  0.667926  0.750000  1
  Er  Er2  1  0.002271  0.331943  0.250000  1
  Er  Er3  1  0.332103  0.002244  0.250000  1
  Ga  Ga4  1  0.126986  0.126765  0.750000  1
  Ga  Ga5  1  0.872948  0.873012  0.250000  1
  Ga  Ga6  1  0.998688  0.333209  0.580584  1
  Ga  Ga7  1  0.001032  0.665708  0.418901  1
  Ga  Ga8  1  0.001032  0.665708  0.081099  1
  Ga  Ga9  1  0.335152  0.999686  0.919134  1
  Ga  Ga10  1  0.998688  0.333209  0.919416  1
  Ga  Ga11  1  0.665536  0.000658  0.080380  1
  Ga  Ga12  1  0.665536  0.000658  0.419620  1
  Ga  Ga13  1  0.335152  0.999686  0.580866  1
  Ga  Ga14  1  0.332129  0.332152  0.065409  1
  Ga  Ga15  1  0.667507  0.668523  0.935868  1
  Ga  Ga16  1  0.667507  0.668523  0.564132  1
  Ga  Ga17  1  0.332129  0.332152  0.434591  1
  Ga  Ga18  1  0.338485  0.546719  0.750000  1
  Ga  Ga19  1  0.661190  0.453350  0.250000  1
  Ga  Ga20  1  0.546660  0.338528  0.750000  1
  Ga  Ga21  1  0.453624  0.661383  0.250000  1
  Ir  Ir22  1  0.671319  0.328812  0.499311  1
  Ir  Ir23  1  0.328180  0.670986  0.499598  1
  Ir  Ir24  1  0.328180  0.670986  0.000402  1
  Ir  Ir25  1  0.671319  0.328812  0.000689  1
  Ir  Ir26  1  0.000682  0.000839  0.499161  1
  Ir  Ir27  1  0.000682  0.000839  0.000839  1
