# generated using pymatgen
data_Yb3HoIr8
_symmetry_space_group_name_H-M   'P 1'
_cell_length_a   5.33071213
_cell_length_b   5.33071259
_cell_length_c   8.69145710
_cell_angle_alpha   89.99911325
_cell_angle_beta   90.00087563
_cell_angle_gamma   119.99981592
_symmetry_Int_Tables_number   1
_chemical_formula_structural   Yb3HoIr8
_chemical_formula_sum   'Yb3 Ho1 Ir8'
_cell_volume   213.89199228
_cell_formula_units_Z   1
loop_
 _symmetry_equiv_pos_site_id
 _symmetry_equiv_pos_as_xyz
  1  'x, y, z'
loop_
 _atom_site_type_symbol
 _atom_site_label
 _atom_site_symmetry_multiplicity
 _atom_site_fract_x
 _atom_site_fract_y
 _atom_site_fract_z
 _atom_site_occupancy
  Yb  Yb0  1  0.333347  0.666653  0.426403  1
  Yb  Yb1  1  0.333355  0.666645  0.068034  1
  Yb  Yb2  1  0.666674  0.333326  0.938133  1
  Ho  Ho3  1  0.666665  0.333335  0.570163  1
  Ir  Ir4  1  0.000028  0.999972  0.498846  1
  Ir  Ir5  1  0.000031  0.999969  0.999873  1
  Ir  Ir6  1  0.170878  0.341842  0.748772  1
  Ir  Ir7  1  0.170919  0.829081  0.748774  1
  Ir  Ir8  1  0.658158  0.829122  0.748772  1
  Ir  Ir9  1  0.829286  0.658562  0.250731  1
  Ir  Ir10  1  0.829222  0.170778  0.250768  1
  Ir  Ir11  1  0.341438  0.170714  0.250731  1
