# generated using pymatgen
data_PrTm3(CBr)2
_symmetry_space_group_name_H-M   'P 1'
_cell_length_a   3.66968400
_cell_length_b   3.66968487
_cell_length_c   14.31081400
_cell_angle_alpha   90.00000000
_cell_angle_beta   90.00000000
_cell_angle_gamma   120.00001015
_symmetry_Int_Tables_number   1
_chemical_formula_structural   PrTm3(CBr)2
_chemical_formula_sum   'Pr1 Tm3 C2 Br2'
_cell_volume   166.89847353
_cell_formula_units_Z   1
loop_
 _symmetry_equiv_pos_site_id
 _symmetry_equiv_pos_as_xyz
  1  'x, y, z'
loop_
 _atom_site_type_symbol
 _atom_site_label
 _atom_site_symmetry_multiplicity
 _atom_site_fract_x
 _atom_site_fract_y
 _atom_site_fract_z
 _atom_site_occupancy
  Pr  Pr0  1  0.333333  0.666667  0.409466  1
  Tm  Tm1  1  0.333333  0.666667  0.083335  1
  Tm  Tm2  1  0.666667  0.333333  0.594621  1
  Tm  Tm3  1  0.666667  0.333333  0.910573  1
  C  C4  1  0.000000  0.000000  0.996332  1
  C  C5  1  0.000000  0.000000  0.516980  1
  Br  Br6  1  0.666667  0.333333  0.232438  1
  Br  Br7  1  0.333333  0.666667  0.756256  1
