# generated using pymatgen
data_RbNa5(ZnH3)6
_symmetry_space_group_name_H-M   'P 1'
_cell_length_a   7.34734287
_cell_length_b   7.34734421
_cell_length_c   10.17132700
_cell_angle_alpha   89.53126286
_cell_angle_beta   89.53126277
_cell_angle_gamma   121.21425123
_symmetry_Int_Tables_number   1
_chemical_formula_structural   RbNa5(ZnH3)6
_chemical_formula_sum   'Rb1 Na5 Zn6 H18'
_cell_volume   469.53030658
_cell_formula_units_Z   1
loop_
 _symmetry_equiv_pos_site_id
 _symmetry_equiv_pos_as_xyz
  1  'x, y, z'
loop_
 _atom_site_type_symbol
 _atom_site_label
 _atom_site_symmetry_multiplicity
 _atom_site_fract_x
 _atom_site_fract_y
 _atom_site_fract_z
 _atom_site_occupancy
  Rb  Rb0  1  0.822139  0.177861  0.000000  1
  Na  Na1  1  0.501355  0.498645  0.500000  1
  Na  Na2  1  0.177213  0.822787  0.500000  1
  Na  Na3  1  0.829385  0.170615  0.500000  1
  Na  Na4  1  0.496236  0.503764  0.000000  1
  Na  Na5  1  0.161843  0.838157  0.000000  1
  Zn  Zn6  1  0.091567  0.084618  0.737114  1
  Zn  Zn7  1  0.833221  0.594127  0.743856  1
  Zn  Zn8  1  0.578687  0.822545  0.738149  1
  Zn  Zn9  1  0.915382  0.908433  0.262886  1
  Zn  Zn10  1  0.405873  0.166779  0.256144  1
  Zn  Zn11  1  0.177455  0.421313  0.261851  1
  H  H12  1  0.188990  0.190949  0.593941  1
  H  H13  1  0.833364  0.473002  0.611203  1
  H  H14  1  0.487373  0.835686  0.595867  1
  H  H15  1  0.604530  0.603724  0.732304  1
  H  H16  1  0.064805  0.837980  0.731245  1
  H  H17  1  0.835385  0.044613  0.739546  1
  H  H18  1  0.830609  0.527947  0.897628  1
  H  H19  1  0.467119  0.804784  0.881275  1
  H  H20  1  0.192009  0.175855  0.881422  1
  H  H21  1  0.824145  0.807991  0.118578  1
  H  H22  1  0.472053  0.169391  0.102372  1
  H  H23  1  0.195216  0.532881  0.118725  1
  H  H24  1  0.396276  0.395470  0.267696  1
  H  H25  1  0.162020  0.935195  0.268755  1
  H  H26  1  0.955387  0.164615  0.260454  1
  H  H27  1  0.526998  0.166636  0.388797  1
  H  H28  1  0.164314  0.512627  0.404133  1
  H  H29  1  0.809051  0.811010  0.406059  1
