# generated using pymatgen
data_Y3Er9Co4BiRu
_symmetry_space_group_name_H-M   'P 1'
_cell_length_a   8.28419443
_cell_length_b   8.28419490
_cell_length_c   8.27092332
_cell_angle_alpha   110.67623608
_cell_angle_beta   110.96284601
_cell_angle_gamma   106.87528933
_symmetry_Int_Tables_number   1
_chemical_formula_structural   Y3Er9Co4BiRu
_chemical_formula_sum   'Y3 Er9 Co4 Bi1 Ru1'
_cell_volume   435.89365720
_cell_formula_units_Z   1
loop_
 _symmetry_equiv_pos_site_id
 _symmetry_equiv_pos_as_xyz
  1  'x, y, z'
loop_
 _atom_site_type_symbol
 _atom_site_label
 _atom_site_symmetry_multiplicity
 _atom_site_fract_x
 _atom_site_fract_y
 _atom_site_fract_z
 _atom_site_occupancy
  Y  Y0  1  0.284941  0.184474  0.469415  1
  Y  Y1  1  0.715468  0.816006  0.531474  1
  Y  Y2  1  0.285198  0.815488  0.100686  1
  Er  Er3  1  0.715548  0.182579  0.898125  1
  Er  Er4  1  0.621490  0.311148  0.309168  1
  Er  Er5  1  0.379094  0.689193  0.690392  1
  Er  Er6  1  0.001200  0.311297  0.690392  1
  Er  Er7  1  0.998018  0.687678  0.309168  1
  Er  Er8  1  0.210593  0.406641  0.194910  1
  Er  Er9  1  0.788401  0.592191  0.804504  1
  Er  Er10  1  0.212311  0.016103  0.804504  1
  Er  Er11  1  0.788270  0.984317  0.194910  1
  Co  Co12  1  0.999634  0.375684  0.375318  1
  Co  Co13  1  0.999654  0.624119  0.623773  1
  Co  Co14  1  0.389442  0.889899  0.502345  1
  Co  Co15  1  0.612445  0.112903  0.502345  1
  Bi  Bi16  1  0.499771  0.500237  0.000008  1
  Ru  Ru17  1  0.998523  0.000043  0.998566  1
