# generated using pymatgen
data_Dy7NiSn23Ru5
_symmetry_space_group_name_H-M   'P 1'
_cell_length_a   9.81651802
_cell_length_b   9.81651665
_cell_length_c   10.06360400
_cell_angle_alpha   90.02617747
_cell_angle_beta   89.97382253
_cell_angle_gamma   119.98085604
_symmetry_Int_Tables_number   1
_chemical_formula_structural   Dy7NiSn23Ru5
_chemical_formula_sum   'Dy7 Ni1 Sn23 Ru5'
_cell_volume   840.00666615
_cell_formula_units_Z   1
loop_
 _symmetry_equiv_pos_site_id
 _symmetry_equiv_pos_as_xyz
  1  'x, y, z'
loop_
 _atom_site_type_symbol
 _atom_site_label
 _atom_site_symmetry_multiplicity
 _atom_site_fract_x
 _atom_site_fract_y
 _atom_site_fract_z
 _atom_site_occupancy
  Dy  Dy0  1  0.005684  0.994316  0.993736  1
  Dy  Dy1  1  0.516548  0.483452  0.696141  1
  Dy  Dy2  1  0.516609  0.033134  0.695832  1
  Dy  Dy3  1  0.966866  0.483391  0.695832  1
  Dy  Dy4  1  0.034855  0.519203  0.305957  1
  Dy  Dy5  1  0.480797  0.965145  0.305957  1
  Dy  Dy6  1  0.481923  0.518077  0.304242  1
  Ni  Ni7  1  0.828634  0.171366  0.200162  1
  Sn  Sn8  1  0.665847  0.334153  0.181755  1
  Sn  Sn9  1  0.666345  0.333655  0.876745  1
  Sn  Sn10  1  0.332847  0.667153  0.124522  1
  Sn  Sn11  1  0.349536  0.348989  0.999885  1
  Sn  Sn12  1  0.998832  0.648372  0.000173  1
  Sn  Sn13  1  0.653183  0.000675  0.002826  1
  Sn  Sn14  1  0.651011  0.650464  0.999885  1
  Sn  Sn15  1  0.333432  0.666568  0.819987  1
  Sn  Sn16  1  0.439795  0.220736  0.460941  1
  Sn  Sn17  1  0.220338  0.779662  0.540157  1
  Sn  Sn18  1  0.219719  0.439361  0.539559  1
  Sn  Sn19  1  0.560639  0.780281  0.539559  1
  Sn  Sn20  1  0.119073  0.880927  0.274076  1
  Sn  Sn21  1  0.779264  0.560205  0.460941  1
  Sn  Sn22  1  0.780662  0.219338  0.457349  1
  Sn  Sn23  1  0.351628  0.001168  0.000173  1
  Sn  Sn24  1  0.113313  0.235316  0.272513  1
  Sn  Sn25  1  0.764684  0.886687  0.272513  1
  Sn  Sn26  1  0.236518  0.118214  0.725002  1
  Sn  Sn27  1  0.881786  0.763482  0.725002  1
  Sn  Sn28  1  0.881615  0.118385  0.726023  1
  Sn  Sn29  1  0.000007  0.999993  0.497637  1
  Sn  Sn30  1  0.999325  0.346817  0.002826  1
  Ru  Ru31  1  0.169105  0.830895  0.800511  1
  Ru  Ru32  1  0.168787  0.338210  0.799275  1
  Ru  Ru33  1  0.661790  0.831213  0.799275  1
  Ru  Ru34  1  0.338415  0.169412  0.201517  1
  Ru  Ru35  1  0.830588  0.661585  0.201517  1
