# generated using pymatgen
data_BaNb8NiSe16
_symmetry_space_group_name_H-M   'P 1'
_cell_length_a   6.95911911
_cell_length_b   6.95946466
_cell_length_c   14.63574600
_cell_angle_alpha   89.99096863
_cell_angle_beta   89.98993080
_cell_angle_gamma   119.99953819
_symmetry_Int_Tables_number   1
_chemical_formula_structural   BaNb8NiSe16
_chemical_formula_sum   'Ba1 Nb8 Ni1 Se16'
_cell_volume   613.87167670
_cell_formula_units_Z   1
loop_
 _symmetry_equiv_pos_site_id
 _symmetry_equiv_pos_as_xyz
  1  'x, y, z'
loop_
 _atom_site_type_symbol
 _atom_site_label
 _atom_site_symmetry_multiplicity
 _atom_site_fract_x
 _atom_site_fract_y
 _atom_site_fract_z
 _atom_site_occupancy
  Ba  Ba0  1  0.000000  0.000000  0.500000  1
  Nb  Nb1  1  0.000182  0.000136  0.214299  1
  Nb  Nb2  1  0.999818  0.999864  0.785701  1
  Nb  Nb3  1  0.507925  0.015649  0.213424  1
  Nb  Nb4  1  0.984651  0.492369  0.213435  1
  Nb  Nb5  1  0.507927  0.492365  0.213427  1
  Nb  Nb6  1  0.492075  0.984351  0.786576  1
  Nb  Nb7  1  0.015349  0.507631  0.786565  1
  Nb  Nb8  1  0.492073  0.507635  0.786573  1
  Ni  Ni9  1  0.000000  0.000000  0.000000  1
  Se  Se10  1  0.333146  0.666521  0.904909  1
  Se  Se11  1  0.666854  0.333479  0.095091  1
  Se  Se12  1  0.666731  0.333364  0.335014  1
  Se  Se13  1  0.333269  0.666636  0.664986  1
  Se  Se14  1  0.169246  0.831046  0.327504  1
  Se  Se15  1  0.169225  0.338238  0.327502  1
  Se  Se16  1  0.661962  0.831012  0.327497  1
  Se  Se17  1  0.830754  0.168954  0.672496  1
  Se  Se18  1  0.830775  0.661762  0.672498  1
  Se  Se19  1  0.338038  0.168988  0.672503  1
  Se  Se20  1  0.831204  0.168444  0.898739  1
  Se  Se21  1  0.831221  0.662680  0.898745  1
  Se  Se22  1  0.337060  0.168466  0.898740  1
  Se  Se23  1  0.168796  0.831556  0.101261  1
  Se  Se24  1  0.168779  0.337320  0.101255  1
  Se  Se25  1  0.662940  0.831534  0.101260  1
