# generated using pymatgen
data_Er5Tc2BC6
_symmetry_space_group_name_H-M   'P 1'
_cell_length_a   8.24567529
_cell_length_b   8.24567507
_cell_length_c   3.40378600
_cell_angle_alpha   90.00000000
_cell_angle_beta   90.00000000
_cell_angle_gamma   121.99893142
_symmetry_Int_Tables_number   1
_chemical_formula_structural   Er5Tc2BC6
_chemical_formula_sum   'Er5 Tc2 B1 C6'
_cell_volume   196.26381540
_cell_formula_units_Z   1
loop_
 _symmetry_equiv_pos_site_id
 _symmetry_equiv_pos_as_xyz
  1  'x, y, z'
loop_
 _atom_site_type_symbol
 _atom_site_label
 _atom_site_symmetry_multiplicity
 _atom_site_fract_x
 _atom_site_fract_y
 _atom_site_fract_z
 _atom_site_occupancy
  Er  Er0  1  0.500000  0.500000  0.000000  1
  Er  Er1  1  0.079517  0.331713  0.500000  1
  Er  Er2  1  0.920483  0.668287  0.500000  1
  Er  Er3  1  0.668287  0.920483  0.500000  1
  Er  Er4  1  0.331713  0.079517  0.500000  1
  Tc  Tc5  1  0.713887  0.286113  0.000000  1
  Tc  Tc6  1  0.286113  0.713887  0.000000  1
  B  B7  1  0.000000  0.000000  0.000000  1
  C  C8  1  0.626287  0.373713  0.500000  1
  C  C9  1  0.373713  0.626287  0.500000  1
  C  C10  1  0.183606  0.183606  0.000000  1
  C  C11  1  0.816394  0.816394  0.000000  1
  C  C12  1  0.000000  0.500000  0.000000  1
  C  C13  1  0.500000  0.000000  0.000000  1
