# generated using pymatgen
data_Yb4Tc3B16Os
_symmetry_space_group_name_H-M   'P 1'
_cell_length_a   3.54845200
_cell_length_b   5.97690171
_cell_length_c   11.55879736
_cell_angle_alpha   89.94430456
_cell_angle_beta   90.00000000
_cell_angle_gamma   90.00000000
_symmetry_Int_Tables_number   1
_chemical_formula_structural   Yb4Tc3B16Os
_chemical_formula_sum   'Yb4 Tc3 B16 Os1'
_cell_volume   245.14751407
_cell_formula_units_Z   1
loop_
 _symmetry_equiv_pos_site_id
 _symmetry_equiv_pos_as_xyz
  1  'x, y, z'
loop_
 _atom_site_type_symbol
 _atom_site_label
 _atom_site_symmetry_multiplicity
 _atom_site_fract_x
 _atom_site_fract_y
 _atom_site_fract_z
 _atom_site_occupancy
  Yb  Yb0  1  0.000000  0.129131  0.651094  1
  Yb  Yb1  1  0.000000  0.871540  0.349205  1
  Yb  Yb2  1  0.000000  0.628572  0.850172  1
  Yb  Yb3  1  0.000000  0.371564  0.149915  1
  Tc  Tc4  1  0.000000  0.129656  0.916937  1
  Tc  Tc5  1  0.000000  0.870765  0.083784  1
  Tc  Tc6  1  0.000000  0.632552  0.583708  1
  B  B7  1  0.500000  0.475890  0.692451  1
  B  B8  1  0.500000  0.523935  0.307701  1
  B  B9  1  0.500000  0.976596  0.807173  1
  B  B10  1  0.500000  0.023647  0.193126  1
  B  B11  1  0.500000  0.285316  0.815107  1
  B  B12  1  0.500000  0.714255  0.185147  1
  B  B13  1  0.500000  0.785185  0.685019  1
  B  B14  1  0.500000  0.215457  0.315181  1
  B  B15  1  0.500000  0.365659  0.967926  1
  B  B16  1  0.500000  0.634108  0.032227  1
  B  B17  1  0.500000  0.864873  0.531374  1
  B  B18  1  0.500000  0.135753  0.468307  1
  B  B19  1  0.500000  0.385159  0.546957  1
  B  B20  1  0.500000  0.612557  0.451618  1
  B  B21  1  0.500000  0.885353  0.952589  1
  B  B22  1  0.500000  0.114157  0.047683  1
  Os  Os23  1  0.000000  0.368321  0.415599  1
