# generated using pymatgen
data_Ca2DyEr5(B6Ru)4
_symmetry_space_group_name_H-M   'P 1'
_cell_length_a   3.64069900
_cell_length_b   9.12748225
_cell_length_c   11.52845500
_cell_angle_alpha   89.80788839
_cell_angle_beta   90.00000000
_cell_angle_gamma   90.00000000
_symmetry_Int_Tables_number   1
_chemical_formula_structural   Ca2DyEr5(B6Ru)4
_chemical_formula_sum   'Ca2 Dy1 Er5 B24 Ru4'
_cell_volume   383.09319612
_cell_formula_units_Z   1
loop_
 _symmetry_equiv_pos_site_id
 _symmetry_equiv_pos_as_xyz
  1  'x, y, z'
loop_
 _atom_site_type_symbol
 _atom_site_label
 _atom_site_symmetry_multiplicity
 _atom_site_fract_x
 _atom_site_fract_y
 _atom_site_fract_z
 _atom_site_occupancy
  Ca  Ca0  1  0.000000  0.324020  0.415061  1
  Ca  Ca1  1  0.000000  0.675969  0.584992  1
  Dy  Dy2  1  0.000000  0.822443  0.085961  1
  Er  Er3  1  0.000000  0.177663  0.914004  1
  Er  Er4  1  0.000000  0.942008  0.369398  1
  Er  Er5  1  0.000000  0.058109  0.630654  1
  Er  Er6  1  0.000000  0.442500  0.130552  1
  Er  Er7  1  0.000000  0.557267  0.869333  1
  B  B8  1  0.500000  0.554457  0.431893  1
  B  B9  1  0.500000  0.445418  0.568222  1
  B  B10  1  0.500000  0.054088  0.066379  1
  B  B11  1  0.500000  0.946501  0.933273  1
  B  B12  1  0.500000  0.748563  0.417051  1
  B  B13  1  0.500000  0.251438  0.583101  1
  B  B14  1  0.500000  0.248538  0.080665  1
  B  B15  1  0.500000  0.751512  0.918807  1
  B  B16  1  0.500000  0.791451  0.264156  1
  B  B17  1  0.500000  0.208323  0.736247  1
  B  B18  1  0.500000  0.289965  0.233605  1
  B  B19  1  0.500000  0.710086  0.766257  1
  B  B20  1  0.500000  0.631263  0.184648  1
  B  B21  1  0.500000  0.368338  0.815630  1
  B  B22  1  0.500000  0.130219  0.313430  1
  B  B23  1  0.500000  0.869966  0.686576  1
  B  B24  1  0.500000  0.983275  0.211258  1
  B  B25  1  0.500000  0.017315  0.788858  1
  B  B26  1  0.500000  0.484129  0.287494  1
  B  B27  1  0.500000  0.515671  0.712553  1
  B  B28  1  0.500000  0.602825  0.028162  1
  B  B29  1  0.500000  0.396489  0.971634  1
  B  B30  1  0.500000  0.098534  0.472873  1
  B  B31  1  0.500000  0.901545  0.527195  1
  Ru  Ru32  1  0.000000  0.640715  0.317696  1
  Ru  Ru33  1  0.000000  0.359009  0.682574  1
  Ru  Ru34  1  0.000000  0.136949  0.177539  1
  Ru  Ru35  1  0.000000  0.863439  0.822270  1
