# generated using pymatgen
data_Dy5As10P2Ru6Rh13
_symmetry_space_group_name_H-M   'P 1'
_cell_length_a   13.03431421
_cell_length_b   13.01735623
_cell_length_c   3.99132700
_cell_angle_alpha   90.00000000
_cell_angle_beta   90.00000000
_cell_angle_gamma   119.95735589
_symmetry_Int_Tables_number   1
_chemical_formula_structural   Dy5As10P2Ru6Rh13
_chemical_formula_sum   'Dy5 As10 P2 Ru6 Rh13'
_cell_volume   586.73956981
_cell_formula_units_Z   1
loop_
 _symmetry_equiv_pos_site_id
 _symmetry_equiv_pos_as_xyz
  1  'x, y, z'
loop_
 _atom_site_type_symbol
 _atom_site_label
 _atom_site_symmetry_multiplicity
 _atom_site_fract_x
 _atom_site_fract_y
 _atom_site_fract_z
 _atom_site_occupancy
  Dy  Dy0  1  0.669625  0.332474  0.000000  1
  Dy  Dy1  1  0.332950  0.666465  0.000000  1
  Dy  Dy2  1  0.817766  0.001687  0.500000  1
  Dy  Dy3  1  0.180344  0.186149  0.500000  1
  Dy  Dy4  1  0.996073  0.815007  0.500000  1
  As  As5  1  0.639007  0.999794  0.000000  1
  As  As6  1  0.364780  0.364940  0.000000  1
  As  As7  1  0.000647  0.634987  0.000000  1
  As  As8  1  0.684305  0.519891  0.500000  1
  As  As9  1  0.836792  0.314261  0.500000  1
  As  As10  1  0.319749  0.836380  0.500000  1
  As  As11  1  0.519603  0.685825  0.500000  1
  As  As12  1  0.174386  0.000092  0.000000  1
  As  As13  1  0.480266  0.165074  0.500000  1
  As  As14  1  0.160331  0.478717  0.500000  1
  P  P15  1  0.818490  0.818852  0.000000  1
  P  P16  1  0.994747  0.178003  0.000000  1
  Ru  Ru17  1  0.518405  0.874121  0.500000  1
  Ru  Ru18  1  0.725079  0.724635  0.500000  1
  Ru  Ru19  1  0.000460  0.275419  0.500000  1
  Ru  Ru20  1  0.004530  0.448302  0.000000  1
  Ru  Ru21  1  0.822900  0.194748  0.000000  1
  Ru  Ru22  1  0.279017  0.999145  0.500000  1
  Rh  Rh23  1  0.630309  0.805599  0.000000  1
  Rh  Rh24  1  0.175525  0.364874  0.000000  1
  Rh  Rh25  1  0.372849  0.179501  0.000000  1
  Rh  Rh26  1  0.195170  0.820086  0.000000  1
  Rh  Rh27  1  0.807360  0.629757  0.000000  1
  Rh  Rh28  1  0.873422  0.514534  0.500000  1
  Rh  Rh29  1  0.485965  0.357129  0.500000  1
  Rh  Rh30  1  0.642501  0.128900  0.500000  1
  Rh  Rh31  1  0.128252  0.643787  0.500000  1
  Rh  Rh32  1  0.353078  0.487563  0.500000  1
  Rh  Rh33  1  0.990357  0.998683  0.000000  1
  Rh  Rh34  1  0.451741  0.002018  0.000000  1
  Rh  Rh35  1  0.553220  0.552600  0.000000  1
