# generated using pymatgen
data_Zr6Zn22GePt
_symmetry_space_group_name_H-M   'P 1'
_cell_length_a   8.79290950
_cell_length_b   8.79356131
_cell_length_c   8.79399503
_cell_angle_alpha   60.00276844
_cell_angle_beta   60.00517331
_cell_angle_gamma   59.99926780
_symmetry_Int_Tables_number   1
_chemical_formula_structural   Zr6Zn22GePt
_chemical_formula_sum   'Zr6 Zn22 Ge1 Pt1'
_cell_volume   480.83079755
_cell_formula_units_Z   1
loop_
 _symmetry_equiv_pos_site_id
 _symmetry_equiv_pos_as_xyz
  1  'x, y, z'
loop_
 _atom_site_type_symbol
 _atom_site_label
 _atom_site_symmetry_multiplicity
 _atom_site_fract_x
 _atom_site_fract_y
 _atom_site_fract_z
 _atom_site_occupancy
  Zr  Zr0  1  0.715966  0.284074  0.284008  1
  Zr  Zr1  1  0.284034  0.715926  0.715992  1
  Zr  Zr2  1  0.284035  0.716008  0.283966  1
  Zr  Zr3  1  0.715965  0.283992  0.716034  1
  Zr  Zr4  1  0.283988  0.283985  0.716055  1
  Zr  Zr5  1  0.716012  0.716015  0.283945  1
  Zn  Zn6  1  0.123479  0.123485  0.123485  1
  Zn  Zn7  1  0.876521  0.876515  0.876515  1
  Zn  Zn8  1  0.123471  0.123485  0.629561  1
  Zn  Zn9  1  0.123485  0.629563  0.123476  1
  Zn  Zn10  1  0.876529  0.876515  0.370439  1
  Zn  Zn11  1  0.876515  0.370437  0.876524  1
  Zn  Zn12  1  0.629561  0.123492  0.123469  1
  Zn  Zn13  1  0.370439  0.876508  0.876531  1
  Zn  Zn14  1  0.500000  0.000000  0.000000  1
  Zn  Zn15  1  0.000000  0.500000  0.500000  1
  Zn  Zn16  1  0.000000  0.500000  0.000000  1
  Zn  Zn17  1  0.500000  0.000000  0.500000  1
  Zn  Zn18  1  0.000000  0.000000  0.500000  1
  Zn  Zn19  1  0.500000  0.500000  0.000000  1
  Zn  Zn20  1  0.338320  0.338307  0.338333  1
  Zn  Zn21  1  0.661680  0.661693  0.661667  1
  Zn  Zn22  1  0.338305  0.338288  0.985082  1
  Zn  Zn23  1  0.338316  0.985069  0.338302  1
  Zn  Zn24  1  0.661695  0.661712  0.014918  1
  Zn  Zn25  1  0.661684  0.014931  0.661698  1
  Zn  Zn26  1  0.985052  0.338313  0.338314  1
  Zn  Zn27  1  0.014948  0.661687  0.661686  1
  Ge  Ge28  1  0.500000  0.500000  0.500000  1
  Pt  Pt29  1  0.000000  0.000000  0.000000  1
