# generated using pymatgen
data_Lu8TcOsBr8
_symmetry_space_group_name_H-M   'P 1'
_cell_length_a   8.80994752
_cell_length_b   8.80994602
_cell_length_c   6.45312401
_cell_angle_alpha   89.42911892
_cell_angle_beta   89.42912722
_cell_angle_gamma   89.26680758
_symmetry_Int_Tables_number   1
_chemical_formula_structural   Lu8TcOsBr8
_chemical_formula_sum   'Lu8 Tc1 Os1 Br8'
_cell_volume   500.77016666
_cell_formula_units_Z   1
loop_
 _symmetry_equiv_pos_site_id
 _symmetry_equiv_pos_as_xyz
  1  'x, y, z'
loop_
 _atom_site_type_symbol
 _atom_site_label
 _atom_site_symmetry_multiplicity
 _atom_site_fract_x
 _atom_site_fract_y
 _atom_site_fract_z
 _atom_site_occupancy
  Lu  Lu0  1  0.753328  0.098147  0.990143  1
  Lu  Lu1  1  0.098093  0.753672  0.488627  1
  Lu  Lu2  1  0.096156  0.245507  0.992146  1
  Lu  Lu3  1  0.245563  0.096480  0.490556  1
  Lu  Lu4  1  0.903520  0.754437  0.009444  1
  Lu  Lu5  1  0.901853  0.246672  0.509857  1
  Lu  Lu6  1  0.246328  0.901907  0.011373  1
  Lu  Lu7  1  0.754493  0.903844  0.507854  1
  Tc  Tc8  1  0.993907  0.006093  0.250000  1
  Os  Os9  1  0.005994  0.994006  0.750000  1
  Br  Br10  1  0.579263  0.183405  0.592498  1
  Br  Br11  1  0.809565  0.583866  0.406068  1
  Br  Br12  1  0.416134  0.190435  0.093932  1
  Br  Br13  1  0.190571  0.415885  0.594740  1
  Br  Br14  1  0.584115  0.809429  0.905260  1
  Br  Br15  1  0.420899  0.816380  0.408694  1
  Br  Br16  1  0.183620  0.579101  0.091306  1
  Br  Br17  1  0.816595  0.420737  0.907502  1
