# generated using pymatgen
data_Bi3Sb5O16
_symmetry_space_group_name_H-M   'P 1'
_cell_length_a   4.94521100
_cell_length_b   5.66296909
_cell_length_c   11.89516589
_cell_angle_alpha   90.15430840
_cell_angle_beta   90.00000000
_cell_angle_gamma   90.00000000
_symmetry_Int_Tables_number   1
_chemical_formula_structural   Bi3Sb5O16
_chemical_formula_sum   'Bi3 Sb5 O16'
_cell_volume   333.11788111
_cell_formula_units_Z   1
loop_
 _symmetry_equiv_pos_site_id
 _symmetry_equiv_pos_as_xyz
  1  'x, y, z'
loop_
 _atom_site_type_symbol
 _atom_site_label
 _atom_site_symmetry_multiplicity
 _atom_site_fract_x
 _atom_site_fract_y
 _atom_site_fract_z
 _atom_site_occupancy
  Bi  Bi0  1  0.736112  0.750000  0.500000  1
  Bi  Bi1  1  0.757343  0.750000  0.000000  1
  Bi  Bi2  1  0.264520  0.250000  0.500000  1
  Sb  Sb3  1  0.750164  0.119181  0.250008  1
  Sb  Sb4  1  0.252235  0.883698  0.750769  1
  Sb  Sb5  1  0.750164  0.380819  0.749992  1
  Sb  Sb6  1  0.205107  0.250000  0.000000  1
  Sb  Sb7  1  0.252235  0.616302  0.249231  1
  O  O8  1  0.410026  0.585393  0.403133  1
  O  O9  1  0.506824  0.639632  0.814423  1
  O  O10  1  0.003299  0.137635  0.686193  1
  O  O11  1  0.916775  0.086573  0.095816  1
  O  O12  1  0.003299  0.362365  0.313807  1
  O  O13  1  0.590575  0.083332  0.403066  1
  O  O14  1  0.087809  0.575719  0.095719  1
  O  O15  1  0.506824  0.860368  0.185577  1
  O  O16  1  0.410026  0.914607  0.596867  1
  O  O17  1  0.000038  0.863114  0.311258  1
  O  O18  1  0.500713  0.362388  0.187312  1
  O  O19  1  0.087809  0.924281  0.904281  1
  O  O20  1  0.916775  0.413427  0.904184  1
  O  O21  1  0.500713  0.137612  0.812688  1
  O  O22  1  0.000038  0.636886  0.688742  1
  O  O23  1  0.590575  0.416668  0.596934  1
