# generated using pymatgen
data_Mn7TlFeO16
_symmetry_space_group_name_H-M   'P 1'
_cell_length_a   5.93877156
_cell_length_b   7.17444636
_cell_length_c   7.23176900
_cell_angle_alpha   88.43076859
_cell_angle_beta   78.08329284
_cell_angle_gamma   77.88113937
_symmetry_Int_Tables_number   1
_chemical_formula_structural   Mn7TlFeO16
_chemical_formula_sum   'Mn7 Tl1 Fe1 O16'
_cell_volume   294.72643732
_cell_formula_units_Z   1
loop_
 _symmetry_equiv_pos_site_id
 _symmetry_equiv_pos_as_xyz
  1  'x, y, z'
loop_
 _atom_site_type_symbol
 _atom_site_label
 _atom_site_symmetry_multiplicity
 _atom_site_fract_x
 _atom_site_fract_y
 _atom_site_fract_z
 _atom_site_occupancy
  Mn  Mn0  1  0.081832  0.508020  0.180733  1
  Mn  Mn1  1  0.171078  0.817916  0.517838  1
  Mn  Mn2  1  0.668627  0.819760  0.521043  1
  Mn  Mn3  1  0.336156  0.184432  0.480656  1
  Mn  Mn4  1  0.838297  0.183640  0.485590  1
  Mn  Mn5  1  0.429132  0.487211  0.816605  1
  Mn  Mn6  1  0.926760  0.490500  0.817112  1
  Tl  Tl7  1  0.005297  0.992107  0.003388  1
  Fe  Fe8  1  0.579032  0.513792  0.186428  1
  O  O9  1  0.843773  0.640143  0.048028  1
  O  O10  1  0.320089  0.638560  0.047683  1
  O  O11  1  0.982276  0.705029  0.381089  1
  O  O12  1  0.481944  0.707743  0.388830  1
  O  O13  1  0.855711  0.954983  0.643044  1
  O  O14  1  0.353128  0.957068  0.641860  1
  O  O15  1  0.334000  0.369040  0.289629  1
  O  O16  1  0.845995  0.366403  0.289290  1
  O  O17  1  0.169409  0.628493  0.711452  1
  O  O18  1  0.667101  0.631444  0.715556  1
  O  O19  1  0.151870  0.043815  0.361643  1
  O  O20  1  0.654230  0.044775  0.362616  1
  O  O21  1  0.026403  0.296108  0.618078  1
  O  O22  1  0.524818  0.300626  0.612245  1
  O  O23  1  0.177966  0.357784  0.943997  1
  O  O24  1  0.682174  0.360609  0.935561  1
