# generated using pymatgen
data_TbEu3(Si5Pt3)2
_symmetry_space_group_name_H-M   'P 1'
_cell_length_a   8.22772313
_cell_length_b   8.21874442
_cell_length_c   8.21874500
_cell_angle_alpha   137.05759948
_cell_angle_beta   104.48886322
_cell_angle_gamma   91.00140150
_symmetry_Int_Tables_number   1
_chemical_formula_structural   TbEu3(Si5Pt3)2
_chemical_formula_sum   'Tb1 Eu3 Si10 Pt6'
_cell_volume   349.21100458
_cell_formula_units_Z   1
loop_
 _symmetry_equiv_pos_site_id
 _symmetry_equiv_pos_as_xyz
  1  'x, y, z'
loop_
 _atom_site_type_symbol
 _atom_site_label
 _atom_site_symmetry_multiplicity
 _atom_site_fract_x
 _atom_site_fract_y
 _atom_site_fract_z
 _atom_site_occupancy
  Tb  Tb0  1  0.101860  0.871060  0.230801  1
  Eu  Eu1  1  0.896041  0.128663  0.767378  1
  Eu  Eu2  1  0.638135  0.371074  0.267060  1
  Eu  Eu3  1  0.362450  0.629391  0.733059  1
  Si  Si4  1  0.999714  0.746874  0.746486  1
  Si  Si5  1  0.999714  0.253228  0.252840  1
  Si  Si6  1  0.271961  0.020632  0.750822  1
  Si  Si7  1  0.729845  0.478320  0.748931  1
  Si  Si8  1  0.729845  0.980914  0.251525  1
  Si  Si9  1  0.271961  0.521140  0.251329  1
  Si  Si10  1  0.762327  0.612714  0.149611  1
  Si  Si11  1  0.238551  0.388234  0.850318  1
  Si  Si12  1  0.458009  0.109647  0.348362  1
  Si  Si13  1  0.540053  0.888263  0.651788  1
  Pt  Pt14  1  0.497723  0.750114  0.249343  1
  Pt  Pt15  1  0.497723  0.248380  0.747609  1
  Pt  Pt16  1  0.024689  0.638934  0.385755  1
  Pt  Pt17  1  0.978771  0.363710  0.615061  1
  Pt  Pt18  1  0.246736  0.134170  0.112565  1
  Pt  Pt19  1  0.753893  0.864539  0.889354  1
