# generated using pymatgen
data_Sr(ThB8)3
_symmetry_space_group_name_H-M   'P 1'
_cell_length_a   4.12785300
_cell_length_b   4.12785300
_cell_length_c   16.52792700
_cell_angle_alpha   90.00000000
_cell_angle_beta   90.00000000
_cell_angle_gamma   90.00000000
_symmetry_Int_Tables_number   1
_chemical_formula_structural   Sr(ThB8)3
_chemical_formula_sum   'Sr1 Th3 B24'
_cell_volume   281.62216434
_cell_formula_units_Z   1
loop_
 _symmetry_equiv_pos_site_id
 _symmetry_equiv_pos_as_xyz
  1  'x, y, z'
loop_
 _atom_site_type_symbol
 _atom_site_label
 _atom_site_symmetry_multiplicity
 _atom_site_fract_x
 _atom_site_fract_y
 _atom_site_fract_z
 _atom_site_occupancy
  Sr  Sr0  1  0.000000  0.000000  0.500000  1
  Th  Th1  1  0.000000  0.000000  0.000000  1
  Th  Th2  1  0.000000  0.000000  0.246384  1
  Th  Th3  1  0.000000  0.000000  0.753616  1
  B  B4  1  0.500000  0.500000  0.200198  1
  B  B5  1  0.500000  0.500000  0.449386  1
  B  B6  1  0.500000  0.500000  0.701276  1
  B  B7  1  0.500000  0.500000  0.950855  1
  B  B8  1  0.500000  0.197543  0.124678  1
  B  B9  1  0.500000  0.199478  0.373712  1
  B  B10  1  0.500000  0.199478  0.626288  1
  B  B11  1  0.500000  0.197543  0.875322  1
  B  B12  1  0.197543  0.500000  0.124678  1
  B  B13  1  0.199478  0.500000  0.373712  1
  B  B14  1  0.199478  0.500000  0.626288  1
  B  B15  1  0.197543  0.500000  0.875322  1
  B  B16  1  0.500000  0.500000  0.049145  1
  B  B17  1  0.500000  0.500000  0.298724  1
  B  B18  1  0.500000  0.500000  0.550614  1
  B  B19  1  0.500000  0.500000  0.799802  1
  B  B20  1  0.500000  0.802457  0.124678  1
  B  B21  1  0.500000  0.800522  0.373712  1
  B  B22  1  0.500000  0.800522  0.626288  1
  B  B23  1  0.500000  0.802457  0.875322  1
  B  B24  1  0.802457  0.500000  0.124678  1
  B  B25  1  0.800522  0.500000  0.373712  1
  B  B26  1  0.800522  0.500000  0.626288  1
  B  B27  1  0.802457  0.500000  0.875322  1
