# generated using pymatgen
data_Mn8CN3
_symmetry_space_group_name_H-M   'P 1'
_cell_length_a   5.55407641
_cell_length_b   4.84875086
_cell_length_c   4.39035696
_cell_angle_alpha   90.10040642
_cell_angle_beta   89.84032691
_cell_angle_gamma   89.99000323
_symmetry_Int_Tables_number   1
_chemical_formula_structural   Mn8CN3
_chemical_formula_sum   'Mn8 C1 N3'
_cell_volume   118.23313159
_cell_formula_units_Z   1
loop_
 _symmetry_equiv_pos_site_id
 _symmetry_equiv_pos_as_xyz
  1  'x, y, z'
loop_
 _atom_site_type_symbol
 _atom_site_label
 _atom_site_symmetry_multiplicity
 _atom_site_fract_x
 _atom_site_fract_y
 _atom_site_fract_z
 _atom_site_occupancy
  Mn  Mn0  1  0.117024  0.079874  0.250587  1
  Mn  Mn1  1  0.382888  0.583159  0.250951  1
  Mn  Mn2  1  0.382867  0.916667  0.748970  1
  Mn  Mn3  1  0.117084  0.419968  0.749510  1
  Mn  Mn4  1  0.881282  0.919301  0.752956  1
  Mn  Mn5  1  0.619086  0.420279  0.748647  1
  Mn  Mn6  1  0.619081  0.079890  0.251417  1
  Mn  Mn7  1  0.881242  0.580827  0.246998  1
  C  C8  1  0.365146  0.250053  0.999912  1
  N  N9  1  0.135033  0.750009  0.500064  1
  N  N10  1  0.634192  0.749977  0.000033  1
  N  N11  1  0.865071  0.249997  0.499962  1
