# generated using pymatgen
data_Y6Lu4SnSb5
_symmetry_space_group_name_H-M   'P 1'
_cell_length_a   6.30455300
_cell_length_b   8.91486832
_cell_length_c   8.90099900
_cell_angle_alpha   120.05156503
_cell_angle_beta   90.00031830
_cell_angle_gamma   89.99935930
_symmetry_Int_Tables_number   1
_chemical_formula_structural   Y6Lu4SnSb5
_chemical_formula_sum   'Y6 Lu4 Sn1 Sb5'
_cell_volume   433.02475114
_cell_formula_units_Z   1
loop_
 _symmetry_equiv_pos_site_id
 _symmetry_equiv_pos_as_xyz
  1  'x, y, z'
loop_
 _atom_site_type_symbol
 _atom_site_label
 _atom_site_symmetry_multiplicity
 _atom_site_fract_x
 _atom_site_fract_y
 _atom_site_fract_z
 _atom_site_occupancy
  Y  Y0  1  0.750008  0.246604  0.000000  1
  Y  Y1  1  0.749999  0.752927  0.754225  1
  Y  Y2  1  0.749999  0.998701  0.245775  1
  Y  Y3  1  0.250012  0.753502  0.000000  1
  Y  Y4  1  0.249996  0.247367  0.246485  1
  Y  Y5  1  0.249996  0.000883  0.753515  1
  Lu  Lu6  1  0.500215  0.334145  0.667809  1
  Lu  Lu7  1  0.500215  0.666336  0.332191  1
  Lu  Lu8  1  0.999771  0.666337  0.332181  1
  Lu  Lu9  1  0.999771  0.334156  0.667819  1
  Sn  Sn10  1  0.750030  0.606604  0.000000  1
  Sb  Sb11  1  0.750005  0.391029  0.391567  1
  Sb  Sb12  1  0.750005  0.999461  0.608433  1
  Sb  Sb13  1  0.249998  0.391985  0.000000  1
  Sb  Sb14  1  0.249989  0.609205  0.608447  1
  Sb  Sb15  1  0.249989  0.000759  0.391553  1
