# generated using pymatgen
data_Cs6HfWS8
_symmetry_space_group_name_H-M   'P 1'
_cell_length_a   10.05159500
_cell_length_b   10.13807600
_cell_length_c   11.77753600
_cell_angle_alpha   90.00000000
_cell_angle_beta   90.00000000
_cell_angle_gamma   90.00000000
_symmetry_Int_Tables_number   1
_chemical_formula_structural   Cs6HfWS8
_chemical_formula_sum   'Cs12 Hf2 W2 S16'
_cell_volume   1200.17607384
_cell_formula_units_Z   2
loop_
 _symmetry_equiv_pos_site_id
 _symmetry_equiv_pos_as_xyz
  1  'x, y, z'
loop_
 _atom_site_type_symbol
 _atom_site_label
 _atom_site_symmetry_multiplicity
 _atom_site_fract_x
 _atom_site_fract_y
 _atom_site_fract_z
 _atom_site_occupancy
  Cs  Cs0  1  0.546791  0.211049  0.055076  1
  Cs  Cs1  1  0.046791  0.288951  0.444924  1
  Cs  Cs2  1  0.454100  0.793742  0.525440  1
  Cs  Cs3  1  0.954100  0.706258  0.974560  1
  Cs  Cs4  1  0.454100  0.793742  0.974560  1
  Cs  Cs5  1  0.954100  0.706258  0.525440  1
  Cs  Cs6  1  0.546791  0.211049  0.444924  1
  Cs  Cs7  1  0.046791  0.288951  0.055076  1
  Cs  Cs8  1  0.649838  0.422357  0.750000  1
  Cs  Cs9  1  0.149838  0.077643  0.750000  1
  Cs  Cs10  1  0.352695  0.584061  0.250000  1
  Cs  Cs11  1  0.852695  0.915939  0.250000  1
  Hf  Hf12  1  0.273125  0.015557  0.250000  1
  Hf  Hf13  1  0.773125  0.484443  0.250000  1
  W  W14  1  0.721619  0.984382  0.750000  1
  W  W15  1  0.221619  0.515618  0.750000  1
  S  S16  1  0.829565  0.049054  0.597212  1
  S  S17  1  0.329565  0.450946  0.902788  1
  S  S18  1  0.162751  0.954110  0.076632  1
  S  S19  1  0.662751  0.545890  0.423368  1
  S  S20  1  0.162751  0.954110  0.423368  1
  S  S21  1  0.662751  0.545890  0.076632  1
  S  S22  1  0.829565  0.049054  0.902788  1
  S  S23  1  0.329565  0.450946  0.597212  1
  S  S24  1  0.518274  0.070305  0.750000  1
  S  S25  1  0.018274  0.429695  0.750000  1
  S  S26  1  0.493782  0.927753  0.250000  1
  S  S27  1  0.993782  0.572247  0.250000  1
  S  S28  1  0.709963  0.766574  0.750000  1
  S  S29  1  0.209963  0.733426  0.750000  1
  S  S30  1  0.294290  0.250342  0.250000  1
  S  S31  1  0.794290  0.249658  0.250000  1
