# generated using pymatgen
data_Ta5Nb7Al5Au3N4
_symmetry_space_group_name_H-M   'P 1'
_cell_length_a   7.08951274
_cell_length_b   7.09289315
_cell_length_c   7.09072133
_cell_angle_alpha   90.17127661
_cell_angle_beta   90.17193416
_cell_angle_gamma   90.17914476
_symmetry_Int_Tables_number   1
_chemical_formula_structural   Ta5Nb7Al5Au3N4
_chemical_formula_sum   'Ta5 Nb7 Al5 Au3 N4'
_cell_volume   356.55307938
_cell_formula_units_Z   1
loop_
 _symmetry_equiv_pos_site_id
 _symmetry_equiv_pos_as_xyz
  1  'x, y, z'
loop_
 _atom_site_type_symbol
 _atom_site_label
 _atom_site_symmetry_multiplicity
 _atom_site_fract_x
 _atom_site_fract_y
 _atom_site_fract_z
 _atom_site_occupancy
  Ta  Ta0  1  0.785273  0.956220  0.385071  1
  Ta  Ta1  1  0.710480  0.038948  0.869966  1
  Ta  Ta2  1  0.211451  0.454900  0.127345  1
  Ta  Ta3  1  0.291506  0.545422  0.623358  1
  Ta  Ta4  1  0.953857  0.382466  0.784735  1
  Nb  Nb5  1  0.039110  0.868194  0.712210  1
  Nb  Nb6  1  0.453635  0.127873  0.212563  1
  Nb  Nb7  1  0.547182  0.625853  0.291530  1
  Nb  Nb8  1  0.385214  0.785105  0.954754  1
  Nb  Nb9  1  0.870409  0.710766  0.037802  1
  Nb  Nb10  1  0.126121  0.211130  0.454505  1
  Nb  Nb11  1  0.622852  0.293227  0.545552  1
  Al  Al12  1  0.676582  0.677310  0.676418  1
  Al  Al13  1  0.571515  0.424683  0.931214  1
  Al  Al14  1  0.424729  0.930912  0.571701  1
  Al  Al15  1  0.930565  0.571109  0.424836  1
  Al  Al16  1  0.071325  0.069598  0.070405  1
  Au  Au17  1  0.177932  0.819608  0.316734  1
  Au  Au18  1  0.316419  0.180208  0.821394  1
  Au  Au19  1  0.822040  0.315710  0.177230  1
  N  N20  1  0.879898  0.127583  0.625878  1
  N  N21  1  0.627436  0.884243  0.127922  1
  N  N22  1  0.129363  0.618811  0.880005  1
  N  N23  1  0.375104  0.380120  0.376871  1
