# generated using pymatgen
data_Y2Ho4VB14W
_symmetry_space_group_name_H-M   'P 1'
_cell_length_a   8.13045124
_cell_length_b   8.13045088
_cell_length_c   9.44204100
_cell_angle_alpha   90.00000000
_cell_angle_beta   90.00000000
_cell_angle_gamma   155.58010572
_symmetry_Int_Tables_number   1
_chemical_formula_structural   Y2Ho4VB14W
_chemical_formula_sum   'Y2 Ho4 V1 B14 W1'
_cell_volume   258.04015175
_cell_formula_units_Z   1
loop_
 _symmetry_equiv_pos_site_id
 _symmetry_equiv_pos_as_xyz
  1  'x, y, z'
loop_
 _atom_site_type_symbol
 _atom_site_label
 _atom_site_symmetry_multiplicity
 _atom_site_fract_x
 _atom_site_fract_y
 _atom_site_fract_z
 _atom_site_occupancy
  Y  Y0  1  0.754413  0.245587  0.250000  1
  Y  Y1  1  0.242409  0.757591  0.750000  1
  Ho  Ho2  1  0.893833  0.106167  0.937813  1
  Ho  Ho3  1  0.106770  0.893230  0.057527  1
  Ho  Ho4  1  0.893833  0.106167  0.562187  1
  Ho  Ho5  1  0.106770  0.893230  0.442473  1
  V  V6  1  0.052722  0.947278  0.750000  1
  B  B7  1  0.545018  0.454982  0.250000  1
  B  B8  1  0.458813  0.541187  0.750000  1
  B  B9  1  0.521177  0.478823  0.904909  1
  B  B10  1  0.480546  0.519454  0.090520  1
  B  B11  1  0.480546  0.519454  0.409480  1
  B  B12  1  0.521177  0.478823  0.595091  1
  B  B13  1  0.632397  0.367603  0.850227  1
  B  B14  1  0.365292  0.634708  0.145634  1
  B  B15  1  0.727194  0.272806  0.967033  1
  B  B16  1  0.272676  0.727324  0.031328  1
  B  B17  1  0.272676  0.727324  0.468672  1
  B  B18  1  0.727194  0.272806  0.532967  1
  B  B19  1  0.632397  0.367603  0.649773  1
  B  B20  1  0.365292  0.634708  0.354366  1
  W  W21  1  0.946855  0.053145  0.250000  1
