# generated using pymatgen
data_LaNd2In3Cu2Ir
_symmetry_space_group_name_H-M   'P 1'
_cell_length_a   7.74644359
_cell_length_b   7.80831118
_cell_length_c   4.00288600
_cell_angle_alpha   90.00000000
_cell_angle_beta   90.00000000
_cell_angle_gamma   120.05782650
_symmetry_Int_Tables_number   1
_chemical_formula_structural   LaNd2In3Cu2Ir
_chemical_formula_sum   'La1 Nd2 In3 Cu2 Ir1'
_cell_volume   209.56076310
_cell_formula_units_Z   1
loop_
 _symmetry_equiv_pos_site_id
 _symmetry_equiv_pos_as_xyz
  1  'x, y, z'
loop_
 _atom_site_type_symbol
 _atom_site_label
 _atom_site_symmetry_multiplicity
 _atom_site_fract_x
 _atom_site_fract_y
 _atom_site_fract_z
 _atom_site_occupancy
  La  La0  1  0.015660  0.592051  0.500000  1
  Nd  Nd1  1  0.407475  0.421466  0.500000  1
  Nd  Nd2  1  0.580354  0.986279  0.500000  1
  In  In3  1  0.751136  0.749164  0.000000  1
  In  In4  1  0.997013  0.244593  0.000000  1
  In  In5  1  0.254010  0.007434  0.000000  1
  Cu  Cu6  1  0.000441  0.000849  0.500000  1
  Cu  Cu7  1  0.664385  0.332029  0.000000  1
  Ir  Ir8  1  0.329525  0.666134  0.000000  1
