# generated using pymatgen
data_Y4B16Ru11Rh5
_symmetry_space_group_name_H-M   'P 1'
_cell_length_a   7.48908516
_cell_length_b   7.53399053
_cell_length_c   9.21379814
_cell_angle_alpha   114.16803063
_cell_angle_beta   114.05010307
_cell_angle_gamma   90.04024498
_symmetry_Int_Tables_number   1
_chemical_formula_structural   Y4B16Ru11Rh5
_chemical_formula_sum   'Y4 B16 Ru11 Rh5'
_cell_volume   424.27678966
_cell_formula_units_Z   1
loop_
 _symmetry_equiv_pos_site_id
 _symmetry_equiv_pos_as_xyz
  1  'x, y, z'
loop_
 _atom_site_type_symbol
 _atom_site_label
 _atom_site_symmetry_multiplicity
 _atom_site_fract_x
 _atom_site_fract_y
 _atom_site_fract_z
 _atom_site_occupancy
  Y  Y0  1  0.499611  0.998631  0.998442  1
  Y  Y1  1  0.000686  0.500276  0.001035  1
  Y  Y2  1  0.249745  0.248299  0.497640  1
  Y  Y3  1  0.748909  0.749749  0.498049  1
  B  B4  1  0.251442  0.226052  0.162655  1
  B  B5  1  0.752471  0.438181  0.162834  1
  B  B6  1  0.408462  0.721843  0.161152  1
  B  B7  1  0.910563  0.937266  0.161828  1
  B  B8  1  0.844619  0.033580  0.340589  1
  B  B9  1  0.501005  0.315400  0.339520  1
  B  B10  1  0.000152  0.530328  0.340329  1
  B  B11  1  0.337966  0.807365  0.339732  1
  B  B12  1  0.692077  0.168923  0.668037  1
  B  B13  1  0.973303  0.497902  0.663277  1
  B  B14  1  0.474398  0.665649  0.664201  1
  B  B15  1  0.188834  0.997812  0.663974  1
  B  B16  1  0.775487  0.080458  0.832353  1
  B  B17  1  0.275437  0.249636  0.831019  1
  B  B18  1  0.554355  0.581795  0.831772  1
  B  B19  1  0.057127  0.750710  0.832239  1
  Ru  Ru20  1  0.802158  0.335887  0.375977  1
  Ru  Ru21  1  0.303429  0.540378  0.376593  1
  Ru  Ru22  1  0.072351  0.835761  0.376281  1
  Ru  Ru23  1  0.958211  0.198120  0.624143  1
  Ru  Ru24  1  0.664694  0.425649  0.623988  1
  Ru  Ru25  1  0.165770  0.698198  0.625480  1
  Ru  Ru26  1  0.459861  0.927121  0.626937  1
  Ru  Ru27  1  0.085983  0.051448  0.877401  1
  Ru  Ru28  1  0.586377  0.326399  0.876853  1
  Ru  Ru29  1  0.290387  0.550629  0.876874  1
  Ru  Ru30  1  0.791918  0.824067  0.876845  1
  Rh  Rh31  1  0.947231  0.213414  0.124484  1
  Rh  Rh32  1  0.447922  0.410056  0.123754  1
  Rh  Rh33  1  0.676395  0.714047  0.123855  1
  Rh  Rh34  1  0.178622  0.911427  0.125618  1
  Rh  Rh35  1  0.572039  0.037545  0.374246  1
