# generated using pymatgen
data_Tb7Ho3(TmRu2)2
_symmetry_space_group_name_H-M   'P 1'
_cell_length_a   6.30252257
_cell_length_b   7.29612137
_cell_length_c   9.17184996
_cell_angle_alpha   89.90236606
_cell_angle_beta   89.92599798
_cell_angle_gamma   89.90691384
_symmetry_Int_Tables_number   1
_chemical_formula_structural   Tb7Ho3(TmRu2)2
_chemical_formula_sum   'Tb7 Ho3 Tm2 Ru4'
_cell_volume   421.75655046
_cell_formula_units_Z   1
loop_
 _symmetry_equiv_pos_site_id
 _symmetry_equiv_pos_as_xyz
  1  'x, y, z'
loop_
 _atom_site_type_symbol
 _atom_site_label
 _atom_site_symmetry_multiplicity
 _atom_site_fract_x
 _atom_site_fract_y
 _atom_site_fract_z
 _atom_site_occupancy
  Tb  Tb0  1  0.633217  0.039996  0.252526  1
  Tb  Tb1  1  0.365915  0.959360  0.747693  1
  Tb  Tb2  1  0.133890  0.459700  0.747624  1
  Tb  Tb3  1  0.866947  0.540925  0.252172  1
  Tb  Tb4  1  0.170632  0.177357  0.065957  1
  Tb  Tb5  1  0.829890  0.822673  0.934414  1
  Tb  Tb6  1  0.669220  0.323198  0.934418  1
  Ho  Ho7  1  0.830181  0.823178  0.563637  1
  Ho  Ho8  1  0.330753  0.676864  0.066438  1
  Ho  Ho9  1  0.169404  0.176161  0.436471  1
  Tm  Tm10  1  0.331369  0.676185  0.435371  1
  Tm  Tm11  1  0.668467  0.324382  0.563995  1
  Ru  Ru12  1  0.459660  0.386365  0.252788  1
  Ru  Ru13  1  0.539584  0.614165  0.747962  1
  Ru  Ru14  1  0.958706  0.114323  0.745935  1
  Ru  Ru15  1  0.042167  0.885171  0.252599  1
