# generated using pymatgen
data_Cs5K7(Sn2O5)2
_symmetry_space_group_name_H-M   'P 1'
_cell_length_a   7.85128664
_cell_length_b   9.56004068
_cell_length_c   9.60832208
_cell_angle_alpha   76.70830625
_cell_angle_beta   82.78931355
_cell_angle_gamma   81.49328625
_symmetry_Int_Tables_number   1
_chemical_formula_structural   Cs5K7(Sn2O5)2
_chemical_formula_sum   'Cs5 K7 Sn4 O10'
_cell_volume   691.00247829
_cell_formula_units_Z   1
loop_
 _symmetry_equiv_pos_site_id
 _symmetry_equiv_pos_as_xyz
  1  'x, y, z'
loop_
 _atom_site_type_symbol
 _atom_site_label
 _atom_site_symmetry_multiplicity
 _atom_site_fract_x
 _atom_site_fract_y
 _atom_site_fract_z
 _atom_site_occupancy
  Cs  Cs0  1  0.806262  0.896462  0.897420  1
  Cs  Cs1  1  0.297581  0.395339  0.406406  1
  Cs  Cs2  1  0.549961  0.653990  0.649128  1
  Cs  Cs3  1  0.042110  0.141259  0.159176  1
  Cs  Cs4  1  0.246861  0.502903  0.999354  1
  K  K5  1  0.487486  0.235990  0.773605  1
  K  K6  1  0.978814  0.733813  0.280337  1
  K  K7  1  0.485525  0.777811  0.233038  1
  K  K8  1  0.983436  0.274295  0.734929  1
  K  K9  1  0.732349  0.486234  0.030776  1
  K  K10  1  0.241632  0.988118  0.519343  1
  K  K11  1  0.735903  0.022821  0.486458  1
  Sn  Sn12  1  0.091899  0.654261  0.638505  1
  Sn  Sn13  1  0.588656  0.146206  0.145499  1
  Sn  Sn14  1  0.325008  0.889524  0.875898  1
  Sn  Sn15  1  0.809127  0.377658  0.391620  1
  O  O16  1  0.237360  0.727473  0.447764  1
  O  O17  1  0.734365  0.226380  0.956303  1
  O  O18  1  0.230450  0.454936  0.710624  1
  O  O19  1  0.736260  0.953785  0.224144  1
  O  O20  1  0.490399  0.716620  0.972216  1
  O  O21  1  0.979424  0.201116  0.474467  1
  O  O22  1  0.485330  0.978723  0.701414  1
  O  O23  1  0.958033  0.480140  0.218360  1
  O  O24  1  0.179492  0.780173  0.767368  1
  O  O25  1  0.660182  0.276071  0.277950  1
