# generated using pymatgen
data_Yb2Tc2Ge2N
_symmetry_space_group_name_H-M   'P 1'
_cell_length_a   5.70640056
_cell_length_b   5.70639996
_cell_length_c   7.02698900
_cell_angle_alpha   124.33707839
_cell_angle_beta   124.33707431
_cell_angle_gamma   39.69699880
_symmetry_Int_Tables_number   1
_chemical_formula_structural   Yb2Tc2Ge2N
_chemical_formula_sum   'Yb2 Tc2 Ge2 N1'
_cell_volume   116.95728597
_cell_formula_units_Z   1
loop_
 _symmetry_equiv_pos_site_id
 _symmetry_equiv_pos_as_xyz
  1  'x, y, z'
loop_
 _atom_site_type_symbol
 _atom_site_label
 _atom_site_symmetry_multiplicity
 _atom_site_fract_x
 _atom_site_fract_y
 _atom_site_fract_z
 _atom_site_occupancy
  Yb  Yb0  1  0.568707  0.568707  0.289256  1
  Yb  Yb1  1  0.431293  0.431293  0.710743  1
  Tc  Tc2  1  0.200619  0.200619  0.075106  1
  Tc  Tc3  1  0.799382  0.799382  0.924895  1
  Ge  Ge4  1  0.858140  0.858140  0.330487  1
  Ge  Ge5  1  0.141860  0.141860  0.669514  1
  N  N6  1  0.000000  0.000000  0.000000  1
