# generated using pymatgen
data_TbY3(CrB4)4
_symmetry_space_group_name_H-M   'P 1'
_cell_length_a   3.44989200
_cell_length_b   5.94402003
_cell_length_c   11.48454605
_cell_angle_alpha   89.98935129
_cell_angle_beta   90.00000000
_cell_angle_gamma   90.00000000
_symmetry_Int_Tables_number   1
_chemical_formula_structural   TbY3(CrB4)4
_chemical_formula_sum   'Tb1 Y3 Cr4 B16'
_cell_volume   235.50470576
_cell_formula_units_Z   1
loop_
 _symmetry_equiv_pos_site_id
 _symmetry_equiv_pos_as_xyz
  1  'x, y, z'
loop_
 _atom_site_type_symbol
 _atom_site_label
 _atom_site_symmetry_multiplicity
 _atom_site_fract_x
 _atom_site_fract_y
 _atom_site_fract_z
 _atom_site_occupancy
  Tb  Tb0  1  0.000000  0.375541  0.650727  1
  Y  Y1  1  0.000000  0.624127  0.349194  1
  Y  Y2  1  0.000000  0.875730  0.849254  1
  Y  Y3  1  0.000000  0.124396  0.150889  1
  Cr  Cr4  1  0.000000  0.376417  0.919588  1
  Cr  Cr5  1  0.000000  0.623798  0.080686  1
  Cr  Cr6  1  0.000000  0.876356  0.580288  1
  Cr  Cr7  1  0.000000  0.123576  0.419326  1
  B  B8  1  0.500000  0.024846  0.691264  1
  B  B9  1  0.500000  0.974959  0.308575  1
  B  B10  1  0.500000  0.525269  0.808873  1
  B  B11  1  0.500000  0.474952  0.191466  1
  B  B12  1  0.500000  0.112829  0.546492  1
  B  B13  1  0.500000  0.886688  0.453063  1
  B  B14  1  0.500000  0.613319  0.953407  1
  B  B15  1  0.500000  0.387009  0.046819  1
  B  B16  1  0.500000  0.280408  0.315999  1
  B  B17  1  0.500000  0.719691  0.683910  1
  B  B18  1  0.500000  0.780701  0.184088  1
  B  B19  1  0.500000  0.219460  0.816178  1
  B  B20  1  0.500000  0.362161  0.467411  1
  B  B21  1  0.500000  0.637495  0.532253  1
  B  B22  1  0.500000  0.862643  0.032493  1
  B  B23  1  0.500000  0.137628  0.967756  1
