# generated using pymatgen
data_Ho3In3Ni2Pd
_symmetry_space_group_name_H-M   'P 1'
_cell_length_a   7.56053800
_cell_length_b   7.56053716
_cell_length_c   3.76531000
_cell_angle_alpha   90.00000000
_cell_angle_beta   90.00000000
_cell_angle_gamma   120.00000369
_symmetry_Int_Tables_number   1
_chemical_formula_structural   Ho3In3Ni2Pd
_chemical_formula_sum   'Ho3 In3 Ni2 Pd1'
_cell_volume   186.39605046
_cell_formula_units_Z   1
loop_
 _symmetry_equiv_pos_site_id
 _symmetry_equiv_pos_as_xyz
  1  'x, y, z'
loop_
 _atom_site_type_symbol
 _atom_site_label
 _atom_site_symmetry_multiplicity
 _atom_site_fract_x
 _atom_site_fract_y
 _atom_site_fract_z
 _atom_site_occupancy
  Ho  Ho0  1  0.011062  0.597095  0.000000  1
  Ho  Ho1  1  0.402905  0.413967  0.000000  1
  Ho  Ho2  1  0.586033  0.988938  0.000000  1
  In  In3  1  0.745332  0.748348  0.500000  1
  In  In4  1  0.003016  0.254668  0.500000  1
  In  In5  1  0.251652  0.996984  0.500000  1
  Ni  Ni6  1  0.333333  0.666667  0.500000  1
  Ni  Ni7  1  0.000000  0.000000  0.000000  1
  Pd  Pd8  1  0.666667  0.333333  0.500000  1
