# generated using pymatgen
data_CaInBO4
_symmetry_space_group_name_H-M   'P 1'
_cell_length_a   3.48170100
_cell_length_b   9.66344600
_cell_length_c   10.40638000
_cell_angle_alpha   90.00000000
_cell_angle_beta   90.00000000
_cell_angle_gamma   90.00000000
_symmetry_Int_Tables_number   1
_chemical_formula_structural   CaInBO4
_chemical_formula_sum   'Ca4 In4 B4 O16'
_cell_volume   350.12504442
_cell_formula_units_Z   4
loop_
 _symmetry_equiv_pos_site_id
 _symmetry_equiv_pos_as_xyz
  1  'x, y, z'
loop_
 _atom_site_type_symbol
 _atom_site_label
 _atom_site_symmetry_multiplicity
 _atom_site_fract_x
 _atom_site_fract_y
 _atom_site_fract_z
 _atom_site_occupancy
  Ca  Ca0  1  0.250000  0.659761  0.086065  1
  Ca  Ca1  1  0.750000  0.340239  0.913935  1
  Ca  Ca2  1  0.750000  0.159761  0.413935  1
  Ca  Ca3  1  0.250000  0.840239  0.586065  1
  In  In4  1  0.250000  0.069636  0.113951  1
  In  In5  1  0.750000  0.930364  0.886049  1
  In  In6  1  0.750000  0.569636  0.386049  1
  In  In7  1  0.250000  0.430364  0.613951  1
  B  B8  1  0.250000  0.366276  0.189303  1
  B  B9  1  0.750000  0.633724  0.810697  1
  B  B10  1  0.750000  0.866276  0.310697  1
  B  B11  1  0.250000  0.133724  0.689303  1
  O  O12  1  0.250000  0.490449  0.259865  1
  O  O13  1  0.750000  0.509551  0.740135  1
  O  O14  1  0.750000  0.990449  0.240135  1
  O  O15  1  0.250000  0.009551  0.759865  1
  O  O16  1  0.250000  0.238880  0.253123  1
  O  O17  1  0.750000  0.761120  0.746877  1
  O  O18  1  0.750000  0.738880  0.246877  1
  O  O19  1  0.250000  0.261120  0.753123  1
  O  O20  1  0.250000  0.377694  0.057917  1
  O  O21  1  0.750000  0.622306  0.942083  1
  O  O22  1  0.750000  0.877694  0.442083  1
  O  O23  1  0.250000  0.122306  0.557917  1
  O  O24  1  0.250000  0.620928  0.503149  1
  O  O25  1  0.750000  0.379072  0.496851  1
  O  O26  1  0.750000  0.120928  0.996851  1
  O  O27  1  0.250000  0.879072  0.003149  1
