# generated using pymatgen
data_Sr3SmAl18OsPd5
_symmetry_space_group_name_H-M   'P 1'
_cell_length_a   7.73047651
_cell_length_b   7.72708269
_cell_length_c   9.71353304
_cell_angle_alpha   90.04207207
_cell_angle_beta   90.12107812
_cell_angle_gamma   119.42856939
_symmetry_Int_Tables_number   1
_chemical_formula_structural   Sr3SmAl18OsPd5
_chemical_formula_sum   'Sr3 Sm1 Al18 Os1 Pd5'
_cell_volume   505.35880477
_cell_formula_units_Z   1
loop_
 _symmetry_equiv_pos_site_id
 _symmetry_equiv_pos_as_xyz
  1  'x, y, z'
loop_
 _atom_site_type_symbol
 _atom_site_label
 _atom_site_symmetry_multiplicity
 _atom_site_fract_x
 _atom_site_fract_y
 _atom_site_fract_z
 _atom_site_occupancy
  Sr  Sr0  1  0.993787  0.670184  0.248865  1
  Sr  Sr1  1  0.004409  0.329877  0.750053  1
  Sr  Sr2  1  0.671508  0.994526  0.249713  1
  Sm  Sm3  1  0.329509  0.001265  0.751852  1
  Al  Al4  1  0.135599  0.136851  0.249235  1
  Al  Al5  1  0.869640  0.867077  0.750699  1
  Al  Al6  1  0.996716  0.334545  0.071003  1
  Al  Al7  1  0.993028  0.659225  0.924460  1
  Al  Al8  1  0.997124  0.667230  0.577796  1
  Al  Al9  1  0.334718  0.005823  0.426732  1
  Al  Al10  1  0.006447  0.335783  0.426786  1
  Al  Al11  1  0.663254  0.995747  0.577136  1
  Al  Al12  1  0.665148  0.003268  0.925354  1
  Al  Al13  1  0.341481  0.008643  0.071314  1
  Al  Al14  1  0.335598  0.333853  0.554103  1
  Al  Al15  1  0.662364  0.662759  0.454436  1
  Al  Al16  1  0.664946  0.660060  0.039481  1
  Al  Al17  1  0.337587  0.331894  0.952646  1
  Al  Al18  1  0.338702  0.541449  0.249262  1
  Al  Al19  1  0.655002  0.451451  0.754127  1
  Al  Al20  1  0.543666  0.339947  0.244540  1
  Al  Al21  1  0.460668  0.667210  0.751000  1
  Os  Os22  1  0.668182  0.328155  0.997910  1
  Pd  Pd23  1  0.328815  0.671503  0.998025  1
  Pd  Pd24  1  0.328801  0.671584  0.502131  1
  Pd  Pd25  1  0.670028  0.328940  0.501510  1
  Pd  Pd26  1  0.001821  0.000586  0.997913  1
  Pd  Pd27  1  0.001451  0.000566  0.501917  1
