# generated using pymatgen
data_TbAlCuSiAu
_symmetry_space_group_name_H-M   'P 1'
_cell_length_a   4.06883700
_cell_length_b   4.06883700
_cell_length_c   10.82764800
_cell_angle_alpha   90.00000000
_cell_angle_beta   90.00000000
_cell_angle_gamma   90.00000000
_symmetry_Int_Tables_number   1
_chemical_formula_structural   TbAlCuSiAu
_chemical_formula_sum   'Tb2 Al2 Cu2 Si2 Au2'
_cell_volume   179.25641761
_cell_formula_units_Z   2
loop_
 _symmetry_equiv_pos_site_id
 _symmetry_equiv_pos_as_xyz
  1  'x, y, z'
loop_
 _atom_site_type_symbol
 _atom_site_label
 _atom_site_symmetry_multiplicity
 _atom_site_fract_x
 _atom_site_fract_y
 _atom_site_fract_z
 _atom_site_occupancy
  Tb  Tb0  1  0.000000  0.500000  0.220837  1
  Tb  Tb1  1  0.500000  0.000000  0.779163  1
  Al  Al2  1  0.000000  0.000000  0.500000  1
  Al  Al3  1  0.500000  0.500000  0.500000  1
  Cu  Cu4  1  0.000000  0.000000  0.000000  1
  Cu  Cu5  1  0.500000  0.500000  0.000000  1
  Si  Si6  1  0.000000  0.500000  0.879133  1
  Si  Si7  1  0.500000  0.000000  0.120867  1
  Au  Au8  1  0.000000  0.500000  0.650966  1
  Au  Au9  1  0.500000  0.000000  0.349034  1
