# generated using pymatgen
data_Dy23Y(CoTc)4
_symmetry_space_group_name_H-M   'P 1'
_cell_length_a   6.31331260
_cell_length_b   9.21281013
_cell_length_c   14.18236700
_cell_angle_alpha   89.93024608
_cell_angle_beta   89.90008897
_cell_angle_gamma   89.86826274
_symmetry_Int_Tables_number   1
_chemical_formula_structural   Dy23Y(CoTc)4
_chemical_formula_sum   'Dy23 Y1 Co4 Tc4'
_cell_volume   824.88993792
_cell_formula_units_Z   1
loop_
 _symmetry_equiv_pos_site_id
 _symmetry_equiv_pos_as_xyz
  1  'x, y, z'
loop_
 _atom_site_type_symbol
 _atom_site_label
 _atom_site_symmetry_multiplicity
 _atom_site_fract_x
 _atom_site_fract_y
 _atom_site_fract_z
 _atom_site_occupancy
  Dy  Dy0  1  0.536317  0.750126  0.350272  1
  Dy  Dy1  1  0.036650  0.249869  0.149611  1
  Dy  Dy2  1  0.464069  0.249113  0.649794  1
  Dy  Dy3  1  0.964094  0.749351  0.850509  1
  Dy  Dy4  1  0.773143  0.751149  0.108280  1
  Dy  Dy5  1  0.272582  0.250185  0.391601  1
  Dy  Dy6  1  0.226928  0.249905  0.891834  1
  Dy  Dy7  1  0.727550  0.749966  0.608478  1
  Dy  Dy8  1  0.411537  0.932062  0.784797  1
  Dy  Dy9  1  0.912540  0.066645  0.715856  1
  Dy  Dy10  1  0.587591  0.433047  0.214748  1
  Dy  Dy11  1  0.087567  0.567789  0.284505  1
  Dy  Dy12  1  0.588520  0.067923  0.215305  1
  Dy  Dy13  1  0.087991  0.933154  0.284353  1
  Dy  Dy14  1  0.413148  0.566341  0.784428  1
  Dy  Dy15  1  0.912215  0.431638  0.715870  1
  Dy  Dy16  1  0.240647  0.934929  0.537049  1
  Dy  Dy17  1  0.740623  0.064868  0.962643  1
  Dy  Dy18  1  0.759466  0.434676  0.462870  1
  Dy  Dy19  1  0.258363  0.565140  0.036854  1
  Dy  Dy20  1  0.759675  0.065184  0.463006  1
  Dy  Dy21  1  0.259517  0.935191  0.037026  1
  Dy  Dy22  1  0.239962  0.564680  0.537074  1
  Y  Y23  1  0.740721  0.435724  0.963489  1
  Co  Co24  1  0.373012  0.748541  0.182462  1
  Co  Co25  1  0.873691  0.249474  0.316863  1
  Co  Co26  1  0.625528  0.252103  0.817256  1
  Co  Co27  1  0.127355  0.751830  0.683011  1
  Tc  Tc28  1  0.932658  0.750399  0.434433  1
  Tc  Tc29  1  0.431951  0.249037  0.065440  1
  Tc  Tc30  1  0.067464  0.249789  0.565724  1
  Tc  Tc31  1  0.566927  0.750174  0.934558  1
