# generated using pymatgen
data_Nd8SiPd19Pt5
_symmetry_space_group_name_H-M   'P 1'
_cell_length_a   8.47521500
_cell_length_b   8.47521500
_cell_length_c   8.49053300
_cell_angle_alpha   90.00000000
_cell_angle_beta   90.00000000
_cell_angle_gamma   90.00000000
_symmetry_Int_Tables_number   1
_chemical_formula_structural   Nd8SiPd19Pt5
_chemical_formula_sum   'Nd8 Si1 Pd19 Pt5'
_cell_volume   609.86878133
_cell_formula_units_Z   1
loop_
 _symmetry_equiv_pos_site_id
 _symmetry_equiv_pos_as_xyz
  1  'x, y, z'
loop_
 _atom_site_type_symbol
 _atom_site_label
 _atom_site_symmetry_multiplicity
 _atom_site_fract_x
 _atom_site_fract_y
 _atom_site_fract_z
 _atom_site_occupancy
  Nd  Nd0  1  0.252490  0.252490  0.252528  1
  Nd  Nd1  1  0.746934  0.746934  0.746639  1
  Nd  Nd2  1  0.747510  0.747510  0.252528  1
  Nd  Nd3  1  0.746934  0.253066  0.746639  1
  Nd  Nd4  1  0.253066  0.253066  0.746639  1
  Nd  Nd5  1  0.252490  0.747510  0.252528  1
  Nd  Nd6  1  0.253066  0.746934  0.746639  1
  Nd  Nd7  1  0.747510  0.252490  0.252528  1
  Si  Si8  1  0.000000  0.000000  0.005935  1
  Pd  Pd9  1  0.257807  0.500000  0.999852  1
  Pd  Pd10  1  0.742193  0.500000  0.999852  1
  Pd  Pd11  1  0.000000  0.258494  0.499941  1
  Pd  Pd12  1  0.500000  0.257807  0.999852  1
  Pd  Pd13  1  0.000000  0.741506  0.499941  1
  Pd  Pd14  1  0.500000  0.742193  0.999852  1
  Pd  Pd15  1  0.500000  0.000000  0.257243  1
  Pd  Pd16  1  0.258494  0.000000  0.499941  1
  Pd  Pd17  1  0.500000  0.000000  0.741228  1
  Pd  Pd18  1  0.741506  0.000000  0.499941  1
  Pd  Pd19  1  0.000000  0.500000  0.257243  1
  Pd  Pd20  1  0.000000  0.500000  0.741228  1
  Pd  Pd21  1  0.252840  0.500000  0.499839  1
  Pd  Pd22  1  0.747160  0.500000  0.499839  1
  Pd  Pd23  1  0.500000  0.252840  0.499839  1
  Pd  Pd24  1  0.500000  0.747160  0.499839  1
  Pd  Pd25  1  0.500000  0.500000  0.253067  1
  Pd  Pd26  1  0.500000  0.500000  0.747158  1
  Pd  Pd27  1  0.000000  0.000000  0.720479  1
  Pt  Pt28  1  0.281144  0.000000  0.998673  1
  Pt  Pt29  1  0.718856  0.000000  0.998673  1
  Pt  Pt30  1  0.000000  0.281144  0.998673  1
  Pt  Pt31  1  0.000000  0.718856  0.998673  1
  Pt  Pt32  1  0.000000  0.000000  0.286533  1
