# generated using pymatgen
data_Nd20Ge8Os3Ru
_symmetry_space_group_name_H-M   'P 1'
_cell_length_a   7.98732543
_cell_length_b   8.93493700
_cell_length_c   12.27506866
_cell_angle_alpha   90.00000000
_cell_angle_beta   90.03763884
_cell_angle_gamma   90.00000000
_symmetry_Int_Tables_number   1
_chemical_formula_structural   Nd20Ge8Os3Ru
_chemical_formula_sum   'Nd20 Ge8 Os3 Ru1'
_cell_volume   876.02542404
_cell_formula_units_Z   1
loop_
 _symmetry_equiv_pos_site_id
 _symmetry_equiv_pos_as_xyz
  1  'x, y, z'
loop_
 _atom_site_type_symbol
 _atom_site_label
 _atom_site_symmetry_multiplicity
 _atom_site_fract_x
 _atom_site_fract_y
 _atom_site_fract_z
 _atom_site_occupancy
  Nd  Nd0  1  0.669411  0.750000  0.715563  1
  Nd  Nd1  1  0.330672  0.250000  0.284479  1
  Nd  Nd2  1  0.169319  0.250000  0.784367  1
  Nd  Nd3  1  0.830782  0.750000  0.215477  1
  Nd  Nd4  1  0.143878  0.750000  0.796915  1
  Nd  Nd5  1  0.856182  0.250000  0.203073  1
  Nd  Nd6  1  0.643854  0.250000  0.702965  1
  Nd  Nd7  1  0.356305  0.750000  0.297247  1
  Nd  Nd8  1  0.538859  0.750000  0.998761  1
  Nd  Nd9  1  0.461186  0.250000  0.001244  1
  Nd  Nd10  1  0.038712  0.250000  0.501179  1
  Nd  Nd11  1  0.961540  0.750000  0.498608  1
  Nd  Nd12  1  0.820526  0.464765  0.926706  1
  Nd  Nd13  1  0.179490  0.535356  0.073263  1
  Nd  Nd14  1  0.320303  0.535185  0.573374  1
  Nd  Nd15  1  0.179490  0.964644  0.073263  1
  Nd  Nd16  1  0.679340  0.465152  0.426735  1
  Nd  Nd17  1  0.820526  0.035235  0.926706  1
  Nd  Nd18  1  0.679340  0.034848  0.426735  1
  Nd  Nd19  1  0.320303  0.964815  0.573374  1
  Ge  Ge20  1  0.938120  0.005086  0.671447  1
  Ge  Ge21  1  0.061826  0.994685  0.328571  1
  Ge  Ge22  1  0.438236  0.994650  0.828378  1
  Ge  Ge23  1  0.061826  0.505315  0.328571  1
  Ge  Ge24  1  0.561688  0.005174  0.171720  1
  Ge  Ge25  1  0.938120  0.494914  0.671447  1
  Ge  Ge26  1  0.561688  0.494826  0.171720  1
  Ge  Ge27  1  0.438236  0.505350  0.828378  1
  Os  Os28  1  0.920919  0.750000  0.983735  1
  Os  Os29  1  0.078963  0.250000  0.016356  1
  Os  Os30  1  0.421286  0.250000  0.516305  1
  Ru  Ru31  1  0.579074  0.750000  0.483338  1
