# generated using pymatgen
data_Ho8TiV6Si16W5
_symmetry_space_group_name_H-M   'P 1'
_cell_length_a   6.84036990
_cell_length_b   6.83817761
_cell_length_c   12.71090599
_cell_angle_alpha   89.91051720
_cell_angle_beta   90.15294547
_cell_angle_gamma   90.01265457
_symmetry_Int_Tables_number   1
_chemical_formula_structural   Ho8TiV6Si16W5
_chemical_formula_sum   'Ho8 Ti1 V6 Si16 W5'
_cell_volume   594.55821418
_cell_formula_units_Z   1
loop_
 _symmetry_equiv_pos_site_id
 _symmetry_equiv_pos_as_xyz
  1  'x, y, z'
loop_
 _atom_site_type_symbol
 _atom_site_label
 _atom_site_symmetry_multiplicity
 _atom_site_fract_x
 _atom_site_fract_y
 _atom_site_fract_z
 _atom_site_occupancy
  Ho  Ho0  1  0.338694  0.999500  0.468396  1
  Ho  Ho1  1  0.498475  0.838175  0.719716  1
  Ho  Ho2  1  0.500640  0.162657  0.220335  1
  Ho  Ho3  1  0.837798  0.499388  0.279313  1
  Ho  Ho4  1  0.162124  0.500575  0.781625  1
  Ho  Ho5  1  0.660807  0.000276  0.970528  1
  Ho  Ho6  1  0.999713  0.338775  0.529420  1
  Ho  Ho7  1  0.999145  0.662973  0.030643  1
  Ti  Ti8  1  0.994175  0.841591  0.625539  1
  V  V9  1  0.492550  0.659152  0.125727  1
  V  V10  1  0.506907  0.340676  0.625450  1
  V  V11  1  0.657933  0.492573  0.876110  1
  V  V12  1  0.342134  0.506107  0.374451  1
  V  V13  1  0.840839  0.991405  0.375983  1
  V  V14  1  0.007012  0.158518  0.124380  1
  Si  Si15  1  0.206804  0.129833  0.681717  1
  Si  Si16  1  0.378298  0.700121  0.934855  1
  Si  Si17  1  0.623911  0.298823  0.433035  1
  Si  Si18  1  0.700053  0.376699  0.066659  1
  Si  Si19  1  0.302184  0.623044  0.564769  1
  Si  Si20  1  0.799021  0.877059  0.184311  1
  Si  Si21  1  0.122610  0.200917  0.315900  1
  Si  Si22  1  0.869989  0.794819  0.818015  1
  Si  Si23  1  0.290154  0.958398  0.066348  1
  Si  Si24  1  0.541088  0.787671  0.313857  1
  Si  Si25  1  0.462173  0.213272  0.813455  1
  Si  Si26  1  0.787369  0.537664  0.685764  1
  Si  Si27  1  0.211489  0.458467  0.185929  1
  Si  Si28  1  0.707590  0.044654  0.563685  1
  Si  Si29  1  0.956104  0.292153  0.936931  1
  Si  Si30  1  0.043280  0.710055  0.433384  1
  W  W31  1  0.330840  0.331637  0.000137  1
  W  W32  1  0.168709  0.830163  0.249477  1
  W  W33  1  0.830446  0.168393  0.749863  1
  W  W34  1  0.669634  0.668560  0.498902  1
  W  W35  1  0.159306  0.005256  0.875394  1
