# generated using pymatgen
data_Ho4NbMoOs6
_symmetry_space_group_name_H-M   'P 1'
_cell_length_a   5.26877584
_cell_length_b   5.26877432
_cell_length_c   8.98982300
_cell_angle_alpha   90.00000000
_cell_angle_beta   90.00000000
_cell_angle_gamma   116.30717522
_symmetry_Int_Tables_number   1
_chemical_formula_structural   Ho4NbMoOs6
_chemical_formula_sum   'Ho4 Nb1 Mo1 Os6'
_cell_volume   223.71097800
_cell_formula_units_Z   1
loop_
 _symmetry_equiv_pos_site_id
 _symmetry_equiv_pos_as_xyz
  1  'x, y, z'
loop_
 _atom_site_type_symbol
 _atom_site_label
 _atom_site_symmetry_multiplicity
 _atom_site_fract_x
 _atom_site_fract_y
 _atom_site_fract_z
 _atom_site_occupancy
  Ho  Ho0  1  0.328942  0.671058  0.437554  1
  Ho  Ho1  1  0.668954  0.331046  0.566472  1
  Ho  Ho2  1  0.668954  0.331046  0.933528  1
  Ho  Ho3  1  0.328942  0.671058  0.062446  1
  Nb  Nb4  1  0.837906  0.162094  0.250000  1
  Mo  Mo5  1  0.166117  0.833883  0.750000  1
  Os  Os6  1  0.002406  0.997594  0.503915  1
  Os  Os7  1  0.002406  0.997594  0.996085  1
  Os  Os8  1  0.821920  0.652144  0.250000  1
  Os  Os9  1  0.347856  0.178080  0.250000  1
  Os  Os10  1  0.174286  0.348686  0.750000  1
  Os  Os11  1  0.651314  0.825714  0.750000  1
