# generated using pymatgen
data_HoTmZrGa5
_symmetry_space_group_name_H-M   'P 1'
_cell_length_a   5.94496200
_cell_length_b   9.42140700
_cell_length_c   11.30011600
_cell_angle_alpha   90.00000000
_cell_angle_beta   90.00000000
_cell_angle_gamma   90.00000000
_symmetry_Int_Tables_number   1
_chemical_formula_structural   HoTmZrGa5
_chemical_formula_sum   'Ho4 Tm4 Zr4 Ga20'
_cell_volume   632.91844175
_cell_formula_units_Z   4
loop_
 _symmetry_equiv_pos_site_id
 _symmetry_equiv_pos_as_xyz
  1  'x, y, z'
loop_
 _atom_site_type_symbol
 _atom_site_label
 _atom_site_symmetry_multiplicity
 _atom_site_fract_x
 _atom_site_fract_y
 _atom_site_fract_z
 _atom_site_occupancy
  Ho  Ho0  1  0.886969  0.507092  0.352853  1
  Ho  Ho1  1  0.613031  0.992908  0.852853  1
  Ho  Ho2  1  0.113031  0.007092  0.647147  1
  Ho  Ho3  1  0.386969  0.492908  0.147147  1
  Tm  Tm4  1  0.112902  0.492899  0.647302  1
  Tm  Tm5  1  0.387098  0.007101  0.147302  1
  Tm  Tm6  1  0.887098  0.992899  0.352698  1
  Tm  Tm7  1  0.612902  0.507101  0.852698  1
  Zr  Zr8  1  0.857472  0.749872  0.074222  1
  Zr  Zr9  1  0.642528  0.750128  0.574222  1
  Zr  Zr10  1  0.142528  0.249872  0.925778  1
  Zr  Zr11  1  0.357472  0.250128  0.425778  1
  Ga  Ga12  1  0.875058  0.052770  0.089724  1
  Ga  Ga13  1  0.624942  0.447230  0.589724  1
  Ga  Ga14  1  0.124942  0.552770  0.910276  1
  Ga  Ga15  1  0.375058  0.947230  0.410276  1
  Ga  Ga16  1  0.124805  0.947129  0.910696  1
  Ga  Ga17  1  0.375195  0.552871  0.410696  1
  Ga  Ga18  1  0.875195  0.447129  0.089304  1
  Ga  Ga19  1  0.624805  0.052871  0.589304  1
  Ga  Ga20  1  0.162192  0.750426  0.253992  1
  Ga  Ga21  1  0.337808  0.749574  0.753992  1
  Ga  Ga22  1  0.837808  0.250426  0.746008  1
  Ga  Ga23  1  0.662192  0.249574  0.246008  1
  Ga  Ga24  1  0.389230  0.750177  0.003092  1
  Ga  Ga25  1  0.110770  0.749823  0.503092  1
  Ga  Ga26  1  0.610770  0.250177  0.996908  1
  Ga  Ga27  1  0.889230  0.249823  0.496908  1
  Ga  Ga28  1  0.607941  0.750320  0.293995  1
  Ga  Ga29  1  0.892059  0.749680  0.793995  1
  Ga  Ga30  1  0.392059  0.250320  0.706005  1
  Ga  Ga31  1  0.107941  0.249680  0.206005  1
