# generated using pymatgen
data_Ca3HoTm2(Si3Ru)8
_symmetry_space_group_name_H-M   'P 1'
_cell_length_a   10.14873202
_cell_length_b   10.14873278
_cell_length_c   8.13295102
_cell_angle_alpha   89.98547631
_cell_angle_beta   90.00014100
_cell_angle_gamma   132.74351024
_symmetry_Int_Tables_number   1
_chemical_formula_structural   Ca3HoTm2(Si3Ru)8
_chemical_formula_sum   'Ca3 Ho1 Tm2 Si24 Ru8'
_cell_volume   615.18259775
_cell_formula_units_Z   1
loop_
 _symmetry_equiv_pos_site_id
 _symmetry_equiv_pos_as_xyz
  1  'x, y, z'
loop_
 _atom_site_type_symbol
 _atom_site_label
 _atom_site_symmetry_multiplicity
 _atom_site_fract_x
 _atom_site_fract_y
 _atom_site_fract_z
 _atom_site_occupancy
  Ca  Ca0  1  0.500041  0.499955  0.499993  1
  Ca  Ca1  1  0.500967  0.000870  0.749809  1
  Ca  Ca2  1  0.999125  0.499028  0.250184  1
  Ho  Ho3  1  0.001613  0.501576  0.749805  1
  Tm  Tm4  1  0.999991  0.000010  0.000008  1
  Tm  Tm5  1  0.498444  0.998404  0.250202  1
  Si  Si6  1  0.794976  0.204838  0.499905  1
  Si  Si7  1  0.294300  0.705908  0.000110  1
  Si  Si8  1  0.205570  0.794639  0.499888  1
  Si  Si9  1  0.705224  0.294591  0.000093  1
  Si  Si10  1  0.331954  0.336352  0.831815  1
  Si  Si11  1  0.663634  0.668059  0.168189  1
  Si  Si12  1  0.169798  0.165592  0.333814  1
  Si  Si13  1  0.834397  0.830216  0.666182  1
  Si  Si14  1  0.122421  0.889150  0.728221  1
  Si  Si15  1  0.110909  0.877616  0.271803  1
  Si  Si16  1  0.608531  0.375343  0.229419  1
  Si  Si17  1  0.624587  0.391434  0.770559  1
  Si  Si18  1  0.874792  0.108148  0.271475  1
  Si  Si19  1  0.891820  0.125141  0.728550  1
  Si  Si20  1  0.388947  0.622186  0.770708  1
  Si  Si21  1  0.377851  0.611112  0.229267  1
  Si  Si22  1  0.346113  0.112692  0.504784  1
  Si  Si23  1  0.887287  0.653885  0.495162  1
  Si  Si24  1  0.388445  0.155173  0.007265  1
  Si  Si25  1  0.844834  0.611598  0.992786  1
  Si  Si26  1  0.653616  0.886540  0.492042  1
  Si  Si27  1  0.113502  0.346391  0.507904  1
  Si  Si28  1  0.610850  0.844498  0.996477  1
  Si  Si29  1  0.155502  0.389125  0.003579  1
  Ru  Ru30  1  0.670837  0.328927  0.499896  1
  Ru  Ru31  1  0.168877  0.831341  0.000118  1
  Ru  Ru32  1  0.329953  0.670267  0.499882  1
  Ru  Ru33  1  0.830250  0.169513  0.000103  1
  Ru  Ru34  1  0.124498  0.125121  0.627665  1
  Ru  Ru35  1  0.874869  0.875477  0.372356  1
  Ru  Ru36  1  0.372138  0.371454  0.124412  1
  Ru  Ru37  1  0.628532  0.627834  0.875571  1
