# generated using pymatgen
data_Dy4Al17CuSiRh5
_symmetry_space_group_name_H-M   'P 1'
_cell_length_a   7.54971887
_cell_length_b   7.54970993
_cell_length_c   9.39309006
_cell_angle_alpha   90.04929927
_cell_angle_beta   90.04983843
_cell_angle_gamma   119.54960247
_symmetry_Int_Tables_number   1
_chemical_formula_structural   Dy4Al17CuSiRh5
_chemical_formula_sum   'Dy4 Al17 Cu1 Si1 Rh5'
_cell_volume   465.74985925
_cell_formula_units_Z   1
loop_
 _symmetry_equiv_pos_site_id
 _symmetry_equiv_pos_as_xyz
  1  'x, y, z'
loop_
 _atom_site_type_symbol
 _atom_site_label
 _atom_site_symmetry_multiplicity
 _atom_site_fract_x
 _atom_site_fract_y
 _atom_site_fract_z
 _atom_site_occupancy
  Dy  Dy0  1  0.994011  0.677589  0.748942  1
  Dy  Dy1  1  0.005008  0.327341  0.251147  1
  Dy  Dy2  1  0.677588  0.994011  0.748942  1
  Dy  Dy3  1  0.327342  0.005010  0.251147  1
  Al  Al4  1  0.871749  0.871748  0.247068  1
  Al  Al5  1  0.001601  0.339453  0.578322  1
  Al  Al6  1  0.998572  0.661235  0.423085  1
  Al  Al7  1  0.000501  0.665303  0.073604  1
  Al  Al8  1  0.337001  0.999950  0.925723  1
  Al  Al9  1  0.999949  0.336999  0.925724  1
  Al  Al10  1  0.665303  0.000500  0.073603  1
  Al  Al11  1  0.661236  0.998573  0.423085  1
  Al  Al12  1  0.339453  0.001602  0.578324  1
  Al  Al13  1  0.332440  0.332440  0.054647  1
  Al  Al14  1  0.665153  0.665152  0.949389  1
  Al  Al15  1  0.662283  0.662283  0.552227  1
  Al  Al16  1  0.335819  0.335820  0.443009  1
  Al  Al17  1  0.335794  0.550344  0.750743  1
  Al  Al18  1  0.661054  0.449807  0.249657  1
  Al  Al19  1  0.550346  0.335794  0.750747  1
  Al  Al20  1  0.449805  0.661053  0.249654  1
  Cu  Cu21  1  0.000908  0.000906  0.505009  1
  Si  Si22  1  0.131029  0.131029  0.751914  1
  Rh  Rh23  1  0.670482  0.326705  0.500844  1
  Rh  Rh24  1  0.326708  0.670486  0.500844  1
  Rh  Rh25  1  0.327353  0.670498  0.999645  1
  Rh  Rh26  1  0.670497  0.327353  0.999647  1
  Rh  Rh27  1  0.001014  0.001013  0.993307  1
