# generated using pymatgen
data_HoEr3(Si5Ir3)2
_symmetry_space_group_name_H-M   'P 1'
_cell_length_a   8.13746751
_cell_length_b   8.13677663
_cell_length_c   8.13677692
_cell_angle_alpha   138.21561698
_cell_angle_beta   103.91831973
_cell_angle_gamma   90.78969871
_symmetry_Int_Tables_number   1
_chemical_formula_structural   HoEr3(Si5Ir3)2
_chemical_formula_sum   'Ho1 Er3 Si10 Ir6'
_cell_volume   332.55056610
_cell_formula_units_Z   1
loop_
 _symmetry_equiv_pos_site_id
 _symmetry_equiv_pos_as_xyz
  1  'x, y, z'
loop_
 _atom_site_type_symbol
 _atom_site_label
 _atom_site_symmetry_multiplicity
 _atom_site_fract_x
 _atom_site_fract_y
 _atom_site_fract_z
 _atom_site_occupancy
  Ho  Ho0  1  0.859790  0.631633  0.228157  1
  Er  Er1  1  0.140372  0.368384  0.771988  1
  Er  Er2  1  0.403590  0.131620  0.271969  1
  Er  Er3  1  0.596388  0.868369  0.728019  1
  Si  Si4  1  0.499931  0.750000  0.249968  1
  Si  Si5  1  0.499931  0.249963  0.749931  1
  Si  Si6  1  0.225017  0.975001  0.750023  1
  Si  Si7  1  0.775002  0.525025  0.749949  1
  Si  Si8  1  0.775002  0.025054  0.249978  1
  Si  Si9  1  0.225017  0.474993  0.250015  1
  Si  Si10  1  0.049669  0.893679  0.155991  1
  Si  Si11  1  0.950403  0.106366  0.844036  1
  Si  Si12  1  0.737549  0.393503  0.344046  1
  Si  Si13  1  0.262374  0.606389  0.655984  1
  Ir  Ir14  1  0.999980  0.749940  0.749969  1
  Ir  Ir15  1  0.999980  0.250011  0.250041  1
  Ir  Ir16  1  0.246238  0.860559  0.385680  1
  Ir  Ir17  1  0.753947  0.139614  0.614332  1
  Ir  Ir18  1  0.474696  0.360313  0.114384  1
  Ir  Ir19  1  0.525124  0.639585  0.885539  1
