# generated using pymatgen
data_Tm5Bi2Rh
_symmetry_space_group_name_H-M   'P 1'
_cell_length_a   7.88816600
_cell_length_b   8.95935400
_cell_length_c   12.32521800
_cell_angle_alpha   90.00000000
_cell_angle_beta   90.00000000
_cell_angle_gamma   90.00000000
_symmetry_Int_Tables_number   1
_chemical_formula_structural   Tm5Bi2Rh
_chemical_formula_sum   'Tm20 Bi8 Rh4'
_cell_volume   871.05854921
_cell_formula_units_Z   4
loop_
 _symmetry_equiv_pos_site_id
 _symmetry_equiv_pos_as_xyz
  1  'x, y, z'
loop_
 _atom_site_type_symbol
 _atom_site_label
 _atom_site_symmetry_multiplicity
 _atom_site_fract_x
 _atom_site_fract_y
 _atom_site_fract_z
 _atom_site_occupancy
  Tm  Tm0  1  0.841077  0.750000  0.792712  1
  Tm  Tm1  1  0.158923  0.250000  0.207288  1
  Tm  Tm2  1  0.341077  0.250000  0.707288  1
  Tm  Tm3  1  0.658923  0.750000  0.292712  1
  Tm  Tm4  1  0.380282  0.750000  0.692797  1
  Tm  Tm5  1  0.619718  0.250000  0.307203  1
  Tm  Tm6  1  0.880282  0.250000  0.807203  1
  Tm  Tm7  1  0.119718  0.750000  0.192797  1
  Tm  Tm8  1  0.948577  0.750000  0.501031  1
  Tm  Tm9  1  0.051423  0.250000  0.498969  1
  Tm  Tm10  1  0.448577  0.250000  0.998969  1
  Tm  Tm11  1  0.551423  0.750000  0.001031  1
  Tm  Tm12  1  0.676645  0.044273  0.565543  1
  Tm  Tm13  1  0.323355  0.955727  0.434457  1
  Tm  Tm14  1  0.176645  0.955727  0.934457  1
  Tm  Tm15  1  0.323355  0.544273  0.434457  1
  Tm  Tm16  1  0.823355  0.044273  0.065543  1
  Tm  Tm17  1  0.676645  0.455727  0.565543  1
  Tm  Tm18  1  0.823355  0.455727  0.065543  1
  Tm  Tm19  1  0.176645  0.544273  0.934457  1
  Bi  Bi20  1  0.569751  0.489860  0.827076  1
  Bi  Bi21  1  0.430249  0.510140  0.172924  1
  Bi  Bi22  1  0.069751  0.510140  0.672924  1
  Bi  Bi23  1  0.430249  0.989860  0.172924  1
  Bi  Bi24  1  0.930249  0.489860  0.327076  1
  Bi  Bi25  1  0.569751  0.010140  0.827076  1
  Bi  Bi26  1  0.930249  0.010140  0.327076  1
  Bi  Bi27  1  0.069751  0.989860  0.672924  1
  Rh  Rh28  1  0.574536  0.750000  0.510016  1
  Rh  Rh29  1  0.425464  0.250000  0.489984  1
  Rh  Rh30  1  0.074536  0.250000  0.989984  1
  Rh  Rh31  1  0.925464  0.750000  0.010016  1
