# generated using pymatgen
data_La2Pr7Sm(Al2Ru3)2
_symmetry_space_group_name_H-M   'P 1'
_cell_length_a   8.54437506
_cell_length_b   8.68223200
_cell_length_c   8.61474960
_cell_angle_alpha   109.43511380
_cell_angle_beta   109.34297161
_cell_angle_gamma   109.56241015
_symmetry_Int_Tables_number   1
_chemical_formula_structural   La2Pr7Sm(Al2Ru3)2
_chemical_formula_sum   'La2 Pr7 Sm1 Al4 Ru6'
_cell_volume   492.40537971
_cell_formula_units_Z   1
loop_
 _symmetry_equiv_pos_site_id
 _symmetry_equiv_pos_as_xyz
  1  'x, y, z'
loop_
 _atom_site_type_symbol
 _atom_site_label
 _atom_site_symmetry_multiplicity
 _atom_site_fract_x
 _atom_site_fract_y
 _atom_site_fract_z
 _atom_site_occupancy
  La  La0  1  0.751618  0.810416  0.060290  1
  La  La1  1  0.440066  0.248626  0.689362  1
  Pr  Pr2  1  0.688229  0.436416  0.253814  1
  Pr  Pr3  1  0.064688  0.749680  0.812692  1
  Pr  Pr4  1  0.816157  0.063415  0.749741  1
  Pr  Pr5  1  0.216766  0.217519  0.214869  1
  Pr  Pr6  1  0.495931  0.995501  0.282946  1
  Pr  Pr7  1  0.287179  0.503319  0.002465  1
  Pr  Pr8  1  0.001036  0.285545  0.502238  1
  Sm  Sm9  1  0.249587  0.683989  0.435277  1
  Al  Al10  1  0.586846  0.590060  0.587208  1
  Al  Al11  1  0.502395  0.002304  0.912493  1
  Al  Al12  1  0.914047  0.497751  0.001951  1
  Al  Al13  1  0.999141  0.907677  0.498753  1
  Ru  Ru14  1  0.254425  0.124846  0.862222  1
  Ru  Ru15  1  0.737410  0.376402  0.631049  1
  Ru  Ru16  1  0.871093  0.253053  0.120570  1
  Ru  Ru17  1  0.105954  0.861864  0.242431  1
  Ru  Ru18  1  0.628706  0.749216  0.382128  1
  Ru  Ru19  1  0.388726  0.642400  0.757504  1
