# generated using pymatgen
data_Nd3Zn(Ir2O7)2
_symmetry_space_group_name_H-M   'P 1'
_cell_length_a   7.20546237
_cell_length_b   7.20546337
_cell_length_c   7.20546223
_cell_angle_alpha   62.02074459
_cell_angle_beta   62.02073861
_cell_angle_gamma   62.02074214
_symmetry_Int_Tables_number   1
_chemical_formula_structural   Nd3Zn(Ir2O7)2
_chemical_formula_sum   'Nd3 Zn1 Ir4 O14'
_cell_volume   276.48196603
_cell_formula_units_Z   1
loop_
 _symmetry_equiv_pos_site_id
 _symmetry_equiv_pos_as_xyz
  1  'x, y, z'
loop_
 _atom_site_type_symbol
 _atom_site_label
 _atom_site_symmetry_multiplicity
 _atom_site_fract_x
 _atom_site_fract_y
 _atom_site_fract_z
 _atom_site_occupancy
  Nd  Nd0  1  0.625000  0.125000  0.125000  1
  Nd  Nd1  1  0.125000  0.625000  0.125000  1
  Nd  Nd2  1  0.125000  0.125000  0.625000  1
  Zn  Zn3  1  0.125000  0.125000  0.125000  1
  Ir  Ir4  1  0.125000  0.625000  0.625000  1
  Ir  Ir5  1  0.625000  0.125000  0.625000  1
  Ir  Ir6  1  0.625000  0.625000  0.125000  1
  Ir  Ir7  1  0.625000  0.625000  0.625000  1
  O  O8  1  0.711832  0.711832  0.290801  1
  O  O9  1  0.301022  0.301022  0.700863  1
  O  O10  1  0.711832  0.290801  0.711832  1
  O  O11  1  0.301022  0.700863  0.301022  1
  O  O12  1  0.290801  0.711832  0.711832  1
  O  O13  1  0.700863  0.301022  0.301022  1
  O  O14  1  0.538168  0.538168  0.959199  1
  O  O15  1  0.948978  0.948978  0.549137  1
  O  O16  1  0.538168  0.959199  0.538168  1
  O  O17  1  0.948978  0.549137  0.948978  1
  O  O18  1  0.959199  0.538168  0.538168  1
  O  O19  1  0.549137  0.948978  0.948978  1
  O  O20  1  0.236578  0.236578  0.236578  1
  O  O21  1  0.013422  0.013422  0.013422  1
