# generated using pymatgen
data_Na4AlIn3I16
_symmetry_space_group_name_H-M   'P 1'
_cell_length_a   8.12271005
_cell_length_b   8.69293706
_cell_length_c   15.98303854
_cell_angle_alpha   86.85732439
_cell_angle_beta   90.15170735
_cell_angle_gamma   89.95297614
_symmetry_Int_Tables_number   1
_chemical_formula_structural   Na4AlIn3I16
_chemical_formula_sum   'Na4 Al1 In3 I16'
_cell_volume   1126.86395189
_cell_formula_units_Z   1
loop_
 _symmetry_equiv_pos_site_id
 _symmetry_equiv_pos_as_xyz
  1  'x, y, z'
loop_
 _atom_site_type_symbol
 _atom_site_label
 _atom_site_symmetry_multiplicity
 _atom_site_fract_x
 _atom_site_fract_y
 _atom_site_fract_z
 _atom_site_occupancy
  Na  Na0  1  0.994893  0.849055  0.376143  1
  Na  Na1  1  0.494432  0.150843  0.124173  1
  Na  Na2  1  0.006933  0.151743  0.624264  1
  Na  Na3  1  0.505445  0.849024  0.875736  1
  Al  Al4  1  0.186814  0.707679  0.600393  1
  In  In5  1  0.689176  0.296400  0.898508  1
  In  In6  1  0.810814  0.296548  0.398808  1
  In  In7  1  0.310944  0.703671  0.101527  1
  I  I8  1  0.317687  0.685306  0.456544  1
  I  I9  1  0.824504  0.314753  0.055135  1
  I  I10  1  0.675490  0.313927  0.555019  1
  I  I11  1  0.175635  0.685273  0.944839  1
  I  I12  1  0.131980  0.189603  0.426312  1
  I  I13  1  0.632021  0.810276  0.073724  1
  I  I14  1  0.885872  0.801252  0.576315  1
  I  I15  1  0.367829  0.189617  0.925711  1
  I  I16  1  0.330288  0.924541  0.678913  1
  I  I17  1  0.838533  0.059287  0.815548  1
  I  I18  1  0.661507  0.058948  0.316131  1
  I  I19  1  0.161650  0.940714  0.184406  1
  I  I20  1  0.202263  0.455547  0.689902  1
  I  I21  1  0.704443  0.565515  0.801666  1
  I  I22  1  0.795175  0.566016  0.301757  1
  I  I23  1  0.295674  0.434462  0.198524  1
