# generated using pymatgen
data_Nd3ErPtSe7
_symmetry_space_group_name_H-M   'P 1'
_cell_length_a   4.00083508
_cell_length_b   8.25137577
_cell_length_c   8.56021600
_cell_angle_alpha   90.03719786
_cell_angle_beta   89.98855756
_cell_angle_gamma   89.99541064
_symmetry_Int_Tables_number   1
_chemical_formula_structural   Nd3ErPtSe7
_chemical_formula_sum   'Nd3 Er1 Pt1 Se7'
_cell_volume   282.59315396
_cell_formula_units_Z   1
loop_
 _symmetry_equiv_pos_site_id
 _symmetry_equiv_pos_as_xyz
  1  'x, y, z'
loop_
 _atom_site_type_symbol
 _atom_site_label
 _atom_site_symmetry_multiplicity
 _atom_site_fract_x
 _atom_site_fract_y
 _atom_site_fract_z
 _atom_site_occupancy
  Nd  Nd0  1  0.250292  0.625351  0.747744  1
  Nd  Nd1  1  0.749942  0.870357  0.272540  1
  Nd  Nd2  1  0.749871  0.379165  0.272960  1
  Er  Er3  1  0.250254  0.125285  0.701277  1
  Pt  Pt4  1  0.749599  0.124920  0.993823  1
  Se  Se5  1  0.249649  0.320551  0.993347  1
  Se  Se6  1  0.750144  0.624709  0.006631  1
  Se  Se7  1  0.750273  0.881841  0.635400  1
  Se  Se8  1  0.249975  0.624911  0.378842  1
  Se  Se9  1  0.249700  0.929499  0.993030  1
  Se  Se10  1  0.750330  0.368666  0.635627  1
  Se  Se11  1  0.249969  0.124746  0.368780  1
