# generated using pymatgen
data_Tb17Tm(LuSn8)2
_symmetry_space_group_name_H-M   'P 1'
_cell_length_a   8.03439920
_cell_length_b   8.18490279
_cell_length_c   15.50142100
_cell_angle_alpha   90.00000000
_cell_angle_beta   90.00000000
_cell_angle_gamma   89.97490160
_symmetry_Int_Tables_number   1
_chemical_formula_structural   Tb17Tm(LuSn8)2
_chemical_formula_sum   'Tb17 Tm1 Lu2 Sn16'
_cell_volume   1019.38538292
_cell_formula_units_Z   1
loop_
 _symmetry_equiv_pos_site_id
 _symmetry_equiv_pos_as_xyz
  1  'x, y, z'
loop_
 _atom_site_type_symbol
 _atom_site_label
 _atom_site_symmetry_multiplicity
 _atom_site_fract_x
 _atom_site_fract_y
 _atom_site_fract_z
 _atom_site_occupancy
  Tb  Tb0  1  0.367493  0.837122  0.877522  1
  Tb  Tb1  1  0.867102  0.663236  0.622039  1
  Tb  Tb2  1  0.633234  0.163512  0.378252  1
  Tb  Tb3  1  0.132232  0.337226  0.121717  1
  Tb  Tb4  1  0.633234  0.163512  0.121748  1
  Tb  Tb5  1  0.132232  0.337226  0.378283  1
  Tb  Tb6  1  0.367493  0.837122  0.622478  1
  Tb  Tb7  1  0.867102  0.663236  0.877961  1
  Tb  Tb8  1  0.519872  0.320558  0.902451  1
  Tb  Tb9  1  0.019823  0.179394  0.597787  1
  Tb  Tb10  1  0.480567  0.679215  0.402812  1
  Tb  Tb11  1  0.979981  0.820104  0.097258  1
  Tb  Tb12  1  0.480567  0.679215  0.097188  1
  Tb  Tb13  1  0.979981  0.820104  0.402742  1
  Tb  Tb14  1  0.519872  0.320558  0.597549  1
  Tb  Tb15  1  0.019823  0.179394  0.902213  1
  Tb  Tb16  1  0.301708  0.002375  0.250000  1
  Tm  Tm17  1  0.198466  0.502691  0.750000  1
  Lu  Lu18  1  0.698718  0.997642  0.750000  1
  Lu  Lu19  1  0.800913  0.497005  0.250000  1
  Sn  Sn20  1  0.293006  0.035992  0.041551  1
  Sn  Sn21  1  0.792861  0.464243  0.457638  1
  Sn  Sn22  1  0.707044  0.964447  0.542730  1
  Sn  Sn23  1  0.207242  0.535687  0.957305  1
  Sn  Sn24  1  0.707044  0.964447  0.957270  1
  Sn  Sn25  1  0.207242  0.535687  0.542695  1
  Sn  Sn26  1  0.293006  0.035992  0.458449  1
  Sn  Sn27  1  0.792861  0.464243  0.042362  1
  Sn  Sn28  1  0.564396  0.618295  0.750000  1
  Sn  Sn29  1  0.063479  0.881773  0.750000  1
  Sn  Sn30  1  0.436356  0.382501  0.250000  1
  Sn  Sn31  1  0.934170  0.119037  0.250000  1
  Sn  Sn32  1  0.329160  0.148621  0.750000  1
  Sn  Sn33  1  0.828837  0.351571  0.750000  1
  Sn  Sn34  1  0.672072  0.850985  0.250000  1
  Sn  Sn35  1  0.170811  0.646036  0.250000  1
