# generated using pymatgen
data_Zr5Bi2Sb
_symmetry_space_group_name_H-M   'P 1'
_cell_length_a   7.68924000
_cell_length_b   9.09125900
_cell_length_c   10.93694300
_cell_angle_alpha   90.00000000
_cell_angle_beta   90.00000000
_cell_angle_gamma   90.00000000
_symmetry_Int_Tables_number   1
_chemical_formula_structural   Zr5Bi2Sb
_chemical_formula_sum   'Zr20 Bi8 Sb4'
_cell_volume   764.54560435
_cell_formula_units_Z   4
loop_
 _symmetry_equiv_pos_site_id
 _symmetry_equiv_pos_as_xyz
  1  'x, y, z'
loop_
 _atom_site_type_symbol
 _atom_site_label
 _atom_site_symmetry_multiplicity
 _atom_site_fract_x
 _atom_site_fract_y
 _atom_site_fract_z
 _atom_site_occupancy
  Zr  Zr0  1  0.476476  0.750000  0.504165  1
  Zr  Zr1  1  0.976476  0.250000  0.995835  1
  Zr  Zr2  1  0.523524  0.250000  0.495835  1
  Zr  Zr3  1  0.023524  0.750000  0.004165  1
  Zr  Zr4  1  0.315004  0.750000  0.232530  1
  Zr  Zr5  1  0.815004  0.250000  0.267470  1
  Zr  Zr6  1  0.684996  0.250000  0.767470  1
  Zr  Zr7  1  0.184996  0.750000  0.732530  1
  Zr  Zr8  1  0.172269  0.250000  0.710563  1
  Zr  Zr9  1  0.672269  0.750000  0.789437  1
  Zr  Zr10  1  0.827731  0.750000  0.289437  1
  Zr  Zr11  1  0.327731  0.250000  0.210563  1
  Zr  Zr12  1  0.193887  0.440368  0.450412  1
  Zr  Zr13  1  0.693887  0.559632  0.049588  1
  Zr  Zr14  1  0.806113  0.940368  0.549588  1
  Zr  Zr15  1  0.306113  0.059632  0.950412  1
  Zr  Zr16  1  0.806113  0.559632  0.549588  1
  Zr  Zr17  1  0.306113  0.440368  0.950412  1
  Zr  Zr18  1  0.193887  0.059632  0.450412  1
  Zr  Zr19  1  0.693887  0.940368  0.049588  1
  Bi  Bi20  1  0.062674  0.007423  0.180199  1
  Bi  Bi21  1  0.562674  0.992577  0.319801  1
  Bi  Bi22  1  0.937326  0.507423  0.819801  1
  Bi  Bi23  1  0.437326  0.492577  0.680199  1
  Bi  Bi24  1  0.937326  0.992577  0.819801  1
  Bi  Bi25  1  0.437326  0.007423  0.680199  1
  Bi  Bi26  1  0.062674  0.492577  0.180199  1
  Bi  Bi27  1  0.562674  0.507423  0.319801  1
  Sb  Sb28  1  0.095726  0.750000  0.472255  1
  Sb  Sb29  1  0.595726  0.250000  0.027745  1
  Sb  Sb30  1  0.904274  0.250000  0.527745  1
  Sb  Sb31  1  0.404274  0.750000  0.972255  1
