# generated using pymatgen
data_YErCo4(SiC)2
_symmetry_space_group_name_H-M   'P 1'
_cell_length_a   5.56159892
_cell_length_b   5.56159917
_cell_length_c   6.71366700
_cell_angle_alpha   90.00000000
_cell_angle_beta   90.00000000
_cell_angle_gamma   141.06179384
_symmetry_Int_Tables_number   1
_chemical_formula_structural   YErCo4(SiC)2
_chemical_formula_sum   'Y1 Er1 Co4 Si2 C2'
_cell_volume   130.51243754
_cell_formula_units_Z   1
loop_
 _symmetry_equiv_pos_site_id
 _symmetry_equiv_pos_as_xyz
  1  'x, y, z'
loop_
 _atom_site_type_symbol
 _atom_site_label
 _atom_site_symmetry_multiplicity
 _atom_site_fract_x
 _atom_site_fract_y
 _atom_site_fract_z
 _atom_site_occupancy
  Y  Y0  1  0.448985  0.551015  0.750000  1
  Er  Er1  1  0.551027  0.448973  0.250000  1
  Co  Co2  1  0.836055  0.163945  0.056908  1
  Co  Co3  1  0.163845  0.836155  0.944538  1
  Co  Co4  1  0.163845  0.836155  0.555462  1
  Co  Co5  1  0.836055  0.163945  0.443092  1
  Si  Si6  1  0.271791  0.728209  0.250000  1
  Si  Si7  1  0.728057  0.271943  0.750000  1
  C  C8  1  0.000171  0.999829  0.002486  1
  C  C9  1  0.000171  0.999829  0.497514  1
