# generated using pymatgen
data_Dy2Y4CoRh
_symmetry_space_group_name_H-M   'P 1'
_cell_length_a   6.30137261
_cell_length_b   7.10559841
_cell_length_c   9.47597820
_cell_angle_alpha   89.98676535
_cell_angle_beta   90.01967002
_cell_angle_gamma   90.52849906
_symmetry_Int_Tables_number   1
_chemical_formula_structural   Dy2Y4CoRh
_chemical_formula_sum   'Dy4 Y8 Co2 Rh2'
_cell_volume   424.26905813
_cell_formula_units_Z   2
loop_
 _symmetry_equiv_pos_site_id
 _symmetry_equiv_pos_as_xyz
  1  'x, y, z'
loop_
 _atom_site_type_symbol
 _atom_site_label
 _atom_site_symmetry_multiplicity
 _atom_site_fract_x
 _atom_site_fract_y
 _atom_site_fract_z
 _atom_site_occupancy
  Dy  Dy0  1  0.176413  0.179555  0.065302  1
  Dy  Dy1  1  0.823391  0.820351  0.934697  1
  Dy  Dy2  1  0.673325  0.330304  0.932992  1
  Dy  Dy3  1  0.823028  0.820408  0.565300  1
  Y  Y4  1  0.627768  0.045346  0.249751  1
  Y  Y5  1  0.372302  0.954816  0.750296  1
  Y  Y6  1  0.142407  0.467611  0.750189  1
  Y  Y7  1  0.857814  0.532652  0.249628  1
  Y  Y8  1  0.327541  0.669893  0.066227  1
  Y  Y9  1  0.176286  0.179716  0.435399  1
  Y  Y10  1  0.327071  0.670172  0.433705  1
  Y  Y11  1  0.673121  0.330200  0.566405  1
  Co  Co12  1  0.449067  0.384061  0.249233  1
  Co  Co13  1  0.552491  0.615524  0.750855  1
  Rh  Rh14  1  0.948985  0.112038  0.751015  1
  Rh  Rh15  1  0.048990  0.887350  0.249006  1
