# generated using pymatgen
data_Tm4Ge5AsRh7
_symmetry_space_group_name_H-M   'P 1'
_cell_length_a   7.23345190
_cell_length_b   7.23345312
_cell_length_c   7.23345299
_cell_angle_alpha   109.51378676
_cell_angle_beta   109.38614106
_cell_angle_gamma   109.51377338
_symmetry_Int_Tables_number   1
_chemical_formula_structural   Tm4Ge5AsRh7
_chemical_formula_sum   'Tm4 Ge5 As1 Rh7'
_cell_volume   291.34951008
_cell_formula_units_Z   1
loop_
 _symmetry_equiv_pos_site_id
 _symmetry_equiv_pos_as_xyz
  1  'x, y, z'
loop_
 _atom_site_type_symbol
 _atom_site_label
 _atom_site_symmetry_multiplicity
 _atom_site_fract_x
 _atom_site_fract_y
 _atom_site_fract_z
 _atom_site_occupancy
  Tm  Tm0  1  0.500250  0.499738  0.500250  1
  Tm  Tm1  1  0.000512  0.500262  0.000512  1
  Tm  Tm2  1  0.500250  0.000000  0.000512  1
  Tm  Tm3  1  0.000512  0.000000  0.500250  1
  Ge  Ge4  1  0.681889  0.680854  0.001035  1
  Ge  Ge5  1  0.320181  0.319146  0.001035  1
  Ge  Ge6  1  0.001035  0.680854  0.681889  1
  Ge  Ge7  1  0.001035  0.319146  0.320181  1
  Ge  Ge8  1  0.314659  0.000000  0.314659  1
  As  As9  1  0.681362  0.000000  0.681362  1
  Rh  Rh10  1  0.750768  0.500000  0.250768  1
  Rh  Rh11  1  0.499185  0.249040  0.748225  1
  Rh  Rh12  1  0.748225  0.249040  0.499185  1
  Rh  Rh13  1  0.250145  0.750960  0.499185  1
  Rh  Rh14  1  0.250768  0.500000  0.750768  1
  Rh  Rh15  1  0.499185  0.750960  0.250145  1
  Rh  Rh16  1  0.000039  0.000000  0.000039  1
