# generated using pymatgen
data_TbY3Ga4RuPt3
_symmetry_space_group_name_H-M   'P 1'
_cell_length_a   4.43736000
_cell_length_b   6.89708123
_cell_length_c   7.70549015
_cell_angle_alpha   90.02304518
_cell_angle_beta   90.00000000
_cell_angle_gamma   90.00000000
_symmetry_Int_Tables_number   1
_chemical_formula_structural   TbY3Ga4RuPt3
_chemical_formula_sum   'Tb1 Y3 Ga4 Ru1 Pt3'
_cell_volume   235.82521527
_cell_formula_units_Z   1
loop_
 _symmetry_equiv_pos_site_id
 _symmetry_equiv_pos_as_xyz
  1  'x, y, z'
loop_
 _atom_site_type_symbol
 _atom_site_label
 _atom_site_symmetry_multiplicity
 _atom_site_fract_x
 _atom_site_fract_y
 _atom_site_fract_z
 _atom_site_occupancy
  Tb  Tb0  1  0.750000  0.013801  0.697109  1
  Y  Y1  1  0.750000  0.516652  0.799961  1
  Y  Y2  1  0.250000  0.978802  0.308706  1
  Y  Y3  1  0.250000  0.481838  0.194579  1
  Ga  Ga4  1  0.750000  0.673542  0.428196  1
  Ga  Ga5  1  0.250000  0.336724  0.574985  1
  Ga  Ga6  1  0.750000  0.169733  0.074160  1
  Ga  Ga7  1  0.250000  0.827490  0.922402  1
  Ru  Ru8  1  0.250000  0.725756  0.599430  1
  Pt  Pt9  1  0.250000  0.220913  0.900016  1
  Pt  Pt10  1  0.750000  0.777683  0.100193  1
  Pt  Pt11  1  0.750000  0.277066  0.400263  1
