# generated using pymatgen
data_LaEuNiPt3
_symmetry_space_group_name_H-M   'P 1'
_cell_length_a   5.54732949
_cell_length_b   5.54732969
_cell_length_c   5.37894912
_cell_angle_alpha   58.95896415
_cell_angle_beta   58.95896866
_cell_angle_gamma   60.00000758
_symmetry_Int_Tables_number   1
_chemical_formula_structural   LaEuNiPt3
_chemical_formula_sum   'La1 Eu1 Ni1 Pt3'
_cell_volume   115.16867664
_cell_formula_units_Z   1
loop_
 _symmetry_equiv_pos_site_id
 _symmetry_equiv_pos_as_xyz
  1  'x, y, z'
loop_
 _atom_site_type_symbol
 _atom_site_label
 _atom_site_symmetry_multiplicity
 _atom_site_fract_x
 _atom_site_fract_y
 _atom_site_fract_z
 _atom_site_occupancy
  La  La0  1  0.250785  0.250785  0.247645  1
  Eu  Eu1  1  0.999058  0.999058  0.002825  1
  Ni  Ni2  1  0.625524  0.625524  0.123428  1
  Pt  Pt3  1  0.625294  0.124044  0.625367  1
  Pt  Pt4  1  0.124044  0.625294  0.625367  1
  Pt  Pt5  1  0.625294  0.625294  0.625367  1
