# generated using pymatgen
data_LaPr4(RhO6)2
_symmetry_space_group_name_H-M   'P 1'
_cell_length_a   7.13338932
_cell_length_b   7.13338897
_cell_length_c   7.67384692
_cell_angle_alpha   74.47734391
_cell_angle_beta   74.47734196
_cell_angle_gamma   50.77833475
_symmetry_Int_Tables_number   1
_chemical_formula_structural   LaPr4(RhO6)2
_chemical_formula_sum   'La1 Pr4 Rh2 O12'
_cell_volume   288.93351572
_cell_formula_units_Z   1
loop_
 _symmetry_equiv_pos_site_id
 _symmetry_equiv_pos_as_xyz
  1  'x, y, z'
loop_
 _atom_site_type_symbol
 _atom_site_label
 _atom_site_symmetry_multiplicity
 _atom_site_fract_x
 _atom_site_fract_y
 _atom_site_fract_z
 _atom_site_occupancy
  La  La0  1  0.000000  0.000000  0.500000  1
  Pr  Pr1  1  0.306099  0.306099  0.357052  1
  Pr  Pr2  1  0.693901  0.693901  0.642948  1
  Pr  Pr3  1  0.692603  0.692603  0.165962  1
  Pr  Pr4  1  0.307397  0.307397  0.834038  1
  Rh  Rh5  1  0.754585  0.245415  0.000000  1
  Rh  Rh6  1  0.245415  0.754585  0.000000  1
  O  O7  1  0.094430  0.596602  0.577570  1
  O  O8  1  0.999080  0.999080  0.170901  1
  O  O9  1  0.403398  0.905570  0.422430  1
  O  O10  1  0.500318  0.500318  0.175525  1
  O  O11  1  0.100641  0.578073  0.079331  1
  O  O12  1  0.905570  0.403398  0.422430  1
  O  O13  1  0.000920  0.000920  0.829099  1
  O  O14  1  0.596602  0.094429  0.577570  1
  O  O15  1  0.499682  0.499682  0.824475  1
  O  O16  1  0.578073  0.100641  0.079331  1
  O  O17  1  0.421927  0.899359  0.920669  1
  O  O18  1  0.899359  0.421927  0.920669  1
