# generated using pymatgen
data_Na4CoCuO5
_symmetry_space_group_name_H-M   'P 1'
_cell_length_a   5.56217481
_cell_length_b   5.56217558
_cell_length_c   10.06554400
_cell_angle_alpha   90.00000000
_cell_angle_beta   90.00000000
_cell_angle_gamma   116.68972808
_symmetry_Int_Tables_number   1
_chemical_formula_structural   Na4CoCuO5
_chemical_formula_sum   'Na8 Co2 Cu2 O10'
_cell_volume   278.22603715
_cell_formula_units_Z   2
loop_
 _symmetry_equiv_pos_site_id
 _symmetry_equiv_pos_as_xyz
  1  'x, y, z'
loop_
 _atom_site_type_symbol
 _atom_site_label
 _atom_site_symmetry_multiplicity
 _atom_site_fract_x
 _atom_site_fract_y
 _atom_site_fract_z
 _atom_site_occupancy
  Na  Na0  1  0.364541  0.994750  0.250000  1
  Na  Na1  1  0.994750  0.364541  0.250000  1
  Na  Na2  1  0.666408  0.333592  0.000000  1
  Na  Na3  1  0.666408  0.333592  0.500000  1
  Na  Na4  1  0.333592  0.666408  0.000000  1
  Na  Na5  1  0.635459  0.005250  0.750000  1
  Na  Na6  1  0.333592  0.666408  0.500000  1
  Na  Na7  1  0.005250  0.635459  0.750000  1
  Co  Co8  1  0.740635  0.740635  0.250000  1
  Co  Co9  1  0.259365  0.259365  0.750000  1
  Cu  Cu10  1  0.000000  0.000000  0.000000  1
  Cu  Cu11  1  0.000000  0.000000  0.500000  1
  O  O12  1  0.006218  0.273292  0.609476  1
  O  O13  1  0.273292  0.006218  0.890524  1
  O  O14  1  0.726708  0.993782  0.390524  1
  O  O15  1  0.726708  0.993782  0.109476  1
  O  O16  1  0.436396  0.436396  0.250000  1
  O  O17  1  0.563604  0.563604  0.750000  1
  O  O18  1  0.993782  0.726708  0.390524  1
  O  O19  1  0.273292  0.006218  0.609476  1
  O  O20  1  0.993782  0.726708  0.109476  1
  O  O21  1  0.006218  0.273292  0.890524  1
