# generated using pymatgen
data_Rb3BiO4
_symmetry_space_group_name_H-M   'P 1'
_cell_length_a   6.85173400
_cell_length_b   9.20541600
_cell_length_c   12.91396300
_cell_angle_alpha   90.00000000
_cell_angle_beta   90.00000000
_cell_angle_gamma   90.00000000
_symmetry_Int_Tables_number   1
_chemical_formula_structural   Rb3BiO4
_chemical_formula_sum   'Rb12 Bi4 O16'
_cell_volume   814.52318627
_cell_formula_units_Z   4
loop_
 _symmetry_equiv_pos_site_id
 _symmetry_equiv_pos_as_xyz
  1  'x, y, z'
loop_
 _atom_site_type_symbol
 _atom_site_label
 _atom_site_symmetry_multiplicity
 _atom_site_fract_x
 _atom_site_fract_y
 _atom_site_fract_z
 _atom_site_occupancy
  Rb  Rb0  1  0.162914  0.250000  0.081719  1
  Rb  Rb1  1  0.718163  0.491407  0.155522  1
  Rb  Rb2  1  0.837086  0.750000  0.918281  1
  Rb  Rb3  1  0.218163  0.508593  0.344478  1
  Rb  Rb4  1  0.718163  0.008593  0.155522  1
  Rb  Rb5  1  0.218163  0.991407  0.344478  1
  Rb  Rb6  1  0.662914  0.750000  0.418281  1
  Rb  Rb7  1  0.281837  0.991407  0.844478  1
  Rb  Rb8  1  0.281837  0.508593  0.844478  1
  Rb  Rb9  1  0.781837  0.008593  0.655522  1
  Rb  Rb10  1  0.781837  0.491407  0.655522  1
  Rb  Rb11  1  0.337086  0.250000  0.581719  1
  Bi  Bi12  1  0.781475  0.250000  0.393598  1
  Bi  Bi13  1  0.281475  0.750000  0.106402  1
  Bi  Bi14  1  0.218525  0.750000  0.606402  1
  Bi  Bi15  1  0.718525  0.250000  0.893598  1
  O  O16  1  0.385179  0.567353  0.621396  1
  O  O17  1  0.481087  0.750000  0.224408  1
  O  O18  1  0.885179  0.432647  0.878604  1
  O  O19  1  0.114821  0.932647  0.121396  1
  O  O20  1  0.885179  0.067353  0.878604  1
  O  O21  1  0.571205  0.250000  0.032019  1
  O  O22  1  0.071205  0.750000  0.467981  1
  O  O23  1  0.928795  0.250000  0.532019  1
  O  O24  1  0.614821  0.067353  0.378604  1
  O  O25  1  0.385179  0.932647  0.621396  1
  O  O26  1  0.428795  0.750000  0.967981  1
  O  O27  1  0.614821  0.432647  0.378604  1
  O  O28  1  0.018913  0.750000  0.724408  1
  O  O29  1  0.981087  0.250000  0.275592  1
  O  O30  1  0.518913  0.250000  0.775592  1
  O  O31  1  0.114821  0.567353  0.121396  1
