# generated using pymatgen
data_LaPr3Nd2RuBr10
_symmetry_space_group_name_H-M   'P 1'
_cell_length_a   7.76820200
_cell_length_b   9.75102823
_cell_length_c   9.48891974
_cell_angle_alpha   108.50586809
_cell_angle_beta   95.85092247
_cell_angle_gamma   106.33205210
_symmetry_Int_Tables_number   1
_chemical_formula_structural   LaPr3Nd2RuBr10
_chemical_formula_sum   'La1 Pr3 Nd2 Ru1 Br10'
_cell_volume   639.49662405
_cell_formula_units_Z   1
loop_
 _symmetry_equiv_pos_site_id
 _symmetry_equiv_pos_as_xyz
  1  'x, y, z'
loop_
 _atom_site_type_symbol
 _atom_site_label
 _atom_site_symmetry_multiplicity
 _atom_site_fract_x
 _atom_site_fract_y
 _atom_site_fract_z
 _atom_site_occupancy
  La  La0  1  0.875511  0.951534  0.232148  1
  Pr  Pr1  1  0.028228  0.692787  0.895959  1
  Pr  Pr2  1  0.368735  0.142904  0.191046  1
  Pr  Pr3  1  0.970179  0.305751  0.100787  1
  Nd  Nd4  1  0.124587  0.048792  0.768182  1
  Nd  Nd5  1  0.632539  0.857959  0.810295  1
  Ru  Ru6  1  0.993850  0.996795  0.008813  1
  Br  Br7  1  0.210335  0.752444  0.648775  1
  Br  Br8  1  0.645264  0.547383  0.726069  1
  Br  Br9  1  0.248958  0.082874  0.456609  1
  Br  Br10  1  0.791474  0.257650  0.351961  1
  Br  Br11  1  0.543173  0.169464  0.916733  1
  Br  Br12  1  0.760519  0.919451  0.548707  1
  Br  Br13  1  0.911088  0.628514  0.164436  1
  Br  Br14  1  0.351550  0.454297  0.273323  1
  Br  Br15  1  0.093742  0.365126  0.830678  1
  Br  Br16  1  0.450265  0.826275  0.075480  1
