# generated using pymatgen
data_Cs4Th6GeI18
_symmetry_space_group_name_H-M   'P 1'
_cell_length_a   12.28535985
_cell_length_b   12.57541087
_cell_length_c   12.69271000
_cell_angle_alpha   118.24709693
_cell_angle_beta   100.32414452
_cell_angle_gamma   104.41826467
_symmetry_Int_Tables_number   1
_chemical_formula_structural   Cs4Th6GeI18
_chemical_formula_sum   'Cs4 Th6 Ge1 I18'
_cell_volume   1568.32611154
_cell_formula_units_Z   1
loop_
 _symmetry_equiv_pos_site_id
 _symmetry_equiv_pos_as_xyz
  1  'x, y, z'
loop_
 _atom_site_type_symbol
 _atom_site_label
 _atom_site_symmetry_multiplicity
 _atom_site_fract_x
 _atom_site_fract_y
 _atom_site_fract_z
 _atom_site_occupancy
  Cs  Cs0  1  0.659921  0.538422  0.231344  1
  Cs  Cs1  1  0.340079  0.461578  0.768656  1
  Cs  Cs2  1  0.692954  0.228382  0.566686  1
  Cs  Cs3  1  0.307046  0.771618  0.433314  1
  Th  Th4  1  0.155842  0.056016  0.233280  1
  Th  Th5  1  0.844158  0.943984  0.766720  1
  Th  Th6  1  0.858617  0.125570  0.135053  1
  Th  Th7  1  0.141383  0.874430  0.864947  1
  Th  Th8  1  0.149750  0.245164  0.048269  1
  Th  Th9  1  0.850250  0.754836  0.951731  1
  Ge  Ge10  1  0.000000  0.000000  0.000000  1
  I  I11  1  0.010042  0.408145  0.200756  1
  I  I12  1  0.989958  0.591855  0.799244  1
  I  I13  1  0.334031  0.333248  0.311426  1
  I  I14  1  0.665969  0.666752  0.688574  1
  I  I15  1  0.322473  0.519221  0.101307  1
  I  I16  1  0.677527  0.480779  0.898693  1
  I  I17  1  0.006268  0.791713  0.204018  1
  I  I18  1  0.993732  0.208287  0.795982  1
  I  I19  1  0.702972  0.266947  0.283273  1
  I  I20  1  0.297028  0.733053  0.716727  1
  I  I21  1  0.319108  0.132780  0.906231  1
  I  I22  1  0.680892  0.867220  0.093769  1
  I  I23  1  0.016438  0.198535  0.405672  1
  I  I24  1  0.983562  0.801465  0.594328  1
  I  I25  1  0.323921  0.924290  0.108562  1
  I  I26  1  0.676079  0.075710  0.891438  1
  I  I27  1  0.334477  0.120741  0.496486  1
  I  I28  1  0.665523  0.879259  0.503514  1
