# generated using pymatgen
data_Tb2Nd2PBr6
_symmetry_space_group_name_H-M   'P 1'
_cell_length_a   4.09803400
_cell_length_b   13.44751900
_cell_length_c   14.12294200
_cell_angle_alpha   90.00000000
_cell_angle_beta   90.00000000
_cell_angle_gamma   90.00000000
_symmetry_Int_Tables_number   1
_chemical_formula_structural   Tb2Nd2PBr6
_chemical_formula_sum   'Tb4 Nd4 P2 Br12'
_cell_volume   778.29259678
_cell_formula_units_Z   2
loop_
 _symmetry_equiv_pos_site_id
 _symmetry_equiv_pos_as_xyz
  1  'x, y, z'
loop_
 _atom_site_type_symbol
 _atom_site_label
 _atom_site_symmetry_multiplicity
 _atom_site_fract_x
 _atom_site_fract_y
 _atom_site_fract_z
 _atom_site_occupancy
  Tb  Tb0  1  0.500000  0.116189  0.343872  1
  Tb  Tb1  1  0.500000  0.883811  0.656128  1
  Tb  Tb2  1  0.500000  0.616189  0.156128  1
  Tb  Tb3  1  0.500000  0.383811  0.843872  1
  Nd  Nd4  1  0.000000  0.117951  0.578970  1
  Nd  Nd5  1  0.000000  0.882049  0.421030  1
  Nd  Nd6  1  0.000000  0.617951  0.921030  1
  Nd  Nd7  1  0.000000  0.382049  0.078970  1
  P  P8  1  0.500000  0.000000  0.500000  1
  P  P9  1  0.500000  0.500000  0.000000  1
  Br  Br10  1  0.500000  0.237959  0.167189  1
  Br  Br11  1  0.500000  0.762041  0.832811  1
  Br  Br12  1  0.500000  0.737959  0.332811  1
  Br  Br13  1  0.500000  0.262041  0.667189  1
  Br  Br14  1  0.000000  0.253774  0.407779  1
  Br  Br15  1  0.000000  0.746226  0.592221  1
  Br  Br16  1  0.000000  0.753774  0.092221  1
  Br  Br17  1  0.000000  0.246226  0.907779  1
  Br  Br18  1  0.000000  0.006000  0.242680  1
  Br  Br19  1  0.000000  0.994000  0.757320  1
  Br  Br20  1  0.000000  0.506000  0.257320  1
  Br  Br21  1  0.000000  0.494000  0.742680  1
