# generated using pymatgen
data_Sr4Gd7YS16
_symmetry_space_group_name_H-M   'P 1'
_cell_length_a   4.00070000
_cell_length_b   12.36602396
_cell_length_c   14.44997800
_cell_angle_alpha   90.14566719
_cell_angle_beta   90.00000000
_cell_angle_gamma   90.00000000
_symmetry_Int_Tables_number   1
_chemical_formula_structural   Sr4Gd7YS16
_chemical_formula_sum   'Sr4 Gd7 Y1 S16'
_cell_volume   714.87786873
_cell_formula_units_Z   1
loop_
 _symmetry_equiv_pos_site_id
 _symmetry_equiv_pos_as_xyz
  1  'x, y, z'
loop_
 _atom_site_type_symbol
 _atom_site_label
 _atom_site_symmetry_multiplicity
 _atom_site_fract_x
 _atom_site_fract_y
 _atom_site_fract_z
 _atom_site_occupancy
  Sr  Sr0  1  0.750000  0.741091  0.162620  1
  Sr  Sr1  1  0.750000  0.242027  0.336747  1
  Sr  Sr2  1  0.250000  0.258181  0.838107  1
  Sr  Sr3  1  0.250000  0.758407  0.662378  1
  Gd  Gd4  1  0.750000  0.062678  0.112149  1
  Gd  Gd5  1  0.750000  0.562425  0.387388  1
  Gd  Gd6  1  0.250000  0.937635  0.887978  1
  Gd  Gd7  1  0.250000  0.436827  0.611975  1
  Gd  Gd8  1  0.750000  0.086773  0.599663  1
  Gd  Gd9  1  0.750000  0.585414  0.901018  1
  Gd  Gd10  1  0.250000  0.913864  0.400674  1
  Y  Y11  1  0.250000  0.414205  0.099085  1
  S  S12  1  0.750000  0.296607  0.675904  1
  S  S13  1  0.750000  0.796132  0.825208  1
  S  S14  1  0.250000  0.703256  0.324615  1
  S  S15  1  0.250000  0.205018  0.174236  1
  S  S16  1  0.750000  0.373300  0.968938  1
  S  S17  1  0.750000  0.873725  0.532092  1
  S  S18  1  0.250000  0.625650  0.032646  1
  S  S19  1  0.250000  0.127165  0.467941  1
  S  S20  1  0.750000  0.468436  0.215075  1
  S  S21  1  0.750000  0.969032  0.283541  1
  S  S22  1  0.250000  0.531277  0.783735  1
  S  S23  1  0.250000  0.031785  0.716477  1
  S  S24  1  0.750000  0.088975  0.923299  1
  S  S25  1  0.750000  0.588499  0.576857  1
  S  S26  1  0.250000  0.910602  0.077068  1
  S  S27  1  0.250000  0.411020  0.422588  1
