# generated using pymatgen
data_BaSn4(AsO4)6
_symmetry_space_group_name_H-M   'P 1'
_cell_length_a   8.72762768
_cell_length_b   8.72762735
_cell_length_c   9.68247704
_cell_angle_alpha   63.21190716
_cell_angle_beta   63.21191668
_cell_angle_gamma   59.99999451
_symmetry_Int_Tables_number   1
_chemical_formula_structural   BaSn4(AsO4)6
_chemical_formula_sum   'Ba1 Sn4 As6 O24'
_cell_volume   545.41062586
_cell_formula_units_Z   1
loop_
 _symmetry_equiv_pos_site_id
 _symmetry_equiv_pos_as_xyz
  1  'x, y, z'
loop_
 _atom_site_type_symbol
 _atom_site_label
 _atom_site_symmetry_multiplicity
 _atom_site_fract_x
 _atom_site_fract_y
 _atom_site_fract_z
 _atom_site_occupancy
  Ba  Ba0  1  0.500000  0.500000  0.500000  1
  Sn  Sn1  1  0.151473  0.151473  0.545581  1
  Sn  Sn2  1  0.848527  0.848527  0.454419  1
  Sn  Sn3  1  0.647285  0.647285  0.058146  1
  Sn  Sn4  1  0.352715  0.352715  0.941854  1
  As  As5  1  0.966589  0.245639  0.251132  1
  As  As6  1  0.245639  0.536640  0.251132  1
  As  As7  1  0.536640  0.966589  0.251132  1
  As  As8  1  0.033411  0.754361  0.748868  1
  As  As9  1  0.754361  0.463360  0.748868  1
  As  As10  1  0.463360  0.033411  0.748868  1
  O  O11  1  0.972476  0.300070  0.399852  1
  O  O12  1  0.300070  0.327603  0.399852  1
  O  O13  1  0.327603  0.972476  0.399852  1
  O  O14  1  0.027524  0.699930  0.600148  1
  O  O15  1  0.699930  0.672397  0.600148  1
  O  O16  1  0.672397  0.027524  0.600148  1
  O  O17  1  0.476186  0.877531  0.933778  1
  O  O18  1  0.877531  0.712507  0.933778  1
  O  O19  1  0.712507  0.476186  0.933778  1
  O  O20  1  0.523814  0.122469  0.066222  1
  O  O21  1  0.122469  0.287493  0.066222  1
  O  O22  1  0.287493  0.523814  0.066222  1
  O  O23  1  0.004492  0.980111  0.693337  1
  O  O24  1  0.980111  0.322060  0.693337  1
  O  O25  1  0.322060  0.004492  0.693337  1
  O  O26  1  0.995508  0.019889  0.306663  1
  O  O27  1  0.019889  0.677940  0.306663  1
  O  O28  1  0.677940  0.995508  0.306663  1
  O  O29  1  0.626116  0.748793  0.230035  1
  O  O30  1  0.748793  0.395055  0.230035  1
  O  O31  1  0.395055  0.626116  0.230035  1
  O  O32  1  0.373884  0.251207  0.769965  1
  O  O33  1  0.251207  0.604945  0.769965  1
  O  O34  1  0.604945  0.373884  0.769965  1
