# generated using pymatgen
data_Dy16Ga6FeNi
_symmetry_space_group_name_H-M   'P 1'
_cell_length_a   9.98445000
_cell_length_b   9.98447844
_cell_length_c   6.90589500
_cell_angle_alpha   89.99995983
_cell_angle_beta   89.99998852
_cell_angle_gamma   119.99979312
_symmetry_Int_Tables_number   1
_chemical_formula_structural   Dy16Ga6FeNi
_chemical_formula_sum   'Dy16 Ga6 Fe1 Ni1'
_cell_volume   596.21244637
_cell_formula_units_Z   1
loop_
 _symmetry_equiv_pos_site_id
 _symmetry_equiv_pos_as_xyz
  1  'x, y, z'
loop_
 _atom_site_type_symbol
 _atom_site_label
 _atom_site_symmetry_multiplicity
 _atom_site_fract_x
 _atom_site_fract_y
 _atom_site_fract_z
 _atom_site_occupancy
  Dy  Dy0  1  0.172495  0.827512  0.510114  1
  Dy  Dy1  1  0.655038  0.827551  0.509874  1
  Dy  Dy2  1  0.172457  0.345075  0.509842  1
  Dy  Dy3  1  0.827727  0.172128  0.012092  1
  Dy  Dy4  1  0.344466  0.172227  0.012019  1
  Dy  Dy5  1  0.827839  0.655594  0.012273  1
  Dy  Dy6  1  0.333311  0.666637  0.829906  1
  Dy  Dy7  1  0.666723  0.333367  0.329947  1
  Dy  Dy8  1  0.462199  0.537841  0.207857  1
  Dy  Dy9  1  0.075587  0.537766  0.207738  1
  Dy  Dy10  1  0.462150  0.924322  0.207881  1
  Dy  Dy11  1  0.534591  0.465211  0.705272  1
  Dy  Dy12  1  0.930641  0.465361  0.705315  1
  Dy  Dy13  1  0.534767  0.069360  0.705373  1
  Dy  Dy14  1  0.000169  0.000097  0.231317  1
  Dy  Dy15  1  0.999984  0.999935  0.732947  1
  Ga  Ga16  1  0.162994  0.837032  0.958530  1
  Ga  Ga17  1  0.674000  0.837014  0.958617  1
  Ga  Ga18  1  0.162934  0.325908  0.958660  1
  Ga  Ga19  1  0.835894  0.164060  0.459006  1
  Ga  Ga20  1  0.328223  0.164169  0.459146  1
  Ga  Ga21  1  0.835879  0.671807  0.458950  1
  Fe  Fe22  1  0.333260  0.666625  0.447286  1
  Ni  Ni23  1  0.666673  0.333404  0.944081  1
