# generated using pymatgen
data_Li(TbBi)2
_symmetry_space_group_name_H-M   'P 1'
_cell_length_a   4.60150000
_cell_length_b   4.60150009
_cell_length_c   14.96009600
_cell_angle_alpha   90.00000000
_cell_angle_beta   90.00000000
_cell_angle_gamma   119.99999935
_symmetry_Int_Tables_number   1
_chemical_formula_structural   Li(TbBi)2
_chemical_formula_sum   'Li2 Tb4 Bi4'
_cell_volume   274.32404517
_cell_formula_units_Z   2
loop_
 _symmetry_equiv_pos_site_id
 _symmetry_equiv_pos_as_xyz
  1  'x, y, z'
loop_
 _atom_site_type_symbol
 _atom_site_label
 _atom_site_symmetry_multiplicity
 _atom_site_fract_x
 _atom_site_fract_y
 _atom_site_fract_z
 _atom_site_occupancy
  Li  Li0  1  0.000000  0.000000  0.250000  1
  Li  Li1  1  0.000000  0.000000  0.750000  1
  Tb  Tb2  1  0.333333  0.666667  0.387166  1
  Tb  Tb3  1  0.666667  0.333333  0.612834  1
  Tb  Tb4  1  0.666667  0.333333  0.887166  1
  Tb  Tb5  1  0.333333  0.666667  0.112834  1
  Bi  Bi6  1  0.000000  0.000000  0.500000  1
  Bi  Bi7  1  0.000000  0.000000  0.000000  1
  Bi  Bi8  1  0.333333  0.666667  0.750000  1
  Bi  Bi9  1  0.666667  0.333333  0.250000  1
