# generated using pymatgen
data_DySc5Co16(P6Ru)2
_symmetry_space_group_name_H-M   'P 1'
_cell_length_a   3.63475800
_cell_length_b   10.40367000
_cell_length_c   12.04519900
_cell_angle_alpha   90.00000000
_cell_angle_beta   90.00000000
_cell_angle_gamma   90.00000000
_symmetry_Int_Tables_number   1
_chemical_formula_structural   DySc5Co16(P6Ru)2
_chemical_formula_sum   'Dy1 Sc5 Co16 P12 Ru2'
_cell_volume   455.48706532
_cell_formula_units_Z   1
loop_
 _symmetry_equiv_pos_site_id
 _symmetry_equiv_pos_as_xyz
  1  'x, y, z'
loop_
 _atom_site_type_symbol
 _atom_site_label
 _atom_site_symmetry_multiplicity
 _atom_site_fract_x
 _atom_site_fract_y
 _atom_site_fract_z
 _atom_site_occupancy
  Dy  Dy0  1  0.500000  0.000000  0.472779  1
  Sc  Sc1  1  0.000000  0.500000  0.527071  1
  Sc  Sc2  1  0.500000  0.818179  0.206546  1
  Sc  Sc3  1  0.500000  0.181821  0.206546  1
  Sc  Sc4  1  0.000000  0.680391  0.791951  1
  Sc  Sc5  1  0.000000  0.319609  0.791951  1
  Co  Co6  1  0.500000  0.500000  0.703204  1
  Co  Co7  1  0.000000  0.000000  0.294122  1
  Co  Co8  1  0.000000  0.500000  0.986244  1
  Co  Co9  1  0.500000  0.000000  0.013211  1
  Co  Co10  1  0.500000  0.332718  0.989489  1
  Co  Co11  1  0.500000  0.667282  0.989489  1
  Co  Co12  1  0.000000  0.168249  0.010395  1
  Co  Co13  1  0.000000  0.831751  0.010395  1
  Co  Co14  1  0.500000  0.299813  0.432093  1
  Co  Co15  1  0.500000  0.700187  0.432093  1
  Co  Co16  1  0.000000  0.204919  0.568899  1
  Co  Co17  1  0.000000  0.795081  0.568899  1
  Co  Co18  1  0.500000  0.875704  0.707963  1
  Co  Co19  1  0.500000  0.124296  0.707963  1
  Co  Co20  1  0.000000  0.622635  0.293105  1
  Co  Co21  1  0.000000  0.377365  0.293105  1
  P  P22  1  0.500000  0.500000  0.878640  1
  P  P23  1  0.000000  0.000000  0.119811  1
  P  P24  1  0.500000  0.500000  0.356002  1
  P  P25  1  0.000000  0.000000  0.648619  1
  P  P26  1  0.500000  0.316025  0.618281  1
  P  P27  1  0.500000  0.683975  0.618281  1
  P  P28  1  0.000000  0.187535  0.380154  1
  P  P29  1  0.000000  0.812465  0.380154  1
  P  P30  1  0.500000  0.842991  0.890759  1
  P  P31  1  0.500000  0.157009  0.890759  1
  P  P32  1  0.000000  0.655769  0.109536  1
  P  P33  1  0.000000  0.344231  0.109536  1
  Ru  Ru34  1  0.500000  0.500000  0.160976  1
  Ru  Ru35  1  0.000000  0.000000  0.840977  1
