# generated using pymatgen
data_Y6Lu14Cd6CoRu
_symmetry_space_group_name_H-M   'P 1'
_cell_length_a   9.48000800
_cell_length_b   9.48000821
_cell_length_c   9.61914900
_cell_angle_alpha   90.00000000
_cell_angle_beta   90.00000000
_cell_angle_gamma   119.99999926
_symmetry_Int_Tables_number   1
_chemical_formula_structural   Y6Lu14Cd6CoRu
_chemical_formula_sum   'Y6 Lu14 Cd6 Co1 Ru1'
_cell_volume   748.66012812
_cell_formula_units_Z   1
loop_
 _symmetry_equiv_pos_site_id
 _symmetry_equiv_pos_as_xyz
  1  'x, y, z'
loop_
 _atom_site_type_symbol
 _atom_site_label
 _atom_site_symmetry_multiplicity
 _atom_site_fract_x
 _atom_site_fract_y
 _atom_site_fract_z
 _atom_site_occupancy
  Y  Y0  1  0.540889  0.459111  0.250000  1
  Y  Y1  1  0.540889  0.081778  0.250000  1
  Y  Y2  1  0.918222  0.459111  0.250000  1
  Y  Y3  1  0.459034  0.540966  0.750000  1
  Y  Y4  1  0.459034  0.918069  0.750000  1
  Y  Y5  1  0.081931  0.540966  0.750000  1
  Lu  Lu6  1  0.000000  0.000000  0.499708  1
  Lu  Lu7  1  0.000000  0.000000  0.000292  1
  Lu  Lu8  1  0.212113  0.787887  0.435693  1
  Lu  Lu9  1  0.212113  0.424227  0.435693  1
  Lu  Lu10  1  0.575773  0.787887  0.435693  1
  Lu  Lu11  1  0.790442  0.209558  0.559714  1
  Lu  Lu12  1  0.790442  0.580885  0.559714  1
  Lu  Lu13  1  0.419115  0.209558  0.559714  1
  Lu  Lu14  1  0.790442  0.209558  0.940286  1
  Lu  Lu15  1  0.790442  0.580885  0.940286  1
  Lu  Lu16  1  0.419115  0.209558  0.940286  1
  Lu  Lu17  1  0.212113  0.787887  0.064307  1
  Lu  Lu18  1  0.212113  0.424227  0.064307  1
  Lu  Lu19  1  0.575773  0.787887  0.064307  1
  Cd  Cd20  1  0.886195  0.113805  0.250000  1
  Cd  Cd21  1  0.886195  0.772391  0.250000  1
  Cd  Cd22  1  0.227609  0.113805  0.250000  1
  Cd  Cd23  1  0.113824  0.886176  0.750000  1
  Cd  Cd24  1  0.113824  0.227647  0.750000  1
  Cd  Cd25  1  0.772353  0.886176  0.750000  1
  Co  Co26  1  0.333333  0.666667  0.250000  1
  Ru  Ru27  1  0.666667  0.333333  0.750000  1
