# generated using pymatgen
data_Dy3Zn3Ni2Ir
_symmetry_space_group_name_H-M   'P 1'
_cell_length_a   7.06776000
_cell_length_b   7.06776025
_cell_length_c   3.78265400
_cell_angle_alpha   90.00000000
_cell_angle_beta   90.00000000
_cell_angle_gamma   119.99999882
_symmetry_Int_Tables_number   1
_chemical_formula_structural   Dy3Zn3Ni2Ir
_chemical_formula_sum   'Dy3 Zn3 Ni2 Ir1'
_cell_volume   163.64052269
_cell_formula_units_Z   1
loop_
 _symmetry_equiv_pos_site_id
 _symmetry_equiv_pos_as_xyz
  1  'x, y, z'
loop_
 _atom_site_type_symbol
 _atom_site_label
 _atom_site_symmetry_multiplicity
 _atom_site_fract_x
 _atom_site_fract_y
 _atom_site_fract_z
 _atom_site_occupancy
  Dy  Dy0  1  0.408221  0.407711  0.500000  1
  Dy  Dy1  1  0.592289  0.000510  0.500000  1
  Dy  Dy2  1  0.999490  0.591779  0.500000  1
  Zn  Zn3  1  0.756718  0.760133  0.000000  1
  Zn  Zn4  1  0.239867  0.996584  0.000000  1
  Zn  Zn5  1  0.003416  0.243282  0.000000  1
  Ni  Ni6  1  0.333333  0.666667  0.000000  1
  Ni  Ni7  1  0.000000  0.000000  0.500000  1
  Ir  Ir8  1  0.666667  0.333333  0.000000  1
