# generated using pymatgen
data_LiHf3(B4Ru5)2
_symmetry_space_group_name_H-M   'P 1'
_cell_length_a   2.99713600
_cell_length_b   8.57051039
_cell_length_c   10.02432577
_cell_angle_alpha   88.44970552
_cell_angle_beta   90.00000000
_cell_angle_gamma   90.00000000
_symmetry_Int_Tables_number   1
_chemical_formula_structural   LiHf3(B4Ru5)2
_chemical_formula_sum   'Li1 Hf3 B8 Ru10'
_cell_volume   257.40045498
_cell_formula_units_Z   1
loop_
 _symmetry_equiv_pos_site_id
 _symmetry_equiv_pos_as_xyz
  1  'x, y, z'
loop_
 _atom_site_type_symbol
 _atom_site_label
 _atom_site_symmetry_multiplicity
 _atom_site_fract_x
 _atom_site_fract_y
 _atom_site_fract_z
 _atom_site_occupancy
  Li  Li0  1  0.500000  0.851173  0.194373  1
  Hf  Hf1  1  0.500000  0.155239  0.828649  1
  Hf  Hf2  1  0.500000  0.660145  0.677380  1
  Hf  Hf3  1  0.500000  0.346368  0.310380  1
  B  B4  1  0.500000  0.966087  0.589915  1
  B  B5  1  0.500000  0.034277  0.414715  1
  B  B6  1  0.500000  0.849158  0.905513  1
  B  B7  1  0.500000  0.135301  0.105167  1
  B  B8  1  0.500000  0.656620  0.386559  1
  B  B9  1  0.500000  0.354456  0.597075  1
  B  B10  1  0.500000  0.461444  0.910925  1
  B  B11  1  0.500000  0.537583  0.084320  1
  Ru  Ru12  1  0.000000  0.655667  0.942327  1
  Ru  Ru13  1  0.000000  0.330653  0.047812  1
  Ru  Ru14  1  0.000000  0.836330  0.457286  1
  Ru  Ru15  1  0.000000  0.167007  0.550558  1
  Ru  Ru16  1  0.000000  0.988536  0.007680  1
  Ru  Ru17  1  0.000000  0.403772  0.758849  1
  Ru  Ru18  1  0.000000  0.605946  0.229219  1
  Ru  Ru19  1  0.000000  0.503345  0.493962  1
  Ru  Ru20  1  0.000000  0.906617  0.741070  1
  Ru  Ru21  1  0.000000  0.094276  0.266266  1
