# generated using pymatgen
data_Ho19LuIr11Os
_symmetry_space_group_name_H-M   'P 1'
_cell_length_a   10.82544200
_cell_length_b   10.82475800
_cell_length_c   6.37395500
_cell_angle_alpha   90.00000000
_cell_angle_beta   90.00000000
_cell_angle_gamma   89.99868737
_symmetry_Int_Tables_number   1
_chemical_formula_structural   Ho19LuIr11Os
_chemical_formula_sum   'Ho19 Lu1 Ir11 Os1'
_cell_volume   746.91782945
_cell_formula_units_Z   1
loop_
 _symmetry_equiv_pos_site_id
 _symmetry_equiv_pos_as_xyz
  1  'x, y, z'
loop_
 _atom_site_type_symbol
 _atom_site_label
 _atom_site_symmetry_multiplicity
 _atom_site_fract_x
 _atom_site_fract_y
 _atom_site_fract_z
 _atom_site_occupancy
  Ho  Ho0  1  0.291894  0.086854  0.375965  1
  Ho  Ho1  1  0.292783  0.913055  0.879349  1
  Ho  Ho2  1  0.707217  0.086945  0.879349  1
  Ho  Ho3  1  0.708106  0.913146  0.375965  1
  Ho  Ho4  1  0.586949  0.792969  0.879506  1
  Ho  Ho5  1  0.587071  0.207464  0.375814  1
  Ho  Ho6  1  0.412929  0.792536  0.375814  1
  Ho  Ho7  1  0.413051  0.207031  0.879506  1
  Ho  Ho8  1  0.209000  0.411892  0.622212  1
  Ho  Ho9  1  0.208954  0.587774  0.121853  1
  Ho  Ho10  1  0.791046  0.412226  0.121853  1
  Ho  Ho11  1  0.791000  0.588108  0.622212  1
  Ho  Ho12  1  0.912239  0.709156  0.121968  1
  Ho  Ho13  1  0.912155  0.290373  0.622102  1
  Ho  Ho14  1  0.087845  0.709627  0.622102  1
  Ho  Ho15  1  0.087761  0.290844  0.121968  1
  Ho  Ho16  1  0.000000  0.000000  0.999383  1
  Ho  Ho17  1  0.500000  0.500000  0.999412  1
  Ho  Ho18  1  0.500000  0.500000  0.499480  1
  Lu  Lu19  1  0.000000  0.000000  0.499493  1
  Ir  Ir20  1  0.848364  0.153085  0.251644  1
  Ir  Ir21  1  0.848331  0.847211  0.748394  1
  Ir  Ir22  1  0.151669  0.152789  0.748394  1
  Ir  Ir23  1  0.151636  0.846915  0.251644  1
  Ir  Ir24  1  0.653657  0.347458  0.749864  1
  Ir  Ir25  1  0.653987  0.652513  0.250257  1
  Ir  Ir26  1  0.346013  0.347487  0.250257  1
  Ir  Ir27  1  0.346343  0.652542  0.749864  1
  Ir  Ir28  1  0.500000  0.000000  0.622655  1
  Ir  Ir29  1  0.000000  0.500000  0.878481  1
  Ir  Ir30  1  0.000000  0.500000  0.378819  1
  Os  Os31  1  0.500000  0.000000  0.124417  1
