# generated using pymatgen
data_Dy10Cd3Os
_symmetry_space_group_name_H-M   'P 1'
_cell_length_a   9.58250200
_cell_length_b   9.58250272
_cell_length_c   9.89076500
_cell_angle_alpha   90.00000000
_cell_angle_beta   90.00000000
_cell_angle_gamma   119.99999750
_symmetry_Int_Tables_number   1
_chemical_formula_structural   Dy10Cd3Os
_chemical_formula_sum   'Dy20 Cd6 Os2'
_cell_volume   786.53562101
_cell_formula_units_Z   2
loop_
 _symmetry_equiv_pos_site_id
 _symmetry_equiv_pos_as_xyz
  1  'x, y, z'
loop_
 _atom_site_type_symbol
 _atom_site_label
 _atom_site_symmetry_multiplicity
 _atom_site_fract_x
 _atom_site_fract_y
 _atom_site_fract_z
 _atom_site_occupancy
  Dy  Dy0  1  0.000000  0.000000  0.500000  1
  Dy  Dy1  1  0.000000  0.000000  0.000000  1
  Dy  Dy2  1  0.209887  0.790113  0.440350  1
  Dy  Dy3  1  0.209887  0.419775  0.440350  1
  Dy  Dy4  1  0.580225  0.790113  0.440350  1
  Dy  Dy5  1  0.790113  0.209887  0.559650  1
  Dy  Dy6  1  0.790113  0.580225  0.559650  1
  Dy  Dy7  1  0.419775  0.209887  0.559650  1
  Dy  Dy8  1  0.790113  0.209887  0.940350  1
  Dy  Dy9  1  0.790113  0.580225  0.940350  1
  Dy  Dy10  1  0.419775  0.209887  0.940350  1
  Dy  Dy11  1  0.209887  0.790113  0.059650  1
  Dy  Dy12  1  0.209887  0.419775  0.059650  1
  Dy  Dy13  1  0.580225  0.790113  0.059650  1
  Dy  Dy14  1  0.540510  0.459490  0.250000  1
  Dy  Dy15  1  0.540510  0.081019  0.250000  1
  Dy  Dy16  1  0.918981  0.459490  0.250000  1
  Dy  Dy17  1  0.459490  0.540510  0.750000  1
  Dy  Dy18  1  0.459490  0.918981  0.750000  1
  Dy  Dy19  1  0.081019  0.540510  0.750000  1
  Cd  Cd20  1  0.885537  0.114463  0.250000  1
  Cd  Cd21  1  0.885537  0.771075  0.250000  1
  Cd  Cd22  1  0.228925  0.114463  0.250000  1
  Cd  Cd23  1  0.114463  0.885537  0.750000  1
  Cd  Cd24  1  0.114463  0.228925  0.750000  1
  Cd  Cd25  1  0.771075  0.885537  0.750000  1
  Os  Os26  1  0.333333  0.666667  0.250000  1
  Os  Os27  1  0.666667  0.333333  0.750000  1
