# generated using pymatgen
data_Nb9GeSe16
_symmetry_space_group_name_H-M   'P 1'
_cell_length_a   7.01008000
_cell_length_b   7.01008105
_cell_length_c   13.74848700
_cell_angle_alpha   90.00000000
_cell_angle_beta   90.00000000
_cell_angle_gamma   120.00000447
_symmetry_Int_Tables_number   1
_chemical_formula_structural   Nb9GeSe16
_chemical_formula_sum   'Nb9 Ge1 Se16'
_cell_volume   585.10193327
_cell_formula_units_Z   1
loop_
 _symmetry_equiv_pos_site_id
 _symmetry_equiv_pos_as_xyz
  1  'x, y, z'
loop_
 _atom_site_type_symbol
 _atom_site_label
 _atom_site_symmetry_multiplicity
 _atom_site_fract_x
 _atom_site_fract_y
 _atom_site_fract_z
 _atom_site_occupancy
  Nb  Nb0  1  0.000000  0.000000  0.259625  1
  Nb  Nb1  1  0.000000  0.000000  0.740375  1
  Nb  Nb2  1  0.506379  0.012759  0.258790  1
  Nb  Nb3  1  0.493621  0.987241  0.741210  1
  Nb  Nb4  1  0.987241  0.493621  0.258790  1
  Nb  Nb5  1  0.012759  0.506379  0.741210  1
  Nb  Nb6  1  0.506379  0.493621  0.258790  1
  Nb  Nb7  1  0.493621  0.506379  0.741210  1
  Nb  Nb8  1  0.000000  0.000000  0.500000  1
  Ge  Ge9  1  0.000000  0.000000  0.000000  1
  Se  Se10  1  0.333333  0.666667  0.616720  1
  Se  Se11  1  0.666667  0.333333  0.383280  1
  Se  Se12  1  0.666667  0.333333  0.133253  1
  Se  Se13  1  0.333333  0.666667  0.866747  1
  Se  Se14  1  0.168223  0.336446  0.137697  1
  Se  Se15  1  0.831777  0.663554  0.862303  1
  Se  Se16  1  0.663554  0.831777  0.137697  1
  Se  Se17  1  0.831705  0.663410  0.619784  1
  Se  Se18  1  0.336446  0.168223  0.862303  1
  Se  Se19  1  0.168295  0.336590  0.380216  1
  Se  Se20  1  0.168223  0.831777  0.137697  1
  Se  Se21  1  0.336590  0.168295  0.619784  1
  Se  Se22  1  0.831777  0.168223  0.862303  1
  Se  Se23  1  0.663410  0.831705  0.380216  1
  Se  Se24  1  0.831705  0.168295  0.619784  1
  Se  Se25  1  0.168295  0.831705  0.380216  1
