# generated using pymatgen
data_HfZr9(BeSb3)2
_symmetry_space_group_name_H-M   'P 1'
_cell_length_a   8.57033400
_cell_length_b   8.57033267
_cell_length_c   5.81386600
_cell_angle_alpha   90.00000000
_cell_angle_beta   90.00000000
_cell_angle_gamma   119.99999743
_symmetry_Int_Tables_number   1
_chemical_formula_structural   HfZr9(BeSb3)2
_chemical_formula_sum   'Hf1 Zr9 Be2 Sb6'
_cell_volume   369.82059073
_cell_formula_units_Z   1
loop_
 _symmetry_equiv_pos_site_id
 _symmetry_equiv_pos_as_xyz
  1  'x, y, z'
loop_
 _atom_site_type_symbol
 _atom_site_label
 _atom_site_symmetry_multiplicity
 _atom_site_fract_x
 _atom_site_fract_y
 _atom_site_fract_z
 _atom_site_occupancy
  Hf  Hf0  1  0.333333  0.666667  0.500000  1
  Zr  Zr1  1  0.251818  0.251990  0.749805  1
  Zr  Zr2  1  0.748010  0.748182  0.250195  1
  Zr  Zr3  1  0.748010  0.999828  0.749805  1
  Zr  Zr4  1  0.000172  0.251990  0.250195  1
  Zr  Zr5  1  0.666667  0.333333  0.500000  1
  Zr  Zr6  1  0.000172  0.748182  0.749805  1
  Zr  Zr7  1  0.333333  0.666667  0.000000  1
  Zr  Zr8  1  0.251818  0.999828  0.250195  1
  Zr  Zr9  1  0.666667  0.333333  0.000000  1
  Be  Be10  1  0.000000  0.000000  0.500000  1
  Be  Be11  1  0.000000  0.000000  0.000000  1
  Sb  Sb12  1  0.609041  0.609457  0.749544  1
  Sb  Sb13  1  0.390543  0.999583  0.749544  1
  Sb  Sb14  1  0.609041  0.999583  0.250456  1
  Sb  Sb15  1  0.390543  0.390959  0.250456  1
  Sb  Sb16  1  0.000417  0.390959  0.749544  1
  Sb  Sb17  1  0.000417  0.609457  0.250456  1
