# generated using pymatgen
data_Hf10ZnCu(SnSb)3
_symmetry_space_group_name_H-M   'P 1'
_cell_length_a   8.58550700
_cell_length_b   8.58550747
_cell_length_c   5.79796700
_cell_angle_alpha   90.00000000
_cell_angle_beta   90.00000000
_cell_angle_gamma   119.99999433
_symmetry_Int_Tables_number   1
_chemical_formula_structural   Hf10ZnCu(SnSb)3
_chemical_formula_sum   'Hf10 Zn1 Cu1 Sn3 Sb3'
_cell_volume   370.11638601
_cell_formula_units_Z   1
loop_
 _symmetry_equiv_pos_site_id
 _symmetry_equiv_pos_as_xyz
  1  'x, y, z'
loop_
 _atom_site_type_symbol
 _atom_site_label
 _atom_site_symmetry_multiplicity
 _atom_site_fract_x
 _atom_site_fract_y
 _atom_site_fract_z
 _atom_site_occupancy
  Hf  Hf0  1  0.666667  0.333333  0.998623  1
  Hf  Hf1  1  0.333333  0.666667  0.998623  1
  Hf  Hf2  1  0.333333  0.666667  0.501163  1
  Hf  Hf3  1  0.666667  0.333333  0.501163  1
  Hf  Hf4  1  0.731682  0.731682  0.752490  1
  Hf  Hf5  1  0.268318  0.000000  0.752490  1
  Hf  Hf6  1  0.000000  0.268318  0.752490  1
  Hf  Hf7  1  0.262542  0.262542  0.247290  1
  Hf  Hf8  1  0.737458  0.000000  0.247290  1
  Hf  Hf9  1  0.000000  0.737458  0.247290  1
  Zn  Zn10  1  0.000000  0.000000  0.507525  1
  Cu  Cu11  1  0.000000  0.000000  0.992225  1
  Sn  Sn12  1  0.384347  0.384347  0.749521  1
  Sn  Sn13  1  0.615653  0.000000  0.749521  1
  Sn  Sn14  1  0.000000  0.615653  0.749521  1
  Sb  Sb15  1  0.611809  0.611809  0.250926  1
  Sb  Sb16  1  0.388191  0.000000  0.250926  1
  Sb  Sb17  1  0.000000  0.388191  0.250926  1
