# generated using pymatgen
data_Pr2FeSi5Rh2
_symmetry_space_group_name_H-M   'P 1'
_cell_length_a   8.24506778
_cell_length_b   8.24506839
_cell_length_c   8.24506770
_cell_angle_alpha   139.12066374
_cell_angle_beta   106.26987864
_cell_angle_gamma   87.92248364
_symmetry_Int_Tables_number   1
_chemical_formula_structural   Pr2FeSi5Rh2
_chemical_formula_sum   'Pr4 Fe2 Si10 Rh4'
_cell_volume   338.11378301
_cell_formula_units_Z   2
loop_
 _symmetry_equiv_pos_site_id
 _symmetry_equiv_pos_as_xyz
  1  'x, y, z'
loop_
 _atom_site_type_symbol
 _atom_site_label
 _atom_site_symmetry_multiplicity
 _atom_site_fract_x
 _atom_site_fract_y
 _atom_site_fract_z
 _atom_site_occupancy
  Pr  Pr0  1  0.865180  0.630954  0.234226  1
  Pr  Pr1  1  0.134820  0.369046  0.765774  1
  Pr  Pr2  1  0.396728  0.130954  0.265774  1
  Pr  Pr3  1  0.603272  0.869046  0.734226  1
  Fe  Fe4  1  0.000000  0.750000  0.750000  1
  Fe  Fe5  1  0.000000  0.250000  0.250000  1
  Si  Si6  1  0.500000  0.750000  0.250000  1
  Si  Si7  1  0.500000  0.250000  0.750000  1
  Si  Si8  1  0.216741  0.966741  0.750000  1
  Si  Si9  1  0.783259  0.533259  0.750000  1
  Si  Si10  1  0.783259  0.033259  0.250000  1
  Si  Si11  1  0.216741  0.466741  0.250000  1
  Si  Si12  1  0.049533  0.901853  0.147681  1
  Si  Si13  1  0.950467  0.098147  0.852319  1
  Si  Si14  1  0.754171  0.401853  0.352319  1
  Si  Si15  1  0.245829  0.598147  0.647681  1
  Rh  Rh16  1  0.251131  0.859243  0.391888  1
  Rh  Rh17  1  0.748869  0.140757  0.608112  1
  Rh  Rh18  1  0.467356  0.359243  0.108112  1
  Rh  Rh19  1  0.532644  0.640757  0.891888  1
