# generated using pymatgen
data_Li4CaNd(GdSi4)2
_symmetry_space_group_name_H-M   'P 1'
_cell_length_a   3.81966700
_cell_length_b   7.73197856
_cell_length_c   10.34893359
_cell_angle_alpha   89.78862607
_cell_angle_beta   90.00000000
_cell_angle_gamma   90.00000000
_symmetry_Int_Tables_number   1
_chemical_formula_structural   Li4CaNd(GdSi4)2
_chemical_formula_sum   'Li4 Ca1 Nd1 Gd2 Si8'
_cell_volume   305.63901284
_cell_formula_units_Z   1
loop_
 _symmetry_equiv_pos_site_id
 _symmetry_equiv_pos_as_xyz
  1  'x, y, z'
loop_
 _atom_site_type_symbol
 _atom_site_label
 _atom_site_symmetry_multiplicity
 _atom_site_fract_x
 _atom_site_fract_y
 _atom_site_fract_z
 _atom_site_occupancy
  Li  Li0  1  0.250000  0.998709  0.391726  1
  Li  Li1  1  0.750000  0.007864  0.608791  1
  Li  Li2  1  0.250000  0.488596  0.109223  1
  Li  Li3  1  0.750000  0.507980  0.894188  1
  Ca  Ca4  1  0.750000  0.363341  0.364803  1
  Nd  Nd5  1  0.250000  0.635618  0.634496  1
  Gd  Gd6  1  0.250000  0.131496  0.864528  1
  Gd  Gd7  1  0.750000  0.866437  0.133692  1
  Si  Si8  1  0.750000  0.262311  0.064772  1
  Si  Si9  1  0.250000  0.733608  0.934308  1
  Si  Si10  1  0.750000  0.775409  0.427280  1
  Si  Si11  1  0.250000  0.233149  0.572188  1
  Si  Si12  1  0.750000  0.838911  0.821550  1
  Si  Si13  1  0.250000  0.155760  0.174321  1
  Si  Si14  1  0.750000  0.334300  0.685488  1
  Si  Si15  1  0.250000  0.666511  0.318646  1
