# generated using pymatgen
data_Y3HoPd3PtO14
_symmetry_space_group_name_H-M   'P 1'
_cell_length_a   7.25460603
_cell_length_b   7.26525967
_cell_length_c   7.26867038
_cell_angle_alpha   60.01552741
_cell_angle_beta   59.96521641
_cell_angle_gamma   59.95140469
_symmetry_Int_Tables_number   1
_chemical_formula_structural   Y3HoPd3PtO14
_chemical_formula_sum   'Y3 Ho1 Pd3 Pt1 O14'
_cell_volume   270.75835039
_cell_formula_units_Z   1
loop_
 _symmetry_equiv_pos_site_id
 _symmetry_equiv_pos_as_xyz
  1  'x, y, z'
loop_
 _atom_site_type_symbol
 _atom_site_label
 _atom_site_symmetry_multiplicity
 _atom_site_fract_x
 _atom_site_fract_y
 _atom_site_fract_z
 _atom_site_occupancy
  Y  Y0  1  0.625000  0.625000  0.625000  1
  Y  Y1  1  0.625000  0.125000  0.625000  1
  Y  Y2  1  0.125000  0.625000  0.625000  1
  Ho  Ho3  1  0.625000  0.625000  0.125000  1
  Pd  Pd4  1  0.125000  0.125000  0.125000  1
  Pd  Pd5  1  0.125000  0.625000  0.125000  1
  Pd  Pd6  1  0.125000  0.125000  0.625000  1
  Pt  Pt7  1  0.625000  0.125000  0.125000  1
  O  O8  1  0.035329  0.464665  0.464509  1
  O  O9  1  0.783300  0.785717  0.214325  1
  O  O10  1  0.783300  0.216657  0.214325  1
  O  O11  1  0.466334  0.034918  0.463831  1
  O  O12  1  0.748713  0.749350  0.752588  1
  O  O13  1  0.035329  0.035497  0.464509  1
  O  O14  1  0.033690  0.465034  0.036242  1
  O  O15  1  0.783666  0.215082  0.786169  1
  O  O16  1  0.216310  0.784966  0.213758  1
  O  O17  1  0.214671  0.214503  0.785491  1
  O  O18  1  0.501287  0.500650  0.497412  1
  O  O19  1  0.466700  0.033343  0.035675  1
  O  O20  1  0.466700  0.464283  0.035675  1
  O  O21  1  0.214671  0.785335  0.785491  1
