# generated using pymatgen
data_TmFeCo3P3Ru
_symmetry_space_group_name_H-M   'P 1'
_cell_length_a   3.69454800
_cell_length_b   10.29202200
_cell_length_c   11.78321200
_cell_angle_alpha   90.00000000
_cell_angle_beta   90.00000000
_cell_angle_gamma   90.00000000
_symmetry_Int_Tables_number   1
_chemical_formula_structural   TmFeCo3P3Ru
_chemical_formula_sum   'Tm4 Fe4 Co12 P12 Ru4'
_cell_volume   448.04920458
_cell_formula_units_Z   4
loop_
 _symmetry_equiv_pos_site_id
 _symmetry_equiv_pos_as_xyz
  1  'x, y, z'
loop_
 _atom_site_type_symbol
 _atom_site_label
 _atom_site_symmetry_multiplicity
 _atom_site_fract_x
 _atom_site_fract_y
 _atom_site_fract_z
 _atom_site_occupancy
  Tm  Tm0  1  0.250000  0.582971  0.704890  1
  Tm  Tm1  1  0.250000  0.917029  0.204890  1
  Tm  Tm2  1  0.750000  0.417029  0.295110  1
  Tm  Tm3  1  0.750000  0.082971  0.795110  1
  Fe  Fe4  1  0.250000  0.463324  0.931878  1
  Fe  Fe5  1  0.250000  0.036676  0.431878  1
  Fe  Fe6  1  0.750000  0.536676  0.068122  1
  Fe  Fe7  1  0.750000  0.963324  0.568122  1
  Co  Co8  1  0.250000  0.407955  0.487716  1
  Co  Co9  1  0.250000  0.092045  0.987716  1
  Co  Co10  1  0.750000  0.592045  0.512284  1
  Co  Co11  1  0.750000  0.907955  0.012284  1
  Co  Co12  1  0.250000  0.223837  0.174557  1
  Co  Co13  1  0.250000  0.276163  0.674557  1
  Co  Co14  1  0.750000  0.776163  0.825443  1
  Co  Co15  1  0.750000  0.723837  0.325443  1
  Co  Co16  1  0.250000  0.883406  0.703955  1
  Co  Co17  1  0.250000  0.616594  0.203955  1
  Co  Co18  1  0.750000  0.116594  0.296045  1
  Co  Co19  1  0.750000  0.383406  0.796045  1
  P  P20  1  0.250000  0.424507  0.113262  1
  P  P21  1  0.250000  0.075493  0.613262  1
  P  P22  1  0.750000  0.575493  0.886738  1
  P  P23  1  0.750000  0.924507  0.386738  1
  P  P24  1  0.250000  0.268828  0.863942  1
  P  P25  1  0.250000  0.231172  0.363942  1
  P  P26  1  0.750000  0.731172  0.136058  1
  P  P27  1  0.750000  0.768828  0.636058  1
  P  P28  1  0.250000  0.596711  0.390533  1
  P  P29  1  0.250000  0.903289  0.890533  1
  P  P30  1  0.750000  0.403289  0.609467  1
  P  P31  1  0.750000  0.096711  0.109467  1
  Ru  Ru32  1  0.250000  0.713127  0.991316  1
  Ru  Ru33  1  0.250000  0.786873  0.491316  1
  Ru  Ru34  1  0.750000  0.286873  0.008684  1
  Ru  Ru35  1  0.750000  0.213127  0.508684  1
