# generated using pymatgen
data_DyHf7Ta10(TiSi8)2
_symmetry_space_group_name_H-M   'P 1'
_cell_length_a   6.85774966
_cell_length_b   6.85979677
_cell_length_c   12.69342615
_cell_angle_alpha   90.00997400
_cell_angle_beta   89.96299224
_cell_angle_gamma   89.95966207
_symmetry_Int_Tables_number   1
_chemical_formula_structural   DyHf7Ta10(TiSi8)2
_chemical_formula_sum   'Dy1 Hf7 Ta10 Ti2 Si16'
_cell_volume   597.13363195
_cell_formula_units_Z   1
loop_
 _symmetry_equiv_pos_site_id
 _symmetry_equiv_pos_as_xyz
  1  'x, y, z'
loop_
 _atom_site_type_symbol
 _atom_site_label
 _atom_site_symmetry_multiplicity
 _atom_site_fract_x
 _atom_site_fract_y
 _atom_site_fract_z
 _atom_site_occupancy
  Dy  Dy0  1  0.339130  0.003280  0.468699  1
  Hf  Hf1  1  0.004067  0.658634  0.030127  1
  Hf  Hf2  1  0.996424  0.344252  0.531931  1
  Hf  Hf3  1  0.658289  0.004283  0.969852  1
  Hf  Hf4  1  0.159883  0.499953  0.781349  1
  Hf  Hf5  1  0.840646  0.502044  0.278689  1
  Hf  Hf6  1  0.499304  0.159647  0.218255  1
  Hf  Hf7  1  0.501815  0.840106  0.720358  1
  Ta  Ta8  1  0.347532  0.503391  0.375155  1
  Ta  Ta9  1  0.846852  0.995366  0.372156  1
  Ta  Ta10  1  0.002146  0.151652  0.124606  1
  Ta  Ta11  1  0.997063  0.843953  0.629532  1
  Ta  Ta12  1  0.507377  0.346903  0.625884  1
  Ta  Ta13  1  0.151593  0.003523  0.874872  1
  Ta  Ta14  1  0.672085  0.667610  0.500188  1
  Ta  Ta15  1  0.829792  0.169319  0.751585  1
  Ta  Ta16  1  0.167910  0.828650  0.247847  1
  Ta  Ta17  1  0.330521  0.330551  0.999779  1
  Ti  Ti18  1  0.495224  0.651581  0.122537  1
  Ti  Ti19  1  0.651574  0.495403  0.877210  1
  Si  Si20  1  0.042307  0.698598  0.435906  1
  Si  Si21  1  0.953229  0.302465  0.935722  1
  Si  Si22  1  0.705278  0.042752  0.564693  1
  Si  Si23  1  0.203291  0.458018  0.184117  1
  Si  Si24  1  0.797772  0.544343  0.689928  1
  Si  Si25  1  0.457569  0.203053  0.815432  1
  Si  Si26  1  0.545054  0.795801  0.309557  1
  Si  Si27  1  0.301746  0.953248  0.064144  1
  Si  Si28  1  0.789900  0.860711  0.174413  1
  Si  Si29  1  0.293709  0.632904  0.574267  1
  Si  Si30  1  0.704523  0.368094  0.072234  1
  Si  Si31  1  0.640327  0.295739  0.426969  1
  Si  Si32  1  0.368180  0.705418  0.927418  1
  Si  Si33  1  0.132543  0.210214  0.319056  1
  Si  Si34  1  0.204946  0.138372  0.679941  1
  Si  Si35  1  0.860402  0.790164  0.825594  1
