# generated using pymatgen
data_Dy16InAg3Pt4
_symmetry_space_group_name_H-M   'P 1'
_cell_length_a   9.63461615
_cell_length_b   9.64726701
_cell_length_c   9.64723100
_cell_angle_alpha   60.27969856
_cell_angle_beta   60.16286551
_cell_angle_gamma   60.16281843
_symmetry_Int_Tables_number   1
_chemical_formula_structural   Dy16InAg3Pt4
_chemical_formula_sum   'Dy16 In1 Ag3 Pt4'
_cell_volume   636.94965826
_cell_formula_units_Z   1
loop_
 _symmetry_equiv_pos_site_id
 _symmetry_equiv_pos_as_xyz
  1  'x, y, z'
loop_
 _atom_site_type_symbol
 _atom_site_label
 _atom_site_symmetry_multiplicity
 _atom_site_fract_x
 _atom_site_fract_y
 _atom_site_fract_z
 _atom_site_occupancy
  Dy  Dy0  1  0.810036  0.806561  0.190964  1
  Dy  Dy1  1  0.810083  0.190896  0.806750  1
  Dy  Dy2  1  0.189769  0.189129  0.810837  1
  Dy  Dy3  1  0.644111  0.063266  0.644433  1
  Dy  Dy4  1  0.067422  0.060204  0.436749  1
  Dy  Dy5  1  0.436301  0.434741  0.063482  1
  Dy  Dy6  1  0.648795  0.648681  0.648669  1
  Dy  Dy7  1  0.810470  0.190711  0.190751  1
  Dy  Dy8  1  0.187722  0.810197  0.810540  1
  Dy  Dy9  1  0.065492  0.643886  0.643902  1
  Dy  Dy10  1  0.436185  0.064579  0.064752  1
  Dy  Dy11  1  0.436084  0.063424  0.434761  1
  Dy  Dy12  1  0.067655  0.436502  0.060324  1
  Dy  Dy13  1  0.644350  0.644454  0.062977  1
  Dy  Dy14  1  0.189618  0.811051  0.188950  1
  Dy  Dy15  1  0.069398  0.433896  0.433736  1
  In  In16  1  0.740416  0.421253  0.421516  1
  Ag  Ag17  1  0.415760  0.416947  0.416703  1
  Ag  Ag18  1  0.414649  0.415314  0.754100  1
  Ag  Ag19  1  0.414635  0.754080  0.415329  1
  Pt  Pt20  1  0.857238  0.430291  0.857441  1
  Pt  Pt21  1  0.855955  0.854653  0.854408  1
  Pt  Pt22  1  0.857241  0.857483  0.430289  1
  Pt  Pt23  1  0.430619  0.857803  0.857634  1
