# generated using pymatgen
data_Tb2Y3Tm3(CdNi)2
_symmetry_space_group_name_H-M   'P 1'
_cell_length_a   9.51871525
_cell_length_b   9.51871605
_cell_length_c   9.51871500
_cell_angle_alpha   60.00000018
_cell_angle_beta   59.99999739
_cell_angle_gamma   59.99999704
_symmetry_Int_Tables_number   1
_chemical_formula_structural   Tb2Y3Tm3(CdNi)2
_chemical_formula_sum   'Tb4 Y6 Tm6 Cd4 Ni4'
_cell_volume   609.84576922
_cell_formula_units_Z   2
loop_
 _symmetry_equiv_pos_site_id
 _symmetry_equiv_pos_as_xyz
  1  'x, y, z'
loop_
 _atom_site_type_symbol
 _atom_site_label
 _atom_site_symmetry_multiplicity
 _atom_site_fract_x
 _atom_site_fract_y
 _atom_site_fract_z
 _atom_site_occupancy
  Tb  Tb0  1  0.599122  0.599122  0.599122  1
  Tb  Tb1  1  0.599122  0.599122  0.202632  1
  Tb  Tb2  1  0.599122  0.202632  0.599122  1
  Tb  Tb3  1  0.202632  0.599122  0.599122  1
  Y  Y4  1  0.187206  0.812794  0.812794  1
  Y  Y5  1  0.812794  0.187206  0.187206  1
  Y  Y6  1  0.812794  0.187206  0.812794  1
  Y  Y7  1  0.187206  0.812794  0.187206  1
  Y  Y8  1  0.812794  0.812794  0.187206  1
  Y  Y9  1  0.187206  0.187206  0.812794  1
  Tm  Tm10  1  0.063148  0.436852  0.436852  1
  Tm  Tm11  1  0.436852  0.063148  0.063148  1
  Tm  Tm12  1  0.436852  0.063148  0.436852  1
  Tm  Tm13  1  0.063148  0.436852  0.063148  1
  Tm  Tm14  1  0.436852  0.436852  0.063148  1
  Tm  Tm15  1  0.063148  0.063148  0.436852  1
  Cd  Cd16  1  0.830933  0.830933  0.830933  1
  Cd  Cd17  1  0.830933  0.830933  0.507199  1
  Cd  Cd18  1  0.830933  0.507199  0.830933  1
  Cd  Cd19  1  0.507199  0.830933  0.830933  1
  Ni  Ni20  1  0.391789  0.391789  0.391789  1
  Ni  Ni21  1  0.391789  0.391789  0.824635  1
  Ni  Ni22  1  0.391789  0.824635  0.391789  1
  Ni  Ni23  1  0.824635  0.391789  0.391789  1
