# generated using pymatgen
data_Y3Cr(Ni4P3)2
_symmetry_space_group_name_H-M   'P 1'
_cell_length_a   3.76865500
_cell_length_b   10.61619000
_cell_length_c   12.35777700
_cell_angle_alpha   90.00000000
_cell_angle_beta   90.00000000
_cell_angle_gamma   90.00000000
_symmetry_Int_Tables_number   1
_chemical_formula_structural   Y3Cr(Ni4P3)2
_chemical_formula_sum   'Y6 Cr2 Ni16 P12'
_cell_volume   494.41930353
_cell_formula_units_Z   2
loop_
 _symmetry_equiv_pos_site_id
 _symmetry_equiv_pos_as_xyz
  1  'x, y, z'
loop_
 _atom_site_type_symbol
 _atom_site_label
 _atom_site_symmetry_multiplicity
 _atom_site_fract_x
 _atom_site_fract_y
 _atom_site_fract_z
 _atom_site_occupancy
  Y  Y0  1  0.751822  0.000000  0.478486  1
  Y  Y1  1  0.251822  0.500000  0.521514  1
  Y  Y2  1  0.251810  0.683894  0.794636  1
  Y  Y3  1  0.251810  0.316106  0.794636  1
  Y  Y4  1  0.751810  0.816106  0.205364  1
  Y  Y5  1  0.751810  0.183894  0.205364  1
  Cr  Cr6  1  0.251930  0.000000  0.847050  1
  Cr  Cr7  1  0.751930  0.500000  0.152950  1
  Ni  Ni8  1  0.751897  0.000000  0.016698  1
  Ni  Ni9  1  0.251897  0.500000  0.983302  1
  Ni  Ni10  1  0.251853  0.198110  0.572174  1
  Ni  Ni11  1  0.251853  0.801890  0.572174  1
  Ni  Ni12  1  0.751853  0.301890  0.427826  1
  Ni  Ni13  1  0.751853  0.698110  0.427826  1
  Ni  Ni14  1  0.251767  0.619729  0.288433  1
  Ni  Ni15  1  0.251767  0.380271  0.288433  1
  Ni  Ni16  1  0.751767  0.880271  0.711567  1
  Ni  Ni17  1  0.751767  0.119729  0.711567  1
  Ni  Ni18  1  0.251812  0.167190  0.009882  1
  Ni  Ni19  1  0.251812  0.832810  0.009882  1
  Ni  Ni20  1  0.751812  0.332810  0.990118  1
  Ni  Ni21  1  0.751812  0.667190  0.990118  1
  Ni  Ni22  1  0.251908  0.000000  0.299458  1
  Ni  Ni23  1  0.751908  0.500000  0.700542  1
  P  P24  1  0.251799  0.186627  0.385713  1
  P  P25  1  0.251799  0.813373  0.385713  1
  P  P26  1  0.751799  0.313373  0.614287  1
  P  P27  1  0.751799  0.686627  0.614287  1
  P  P28  1  0.251858  0.000000  0.122369  1
  P  P29  1  0.751858  0.500000  0.877631  1
  P  P30  1  0.251774  0.651654  0.106382  1
  P  P31  1  0.251774  0.348346  0.106382  1
  P  P32  1  0.751774  0.848346  0.893618  1
  P  P33  1  0.751774  0.151654  0.893618  1
  P  P34  1  0.251759  0.000000  0.655689  1
  P  P35  1  0.751759  0.500000  0.344311  1
