# generated using pymatgen
data_Y12Ho4Cd4Pd3Ru
_symmetry_space_group_name_H-M   'P 1'
_cell_length_a   9.71794735
_cell_length_b   9.71794809
_cell_length_c   9.71794776
_cell_angle_alpha   59.62837122
_cell_angle_beta   59.62837577
_cell_angle_gamma   59.62836856
_symmetry_Int_Tables_number   1
_chemical_formula_structural   Y12Ho4Cd4Pd3Ru
_chemical_formula_sum   'Y12 Ho4 Cd4 Pd3 Ru1'
_cell_volume   643.46569174
_cell_formula_units_Z   1
loop_
 _symmetry_equiv_pos_site_id
 _symmetry_equiv_pos_as_xyz
  1  'x, y, z'
loop_
 _atom_site_type_symbol
 _atom_site_label
 _atom_site_symmetry_multiplicity
 _atom_site_fract_x
 _atom_site_fract_y
 _atom_site_fract_z
 _atom_site_occupancy
  Y  Y0  1  0.815887  0.188964  0.188964  1
  Y  Y1  1  0.188882  0.809930  0.809930  1
  Y  Y2  1  0.188964  0.815887  0.188964  1
  Y  Y3  1  0.809930  0.188882  0.809930  1
  Y  Y4  1  0.188964  0.188964  0.815887  1
  Y  Y5  1  0.809930  0.809930  0.188882  1
  Y  Y6  1  0.935279  0.565516  0.565516  1
  Y  Y7  1  0.560387  0.936561  0.936561  1
  Y  Y8  1  0.565516  0.935279  0.565516  1
  Y  Y9  1  0.936561  0.560387  0.936561  1
  Y  Y10  1  0.565516  0.565516  0.935279  1
  Y  Y11  1  0.936561  0.936561  0.560387  1
  Ho  Ho12  1  0.352941  0.352941  0.352941  1
  Ho  Ho13  1  0.350210  0.350210  0.945593  1
  Ho  Ho14  1  0.350210  0.945593  0.350210  1
  Ho  Ho15  1  0.945593  0.350210  0.350210  1
  Cd  Cd16  1  0.580181  0.580181  0.580181  1
  Cd  Cd17  1  0.581161  0.581161  0.253944  1
  Cd  Cd18  1  0.581161  0.253944  0.581161  1
  Cd  Cd19  1  0.253944  0.581161  0.581161  1
  Pd  Pd20  1  0.145708  0.145708  0.565593  1
  Pd  Pd21  1  0.145708  0.565593  0.145708  1
  Pd  Pd22  1  0.565593  0.145708  0.145708  1
  Ru  Ru23  1  0.145211  0.145211  0.145211  1
