# generated using pymatgen
data_TbLu2Sn3IrPt2
_symmetry_space_group_name_H-M   'P 1'
_cell_length_a   7.60250012
_cell_length_b   7.57802015
_cell_length_c   3.82066000
_cell_angle_alpha   90.00000000
_cell_angle_beta   90.00000000
_cell_angle_gamma   119.89353956
_symmetry_Int_Tables_number   1
_chemical_formula_structural   TbLu2Sn3IrPt2
_chemical_formula_sum   'Tb1 Lu2 Sn3 Ir1 Pt2'
_cell_volume   190.82976356
_cell_formula_units_Z   1
loop_
 _symmetry_equiv_pos_site_id
 _symmetry_equiv_pos_as_xyz
  1  'x, y, z'
loop_
 _atom_site_type_symbol
 _atom_site_label
 _atom_site_symmetry_multiplicity
 _atom_site_fract_x
 _atom_site_fract_y
 _atom_site_fract_z
 _atom_site_occupancy
  Tb  Tb0  1  0.000000  0.399830  0.500000  1
  Lu  Lu1  1  0.601554  0.601554  0.500000  1
  Lu  Lu2  1  0.398446  0.000001  0.500000  1
  Sn  Sn3  1  0.000000  0.738854  0.000000  1
  Sn  Sn4  1  0.262694  0.260817  0.000000  1
  Sn  Sn5  1  0.737306  0.998123  0.000000  1
  Ir  Ir6  1  0.000000  0.997956  0.500000  1
  Pt  Pt7  1  0.337807  0.670337  0.000000  1
  Pt  Pt8  1  0.662193  0.332529  0.000000  1
