# generated using pymatgen
data_TbDyY6Cd2IrPt
_symmetry_space_group_name_H-M   'P 1'
_cell_length_a   9.69115126
_cell_length_b   9.69115115
_cell_length_c   9.66652200
_cell_angle_alpha   60.08403348
_cell_angle_beta   60.08403387
_cell_angle_gamma   60.29855104
_symmetry_Int_Tables_number   1
_chemical_formula_structural   TbDyY6Cd2IrPt
_chemical_formula_sum   'Tb2 Dy2 Y12 Cd4 Ir2 Pt2'
_cell_volume   644.21267916
_cell_formula_units_Z   2
loop_
 _symmetry_equiv_pos_site_id
 _symmetry_equiv_pos_as_xyz
  1  'x, y, z'
loop_
 _atom_site_type_symbol
 _atom_site_label
 _atom_site_symmetry_multiplicity
 _atom_site_fract_x
 _atom_site_fract_y
 _atom_site_fract_z
 _atom_site_occupancy
  Tb  Tb0  1  0.355816  0.944172  0.350005  1
  Tb  Tb1  1  0.944172  0.355816  0.350005  1
  Dy  Dy2  1  0.350250  0.350250  0.346323  1
  Dy  Dy3  1  0.350250  0.350250  0.953176  1
  Y  Y4  1  0.806304  0.190621  0.190339  1
  Y  Y5  1  0.190621  0.806304  0.812738  1
  Y  Y6  1  0.190621  0.806304  0.190339  1
  Y  Y7  1  0.806304  0.190621  0.812738  1
  Y  Y8  1  0.191637  0.191637  0.808363  1
  Y  Y9  1  0.811240  0.811240  0.188760  1
  Y  Y10  1  0.937967  0.564720  0.561311  1
  Y  Y11  1  0.564720  0.937967  0.936003  1
  Y  Y12  1  0.564720  0.937967  0.561311  1
  Y  Y13  1  0.937967  0.564720  0.936003  1
  Y  Y14  1  0.563372  0.563372  0.936628  1
  Y  Y15  1  0.937560  0.937560  0.562440  1
  Cd  Cd16  1  0.581046  0.581046  0.582290  1
  Cd  Cd17  1  0.581046  0.581046  0.255621  1
  Cd  Cd18  1  0.580102  0.256498  0.581701  1
  Cd  Cd19  1  0.256498  0.580102  0.581701  1
  Ir  Ir20  1  0.141806  0.571591  0.143301  1
  Ir  Ir21  1  0.571591  0.141806  0.143301  1
  Pt  Pt22  1  0.142197  0.142197  0.144811  1
  Pt  Pt23  1  0.142197  0.142197  0.570794  1
