# generated using pymatgen
data_Er6Th2Mg2RuRh
_symmetry_space_group_name_H-M   'P 1'
_cell_length_a   9.72174918
_cell_length_b   9.72175014
_cell_length_c   9.76454100
_cell_angle_alpha   59.85429388
_cell_angle_beta   59.85429059
_cell_angle_gamma   59.71585741
_symmetry_Int_Tables_number   1
_chemical_formula_structural   Er6Th2Mg2RuRh
_chemical_formula_sum   'Er12 Th4 Mg4 Ru2 Rh2'
_cell_volume   649.72341929
_cell_formula_units_Z   2
loop_
 _symmetry_equiv_pos_site_id
 _symmetry_equiv_pos_as_xyz
  1  'x, y, z'
loop_
 _atom_site_type_symbol
 _atom_site_label
 _atom_site_symmetry_multiplicity
 _atom_site_fract_x
 _atom_site_fract_y
 _atom_site_fract_z
 _atom_site_occupancy
  Er  Er0  1  0.814768  0.186022  0.187038  1
  Er  Er1  1  0.186022  0.814768  0.812171  1
  Er  Er2  1  0.186022  0.814768  0.187038  1
  Er  Er3  1  0.814768  0.186022  0.812171  1
  Er  Er4  1  0.186471  0.186471  0.813529  1
  Er  Er5  1  0.813352  0.813352  0.186648  1
  Er  Er6  1  0.933985  0.564051  0.567856  1
  Er  Er7  1  0.564051  0.933985  0.934108  1
  Er  Er8  1  0.564051  0.933985  0.567856  1
  Er  Er9  1  0.933985  0.564051  0.934108  1
  Er  Er10  1  0.566077  0.566077  0.933923  1
  Er  Er11  1  0.934270  0.934270  0.565730  1
  Th  Th12  1  0.347184  0.347184  0.350031  1
  Th  Th13  1  0.347184  0.347184  0.955598  1
  Th  Th14  1  0.345900  0.957706  0.348196  1
  Th  Th15  1  0.957706  0.345900  0.348196  1
  Mg  Mg16  1  0.579405  0.579405  0.582134  1
  Mg  Mg17  1  0.579405  0.579405  0.259054  1
  Mg  Mg18  1  0.578980  0.257844  0.581587  1
  Mg  Mg19  1  0.257844  0.578980  0.581587  1
  Ru  Ru20  1  0.145855  0.145855  0.141972  1
  Ru  Ru21  1  0.145855  0.145855  0.566316  1
  Rh  Rh22  1  0.144669  0.572184  0.141573  1
  Rh  Rh23  1  0.572184  0.144669  0.141573  1
