# generated using pymatgen
data_Nd6GaNiI6
_symmetry_space_group_name_H-M   'P 1'
_cell_length_a   10.70362882
_cell_length_b   10.70343813
_cell_length_c   10.92132656
_cell_angle_alpha   109.73422448
_cell_angle_beta   109.73319676
_cell_angle_gamma   108.13445076
_symmetry_Int_Tables_number   1
_chemical_formula_structural   Nd6GaNiI6
_chemical_formula_sum   'Nd12 Ga2 Ni2 I12'
_cell_volume   972.52162563
_cell_formula_units_Z   2
loop_
 _symmetry_equiv_pos_site_id
 _symmetry_equiv_pos_as_xyz
  1  'x, y, z'
loop_
 _atom_site_type_symbol
 _atom_site_label
 _atom_site_symmetry_multiplicity
 _atom_site_fract_x
 _atom_site_fract_y
 _atom_site_fract_z
 _atom_site_occupancy
  Nd  Nd0  1  0.387634  0.612358  0.999961  1
  Nd  Nd1  1  0.612343  0.387564  0.000003  1
  Nd  Nd2  1  0.648153  0.148202  0.296221  1
  Nd  Nd3  1  0.851838  0.351928  0.703809  1
  Nd  Nd4  1  0.418121  0.386631  0.278082  1
  Nd  Nd5  1  0.108542  0.139864  0.721756  1
  Nd  Nd6  1  0.116428  0.357084  0.512046  1
  Nd  Nd7  1  0.845073  0.604552  0.488065  1
  Nd  Nd8  1  0.613372  0.581896  0.721984  1
  Nd  Nd9  1  0.860098  0.891398  0.278185  1
  Nd  Nd10  1  0.642898  0.883604  0.487933  1
  Nd  Nd11  1  0.395524  0.154884  0.511949  1
  Ga  Ga12  1  0.626126  0.626111  0.252190  1
  Ga  Ga13  1  0.373871  0.373801  0.747770  1
  Ni  Ni14  1  0.872539  0.127482  0.499999  1
  Ni  Ni15  1  0.627422  0.372612  0.500020  1
  I  I16  1  0.367893  0.632138  0.500018  1
  I  I17  1  0.132298  0.867666  0.499973  1
  I  I18  1  0.116421  0.116499  0.233082  1
  I  I19  1  0.883441  0.883635  0.766948  1
  I  I20  1  0.888985  0.633716  0.009653  1
  I  I21  1  0.624210  0.879450  0.990620  1
  I  I22  1  0.625609  0.117280  0.761240  1
  I  I23  1  0.355960  0.864343  0.238738  1
  I  I24  1  0.366204  0.110949  0.990385  1
  I  I25  1  0.120590  0.375819  0.009359  1
  I  I26  1  0.882762  0.374473  0.238815  1
  I  I27  1  0.135645  0.644060  0.761195  1
