# generated using pymatgen
data_AcNd(CrN3)2
_symmetry_space_group_name_H-M   'P 1'
_cell_length_a   7.27052661
_cell_length_b   7.27052673
_cell_length_c   6.01165286
_cell_angle_alpha   78.90327141
_cell_angle_beta   78.90327675
_cell_angle_gamma   90.25991139
_symmetry_Int_Tables_number   1
_chemical_formula_structural   AcNd(CrN3)2
_chemical_formula_sum   'Ac2 Nd2 Cr4 N12'
_cell_volume   305.72239125
_cell_formula_units_Z   2
loop_
 _symmetry_equiv_pos_site_id
 _symmetry_equiv_pos_as_xyz
  1  'x, y, z'
loop_
 _atom_site_type_symbol
 _atom_site_label
 _atom_site_symmetry_multiplicity
 _atom_site_fract_x
 _atom_site_fract_y
 _atom_site_fract_z
 _atom_site_occupancy
  Ac  Ac0  1  0.330560  0.669440  0.750000  1
  Ac  Ac1  1  0.669440  0.330560  0.250000  1
  Nd  Nd2  1  0.094746  0.905254  0.250000  1
  Nd  Nd3  1  0.905254  0.094746  0.750000  1
  Cr  Cr4  1  0.369401  0.198347  0.767889  1
  Cr  Cr5  1  0.630599  0.801653  0.232111  1
  Cr  Cr6  1  0.801653  0.630599  0.732111  1
  Cr  Cr7  1  0.198347  0.369401  0.267889  1
  N  N8  1  0.993560  0.780959  0.653589  1
  N  N9  1  0.864607  0.414422  0.821468  1
  N  N10  1  0.780959  0.993560  0.153589  1
  N  N11  1  0.135393  0.585578  0.178532  1
  N  N12  1  0.006440  0.219041  0.346411  1
  N  N13  1  0.219041  0.006440  0.846411  1
  N  N14  1  0.585578  0.135393  0.678532  1
  N  N15  1  0.642097  0.679885  0.983966  1
  N  N16  1  0.357903  0.320115  0.016034  1
  N  N17  1  0.414422  0.864607  0.321468  1
  N  N18  1  0.679885  0.642097  0.483966  1
  N  N19  1  0.320115  0.357903  0.516034  1
