# generated using pymatgen
data_Yb3Pr7(Ga2Sb)2
_symmetry_space_group_name_H-M   'P 1'
_cell_length_a   8.08368500
_cell_length_b   8.09772601
_cell_length_c   14.58186700
_cell_angle_alpha   89.99755186
_cell_angle_beta   90.00000000
_cell_angle_gamma   90.00000000
_symmetry_Int_Tables_number   1
_chemical_formula_structural   Yb3Pr7(Ga2Sb)2
_chemical_formula_sum   'Yb6 Pr14 Ga8 Sb4'
_cell_volume   954.52123002
_cell_formula_units_Z   2
loop_
 _symmetry_equiv_pos_site_id
 _symmetry_equiv_pos_as_xyz
  1  'x, y, z'
loop_
 _atom_site_type_symbol
 _atom_site_label
 _atom_site_symmetry_multiplicity
 _atom_site_fract_x
 _atom_site_fract_y
 _atom_site_fract_z
 _atom_site_occupancy
  Yb  Yb0  1  0.837337  0.840408  0.607727  1
  Yb  Yb1  1  0.162663  0.840408  0.107727  1
  Yb  Yb2  1  0.997618  0.504240  0.743149  1
  Yb  Yb3  1  0.002382  0.504240  0.243149  1
  Yb  Yb4  1  0.499294  0.996850  0.251315  1
  Yb  Yb5  1  0.500706  0.996850  0.751315  1
  Pr  Pr6  1  0.169096  0.828538  0.393092  1
  Pr  Pr7  1  0.834132  0.169843  0.392142  1
  Pr  Pr8  1  0.666796  0.663891  0.394830  1
  Pr  Pr9  1  0.665013  0.328790  0.606866  1
  Pr  Pr10  1  0.330975  0.669252  0.607430  1
  Pr  Pr11  1  0.669025  0.669252  0.107430  1
  Pr  Pr12  1  0.670366  0.331992  0.894197  1
  Pr  Pr13  1  0.830904  0.828538  0.893092  1
  Pr  Pr14  1  0.329634  0.331992  0.394197  1
  Pr  Pr15  1  0.173339  0.169964  0.606343  1
  Pr  Pr16  1  0.826661  0.169964  0.106343  1
  Pr  Pr17  1  0.333204  0.663891  0.894830  1
  Pr  Pr18  1  0.334987  0.328790  0.106866  1
  Pr  Pr19  1  0.165868  0.169843  0.892142  1
  Ga  Ga20  1  0.622214  0.377537  0.250163  1
  Ga  Ga21  1  0.122932  0.878740  0.752315  1
  Ga  Ga22  1  0.377786  0.377537  0.750163  1
  Ga  Ga23  1  0.379912  0.619443  0.250702  1
  Ga  Ga24  1  0.877068  0.878740  0.252315  1
  Ga  Ga25  1  0.620088  0.619443  0.750702  1
  Ga  Ga26  1  0.878968  0.122491  0.749752  1
  Ga  Ga27  1  0.121032  0.122491  0.249752  1
  Sb  Sb28  1  0.998285  0.499979  0.501531  1
  Sb  Sb29  1  0.499978  0.998040  0.498449  1
  Sb  Sb30  1  0.500022  0.998040  0.998449  1
  Sb  Sb31  1  0.001715  0.499979  0.001531  1
