# generated using pymatgen
data_Nb12Zn3Ga8MoN4
_symmetry_space_group_name_H-M   'P 1'
_cell_length_a   8.35707865
_cell_length_b   8.35707848
_cell_length_c   8.35707971
_cell_angle_alpha   59.43582109
_cell_angle_beta   59.43581914
_cell_angle_gamma   59.43582798
_symmetry_Int_Tables_number   1
_chemical_formula_structural   Nb12Zn3Ga8MoN4
_chemical_formula_sum   'Nb12 Zn3 Ga8 Mo1 N4'
_cell_volume   407.41580690
_cell_formula_units_Z   1
loop_
 _symmetry_equiv_pos_site_id
 _symmetry_equiv_pos_as_xyz
  1  'x, y, z'
loop_
 _atom_site_type_symbol
 _atom_site_label
 _atom_site_symmetry_multiplicity
 _atom_site_fract_x
 _atom_site_fract_y
 _atom_site_fract_z
 _atom_site_occupancy
  Nb  Nb0  1  0.442310  0.442310  0.057224  1
  Nb  Nb1  1  0.056913  0.443102  0.056913  1
  Nb  Nb2  1  0.443102  0.056913  0.056913  1
  Nb  Nb3  1  0.056913  0.056913  0.443102  1
  Nb  Nb4  1  0.442310  0.057224  0.442310  1
  Nb  Nb5  1  0.057224  0.442310  0.442310  1
  Nb  Nb6  1  0.807690  0.807690  0.192776  1
  Nb  Nb7  1  0.193087  0.806898  0.193087  1
  Nb  Nb8  1  0.806898  0.193087  0.193087  1
  Nb  Nb9  1  0.193087  0.193087  0.806898  1
  Nb  Nb10  1  0.807690  0.192776  0.807690  1
  Nb  Nb11  1  0.192776  0.807690  0.807690  1
  Zn  Zn12  1  0.625000  0.625000  0.125000  1
  Zn  Zn13  1  0.625000  0.125000  0.625000  1
  Zn  Zn14  1  0.125000  0.625000  0.625000  1
  Ga  Ga15  1  0.839294  0.839294  0.484754  1
  Ga  Ga16  1  0.839294  0.484754  0.839294  1
  Ga  Ga17  1  0.484754  0.839294  0.839294  1
  Ga  Ga18  1  0.838784  0.838784  0.838784  1
  Ga  Ga19  1  0.410706  0.410706  0.765246  1
  Ga  Ga20  1  0.410706  0.765246  0.410706  1
  Ga  Ga21  1  0.765246  0.410706  0.410706  1
  Ga  Ga22  1  0.411216  0.411216  0.411216  1
  Mo  Mo23  1  0.625000  0.625000  0.625000  1
  N  N24  1  0.125000  0.125000  0.625000  1
  N  N25  1  0.125000  0.625000  0.125000  1
  N  N26  1  0.625000  0.125000  0.125000  1
  N  N27  1  0.125000  0.125000  0.125000  1
