# generated using pymatgen
data_Lu6FeB14Mo
_symmetry_space_group_name_H-M   'P 1'
_cell_length_a   7.92942500
_cell_length_b   7.92942560
_cell_length_c   9.24207200
_cell_angle_alpha   90.00000000
_cell_angle_beta   90.00000000
_cell_angle_gamma   155.29859074
_symmetry_Int_Tables_number   1
_chemical_formula_structural   Lu6FeB14Mo
_chemical_formula_sum   'Lu6 Fe1 B14 Mo1'
_cell_volume   242.83660208
_cell_formula_units_Z   1
loop_
 _symmetry_equiv_pos_site_id
 _symmetry_equiv_pos_as_xyz
  1  'x, y, z'
loop_
 _atom_site_type_symbol
 _atom_site_label
 _atom_site_symmetry_multiplicity
 _atom_site_fract_x
 _atom_site_fract_y
 _atom_site_fract_z
 _atom_site_occupancy
  Lu  Lu0  1  0.892956  0.107044  0.444053  1
  Lu  Lu1  1  0.105757  0.894243  0.563422  1
  Lu  Lu2  1  0.892956  0.107044  0.055947  1
  Lu  Lu3  1  0.105757  0.894243  0.936578  1
  Lu  Lu4  1  0.246295  0.753705  0.250000  1
  Lu  Lu5  1  0.757853  0.242147  0.750000  1
  Fe  Fe6  1  0.946643  0.053357  0.750000  1
  B  B7  1  0.728885  0.271115  0.469417  1
  B  B8  1  0.273147  0.726853  0.536248  1
  B  B9  1  0.728885  0.271115  0.030583  1
  B  B10  1  0.273147  0.726853  0.963752  1
  B  B11  1  0.635515  0.364485  0.146018  1
  B  B12  1  0.369710  0.630290  0.846721  1
  B  B13  1  0.635515  0.364485  0.353982  1
  B  B14  1  0.369710  0.630290  0.653279  1
  B  B15  1  0.517735  0.482265  0.089065  1
  B  B16  1  0.478952  0.521048  0.901510  1
  B  B17  1  0.517735  0.482265  0.410935  1
  B  B18  1  0.478952  0.521048  0.598490  1
  B  B19  1  0.449285  0.550715  0.250000  1
  B  B20  1  0.542699  0.457301  0.750000  1
  Mo  Mo21  1  0.051913  0.948087  0.250000  1
