# generated using pymatgen
data_TbY4Lu3Au4
_symmetry_space_group_name_H-M   'P 1'
_cell_length_a   4.89448100
_cell_length_b   7.16006386
_cell_length_c   8.89254704
_cell_angle_alpha   89.90132765
_cell_angle_beta   90.00000000
_cell_angle_gamma   90.00000000
_symmetry_Int_Tables_number   1
_chemical_formula_structural   TbY4Lu3Au4
_chemical_formula_sum   'Tb1 Y4 Lu3 Au4'
_cell_volume   311.63703941
_cell_formula_units_Z   1
loop_
 _symmetry_equiv_pos_site_id
 _symmetry_equiv_pos_as_xyz
  1  'x, y, z'
loop_
 _atom_site_type_symbol
 _atom_site_label
 _atom_site_symmetry_multiplicity
 _atom_site_fract_x
 _atom_site_fract_y
 _atom_site_fract_z
 _atom_site_occupancy
  Tb  Tb0  1  0.750000  0.015748  0.678043  1
  Y  Y1  1  0.750000  0.648252  0.419743  1
  Y  Y2  1  0.250000  0.483606  0.175341  1
  Y  Y3  1  0.250000  0.987740  0.323566  1
  Y  Y4  1  0.750000  0.516036  0.823073  1
  Lu  Lu5  1  0.250000  0.853169  0.922812  1
  Lu  Lu6  1  0.250000  0.352689  0.579984  1
  Lu  Lu7  1  0.750000  0.147777  0.077758  1
  Au  Au8  1  0.250000  0.250011  0.898759  1
  Au  Au9  1  0.250000  0.751296  0.605998  1
  Au  Au10  1  0.750000  0.750334  0.095947  1
  Au  Au11  1  0.750000  0.243343  0.398977  1
