# generated using pymatgen
data_Zr10ZnGe(BiPb)3
_symmetry_space_group_name_H-M   'P 1'
_cell_length_a   8.86653602
_cell_length_b   8.85745778
_cell_length_c   5.95494701
_cell_angle_alpha   89.99508268
_cell_angle_beta   90.00738451
_cell_angle_gamma   120.03706991
_symmetry_Int_Tables_number   1
_chemical_formula_structural   Zr10ZnGe(BiPb)3
_chemical_formula_sum   'Zr10 Zn1 Ge1 Bi3 Pb3'
_cell_volume   404.86408715
_cell_formula_units_Z   1
loop_
 _symmetry_equiv_pos_site_id
 _symmetry_equiv_pos_as_xyz
  1  'x, y, z'
loop_
 _atom_site_type_symbol
 _atom_site_label
 _atom_site_symmetry_multiplicity
 _atom_site_fract_x
 _atom_site_fract_y
 _atom_site_fract_z
 _atom_site_occupancy
  Zr  Zr0  1  0.333690  0.666637  0.000538  1
  Zr  Zr1  1  0.667161  0.333141  0.499549  1
  Zr  Zr2  1  0.667066  0.333355  0.000524  1
  Zr  Zr3  1  0.334016  0.666877  0.499544  1
  Zr  Zr4  1  0.262827  0.999981  0.249583  1
  Zr  Zr5  1  0.262848  0.262333  0.750843  1
  Zr  Zr6  1  0.000540  0.737646  0.750854  1
  Zr  Zr7  1  0.000617  0.263715  0.248317  1
  Zr  Zr8  1  0.736972  0.736327  0.248341  1
  Zr  Zr9  1  0.736536  0.999995  0.752203  1
  Zn  Zn10  1  0.000301  0.000002  0.499966  1
  Ge  Ge11  1  0.999901  0.999998  0.000212  1
  Bi  Bi12  1  0.609911  0.000007  0.252219  1
  Bi  Bi13  1  0.610090  0.609057  0.747775  1
  Bi  Bi14  1  0.001029  0.390898  0.747787  1
  Pb  Pb15  1  0.000571  0.612244  0.252006  1
  Pb  Pb16  1  0.388344  0.387787  0.251992  1
  Pb  Pb17  1  0.387581  0.999999  0.747748  1
