# generated using pymatgen
data_Tb8Tc11Ge16Ru
_symmetry_space_group_name_H-M   'P 1'
_cell_length_a   6.94755647
_cell_length_b   6.93973505
_cell_length_c   12.95263500
_cell_angle_alpha   89.99293270
_cell_angle_beta   89.93500619
_cell_angle_gamma   90.28190059
_symmetry_Int_Tables_number   1
_chemical_formula_structural   Tb8Tc11Ge16Ru
_chemical_formula_sum   'Tb8 Tc11 Ge16 Ru1'
_cell_volume   624.49298389
_cell_formula_units_Z   1
loop_
 _symmetry_equiv_pos_site_id
 _symmetry_equiv_pos_as_xyz
  1  'x, y, z'
loop_
 _atom_site_type_symbol
 _atom_site_label
 _atom_site_symmetry_multiplicity
 _atom_site_fract_x
 _atom_site_fract_y
 _atom_site_fract_z
 _atom_site_occupancy
  Tb  Tb0  1  0.342160  0.995424  0.471924  1
  Tb  Tb1  1  0.507258  0.837578  0.721956  1
  Tb  Tb2  1  0.492338  0.163093  0.221463  1
  Tb  Tb3  1  0.839130  0.509099  0.278731  1
  Tb  Tb4  1  0.160428  0.490501  0.777880  1
  Tb  Tb5  1  0.659660  0.004930  0.972619  1
  Tb  Tb6  1  0.995940  0.340491  0.526622  1
  Tb  Tb7  1  0.006107  0.659929  0.027256  1
  Tc  Tc8  1  0.335110  0.335556  0.999983  1
  Tc  Tc9  1  0.162841  0.839361  0.250119  1
  Tc  Tc10  1  0.837185  0.161748  0.748054  1
  Tc  Tc11  1  0.665659  0.665125  0.501542  1
  Tc  Tc12  1  0.189623  0.974985  0.870936  1
  Tc  Tc13  1  0.514313  0.685374  0.123634  1
  Tc  Tc14  1  0.478731  0.313326  0.623831  1
  Tc  Tc15  1  0.685274  0.514239  0.875202  1
  Tc  Tc16  1  0.315467  0.487454  0.377324  1
  Tc  Tc17  1  0.809397  0.027845  0.370223  1
  Tc  Tc18  1  0.973724  0.190913  0.130283  1
  Ge  Ge19  1  0.187569  0.109073  0.682066  1
  Ge  Ge20  1  0.388833  0.686205  0.933360  1
  Ge  Ge21  1  0.611140  0.314030  0.434438  1
  Ge  Ge22  1  0.686862  0.389182  0.065793  1
  Ge  Ge23  1  0.314828  0.611498  0.565543  1
  Ge  Ge24  1  0.809609  0.887045  0.181815  1
  Ge  Ge25  1  0.113816  0.191550  0.318100  1
  Ge  Ge26  1  0.887438  0.809852  0.817322  1
  Ge  Ge27  1  0.268560  0.984012  0.065295  1
  Ge  Ge28  1  0.518629  0.777935  0.315187  1
  Ge  Ge29  1  0.480052  0.222136  0.815898  1
  Ge  Ge30  1  0.773855  0.514657  0.683525  1
  Ge  Ge31  1  0.222796  0.483073  0.184770  1
  Ge  Ge32  1  0.735819  0.015328  0.565424  1
  Ge  Ge33  1  0.982614  0.268804  0.935415  1
  Ge  Ge34  1  0.015181  0.735853  0.436186  1
  Ru  Ru35  1  0.032051  0.802796  0.630281  1
