# generated using pymatgen
data_ErMg2(P3Pd10)2
_symmetry_space_group_name_H-M   'P 1'
_cell_length_a   8.61503374
_cell_length_b   8.61503413
_cell_length_c   8.61503500
_cell_angle_alpha   60.00000050
_cell_angle_beta   59.99999901
_cell_angle_gamma   60.00000083
_symmetry_Int_Tables_number   1
_chemical_formula_structural   ErMg2(P3Pd10)2
_chemical_formula_sum   'Er1 Mg2 P6 Pd20'
_cell_volume   452.12241064
_cell_formula_units_Z   1
loop_
 _symmetry_equiv_pos_site_id
 _symmetry_equiv_pos_as_xyz
  1  'x, y, z'
loop_
 _atom_site_type_symbol
 _atom_site_label
 _atom_site_symmetry_multiplicity
 _atom_site_fract_x
 _atom_site_fract_y
 _atom_site_fract_z
 _atom_site_occupancy
  Er  Er0  1  0.250000  0.250000  0.250000  1
  Mg  Mg1  1  0.000000  0.000000  0.000000  1
  Mg  Mg2  1  0.750000  0.750000  0.750000  1
  P  P3  1  0.735995  0.264005  0.264005  1
  P  P4  1  0.735995  0.735995  0.264005  1
  P  P5  1  0.735995  0.264005  0.735995  1
  P  P6  1  0.264005  0.735995  0.264005  1
  P  P7  1  0.264005  0.735995  0.735995  1
  P  P8  1  0.264005  0.264005  0.735995  1
  Pd  Pd9  1  0.343257  0.000303  0.000303  1
  Pd  Pd10  1  0.000303  0.656136  0.343257  1
  Pd  Pd11  1  0.343257  0.000303  0.656136  1
  Pd  Pd12  1  0.000303  0.656136  0.000303  1
  Pd  Pd13  1  0.656136  0.343257  0.000303  1
  Pd  Pd14  1  0.617415  0.617415  0.147753  1
  Pd  Pd15  1  0.384524  0.846428  0.384524  1
  Pd  Pd16  1  0.147753  0.617415  0.617415  1
  Pd  Pd17  1  0.656136  0.000303  0.343257  1
  Pd  Pd18  1  0.000303  0.343257  0.656136  1
  Pd  Pd19  1  0.656136  0.000303  0.000303  1
  Pd  Pd20  1  0.000303  0.000303  0.343257  1
  Pd  Pd21  1  0.617415  0.147753  0.617415  1
  Pd  Pd22  1  0.343257  0.656136  0.000303  1
  Pd  Pd23  1  0.384524  0.384524  0.384524  1
  Pd  Pd24  1  0.617415  0.617415  0.617415  1
  Pd  Pd25  1  0.384524  0.384524  0.846428  1
  Pd  Pd26  1  0.000303  0.000303  0.656136  1
  Pd  Pd27  1  0.846428  0.384524  0.384524  1
  Pd  Pd28  1  0.000303  0.343257  0.000303  1
