# generated using pymatgen
data_Ho8ReTc3C8
_symmetry_space_group_name_H-M   'P 1'
_cell_length_a   5.07836800
_cell_length_b   6.54949119
_cell_length_c   9.83827028
_cell_angle_alpha   90.02723975
_cell_angle_beta   90.00000000
_cell_angle_gamma   90.00000000
_symmetry_Int_Tables_number   1
_chemical_formula_structural   Ho8ReTc3C8
_chemical_formula_sum   'Ho8 Re1 Tc3 C8'
_cell_volume   327.22797948
_cell_formula_units_Z   1
loop_
 _symmetry_equiv_pos_site_id
 _symmetry_equiv_pos_as_xyz
  1  'x, y, z'
loop_
 _atom_site_type_symbol
 _atom_site_label
 _atom_site_symmetry_multiplicity
 _atom_site_fract_x
 _atom_site_fract_y
 _atom_site_fract_z
 _atom_site_occupancy
  Ho  Ho0  1  0.250000  0.465455  0.783380  1
  Ho  Ho1  1  0.750000  0.033408  0.283753  1
  Ho  Ho2  1  0.250000  0.966056  0.716058  1
  Ho  Ho3  1  0.750000  0.533190  0.215872  1
  Ho  Ho4  1  0.250000  0.822918  0.057473  1
  Ho  Ho5  1  0.750000  0.676158  0.557203  1
  Ho  Ho6  1  0.250000  0.323564  0.441951  1
  Ho  Ho7  1  0.750000  0.177759  0.942000  1
  Re  Re8  1  0.750000  0.717528  0.867013  1
  Tc  Tc9  1  0.250000  0.282525  0.133130  1
  Tc  Tc10  1  0.750000  0.218148  0.633176  1
  Tc  Tc11  1  0.250000  0.782806  0.366493  1
  C  C12  1  0.250000  0.176847  0.950396  1
  C  C13  1  0.750000  0.822285  0.050754  1
  C  C14  1  0.250000  0.677453  0.549317  1
  C  C15  1  0.750000  0.322523  0.450653  1
  C  C16  1  0.250000  0.049745  0.258245  1
  C  C17  1  0.750000  0.451678  0.759634  1
  C  C18  1  0.250000  0.549918  0.241424  1
  C  C19  1  0.750000  0.950033  0.742077  1
