# generated using pymatgen
data_Ce3S5
_symmetry_space_group_name_H-M   'P 1'
_cell_length_a   7.51394700
_cell_length_b   8.13092100
_cell_length_c   11.84148800
_cell_angle_alpha   90.00000000
_cell_angle_beta   90.00000000
_cell_angle_gamma   90.00000000
_symmetry_Int_Tables_number   1
_chemical_formula_structural   Ce3S5
_chemical_formula_sum   'Ce12 S20'
_cell_volume   723.45937377
_cell_formula_units_Z   4
loop_
 _symmetry_equiv_pos_site_id
 _symmetry_equiv_pos_as_xyz
  1  'x, y, z'
loop_
 _atom_site_type_symbol
 _atom_site_label
 _atom_site_symmetry_multiplicity
 _atom_site_fract_x
 _atom_site_fract_y
 _atom_site_fract_z
 _atom_site_occupancy
  Ce  Ce0  1  0.520752  0.500713  0.321286  1
  Ce  Ce1  1  0.979248  0.999287  0.821286  1
  Ce  Ce2  1  0.479248  0.000713  0.678714  1
  Ce  Ce3  1  0.020752  0.499287  0.178714  1
  Ce  Ce4  1  0.479248  0.499287  0.678714  1
  Ce  Ce5  1  0.020752  0.000713  0.178714  1
  Ce  Ce6  1  0.520752  0.999287  0.321286  1
  Ce  Ce7  1  0.979248  0.500713  0.821286  1
  Ce  Ce8  1  0.075453  0.750000  0.490504  1
  Ce  Ce9  1  0.424547  0.750000  0.990504  1
  Ce  Ce10  1  0.924547  0.250000  0.509496  1
  Ce  Ce11  1  0.575453  0.250000  0.009496  1
  S  S12  1  0.835969  0.956083  0.598593  1
  S  S13  1  0.664031  0.543917  0.098593  1
  S  S14  1  0.164031  0.456083  0.401407  1
  S  S15  1  0.335969  0.043917  0.901407  1
  S  S16  1  0.164031  0.043917  0.401407  1
  S  S17  1  0.335969  0.456083  0.901407  1
  S  S18  1  0.835969  0.543917  0.598593  1
  S  S19  1  0.664031  0.956083  0.098593  1
  S  S20  1  0.829087  0.750000  0.310928  1
  S  S21  1  0.670913  0.750000  0.810928  1
  S  S22  1  0.170913  0.250000  0.689072  1
  S  S23  1  0.329087  0.250000  0.189072  1
  S  S24  1  0.461447  0.750000  0.498695  1
  S  S25  1  0.038553  0.750000  0.998695  1
  S  S26  1  0.538553  0.250000  0.501305  1
  S  S27  1  0.961447  0.250000  0.001305  1
  S  S28  1  0.201567  0.750000  0.717347  1
  S  S29  1  0.298433  0.750000  0.217347  1
  S  S30  1  0.798433  0.250000  0.282653  1
  S  S31  1  0.701567  0.250000  0.782653  1
