# generated using pymatgen
data_Yb3PrHfIr3
_symmetry_space_group_name_H-M   'P 1'
_cell_length_a   6.22954600
_cell_length_b   10.94645200
_cell_length_c   10.99160900
_cell_angle_alpha   90.00000000
_cell_angle_beta   90.00000000
_cell_angle_gamma   90.00000000
_symmetry_Int_Tables_number   1
_chemical_formula_structural   Yb3PrHfIr3
_chemical_formula_sum   'Yb12 Pr4 Hf4 Ir12'
_cell_volume   749.53349472
_cell_formula_units_Z   4
loop_
 _symmetry_equiv_pos_site_id
 _symmetry_equiv_pos_as_xyz
  1  'x, y, z'
loop_
 _atom_site_type_symbol
 _atom_site_label
 _atom_site_symmetry_multiplicity
 _atom_site_fract_x
 _atom_site_fract_y
 _atom_site_fract_z
 _atom_site_occupancy
  Yb  Yb0  1  0.855663  0.533251  0.833648  1
  Yb  Yb1  1  0.355663  0.966749  0.833648  1
  Yb  Yb2  1  0.355663  0.533251  0.666352  1
  Yb  Yb3  1  0.855663  0.966749  0.666352  1
  Yb  Yb4  1  0.639926  0.169106  0.458657  1
  Yb  Yb5  1  0.139926  0.330894  0.458657  1
  Yb  Yb6  1  0.139926  0.169106  0.041344  1
  Yb  Yb7  1  0.639926  0.330894  0.041344  1
  Yb  Yb8  1  0.136090  0.455809  0.170960  1
  Yb  Yb9  1  0.636090  0.044192  0.170960  1
  Yb  Yb10  1  0.636090  0.455809  0.329040  1
  Yb  Yb11  1  0.136090  0.044192  0.329040  1
  Pr  Pr12  1  0.351277  0.841122  0.538744  1
  Pr  Pr13  1  0.851277  0.658878  0.538744  1
  Pr  Pr14  1  0.851277  0.841122  0.961256  1
  Pr  Pr15  1  0.351277  0.658878  0.961256  1
  Hf  Hf16  1  0.510372  0.750000  0.250000  1
  Hf  Hf17  1  0.010372  0.750000  0.250000  1
  Hf  Hf18  1  0.007769  0.250000  0.750000  1
  Hf  Hf19  1  0.507769  0.250000  0.750000  1
  Ir  Ir20  1  0.257942  0.884805  0.110044  1
  Ir  Ir21  1  0.757942  0.615195  0.110044  1
  Ir  Ir22  1  0.757942  0.884805  0.389956  1
  Ir  Ir23  1  0.257942  0.615195  0.389956  1
  Ir  Ir24  1  0.755318  0.114588  0.888571  1
  Ir  Ir25  1  0.255318  0.385412  0.888571  1
  Ir  Ir26  1  0.255318  0.114588  0.611429  1
  Ir  Ir27  1  0.755318  0.385412  0.611429  1
  Ir  Ir28  1  0.101464  0.750000  0.750000  1
  Ir  Ir29  1  0.601464  0.750000  0.750000  1
  Ir  Ir30  1  0.887963  0.250000  0.250000  1
  Ir  Ir31  1  0.387963  0.250000  0.250000  1
