# generated using pymatgen
data_Gd6IrAu7
_symmetry_space_group_name_H-M   'P 1'
_cell_length_a   8.22005961
_cell_length_b   8.22006030
_cell_length_c   8.22006000
_cell_angle_alpha   114.53119923
_cell_angle_beta   114.53120909
_cell_angle_gamma   114.53120297
_symmetry_Int_Tables_number   1
_chemical_formula_structural   Gd6IrAu7
_chemical_formula_sum   'Gd6 Ir1 Au7'
_cell_volume   323.72858348
_cell_formula_units_Z   1
loop_
 _symmetry_equiv_pos_site_id
 _symmetry_equiv_pos_as_xyz
  1  'x, y, z'
loop_
 _atom_site_type_symbol
 _atom_site_label
 _atom_site_symmetry_multiplicity
 _atom_site_fract_x
 _atom_site_fract_y
 _atom_site_fract_z
 _atom_site_occupancy
  Gd  Gd0  1  0.736696  0.617671  0.985851  1
  Gd  Gd1  1  0.985851  0.736696  0.617671  1
  Gd  Gd2  1  0.617671  0.985851  0.736696  1
  Gd  Gd3  1  0.263304  0.382329  0.014149  1
  Gd  Gd4  1  0.014149  0.263304  0.382329  1
  Gd  Gd5  1  0.382329  0.014149  0.263304  1
  Ir  Ir6  1  0.000000  0.000000  0.000000  1
  Au  Au7  1  0.570061  0.235040  0.071604  1
  Au  Au8  1  0.071604  0.570061  0.235040  1
  Au  Au9  1  0.235040  0.071604  0.570061  1
  Au  Au10  1  0.429939  0.764960  0.928396  1
  Au  Au11  1  0.928396  0.429939  0.764960  1
  Au  Au12  1  0.764960  0.928396  0.429939  1
  Au  Au13  1  0.500000  0.500000  0.500000  1
