# generated using pymatgen
data_SmYCd3Ga5Ni2
_symmetry_space_group_name_H-M   'P 1'
_cell_length_a   4.17538312
_cell_length_b   6.63915200
_cell_length_c   8.36183290
_cell_angle_alpha   90.00000000
_cell_angle_beta   104.45794884
_cell_angle_gamma   90.00000000
_symmetry_Int_Tables_number   1
_chemical_formula_structural   SmYCd3Ga5Ni2
_chemical_formula_sum   'Sm1 Y1 Cd3 Ga5 Ni2'
_cell_volume   224.45760604
_cell_formula_units_Z   1
loop_
 _symmetry_equiv_pos_site_id
 _symmetry_equiv_pos_as_xyz
  1  'x, y, z'
loop_
 _atom_site_type_symbol
 _atom_site_label
 _atom_site_symmetry_multiplicity
 _atom_site_fract_x
 _atom_site_fract_y
 _atom_site_fract_z
 _atom_site_occupancy
  Sm  Sm0  1  0.126890  0.250000  0.253780  1
  Y  Y1  1  0.869550  0.750000  0.739100  1
  Cd  Cd2  1  0.497051  0.494075  0.994102  1
  Cd  Cd3  1  0.497051  0.005925  0.994102  1
  Cd  Cd4  1  0.070754  0.750000  0.141509  1
  Ga  Ga5  1  0.925575  0.250000  0.851149  1
  Ga  Ga6  1  0.690579  0.551087  0.381158  1
  Ga  Ga7  1  0.311531  0.446815  0.623062  1
  Ga  Ga8  1  0.690579  0.948913  0.381158  1
  Ga  Ga9  1  0.311531  0.053185  0.623062  1
  Ni  Ni10  1  0.229686  0.750000  0.459373  1
  Ni  Ni11  1  0.779223  0.250000  0.558446  1
