# generated using pymatgen
data_CaY2(GaNi2)3
_symmetry_space_group_name_H-M   'P 1'
_cell_length_a   5.22930100
_cell_length_b   5.22930117
_cell_length_c   15.86886700
_cell_angle_alpha   90.00000000
_cell_angle_beta   90.00000000
_cell_angle_gamma   119.99999257
_symmetry_Int_Tables_number   1
_chemical_formula_structural   CaY2(GaNi2)3
_chemical_formula_sum   'Ca2 Y4 Ga6 Ni12'
_cell_volume   375.80614764
_cell_formula_units_Z   2
loop_
 _symmetry_equiv_pos_site_id
 _symmetry_equiv_pos_as_xyz
  1  'x, y, z'
loop_
 _atom_site_type_symbol
 _atom_site_label
 _atom_site_symmetry_multiplicity
 _atom_site_fract_x
 _atom_site_fract_y
 _atom_site_fract_z
 _atom_site_occupancy
  Ca  Ca0  1  0.333333  0.666667  0.750000  1
  Ca  Ca1  1  0.666667  0.333333  0.250000  1
  Y  Y2  1  0.333333  0.666667  0.544349  1
  Y  Y3  1  0.666667  0.333333  0.455651  1
  Y  Y4  1  0.666667  0.333333  0.044349  1
  Y  Y5  1  0.333333  0.666667  0.955651  1
  Ga  Ga6  1  0.000000  0.000000  0.250000  1
  Ga  Ga7  1  0.000000  0.000000  0.750000  1
  Ga  Ga8  1  0.333333  0.666667  0.250000  1
  Ga  Ga9  1  0.666667  0.333333  0.750000  1
  Ga  Ga10  1  0.000000  0.000000  0.000000  1
  Ga  Ga11  1  0.000000  0.000000  0.500000  1
  Ni  Ni12  1  0.168702  0.337402  0.125610  1
  Ni  Ni13  1  0.831298  0.662598  0.874390  1
  Ni  Ni14  1  0.662598  0.831298  0.125610  1
  Ni  Ni15  1  0.831298  0.662598  0.625610  1
  Ni  Ni16  1  0.337402  0.168702  0.874390  1
  Ni  Ni17  1  0.168702  0.337402  0.374390  1
  Ni  Ni18  1  0.168702  0.831298  0.125610  1
  Ni  Ni19  1  0.337402  0.168702  0.625610  1
  Ni  Ni20  1  0.831298  0.168702  0.874390  1
  Ni  Ni21  1  0.662598  0.831298  0.374390  1
  Ni  Ni22  1  0.831298  0.168702  0.625610  1
  Ni  Ni23  1  0.168702  0.831298  0.374390  1
