# generated using pymatgen
data_Fe2Mo3AsN
_symmetry_space_group_name_H-M   'P 1'
_cell_length_a   7.90940418
_cell_length_b   7.90940366
_cell_length_c   7.90940400
_cell_angle_alpha   59.99999858
_cell_angle_beta   60.00000075
_cell_angle_gamma   60.00000074
_symmetry_Int_Tables_number   1
_chemical_formula_structural   Fe2Mo3AsN
_chemical_formula_sum   'Fe8 Mo12 As4 N4'
_cell_volume   349.87770662
_cell_formula_units_Z   4
loop_
 _symmetry_equiv_pos_site_id
 _symmetry_equiv_pos_as_xyz
  1  'x, y, z'
loop_
 _atom_site_type_symbol
 _atom_site_label
 _atom_site_symmetry_multiplicity
 _atom_site_fract_x
 _atom_site_fract_y
 _atom_site_fract_z
 _atom_site_occupancy
  Fe  Fe0  1  0.917244  0.917244  0.248267  1
  Fe  Fe1  1  0.248267  0.917244  0.917244  1
  Fe  Fe2  1  0.917244  0.248267  0.917244  1
  Fe  Fe3  1  0.332756  0.001733  0.332756  1
  Fe  Fe4  1  0.332756  0.332756  0.001733  1
  Fe  Fe5  1  0.332756  0.332756  0.332756  1
  Fe  Fe6  1  0.917244  0.917244  0.917244  1
  Fe  Fe7  1  0.001733  0.332756  0.332756  1
  Mo  Mo8  1  0.558139  0.941861  0.941861  1
  Mo  Mo9  1  0.308139  0.691861  0.308139  1
  Mo  Mo10  1  0.941861  0.941861  0.558139  1
  Mo  Mo11  1  0.941861  0.558139  0.558139  1
  Mo  Mo12  1  0.691861  0.308139  0.691861  1
  Mo  Mo13  1  0.308139  0.308139  0.691861  1
  Mo  Mo14  1  0.691861  0.308139  0.308139  1
  Mo  Mo15  1  0.558139  0.941861  0.558139  1
  Mo  Mo16  1  0.308139  0.691861  0.691861  1
  Mo  Mo17  1  0.941861  0.558139  0.941861  1
  Mo  Mo18  1  0.558139  0.558139  0.941861  1
  Mo  Mo19  1  0.691861  0.691861  0.308139  1
  As  As20  1  0.625000  0.125000  0.125000  1
  As  As21  1  0.125000  0.125000  0.625000  1
  As  As22  1  0.125000  0.625000  0.125000  1
  As  As23  1  0.125000  0.125000  0.125000  1
  N  N24  1  0.625000  0.625000  0.625000  1
  N  N25  1  0.125000  0.625000  0.625000  1
  N  N26  1  0.625000  0.125000  0.625000  1
  N  N27  1  0.625000  0.625000  0.125000  1
