# generated using pymatgen
data_Ce2B6Ir8Ru
_symmetry_space_group_name_H-M   'P 1'
_cell_length_a   5.67372851
_cell_length_b   5.67370806
_cell_length_c   8.64800400
_cell_angle_alpha   90.00002978
_cell_angle_beta   89.99974710
_cell_angle_gamma   59.58060778
_symmetry_Int_Tables_number   1
_chemical_formula_structural   Ce2B6Ir8Ru
_chemical_formula_sum   'Ce2 B6 Ir8 Ru1'
_cell_volume   240.06626289
_cell_formula_units_Z   1
loop_
 _symmetry_equiv_pos_site_id
 _symmetry_equiv_pos_as_xyz
  1  'x, y, z'
loop_
 _atom_site_type_symbol
 _atom_site_label
 _atom_site_symmetry_multiplicity
 _atom_site_fract_x
 _atom_site_fract_y
 _atom_site_fract_z
 _atom_site_occupancy
  Ce  Ce0  1  0.999850  0.000007  0.301480  1
  Ce  Ce1  1  0.000084  0.999995  0.697698  1
  B  B2  1  0.666056  0.666054  0.000045  1
  B  B3  1  0.333952  0.333947  0.000045  1
  B  B4  1  0.664138  0.664141  0.333778  1
  B  B5  1  0.335853  0.335860  0.333780  1
  B  B6  1  0.335883  0.335850  0.666398  1
  B  B7  1  0.664187  0.664152  0.666400  1
  Ir  Ir8  1  0.499903  0.000001  0.163783  1
  Ir  Ir9  1  0.999949  0.499980  0.163783  1
  Ir  Ir10  1  0.499928  0.500020  0.163819  1
  Ir  Ir11  1  0.500035  0.000001  0.836285  1
  Ir  Ir12  1  0.000035  0.500002  0.836285  1
  Ir  Ir13  1  0.500036  0.499995  0.836269  1
  Ir  Ir14  1  0.500000  0.000003  0.500041  1
  Ir  Ir15  1  0.000015  0.499992  0.500041  1
  Ru  Ru16  1  0.499999  0.499998  0.500069  1
