# generated using pymatgen
data_La2SmSi4(AsPd10)2
_symmetry_space_group_name_H-M   'P 1'
_cell_length_a   8.78242598
_cell_length_b   8.88188341
_cell_length_c   8.88188372
_cell_angle_alpha   59.26053086
_cell_angle_beta   60.36973469
_cell_angle_gamma   60.36974009
_symmetry_Int_Tables_number   1
_chemical_formula_structural   La2SmSi4(AsPd10)2
_chemical_formula_sum   'La2 Sm1 Si4 As2 Pd20'
_cell_volume   489.78101375
_cell_formula_units_Z   1
loop_
 _symmetry_equiv_pos_site_id
 _symmetry_equiv_pos_as_xyz
  1  'x, y, z'
loop_
 _atom_site_type_symbol
 _atom_site_label
 _atom_site_symmetry_multiplicity
 _atom_site_fract_x
 _atom_site_fract_y
 _atom_site_fract_z
 _atom_site_occupancy
  La  La0  1  0.250000  0.250000  0.250000  1
  La  La1  1  0.750000  0.750000  0.750000  1
  Sm  Sm2  1  0.000000  0.000000  0.000000  1
  Si  Si3  1  0.266769  0.733231  0.266769  1
  Si  Si4  1  0.733231  0.266769  0.733231  1
  Si  Si5  1  0.266769  0.266769  0.733231  1
  Si  Si6  1  0.733231  0.733231  0.266769  1
  As  As7  1  0.736773  0.263227  0.263227  1
  As  As8  1  0.263227  0.736773  0.736773  1
  Pd  Pd9  1  0.380308  0.388029  0.388029  1
  Pd  Pd10  1  0.619692  0.611971  0.611971  1
  Pd  Pd11  1  0.388029  0.380308  0.843632  1
  Pd  Pd12  1  0.388029  0.843632  0.380308  1
  Pd  Pd13  1  0.611971  0.619692  0.156368  1
  Pd  Pd14  1  0.611971  0.156368  0.619692  1
  Pd  Pd15  1  0.843632  0.388029  0.388029  1
  Pd  Pd16  1  0.156368  0.611971  0.611971  1
  Pd  Pd17  1  0.346385  0.000000  0.000000  1
  Pd  Pd18  1  0.653615  0.000000  0.000000  1
  Pd  Pd19  1  0.000000  0.346385  0.653615  1
  Pd  Pd20  1  0.000000  0.653615  0.346385  1
  Pd  Pd21  1  0.009145  0.347496  0.990855  1
  Pd  Pd22  1  0.652504  0.990855  0.347496  1
  Pd  Pd23  1  0.990855  0.652504  0.009145  1
  Pd  Pd24  1  0.347496  0.009145  0.652504  1
  Pd  Pd25  1  0.009145  0.990855  0.347496  1
  Pd  Pd26  1  0.990855  0.009145  0.652504  1
  Pd  Pd27  1  0.652504  0.347496  0.990855  1
  Pd  Pd28  1  0.347496  0.652504  0.009145  1
