# generated using pymatgen
data_Be7NbSiMo3
_symmetry_space_group_name_H-M   'P 1'
_cell_length_a   4.51600400
_cell_length_b   4.51600384
_cell_length_c   7.48205300
_cell_angle_alpha   90.00000000
_cell_angle_beta   90.00000000
_cell_angle_gamma   120.00000119
_symmetry_Int_Tables_number   1
_chemical_formula_structural   Be7NbSiMo3
_chemical_formula_sum   'Be7 Nb1 Si1 Mo3'
_cell_volume   132.14782726
_cell_formula_units_Z   1
loop_
 _symmetry_equiv_pos_site_id
 _symmetry_equiv_pos_as_xyz
  1  'x, y, z'
loop_
 _atom_site_type_symbol
 _atom_site_label
 _atom_site_symmetry_multiplicity
 _atom_site_fract_x
 _atom_site_fract_y
 _atom_site_fract_z
 _atom_site_occupancy
  Be  Be0  1  0.000000  0.000000  0.998546  1
  Be  Be1  1  0.828969  0.171031  0.240166  1
  Be  Be2  1  0.828969  0.657937  0.240166  1
  Be  Be3  1  0.342063  0.171031  0.240166  1
  Be  Be4  1  0.171043  0.828957  0.759458  1
  Be  Be5  1  0.171043  0.342086  0.759458  1
  Be  Be6  1  0.657914  0.828957  0.759458  1
  Nb  Nb7  1  0.333333  0.666667  0.437560  1
  Si  Si8  1  0.000000  0.000000  0.501570  1
  Mo  Mo9  1  0.666667  0.333333  0.566237  1
  Mo  Mo10  1  0.666667  0.333333  0.938324  1
  Mo  Mo11  1  0.333333  0.666667  0.058890  1
