# generated using pymatgen
data_Tb6TiNb(Co4P3)4
_symmetry_space_group_name_H-M   'P 1'
_cell_length_a   3.70518900
_cell_length_b   10.62556600
_cell_length_c   12.32783600
_cell_angle_alpha   90.00000000
_cell_angle_beta   90.00000000
_cell_angle_gamma   90.00000000
_symmetry_Int_Tables_number   1
_chemical_formula_structural   Tb6TiNb(Co4P3)4
_chemical_formula_sum   'Tb6 Ti1 Nb1 Co16 P12'
_cell_volume   485.34357803
_cell_formula_units_Z   1
loop_
 _symmetry_equiv_pos_site_id
 _symmetry_equiv_pos_as_xyz
  1  'x, y, z'
loop_
 _atom_site_type_symbol
 _atom_site_label
 _atom_site_symmetry_multiplicity
 _atom_site_fract_x
 _atom_site_fract_y
 _atom_site_fract_z
 _atom_site_occupancy
  Tb  Tb0  1  0.000000  0.500000  0.524541  1
  Tb  Tb1  1  0.500000  0.000000  0.473331  1
  Tb  Tb2  1  0.500000  0.819402  0.205070  1
  Tb  Tb3  1  0.500000  0.180598  0.205070  1
  Tb  Tb4  1  0.000000  0.679758  0.795058  1
  Tb  Tb5  1  0.000000  0.320242  0.795058  1
  Ti  Ti6  1  0.500000  0.500000  0.153880  1
  Nb  Nb7  1  0.000000  0.000000  0.843926  1
  Co  Co8  1  0.500000  0.500000  0.702882  1
  Co  Co9  1  0.000000  0.000000  0.297731  1
  Co  Co10  1  0.000000  0.500000  0.987144  1
  Co  Co11  1  0.500000  0.000000  0.014258  1
  Co  Co12  1  0.500000  0.332877  0.994520  1
  Co  Co13  1  0.500000  0.667123  0.994520  1
  Co  Co14  1  0.000000  0.168227  0.008266  1
  Co  Co15  1  0.000000  0.831773  0.008266  1
  Co  Co16  1  0.500000  0.295944  0.431823  1
  Co  Co17  1  0.500000  0.704056  0.431823  1
  Co  Co18  1  0.000000  0.204692  0.567641  1
  Co  Co19  1  0.000000  0.795308  0.567641  1
  Co  Co20  1  0.500000  0.877785  0.704561  1
  Co  Co21  1  0.500000  0.122215  0.704561  1
  Co  Co22  1  0.000000  0.621251  0.293655  1
  Co  Co23  1  0.000000  0.378749  0.293655  1
  P  P24  1  0.500000  0.500000  0.883498  1
  P  P25  1  0.000000  0.000000  0.117807  1
  P  P26  1  0.500000  0.500000  0.352581  1
  P  P27  1  0.000000  0.000000  0.644442  1
  P  P28  1  0.500000  0.310841  0.615108  1
  P  P29  1  0.500000  0.689159  0.615108  1
  P  P30  1  0.000000  0.190229  0.384260  1
  P  P31  1  0.000000  0.809771  0.384260  1
  P  P32  1  0.500000  0.840661  0.894182  1
  P  P33  1  0.500000  0.159339  0.894182  1
  P  P34  1  0.000000  0.656124  0.107846  1
  P  P35  1  0.000000  0.343876  0.107846  1
