# generated using pymatgen
data_CaPa2(Ga2Co3)3
_symmetry_space_group_name_H-M   'P 1'
_cell_length_a   4.18115400
_cell_length_b   8.59653908
_cell_length_c   8.59664393
_cell_angle_alpha   60.07734054
_cell_angle_beta   90.00000000
_cell_angle_gamma   90.00000000
_symmetry_Int_Tables_number   1
_chemical_formula_structural   CaPa2(Ga2Co3)3
_chemical_formula_sum   'Ca1 Pa2 Ga6 Co9'
_cell_volume   267.80415424
_cell_formula_units_Z   1
loop_
 _symmetry_equiv_pos_site_id
 _symmetry_equiv_pos_as_xyz
  1  'x, y, z'
loop_
 _atom_site_type_symbol
 _atom_site_label
 _atom_site_symmetry_multiplicity
 _atom_site_fract_x
 _atom_site_fract_y
 _atom_site_fract_z
 _atom_site_occupancy
  Ca  Ca0  1  0.500000  0.666647  0.666662  1
  Pa  Pa1  1  0.500000  0.333348  0.333360  1
  Pa  Pa2  1  0.000000  0.999998  0.000042  1
  Ga  Ga3  1  0.000000  0.497649  0.506989  1
  Ga  Ga4  1  0.000000  0.507019  0.995370  1
  Ga  Ga5  1  0.000000  0.995324  0.497607  1
  Ga  Ga6  1  0.500000  0.729551  0.278280  1
  Ga  Ga7  1  0.500000  0.278263  0.992249  1
  Ga  Ga8  1  0.500000  0.992206  0.729476  1
  Co  Co9  1  0.000000  0.183935  0.175810  1
  Co  Co10  1  0.000000  0.175767  0.640224  1
  Co  Co11  1  0.000000  0.640305  0.183964  1
  Co  Co12  1  0.000000  0.827890  0.834849  1
  Co  Co13  1  0.000000  0.337279  0.827922  1
  Co  Co14  1  0.000000  0.834799  0.337311  1
  Co  Co15  1  0.500000  0.303709  0.678005  1
  Co  Co16  1  0.500000  0.677988  0.018262  1
  Co  Co17  1  0.500000  0.018226  0.303720  1
