# generated using pymatgen
data_GaPPd4Pt
_symmetry_space_group_name_H-M   'P 1'
_cell_length_a   3.96743500
_cell_length_b   3.92238400
_cell_length_c   6.87102900
_cell_angle_alpha   90.00000000
_cell_angle_beta   90.00000000
_cell_angle_gamma   90.00000000
_symmetry_Int_Tables_number   1
_chemical_formula_structural   GaPPd4Pt
_chemical_formula_sum   'Ga1 P1 Pd4 Pt1'
_cell_volume   106.92560359
_cell_formula_units_Z   1
loop_
 _symmetry_equiv_pos_site_id
 _symmetry_equiv_pos_as_xyz
  1  'x, y, z'
loop_
 _atom_site_type_symbol
 _atom_site_label
 _atom_site_symmetry_multiplicity
 _atom_site_fract_x
 _atom_site_fract_y
 _atom_site_fract_z
 _atom_site_occupancy
  Ga  Ga0  1  0.500000  0.500000  0.000497  1
  P  P1  1  0.000000  0.000000  0.498361  1
  Pd  Pd2  1  0.000000  0.500000  0.710081  1
  Pd  Pd3  1  0.500000  0.000000  0.291634  1
  Pd  Pd4  1  0.500000  0.000000  0.707911  1
  Pd  Pd5  1  0.000000  0.000000  0.999493  1
  Pt  Pt6  1  0.000000  0.500000  0.292023  1
