# generated using pymatgen
data_Nd3InHg2Pt3
_symmetry_space_group_name_H-M   'P 1'
_cell_length_a   7.90289668
_cell_length_b   7.90289577
_cell_length_c   3.93215700
_cell_angle_alpha   90.00000000
_cell_angle_beta   90.00000000
_cell_angle_gamma   120.76407814
_symmetry_Int_Tables_number   1
_chemical_formula_structural   Nd3InHg2Pt3
_chemical_formula_sum   'Nd3 In1 Hg2 Pt3'
_cell_volume   211.02722764
_cell_formula_units_Z   1
loop_
 _symmetry_equiv_pos_site_id
 _symmetry_equiv_pos_as_xyz
  1  'x, y, z'
loop_
 _atom_site_type_symbol
 _atom_site_label
 _atom_site_symmetry_multiplicity
 _atom_site_fract_x
 _atom_site_fract_y
 _atom_site_fract_z
 _atom_site_occupancy
  Nd  Nd0  1  0.004349  0.595477  0.500000  1
  Nd  Nd1  1  0.595477  0.004349  0.500000  1
  Nd  Nd2  1  0.396250  0.396250  0.500000  1
  In  In3  1  0.743589  0.743589  0.000000  1
  Hg  Hg4  1  0.997903  0.260801  0.000000  1
  Hg  Hg5  1  0.260801  0.997903  0.000000  1
  Pt  Pt6  1  0.986589  0.986589  0.500000  1
  Pt  Pt7  1  0.669067  0.345974  0.000000  1
  Pt  Pt8  1  0.345974  0.669067  0.000000  1
