# generated using pymatgen
data_Rb3Ir2O9
_symmetry_space_group_name_H-M   'P 1'
_cell_length_a   7.86826973
_cell_length_b   7.86826964
_cell_length_c   7.86826982
_cell_angle_alpha   86.81805339
_cell_angle_beta   86.81805207
_cell_angle_gamma   86.81806097
_symmetry_Int_Tables_number   1
_chemical_formula_structural   Rb3Ir2O9
_chemical_formula_sum   'Rb6 Ir4 O18'
_cell_volume   484.94918818
_cell_formula_units_Z   2
loop_
 _symmetry_equiv_pos_site_id
 _symmetry_equiv_pos_as_xyz
  1  'x, y, z'
loop_
 _atom_site_type_symbol
 _atom_site_label
 _atom_site_symmetry_multiplicity
 _atom_site_fract_x
 _atom_site_fract_y
 _atom_site_fract_z
 _atom_site_occupancy
  Rb  Rb0  1  0.583349  0.916651  0.250000  1
  Rb  Rb1  1  0.916651  0.250000  0.583349  1
  Rb  Rb2  1  0.250000  0.583349  0.916651  1
  Rb  Rb3  1  0.416651  0.083349  0.750000  1
  Rb  Rb4  1  0.750000  0.416651  0.083349  1
  Rb  Rb5  1  0.083349  0.750000  0.416651  1
  Ir  Ir6  1  0.149200  0.149200  0.149200  1
  Ir  Ir7  1  0.350800  0.350800  0.350800  1
  Ir  Ir8  1  0.850800  0.850800  0.850800  1
  Ir  Ir9  1  0.649200  0.649200  0.649200  1
  O  O10  1  0.239051  0.941863  0.089366  1
  O  O11  1  0.089366  0.239051  0.941863  1
  O  O12  1  0.941863  0.089366  0.239051  1
  O  O13  1  0.260949  0.410634  0.558137  1
  O  O14  1  0.558137  0.260949  0.410634  1
  O  O15  1  0.410634  0.558137  0.260949  1
  O  O16  1  0.760949  0.058137  0.910634  1
  O  O17  1  0.910634  0.760949  0.058137  1
  O  O18  1  0.058137  0.910634  0.760949  1
  O  O19  1  0.739051  0.589366  0.441863  1
  O  O20  1  0.118752  0.381248  0.250000  1
  O  O21  1  0.381248  0.250000  0.118752  1
  O  O22  1  0.250000  0.118752  0.381248  1
  O  O23  1  0.881248  0.618752  0.750000  1
  O  O24  1  0.618752  0.750000  0.881248  1
  O  O25  1  0.750000  0.881248  0.618752  1
  O  O26  1  0.589366  0.441863  0.739051  1
  O  O27  1  0.441863  0.739051  0.589366  1
