# generated using pymatgen
data_Tb6Sc4Al12Rh7
_symmetry_space_group_name_H-M   'P 1'
_cell_length_a   9.11908228
_cell_length_b   9.11908253
_cell_length_c   9.11908100
_cell_angle_alpha   60.00000192
_cell_angle_beta   60.00000103
_cell_angle_gamma   60.00000367
_symmetry_Int_Tables_number   1
_chemical_formula_structural   Tb6Sc4Al12Rh7
_chemical_formula_sum   'Tb6 Sc4 Al12 Rh7'
_cell_volume   536.21428281
_cell_formula_units_Z   1
loop_
 _symmetry_equiv_pos_site_id
 _symmetry_equiv_pos_as_xyz
  1  'x, y, z'
loop_
 _atom_site_type_symbol
 _atom_site_label
 _atom_site_symmetry_multiplicity
 _atom_site_fract_x
 _atom_site_fract_y
 _atom_site_fract_z
 _atom_site_occupancy
  Tb  Tb0  1  0.700929  0.700929  0.299071  1
  Tb  Tb1  1  0.299071  0.700929  0.299071  1
  Tb  Tb2  1  0.700929  0.299071  0.299071  1
  Tb  Tb3  1  0.299071  0.299071  0.700929  1
  Tb  Tb4  1  0.700929  0.299071  0.700929  1
  Tb  Tb5  1  0.299071  0.700929  0.700929  1
  Sc  Sc6  1  0.881660  0.881660  0.355018  1
  Sc  Sc7  1  0.881660  0.355018  0.881660  1
  Sc  Sc8  1  0.355018  0.881660  0.881660  1
  Sc  Sc9  1  0.881660  0.881660  0.881660  1
  Al  Al10  1  0.120920  0.120920  0.637239  1
  Al  Al11  1  0.120920  0.637239  0.120920  1
  Al  Al12  1  0.637239  0.120920  0.120920  1
  Al  Al13  1  0.120920  0.120920  0.120920  1
  Al  Al14  1  0.669784  0.669784  0.990648  1
  Al  Al15  1  0.669784  0.990648  0.669784  1
  Al  Al16  1  0.990648  0.669784  0.669784  1
  Al  Al17  1  0.669784  0.669784  0.669784  1
  Al  Al18  1  0.328457  0.328457  0.014631  1
  Al  Al19  1  0.328457  0.014631  0.328457  1
  Al  Al20  1  0.014631  0.328457  0.328457  1
  Al  Al21  1  0.328457  0.328457  0.328457  1
  Rh  Rh22  1  0.000000  0.000000  0.000000  1
  Rh  Rh23  1  0.001152  0.001152  0.498848  1
  Rh  Rh24  1  0.498848  0.001152  0.498848  1
  Rh  Rh25  1  0.001152  0.498848  0.498848  1
  Rh  Rh26  1  0.498848  0.498848  0.001152  1
  Rh  Rh27  1  0.001152  0.498848  0.001152  1
  Rh  Rh28  1  0.498848  0.001152  0.001152  1
