# generated using pymatgen
data_Ho3Sn3RuPtRh
_symmetry_space_group_name_H-M   'P 1'
_cell_length_a   7.67624000
_cell_length_b   7.67623890
_cell_length_c   3.76214800
_cell_angle_alpha   90.00000000
_cell_angle_beta   90.00000000
_cell_angle_gamma   120.00001335
_symmetry_Int_Tables_number   1
_chemical_formula_structural   Ho3Sn3RuPtRh
_chemical_formula_sum   'Ho3 Sn3 Ru1 Pt1 Rh1'
_cell_volume   191.98331072
_cell_formula_units_Z   1
loop_
 _symmetry_equiv_pos_site_id
 _symmetry_equiv_pos_as_xyz
  1  'x, y, z'
loop_
 _atom_site_type_symbol
 _atom_site_label
 _atom_site_symmetry_multiplicity
 _atom_site_fract_x
 _atom_site_fract_y
 _atom_site_fract_z
 _atom_site_occupancy
  Ho  Ho0  1  0.004434  0.406237  0.000000  1
  Ho  Ho1  1  0.593763  0.598198  0.000000  1
  Ho  Ho2  1  0.401802  0.995566  0.000000  1
  Sn  Sn3  1  0.260386  0.263969  0.500000  1
  Sn  Sn4  1  0.003583  0.739614  0.500000  1
  Sn  Sn5  1  0.736031  0.996417  0.500000  1
  Ru  Ru6  1  0.000000  0.000000  0.000000  1
  Pt  Pt7  1  0.666667  0.333333  0.500000  1
  Rh  Rh8  1  0.333333  0.666667  0.500000  1
