# generated using pymatgen
data_NaSr2LaCrSiN6
_symmetry_space_group_name_H-M   'P 1'
_cell_length_a   6.00964778
_cell_length_b   6.00964298
_cell_length_c   11.97015000
_cell_angle_alpha   90.17113509
_cell_angle_beta   89.82895086
_cell_angle_gamma   125.58582263
_symmetry_Int_Tables_number   1
_chemical_formula_structural   NaSr2LaCrSiN6
_chemical_formula_sum   'Na2 Sr4 La2 Cr2 Si2 N12'
_cell_volume   351.57348924
_cell_formula_units_Z   2
loop_
 _symmetry_equiv_pos_site_id
 _symmetry_equiv_pos_as_xyz
  1  'x, y, z'
loop_
 _atom_site_type_symbol
 _atom_site_label
 _atom_site_symmetry_multiplicity
 _atom_site_fract_x
 _atom_site_fract_y
 _atom_site_fract_z
 _atom_site_occupancy
  Na  Na0  1  0.550961  0.449038  0.638930  1
  Na  Na1  1  0.449039  0.550962  0.361070  1
  Sr  Sr2  1  0.953435  0.046564  0.148661  1
  Sr  Sr3  1  0.046565  0.953436  0.851339  1
  Sr  Sr4  1  0.857346  0.142653  0.580333  1
  Sr  Sr5  1  0.142654  0.857347  0.419667  1
  La  La6  1  0.642861  0.357137  0.078872  1
  La  La7  1  0.357139  0.642863  0.921128  1
  Cr  Cr8  1  0.757483  0.242518  0.333170  1
  Cr  Cr9  1  0.242517  0.757482  0.666830  1
  Si  Si10  1  0.733884  0.266117  0.838782  1
  Si  Si11  1  0.266116  0.733883  0.161218  1
  N  N12  1  0.833685  0.166315  0.953489  1
  N  N13  1  0.166315  0.833685  0.046511  1
  N  N14  1  0.664938  0.335061  0.448292  1
  N  N15  1  0.335062  0.664939  0.551708  1
  N  N16  1  0.576301  0.423699  0.871809  1
  N  N17  1  0.423699  0.576301  0.128191  1
  N  N18  1  0.911099  0.088900  0.368667  1
  N  N19  1  0.088901  0.911100  0.631333  1
  N  N20  1  0.528703  0.973463  0.756029  1
  N  N21  1  0.973463  0.528703  0.243971  1
  N  N22  1  0.471297  0.026537  0.243971  1
  N  N23  1  0.026537  0.471297  0.756029  1
