# generated using pymatgen
data_Ac3Cd2HgPt3
_symmetry_space_group_name_H-M   'P 1'
_cell_length_a   8.09984400
_cell_length_b   8.04015254
_cell_length_c   4.19097500
_cell_angle_alpha   90.00000000
_cell_angle_beta   90.00000000
_cell_angle_gamma   120.24588669
_symmetry_Int_Tables_number   1
_chemical_formula_structural   Ac3Cd2HgPt3
_chemical_formula_sum   'Ac3 Cd2 Hg1 Pt3'
_cell_volume   235.77906707
_cell_formula_units_Z   1
loop_
 _symmetry_equiv_pos_site_id
 _symmetry_equiv_pos_as_xyz
  1  'x, y, z'
loop_
 _atom_site_type_symbol
 _atom_site_label
 _atom_site_symmetry_multiplicity
 _atom_site_fract_x
 _atom_site_fract_y
 _atom_site_fract_z
 _atom_site_occupancy
  Ac  Ac0  1  0.590021  0.000000  0.000000  1
  Ac  Ac1  1  0.003679  0.599214  0.000000  1
  Ac  Ac2  1  0.404466  0.400786  0.000000  1
  Cd  Cd3  1  0.997972  0.246602  0.500000  1
  Cd  Cd4  1  0.751371  0.753398  0.500000  1
  Hg  Hg5  1  0.249394  0.000000  0.500000  1
  Pt  Pt6  1  0.335977  0.658699  0.500000  1
  Pt  Pt7  1  0.677279  0.341301  0.500000  1
  Pt  Pt8  1  0.989840  0.000000  0.000000  1
