# generated using pymatgen
data_U3Co6SiB2
_symmetry_space_group_name_H-M   'P 1'
_cell_length_a   5.12946600
_cell_length_b   5.12946612
_cell_length_c   13.11303700
_cell_angle_alpha   90.00000000
_cell_angle_beta   90.00000000
_cell_angle_gamma   119.99999924
_symmetry_Int_Tables_number   1
_chemical_formula_structural   U3Co6SiB2
_chemical_formula_sum   'U6 Co12 Si2 B4'
_cell_volume   298.79838282
_cell_formula_units_Z   2
loop_
 _symmetry_equiv_pos_site_id
 _symmetry_equiv_pos_as_xyz
  1  'x, y, z'
loop_
 _atom_site_type_symbol
 _atom_site_label
 _atom_site_symmetry_multiplicity
 _atom_site_fract_x
 _atom_site_fract_y
 _atom_site_fract_z
 _atom_site_occupancy
  U  U0  1  0.333333  0.666667  0.250000  1
  U  U1  1  0.666667  0.333333  0.750000  1
  U  U2  1  0.333333  0.666667  0.039396  1
  U  U3  1  0.666667  0.333333  0.539396  1
  U  U4  1  0.666667  0.333333  0.960604  1
  U  U5  1  0.333333  0.666667  0.460604  1
  Co  Co6  1  0.833009  0.666018  0.144161  1
  Co  Co7  1  0.166991  0.833009  0.644161  1
  Co  Co8  1  0.666018  0.833009  0.644161  1
  Co  Co9  1  0.333982  0.166991  0.144161  1
  Co  Co10  1  0.833009  0.166991  0.144161  1
  Co  Co11  1  0.166991  0.333982  0.855839  1
  Co  Co12  1  0.166991  0.833009  0.855839  1
  Co  Co13  1  0.166991  0.333982  0.644161  1
  Co  Co14  1  0.666018  0.833009  0.855839  1
  Co  Co15  1  0.333982  0.166991  0.355839  1
  Co  Co16  1  0.833009  0.666018  0.355839  1
  Co  Co17  1  0.833009  0.166991  0.355839  1
  Si  Si18  1  0.000000  0.000000  0.000000  1
  Si  Si19  1  0.000000  0.000000  0.500000  1
  B  B20  1  0.000000  0.000000  0.250000  1
  B  B21  1  0.000000  0.000000  0.750000  1
  B  B22  1  0.333333  0.666667  0.750000  1
  B  B23  1  0.666667  0.333333  0.250000  1
