# generated using pymatgen
data_PrNdGa(PRh2)6
_symmetry_space_group_name_H-M   'P 1'
_cell_length_a   9.72915200
_cell_length_b   9.72915232
_cell_length_c   3.90873000
_cell_angle_alpha   90.00000000
_cell_angle_beta   90.00000000
_cell_angle_gamma   120.00001252
_symmetry_Int_Tables_number   1
_chemical_formula_structural   PrNdGa(PRh2)6
_chemical_formula_sum   'Pr1 Nd1 Ga1 P6 Rh12'
_cell_volume   320.41750921
_cell_formula_units_Z   1
loop_
 _symmetry_equiv_pos_site_id
 _symmetry_equiv_pos_as_xyz
  1  'x, y, z'
loop_
 _atom_site_type_symbol
 _atom_site_label
 _atom_site_symmetry_multiplicity
 _atom_site_fract_x
 _atom_site_fract_y
 _atom_site_fract_z
 _atom_site_occupancy
  Pr  Pr0  1  0.333333  0.666667  0.750573  1
  Nd  Nd1  1  0.666667  0.333333  0.249419  1
  Ga  Ga2  1  0.000000  0.000000  0.499911  1
  P  P3  1  0.885994  0.599939  0.749649  1
  P  P4  1  0.400061  0.286056  0.749649  1
  P  P5  1  0.713944  0.114006  0.749649  1
  P  P6  1  0.113632  0.399572  0.250343  1
  P  P7  1  0.600428  0.714058  0.250343  1
  P  P8  1  0.285942  0.886368  0.250343  1
  Rh  Rh9  1  0.615162  0.551583  0.750442  1
  Rh  Rh10  1  0.448417  0.063580  0.750442  1
  Rh  Rh11  1  0.936420  0.384838  0.750442  1
  Rh  Rh12  1  0.385096  0.447869  0.249560  1
  Rh  Rh13  1  0.552131  0.937226  0.249560  1
  Rh  Rh14  1  0.062774  0.614904  0.249560  1
  Rh  Rh15  1  0.122149  0.843972  0.751908  1
  Rh  Rh16  1  0.156028  0.278176  0.751908  1
  Rh  Rh17  1  0.721824  0.877851  0.751908  1
  Rh  Rh18  1  0.877688  0.156073  0.248130  1
  Rh  Rh19  1  0.843927  0.721616  0.248130  1
  Rh  Rh20  1  0.278384  0.122312  0.248130  1
