# generated using pymatgen
data_Yb7Pr(Mo2C3)4
_symmetry_space_group_name_H-M   'P 1'
_cell_length_a   6.58434658
_cell_length_b   5.92033204
_cell_length_c   11.96690644
_cell_angle_alpha   66.39069055
_cell_angle_beta   89.78298736
_cell_angle_gamma   90.08650620
_symmetry_Int_Tables_number   1
_chemical_formula_structural   Yb7Pr(Mo2C3)4
_chemical_formula_sum   'Yb7 Pr1 Mo8 C12'
_cell_volume   427.43663340
_cell_formula_units_Z   1
loop_
 _symmetry_equiv_pos_site_id
 _symmetry_equiv_pos_as_xyz
  1  'x, y, z'
loop_
 _atom_site_type_symbol
 _atom_site_label
 _atom_site_symmetry_multiplicity
 _atom_site_fract_x
 _atom_site_fract_y
 _atom_site_fract_z
 _atom_site_occupancy
  Yb  Yb0  1  0.797421  0.673991  0.904796  1
  Yb  Yb1  1  0.293923  0.327331  0.595592  1
  Yb  Yb2  1  0.202804  0.309844  0.089526  1
  Yb  Yb3  1  0.705703  0.678946  0.409814  1
  Yb  Yb4  1  0.992030  0.736100  0.636257  1
  Yb  Yb5  1  0.492742  0.271444  0.863815  1
  Yb  Yb6  1  0.005941  0.267813  0.361810  1
  Pr  Pr7  1  0.503024  0.724834  0.134400  1
  Mo  Mo8  1  0.990328  0.824482  0.120324  1
  Mo  Mo9  1  0.486071  0.172252  0.380827  1
  Mo  Mo10  1  0.009387  0.182296  0.875036  1
  Mo  Mo11  1  0.511884  0.822278  0.624544  1
  Mo  Mo12  1  0.762575  0.184633  0.657439  1
  Mo  Mo13  1  0.234483  0.813042  0.344220  1
  Mo  Mo14  1  0.738260  0.181145  0.158503  1
  Mo  Mo15  1  0.262932  0.819939  0.842571  1
  C  C16  1  0.644726  0.508895  0.651489  1
  C  C17  1  0.142834  0.496370  0.846812  1
  C  C18  1  0.354107  0.487066  0.355137  1
  C  C19  1  0.866105  0.505455  0.145509  1
  C  C20  1  0.216002  0.930051  0.986795  1
  C  C21  1  0.711615  0.094348  0.510056  1
  C  C22  1  0.787965  0.095293  0.008602  1
  C  C23  1  0.290360  0.893896  0.493495  1
  C  C24  1  0.471373  0.035787  0.243836  1
  C  C25  1  0.024391  0.034031  0.742768  1
  C  C26  1  0.974022  0.961959  0.257330  1
  C  C27  1  0.526991  0.966479  0.758696  1
