# generated using pymatgen
data_Hf(Co3Si2)2
_symmetry_space_group_name_H-M   'P 1'
_cell_length_a   6.54578400
_cell_length_b   6.54578293
_cell_length_c   3.54571400
_cell_angle_alpha   90.00000000
_cell_angle_beta   90.00000000
_cell_angle_gamma   120.00000539
_symmetry_Int_Tables_number   1
_chemical_formula_structural   Hf(Co3Si2)2
_chemical_formula_sum   'Hf1 Co6 Si4'
_cell_volume   131.57021365
_cell_formula_units_Z   1
loop_
 _symmetry_equiv_pos_site_id
 _symmetry_equiv_pos_as_xyz
  1  'x, y, z'
loop_
 _atom_site_type_symbol
 _atom_site_label
 _atom_site_symmetry_multiplicity
 _atom_site_fract_x
 _atom_site_fract_y
 _atom_site_fract_z
 _atom_site_occupancy
  Hf  Hf0  1  0.000000  0.000000  0.000000  1
  Co  Co1  1  0.466355  0.533645  0.000000  1
  Co  Co2  1  0.466355  0.932709  0.000000  1
  Co  Co3  1  0.067291  0.533645  0.000000  1
  Co  Co4  1  0.798701  0.201299  0.500000  1
  Co  Co5  1  0.798701  0.597402  0.500000  1
  Co  Co6  1  0.402598  0.201299  0.500000  1
  Si  Si7  1  0.666667  0.333333  0.000000  1
  Si  Si8  1  0.196867  0.803133  0.500000  1
  Si  Si9  1  0.196867  0.393735  0.500000  1
  Si  Si10  1  0.606265  0.803133  0.500000  1
