# generated using pymatgen
data_Ca5Nd5Ir4
_symmetry_space_group_name_H-M   'P 1'
_cell_length_a   8.71693482
_cell_length_b   8.86075046
_cell_length_c   7.47906335
_cell_angle_alpha   83.24695332
_cell_angle_beta   82.90022006
_cell_angle_gamma   44.95885149
_symmetry_Int_Tables_number   1
_chemical_formula_structural   Ca5Nd5Ir4
_chemical_formula_sum   'Ca5 Nd5 Ir4'
_cell_volume   404.67859136
_cell_formula_units_Z   1
loop_
 _symmetry_equiv_pos_site_id
 _symmetry_equiv_pos_as_xyz
  1  'x, y, z'
loop_
 _atom_site_type_symbol
 _atom_site_label
 _atom_site_symmetry_multiplicity
 _atom_site_fract_x
 _atom_site_fract_y
 _atom_site_fract_z
 _atom_site_occupancy
  Ca  Ca0  1  0.015545  0.805157  0.916527  1
  Ca  Ca1  1  0.199887  0.984294  0.584790  1
  Ca  Ca2  1  0.985839  0.194378  0.082459  1
  Ca  Ca3  1  0.801497  0.014517  0.416316  1
  Ca  Ca4  1  0.354033  0.207198  0.815869  1
  Nd  Nd5  1  0.786929  0.651346  0.679233  1
  Nd  Nd6  1  0.640927  0.796489  0.181123  1
  Nd  Nd7  1  0.210630  0.353234  0.319055  1
  Nd  Nd8  1  0.566679  0.428984  0.750067  1
  Nd  Nd9  1  0.434521  0.564308  0.252711  1
  Ir  Ir10  1  0.177649  0.594214  0.573729  1
  Ir  Ir11  1  0.413909  0.802710  0.926982  1
  Ir  Ir12  1  0.818643  0.417460  0.422844  1
  Ir  Ir13  1  0.593313  0.185712  0.078297  1
