# generated using pymatgen
data_Nd3Th11OsRu5
_symmetry_space_group_name_H-M   'P 1'
_cell_length_a   9.87956694
_cell_length_b   9.98671294
_cell_length_c   6.40673987
_cell_angle_alpha   89.79991732
_cell_angle_beta   89.97963559
_cell_angle_gamma   120.08637989
_symmetry_Int_Tables_number   1
_chemical_formula_structural   Nd3Th11OsRu5
_chemical_formula_sum   'Nd3 Th11 Os1 Ru5'
_cell_volume   546.94742957
_cell_formula_units_Z   1
loop_
 _symmetry_equiv_pos_site_id
 _symmetry_equiv_pos_as_xyz
  1  'x, y, z'
loop_
 _atom_site_type_symbol
 _atom_site_label
 _atom_site_symmetry_multiplicity
 _atom_site_fract_x
 _atom_site_fract_y
 _atom_site_fract_z
 _atom_site_occupancy
  Nd  Nd0  1  0.463656  0.538625  0.294742  1
  Nd  Nd1  1  0.074279  0.537929  0.294283  1
  Nd  Nd2  1  0.925187  0.460478  0.795615  1
  Th  Th3  1  0.248903  0.125898  0.507748  1
  Th  Th4  1  0.541432  0.081124  0.801051  1
  Th  Th5  1  0.749504  0.875071  0.008652  1
  Th  Th6  1  0.666047  0.334308  0.280199  1
  Th  Th7  1  0.126414  0.873051  0.002387  1
  Th  Th8  1  0.460676  0.921520  0.302455  1
  Th  Th9  1  0.537801  0.460191  0.797629  1
  Th  Th10  1  0.875526  0.126189  0.507402  1
  Th  Th11  1  0.124232  0.249157  0.005759  1
  Th  Th12  1  0.873960  0.749514  0.505931  1
  Th  Th13  1  0.335232  0.667355  0.779102  1
  Os  Os14  1  0.809933  0.630105  0.050303  1
  Ru  Ru15  1  0.807980  0.175592  0.051074  1
  Ru  Ru16  1  0.632017  0.822364  0.552107  1
  Ru  Ru17  1  0.370965  0.185988  0.042650  1
  Ru  Ru18  1  0.182905  0.360457  0.557904  1
  Ru  Ru19  1  0.193351  0.825082  0.547003  1
