# generated using pymatgen
data_Pr3Er(Lu4Bi3)4
_symmetry_space_group_name_H-M   'P 1'
_cell_length_a   8.24643464
_cell_length_b   9.41876700
_cell_length_c   11.96194591
_cell_angle_alpha   90.00000000
_cell_angle_beta   89.95507100
_cell_angle_gamma   90.00000000
_symmetry_Int_Tables_number   1
_chemical_formula_structural   Pr3Er(Lu4Bi3)4
_chemical_formula_sum   'Pr3 Er1 Lu16 Bi12'
_cell_volume   929.09896324
_cell_formula_units_Z   1
loop_
 _symmetry_equiv_pos_site_id
 _symmetry_equiv_pos_as_xyz
  1  'x, y, z'
loop_
 _atom_site_type_symbol
 _atom_site_label
 _atom_site_symmetry_multiplicity
 _atom_site_fract_x
 _atom_site_fract_y
 _atom_site_fract_z
 _atom_site_occupancy
  Pr  Pr0  1  0.315645  0.250000  0.218678  1
  Pr  Pr1  1  0.815473  0.250000  0.281274  1
  Pr  Pr2  1  0.685098  0.750000  0.781570  1
  Er  Er3  1  0.186112  0.750000  0.716647  1
  Lu  Lu4  1  0.350873  0.750000  0.219076  1
  Lu  Lu5  1  0.852157  0.750000  0.281690  1
  Lu  Lu6  1  0.647498  0.250000  0.779930  1
  Lu  Lu7  1  0.148368  0.250000  0.719463  1
  Lu  Lu8  1  0.690139  0.568121  0.061029  1
  Lu  Lu9  1  0.191807  0.931982  0.439569  1
  Lu  Lu10  1  0.309362  0.067862  0.938240  1
  Lu  Lu11  1  0.808164  0.432121  0.561326  1
  Lu  Lu12  1  0.309362  0.432138  0.938240  1
  Lu  Lu13  1  0.808164  0.067879  0.561326  1
  Lu  Lu14  1  0.690139  0.931879  0.061029  1
  Lu  Lu15  1  0.191807  0.568018  0.439569  1
  Lu  Lu16  1  0.477952  0.250000  0.490575  1
  Lu  Lu17  1  0.978983  0.250000  0.009970  1
  Lu  Lu18  1  0.521470  0.750000  0.511936  1
  Lu  Lu19  1  0.021437  0.750000  0.988525  1
  Bi  Bi20  1  0.397692  0.750000  0.962122  1
  Bi  Bi21  1  0.904912  0.750000  0.539353  1
  Bi  Bi22  1  0.600153  0.250000  0.035424  1
  Bi  Bi23  1  0.099266  0.250000  0.464220  1
  Bi  Bi24  1  0.564559  0.989374  0.328196  1
  Bi  Bi25  1  0.064148  0.510151  0.172462  1
  Bi  Bi26  1  0.430890  0.492745  0.673034  1
  Bi  Bi27  1  0.939389  0.007484  0.825917  1
  Bi  Bi28  1  0.430890  0.007255  0.673034  1
  Bi  Bi29  1  0.939389  0.492516  0.825917  1
  Bi  Bi30  1  0.564559  0.510626  0.328196  1
  Bi  Bi31  1  0.064148  0.989849  0.172462  1
