# generated using pymatgen
data_Ba3InPb8
_symmetry_space_group_name_H-M   'P 1'
_cell_length_a   9.52429933
_cell_length_b   9.50154339
_cell_length_c   9.52429946
_cell_angle_alpha   46.42283725
_cell_angle_beta   46.13211136
_cell_angle_gamma   46.42284075
_symmetry_Int_Tables_number   1
_chemical_formula_structural   Ba3InPb8
_chemical_formula_sum   'Ba3 In1 Pb8'
_cell_volume   411.54869708
_cell_formula_units_Z   1
loop_
 _symmetry_equiv_pos_site_id
 _symmetry_equiv_pos_as_xyz
  1  'x, y, z'
loop_
 _atom_site_type_symbol
 _atom_site_label
 _atom_site_symmetry_multiplicity
 _atom_site_fract_x
 _atom_site_fract_y
 _atom_site_fract_z
 _atom_site_occupancy
  Ba  Ba0  1  0.783610  0.783863  0.783610  1
  Ba  Ba1  1  0.217152  0.213853  0.217152  1
  Ba  Ba2  1  0.001896  0.998553  0.001896  1
  In  In3  1  0.298222  0.734491  0.298222  1
  Pb  Pb4  1  0.734428  0.299410  0.297550  1
  Pb  Pb5  1  0.297550  0.299410  0.734428  1
  Pb  Pb6  1  0.499750  0.500825  0.000187  1
  Pb  Pb7  1  0.500272  0.999320  0.500272  1
  Pb  Pb8  1  0.000187  0.500825  0.499750  1
  Pb  Pb9  1  0.702576  0.264494  0.702576  1
  Pb  Pb10  1  0.701595  0.702478  0.262761  1
  Pb  Pb11  1  0.262761  0.702478  0.701595  1
