# generated using pymatgen
data_CaEu9(InPd2)2
_symmetry_space_group_name_H-M   'P 1'
_cell_length_a   9.36668882
_cell_length_b   9.36668798
_cell_length_c   9.36668800
_cell_angle_alpha   128.43389511
_cell_angle_beta   128.43389103
_cell_angle_gamma   75.92318086
_symmetry_Int_Tables_number   1
_chemical_formula_structural   CaEu9(InPd2)2
_chemical_formula_sum   'Ca1 Eu9 In2 Pd4'
_cell_volume   490.32704480
_cell_formula_units_Z   1
loop_
 _symmetry_equiv_pos_site_id
 _symmetry_equiv_pos_as_xyz
  1  'x, y, z'
loop_
 _atom_site_type_symbol
 _atom_site_label
 _atom_site_symmetry_multiplicity
 _atom_site_fract_x
 _atom_site_fract_y
 _atom_site_fract_z
 _atom_site_occupancy
  Ca  Ca0  1  0.000000  0.000000  0.000000  1
  Eu  Eu1  1  0.530502  0.028928  0.831782  1
  Eu  Eu2  1  0.197146  0.698719  0.168218  1
  Eu  Eu3  1  0.028928  0.197146  0.498427  1
  Eu  Eu4  1  0.698719  0.530502  0.501573  1
  Eu  Eu5  1  0.469498  0.971072  0.168218  1
  Eu  Eu6  1  0.802854  0.301281  0.831782  1
  Eu  Eu7  1  0.971072  0.802854  0.501573  1
  Eu  Eu8  1  0.301281  0.469498  0.498427  1
  Eu  Eu9  1  0.500000  0.500000  0.000000  1
  In  In10  1  0.250184  0.250184  0.000000  1
  In  In11  1  0.749816  0.749816  0.000000  1
  Pd  Pd12  1  0.628958  0.872129  0.501086  1
  Pd  Pd13  1  0.371042  0.127871  0.498914  1
  Pd  Pd14  1  0.127871  0.628958  0.756830  1
  Pd  Pd15  1  0.872129  0.371042  0.243170  1
