# generated using pymatgen
data_PrNd11(BCl3)4
_symmetry_space_group_name_H-M   'P 1'
_cell_length_a   9.85118577
_cell_length_b   9.85118656
_cell_length_c   9.85632218
_cell_angle_alpha   109.47070711
_cell_angle_beta   109.47070548
_cell_angle_gamma   109.47495823
_symmetry_Int_Tables_number   1
_chemical_formula_structural   PrNd11(BCl3)4
_chemical_formula_sum   'Pr1 Nd11 B4 Cl12'
_cell_volume   736.30124142
_cell_formula_units_Z   1
loop_
 _symmetry_equiv_pos_site_id
 _symmetry_equiv_pos_as_xyz
  1  'x, y, z'
loop_
 _atom_site_type_symbol
 _atom_site_label
 _atom_site_symmetry_multiplicity
 _atom_site_fract_x
 _atom_site_fract_y
 _atom_site_fract_z
 _atom_site_occupancy
  Pr  Pr0  1  0.237569  0.262431  0.750000  1
  Nd  Nd1  1  0.473516  0.486934  0.237026  1
  Nd  Nd2  1  0.749877  0.236795  0.263148  1
  Nd  Nd3  1  0.749793  0.013205  0.486625  1
  Nd  Nd4  1  0.236673  0.473559  0.486575  1
  Nd  Nd5  1  0.263205  0.750123  0.236852  1
  Nd  Nd6  1  0.026441  0.263327  0.013425  1
  Nd  Nd7  1  0.013066  0.026484  0.262974  1
  Nd  Nd8  1  0.486795  0.750207  0.013375  1
  Nd  Nd9  1  0.486726  0.236774  0.473390  1
  Nd  Nd10  1  0.013113  0.486887  0.750000  1
  Nd  Nd11  1  0.263226  0.013274  0.026610  1
  B  B12  1  0.250002  0.249998  0.250000  1
  B  B13  1  0.499957  0.000043  0.250000  1
  B  B14  1  0.999200  0.250008  0.499150  1
  B  B15  1  0.249992  0.500800  0.000850  1
  Cl  Cl16  1  0.250015  0.754073  0.746040  1
  Cl  Cl17  1  0.509381  0.505597  0.753898  1
  Cl  Cl18  1  0.991966  0.745996  0.996018  1
  Cl  Cl19  1  0.745927  0.249985  0.753960  1
  Cl  Cl20  1  0.994403  0.990619  0.746102  1
  Cl  Cl21  1  0.249887  0.994623  0.502587  1
  Cl  Cl22  1  0.754004  0.508034  0.503982  1
  Cl  Cl23  1  0.505377  0.250113  0.997413  1
  Cl  Cl24  1  0.753980  0.746020  0.250000  1
  Cl  Cl25  1  0.745946  0.995989  0.991969  1
  Cl  Cl26  1  0.995950  0.504050  0.250000  1
  Cl  Cl27  1  0.504011  0.754054  0.508031  1
