# generated using pymatgen
data_NdSmZn5Si
_symmetry_space_group_name_H-M   'P 1'
_cell_length_a   8.30525858
_cell_length_b   8.30525878
_cell_length_c   8.81354400
_cell_angle_alpha   90.00000000
_cell_angle_beta   90.00000000
_cell_angle_gamma   149.27745017
_symmetry_Int_Tables_number   1
_chemical_formula_structural   NdSmZn5Si
_chemical_formula_sum   'Nd2 Sm2 Zn10 Si2'
_cell_volume   310.58244314
_cell_formula_units_Z   2
loop_
 _symmetry_equiv_pos_site_id
 _symmetry_equiv_pos_as_xyz
  1  'x, y, z'
loop_
 _atom_site_type_symbol
 _atom_site_label
 _atom_site_symmetry_multiplicity
 _atom_site_fract_x
 _atom_site_fract_y
 _atom_site_fract_z
 _atom_site_occupancy
  Nd  Nd0  1  0.000000  0.000000  0.500000  1
  Nd  Nd1  1  0.000000  0.000000  0.000000  1
  Sm  Sm2  1  0.202405  0.797595  0.250000  1
  Sm  Sm3  1  0.797595  0.202405  0.750000  1
  Zn  Zn4  1  0.813407  0.186593  0.392979  1
  Zn  Zn5  1  0.186593  0.813407  0.607021  1
  Zn  Zn6  1  0.813407  0.186593  0.107021  1
  Zn  Zn7  1  0.186593  0.813407  0.892979  1
  Zn  Zn8  1  0.650194  0.349806  0.475530  1
  Zn  Zn9  1  0.349806  0.650194  0.524470  1
  Zn  Zn10  1  0.650194  0.349806  0.024470  1
  Zn  Zn11  1  0.349806  0.650194  0.975530  1
  Zn  Zn12  1  0.404201  0.595799  0.250000  1
  Zn  Zn13  1  0.595799  0.404201  0.750000  1
  Si  Si14  1  0.557382  0.442618  0.250000  1
  Si  Si15  1  0.442618  0.557382  0.750000  1
