# generated using pymatgen
data_CeDy2Pa(Ga3Ir)6
_symmetry_space_group_name_H-M   'P 1'
_cell_length_a   7.64775430
_cell_length_b   7.64278087
_cell_length_c   9.44910200
_cell_angle_alpha   90.00000000
_cell_angle_beta   90.00000000
_cell_angle_gamma   119.79090482
_symmetry_Int_Tables_number   1
_chemical_formula_structural   CeDy2Pa(Ga3Ir)6
_chemical_formula_sum   'Ce1 Dy2 Pa1 Ga18 Ir6'
_cell_volume   479.31133949
_cell_formula_units_Z   1
loop_
 _symmetry_equiv_pos_site_id
 _symmetry_equiv_pos_as_xyz
  1  'x, y, z'
loop_
 _atom_site_type_symbol
 _atom_site_label
 _atom_site_symmetry_multiplicity
 _atom_site_fract_x
 _atom_site_fract_y
 _atom_site_fract_z
 _atom_site_occupancy
  Ce  Ce0  1  0.330550  0.001830  0.750000  1
  Dy  Dy1  1  0.003618  0.330857  0.750000  1
  Dy  Dy2  1  0.669829  0.995856  0.250000  1
  Pa  Pa3  1  0.998547  0.670047  0.250000  1
  Ga  Ga4  1  0.130323  0.130719  0.250000  1
  Ga  Ga5  1  0.870223  0.872301  0.750000  1
  Ga  Ga6  1  0.998458  0.330832  0.080175  1
  Ga  Ga7  1  0.998165  0.662542  0.918295  1
  Ga  Ga8  1  0.998165  0.662542  0.581705  1
  Ga  Ga9  1  0.339148  0.003117  0.418305  1
  Ga  Ga10  1  0.998458  0.330832  0.419825  1
  Ga  Ga11  1  0.668117  0.001928  0.579029  1
  Ga  Ga12  1  0.668117  0.001928  0.920971  1
  Ga  Ga13  1  0.339148  0.003117  0.081695  1
  Ga  Ga14  1  0.331309  0.333498  0.565936  1
  Ga  Ga15  1  0.664303  0.667852  0.433518  1
  Ga  Ga16  1  0.664303  0.667852  0.066482  1
  Ga  Ga17  1  0.331309  0.333498  0.934064  1
  Ga  Ga18  1  0.338785  0.545084  0.250000  1
  Ga  Ga19  1  0.661242  0.454599  0.750000  1
  Ga  Ga20  1  0.545507  0.340586  0.250000  1
  Ga  Ga21  1  0.453572  0.660638  0.750000  1
  Ir  Ir22  1  0.673170  0.331197  0.002006  1
  Ir  Ir23  1  0.326231  0.671619  0.002015  1
  Ir  Ir24  1  0.326231  0.671619  0.497985  1
  Ir  Ir25  1  0.673170  0.331197  0.497994  1
  Ir  Ir26  1  0.000003  0.996158  0.002670  1
  Ir  Ir27  1  0.000003  0.996158  0.497330  1
