# generated using pymatgen
data_Lu2Hf4Sn5
_symmetry_space_group_name_H-M   'P 1'
_cell_length_a   11.07108973
_cell_length_b   11.07108956
_cell_length_c   11.07108968
_cell_angle_alpha   149.06588511
_cell_angle_beta   132.15907860
_cell_angle_gamma   58.06544253
_symmetry_Int_Tables_number   1
_chemical_formula_structural   Lu2Hf4Sn5
_chemical_formula_sum   'Lu4 Hf8 Sn10'
_cell_volume   513.17659733
_cell_formula_units_Z   2
loop_
 _symmetry_equiv_pos_site_id
 _symmetry_equiv_pos_as_xyz
  1  'x, y, z'
loop_
 _atom_site_type_symbol
 _atom_site_label
 _atom_site_symmetry_multiplicity
 _atom_site_fract_x
 _atom_site_fract_y
 _atom_site_fract_z
 _atom_site_occupancy
  Lu  Lu0  1  0.255643  0.143462  0.112180  1
  Lu  Lu1  1  0.744357  0.856538  0.887820  1
  Lu  Lu2  1  0.031282  0.643462  0.387820  1
  Lu  Lu3  1  0.968718  0.356538  0.612180  1
  Hf  Hf4  1  0.310944  0.560944  0.250000  1
  Hf  Hf5  1  0.689056  0.439056  0.750000  1
  Hf  Hf6  1  0.689056  0.939056  0.250000  1
  Hf  Hf7  1  0.310944  0.060944  0.750000  1
  Hf  Hf8  1  0.673947  0.435289  0.238659  1
  Hf  Hf9  1  0.326053  0.564711  0.761341  1
  Hf  Hf10  1  0.196630  0.935289  0.261341  1
  Hf  Hf11  1  0.803370  0.064711  0.738659  1
  Sn  Sn12  1  0.589508  0.289049  0.300459  1
  Sn  Sn13  1  0.410492  0.710951  0.699541  1
  Sn  Sn14  1  0.988591  0.789049  0.199541  1
  Sn  Sn15  1  0.011409  0.210951  0.800459  1
  Sn  Sn16  1  0.000000  0.250000  0.250000  1
  Sn  Sn17  1  0.000000  0.750000  0.750000  1
  Sn  Sn18  1  0.466280  0.067007  0.399271  1
  Sn  Sn19  1  0.533720  0.932993  0.600729  1
  Sn  Sn20  1  0.667737  0.567007  0.100729  1
  Sn  Sn21  1  0.332263  0.432993  0.899271  1
