# generated using pymatgen
data_Tm2Lu2Co3Si4Rh
_symmetry_space_group_name_H-M   'P 1'
_cell_length_a   4.13372400
_cell_length_b   6.72608612
_cell_length_c   7.08806413
_cell_angle_alpha   90.20869222
_cell_angle_beta   90.00000000
_cell_angle_gamma   90.00000000
_symmetry_Int_Tables_number   1
_chemical_formula_structural   Tm2Lu2Co3Si4Rh
_chemical_formula_sum   'Tm2 Lu2 Co3 Si4 Rh1'
_cell_volume   197.07369402
_cell_formula_units_Z   1
loop_
 _symmetry_equiv_pos_site_id
 _symmetry_equiv_pos_as_xyz
  1  'x, y, z'
loop_
 _atom_site_type_symbol
 _atom_site_label
 _atom_site_symmetry_multiplicity
 _atom_site_fract_x
 _atom_site_fract_y
 _atom_site_fract_z
 _atom_site_occupancy
  Tm  Tm0  1  0.750000  0.004956  0.194028  1
  Tm  Tm1  1  0.750000  0.504613  0.312807  1
  Lu  Lu2  1  0.250000  0.995143  0.802081  1
  Lu  Lu3  1  0.250000  0.486067  0.691251  1
  Co  Co4  1  0.750000  0.848660  0.570766  1
  Co  Co5  1  0.250000  0.157568  0.435583  1
  Co  Co6  1  0.750000  0.348795  0.932403  1
  Si  Si7  1  0.250000  0.293004  0.100224  1
  Si  Si8  1  0.750000  0.700050  0.883099  1
  Si  Si9  1  0.250000  0.803377  0.408363  1
  Si  Si10  1  0.750000  0.198895  0.603410  1
  Rh  Rh11  1  0.250000  0.658871  0.065983  1
