# generated using pymatgen
data_Pr2Cd3InRh2
_symmetry_space_group_name_H-M   'P 1'
_cell_length_a   5.48484168
_cell_length_b   5.48484166
_cell_length_c   8.47855387
_cell_angle_alpha   89.86743717
_cell_angle_beta   90.13256175
_cell_angle_gamma   133.80943121
_symmetry_Int_Tables_number   1
_chemical_formula_structural   Pr2Cd3InRh2
_chemical_formula_sum   'Pr2 Cd3 In1 Rh2'
_cell_volume   184.06574928
_cell_formula_units_Z   1
loop_
 _symmetry_equiv_pos_site_id
 _symmetry_equiv_pos_as_xyz
  1  'x, y, z'
loop_
 _atom_site_type_symbol
 _atom_site_label
 _atom_site_symmetry_multiplicity
 _atom_site_fract_x
 _atom_site_fract_y
 _atom_site_fract_z
 _atom_site_occupancy
  Pr  Pr0  1  0.566471  0.433529  0.246241  1
  Pr  Pr1  1  0.433630  0.566370  0.749256  1
  Cd  Cd2  1  0.855227  0.144773  0.047199  1
  Cd  Cd3  1  0.147680  0.852320  0.951128  1
  Cd  Cd4  1  0.140548  0.859452  0.551908  1
  In  In5  1  0.850172  0.149828  0.450577  1
  Rh  Rh6  1  0.283505  0.716495  0.256821  1
  Rh  Rh7  1  0.722768  0.277232  0.746871  1
