# generated using pymatgen
data_KAc(U2S5)2
_symmetry_space_group_name_H-M   'P 1'
_cell_length_a   7.40289600
_cell_length_b   8.22471987
_cell_length_c   11.62869000
_cell_angle_alpha   89.75881938
_cell_angle_beta   90.00000000
_cell_angle_gamma   90.00000000
_symmetry_Int_Tables_number   1
_chemical_formula_structural   KAc(U2S5)2
_chemical_formula_sum   'K2 Ac2 U8 S20'
_cell_volume   708.02681924
_cell_formula_units_Z   2
loop_
 _symmetry_equiv_pos_site_id
 _symmetry_equiv_pos_as_xyz
  1  'x, y, z'
loop_
 _atom_site_type_symbol
 _atom_site_label
 _atom_site_symmetry_multiplicity
 _atom_site_fract_x
 _atom_site_fract_y
 _atom_site_fract_z
 _atom_site_occupancy
  K  K0  1  0.049709  0.492034  0.317098  1
  K  K1  1  0.549709  0.507966  0.182902  1
  Ac  Ac2  1  0.946459  0.507199  0.657974  1
  Ac  Ac3  1  0.446459  0.492801  0.842026  1
  U  U4  1  0.025491  0.000858  0.317116  1
  U  U5  1  0.525491  0.999142  0.182884  1
  U  U6  1  0.977833  0.998983  0.680248  1
  U  U7  1  0.477833  0.001017  0.819752  1
  U  U8  1  0.069718  0.760711  0.009017  1
  U  U9  1  0.569718  0.239289  0.490983  1
  U  U10  1  0.927098  0.249079  0.991758  1
  U  U11  1  0.427098  0.750921  0.508242  1
  S  S12  1  0.667248  0.949730  0.405024  1
  S  S13  1  0.167248  0.050270  0.094976  1
  S  S14  1  0.336971  0.042272  0.600079  1
  S  S15  1  0.836971  0.957728  0.899921  1
  S  S16  1  0.453382  0.789089  0.998690  1
  S  S17  1  0.953382  0.210911  0.501310  1
  S  S18  1  0.546740  0.213726  0.996685  1
  S  S19  1  0.046740  0.786274  0.503315  1
  S  S20  1  0.834331  0.788792  0.183358  1
  S  S21  1  0.334331  0.211208  0.316642  1
  S  S22  1  0.158470  0.229065  0.807264  1
  S  S23  1  0.658470  0.770935  0.692736  1
  S  S24  1  0.307562  0.777706  0.284263  1
  S  S25  1  0.807562  0.222294  0.215737  1
  S  S26  1  0.688381  0.237497  0.718303  1
  S  S27  1  0.188381  0.762503  0.781697  1
  S  S28  1  0.183943  0.462788  0.058478  1
  S  S29  1  0.683943  0.537212  0.441522  1
  S  S30  1  0.826663  0.540850  0.911369  1
  S  S31  1  0.326663  0.459150  0.588631  1
