# generated using pymatgen
data_La4TlIn(BiO7)2
_symmetry_space_group_name_H-M   'P 1'
_cell_length_a   7.83158540
_cell_length_b   7.83408421
_cell_length_c   7.96424900
_cell_angle_alpha   59.44882218
_cell_angle_beta   59.43803111
_cell_angle_gamma   59.03277088
_symmetry_Int_Tables_number   1
_chemical_formula_structural   La4TlIn(BiO7)2
_chemical_formula_sum   'La4 Tl1 In1 Bi2 O14'
_cell_volume   340.04829030
_cell_formula_units_Z   1
loop_
 _symmetry_equiv_pos_site_id
 _symmetry_equiv_pos_as_xyz
  1  'x, y, z'
loop_
 _atom_site_type_symbol
 _atom_site_label
 _atom_site_symmetry_multiplicity
 _atom_site_fract_x
 _atom_site_fract_y
 _atom_site_fract_z
 _atom_site_occupancy
  La  La0  1  0.625000  0.125000  0.125000  1
  La  La1  1  0.125000  0.125000  0.125000  1
  La  La2  1  0.125000  0.625000  0.125000  1
  La  La3  1  0.125000  0.125000  0.625000  1
  Tl  Tl4  1  0.625000  0.125000  0.625000  1
  In  In5  1  0.125000  0.625000  0.625000  1
  Bi  Bi6  1  0.625000  0.625000  0.125000  1
  Bi  Bi7  1  0.625000  0.625000  0.625000  1
  O  O8  1  0.713562  0.290935  0.269039  1
  O  O9  1  0.709634  0.698147  0.296110  1
  O  O10  1  0.292276  0.701635  0.285563  1
  O  O11  1  0.000547  0.995743  0.001855  1
  O  O12  1  0.713562  0.290935  0.726464  1
  O  O13  1  0.957724  0.548365  0.529473  1
  O  O14  1  0.292276  0.701635  0.720527  1
  O  O15  1  0.536438  0.959065  0.523536  1
  O  O16  1  0.249453  0.254257  0.248145  1
  O  O17  1  0.957724  0.548365  0.964437  1
  O  O18  1  0.540366  0.551853  0.953890  1
  O  O19  1  0.977745  0.970026  0.526115  1
  O  O20  1  0.536438  0.959065  0.980961  1
  O  O21  1  0.272255  0.279974  0.723885  1
