# generated using pymatgen
data_Yb2Tm2OsRu7
_symmetry_space_group_name_H-M   'P 1'
_cell_length_a   5.21668936
_cell_length_b   5.30759441
_cell_length_c   8.84707506
_cell_angle_alpha   89.99999977
_cell_angle_beta   90.20404830
_cell_angle_gamma   120.57814072
_symmetry_Int_Tables_number   1
_chemical_formula_structural   Yb2Tm2OsRu7
_chemical_formula_sum   'Yb2 Tm2 Os1 Ru7'
_cell_volume   210.89178147
_cell_formula_units_Z   1
loop_
 _symmetry_equiv_pos_site_id
 _symmetry_equiv_pos_as_xyz
  1  'x, y, z'
loop_
 _atom_site_type_symbol
 _atom_site_label
 _atom_site_symmetry_multiplicity
 _atom_site_fract_x
 _atom_site_fract_y
 _atom_site_fract_z
 _atom_site_occupancy
  Yb  Yb0  1  0.658015  0.329008  0.940141  1
  Yb  Yb1  1  0.325380  0.662690  0.060841  1
  Tm  Tm2  1  0.332154  0.666077  0.428443  1
  Tm  Tm3  1  0.664955  0.332478  0.571563  1
  Os  Os4  1  0.672271  0.836135  0.750601  1
  Ru  Ru5  1  0.986112  0.993056  0.499686  1
  Ru  Ru6  1  0.978619  0.989309  0.999269  1
  Ru  Ru7  1  0.832031  0.168648  0.251119  1
  Ru  Ru8  1  0.832031  0.663383  0.251119  1
  Ru  Ru9  1  0.356426  0.178212  0.254174  1
  Ru  Ru10  1  0.181003  0.829509  0.746522  1
  Ru  Ru11  1  0.181003  0.351496  0.746522  1
