# generated using pymatgen
data_Yb5Sm3(Si4Mo3)4
_symmetry_space_group_name_H-M   'P 1'
_cell_length_a   6.76228999
_cell_length_b   6.97935800
_cell_length_c   13.05098037
_cell_angle_alpha   89.99739162
_cell_angle_beta   89.96539859
_cell_angle_gamma   89.96557852
_symmetry_Int_Tables_number   1
_chemical_formula_structural   Yb5Sm3(Si4Mo3)4
_chemical_formula_sum   'Yb5 Sm3 Si16 Mo12'
_cell_volume   615.95962390
_cell_formula_units_Z   1
loop_
 _symmetry_equiv_pos_site_id
 _symmetry_equiv_pos_as_xyz
  1  'x, y, z'
loop_
 _atom_site_type_symbol
 _atom_site_label
 _atom_site_symmetry_multiplicity
 _atom_site_fract_x
 _atom_site_fract_y
 _atom_site_fract_z
 _atom_site_occupancy
  Yb  Yb0  1  0.498072  0.335081  0.090592  1
  Yb  Yb1  1  0.997718  0.166319  0.407604  1
  Yb  Yb2  1  0.501691  0.667036  0.592540  1
  Yb  Yb3  1  0.001834  0.832441  0.907255  1
  Yb  Yb4  1  0.501717  0.665962  0.909335  1
  Sm  Sm5  1  0.999555  0.831964  0.593847  1
  Sm  Sm6  1  0.500143  0.333409  0.407437  1
  Sm  Sm7  1  0.000352  0.167077  0.091556  1
  Si  Si8  1  0.656988  0.042794  0.546078  1
  Si  Si9  1  0.158646  0.459244  0.953125  1
  Si  Si10  1  0.343951  0.955486  0.045599  1
  Si  Si11  1  0.843531  0.542982  0.453714  1
  Si  Si12  1  0.340831  0.954652  0.453851  1
  Si  Si13  1  0.841126  0.546220  0.045294  1
  Si  Si14  1  0.657567  0.041996  0.953032  1
  Si  Si15  1  0.158845  0.454170  0.546124  1
  Si  Si16  1  0.534053  0.371043  0.750160  1
  Si  Si17  1  0.034824  0.130246  0.750808  1
  Si  Si18  1  0.464981  0.633374  0.248573  1
  Si  Si19  1  0.965466  0.868338  0.250814  1
  Si  Si20  1  0.799341  0.626432  0.751885  1
  Si  Si21  1  0.305393  0.871194  0.752272  1
  Si  Si22  1  0.197142  0.373418  0.249564  1
  Si  Si23  1  0.696376  0.126639  0.249696  1
  Mo  Mo24  1  0.833540  0.333356  0.626654  1
  Mo  Mo25  1  0.333768  0.168210  0.873179  1
  Mo  Mo26  1  0.165999  0.666826  0.126270  1
  Mo  Mo27  1  0.666930  0.833273  0.373901  1
  Mo  Mo28  1  0.167128  0.666526  0.372558  1
  Mo  Mo29  1  0.667393  0.833468  0.127372  1
  Mo  Mo30  1  0.834037  0.331896  0.872331  1
  Mo  Mo31  1  0.333417  0.166900  0.627497  1
  Mo  Mo32  1  0.662001  0.008604  0.750070  1
  Mo  Mo33  1  0.162205  0.492045  0.749490  1
  Mo  Mo34  1  0.336444  0.994177  0.250694  1
  Mo  Mo35  1  0.836995  0.507205  0.249229  1
