# generated using pymatgen
data_Al8Ir4OsRh3
_symmetry_space_group_name_H-M   'P 1'
_cell_length_a   6.03167600
_cell_length_b   4.26355200
_cell_length_c   8.52165100
_cell_angle_alpha   89.99991935
_cell_angle_beta   89.99989989
_cell_angle_gamma   90.00000092
_symmetry_Int_Tables_number   1
_chemical_formula_structural   Al8Ir4OsRh3
_chemical_formula_sum   'Al8 Ir4 Os1 Rh3'
_cell_volume   219.14588133
_cell_formula_units_Z   1
loop_
 _symmetry_equiv_pos_site_id
 _symmetry_equiv_pos_as_xyz
  1  'x, y, z'
loop_
 _atom_site_type_symbol
 _atom_site_label
 _atom_site_symmetry_multiplicity
 _atom_site_fract_x
 _atom_site_fract_y
 _atom_site_fract_z
 _atom_site_occupancy
  Al  Al0  1  0.498333  0.750000  0.125002  1
  Al  Al1  1  0.001665  0.749999  0.125003  1
  Al  Al2  1  0.499075  0.249999  0.373390  1
  Al  Al3  1  0.000928  0.249999  0.373392  1
  Al  Al4  1  0.999908  0.750005  0.625000  1
  Al  Al5  1  0.500087  0.750004  0.625003  1
  Al  Al6  1  0.000935  0.250003  0.876604  1
  Al  Al7  1  0.499066  0.250003  0.876607  1
  Ir  Ir8  1  0.750002  0.250000  0.124994  1
  Ir  Ir9  1  0.250000  0.750000  0.378050  1
  Ir  Ir10  1  0.749999  0.250001  0.624996  1
  Ir  Ir11  1  0.249997  0.750001  0.871958  1
  Os  Os12  1  0.250000  0.249997  0.125001  1
  Rh  Rh13  1  0.749998  0.749996  0.376380  1
  Rh  Rh14  1  0.250005  0.249985  0.625006  1
  Rh  Rh15  1  0.749999  0.750000  0.873610  1
