# generated using pymatgen
data_BaLa2PdO5
_symmetry_space_group_name_H-M   'P 1'
_cell_length_a   6.94202900
_cell_length_b   6.94202900
_cell_length_c   6.00192300
_cell_angle_alpha   90.00000000
_cell_angle_beta   90.00000000
_cell_angle_gamma   90.00000000
_symmetry_Int_Tables_number   1
_chemical_formula_structural   BaLa2PdO5
_chemical_formula_sum   'Ba2 La4 Pd2 O10'
_cell_volume   289.24327259
_cell_formula_units_Z   2
loop_
 _symmetry_equiv_pos_site_id
 _symmetry_equiv_pos_as_xyz
  1  'x, y, z'
loop_
 _atom_site_type_symbol
 _atom_site_label
 _atom_site_symmetry_multiplicity
 _atom_site_fract_x
 _atom_site_fract_y
 _atom_site_fract_z
 _atom_site_occupancy
  Ba  Ba0  1  0.000000  0.000000  0.000000  1
  Ba  Ba1  1  0.500000  0.500000  0.000000  1
  La  La2  1  0.324021  0.175979  0.499999  1
  La  La3  1  0.824021  0.324021  0.499999  1
  La  La4  1  0.175979  0.675979  0.499999  1
  La  La5  1  0.675979  0.824021  0.499999  1
  Pd  Pd6  1  0.500000  0.000000  0.000000  1
  Pd  Pd7  1  0.000000  0.500000  0.000000  1
  O  O8  1  0.641386  0.141386  0.247429  1
  O  O9  1  0.141386  0.358614  0.247429  1
  O  O10  1  0.858614  0.641386  0.247429  1
  O  O11  1  0.358614  0.858614  0.247429  1
  O  O12  1  0.000000  0.000000  0.499999  1
  O  O13  1  0.500000  0.500000  0.499999  1
  O  O14  1  0.641386  0.141386  0.752572  1
  O  O15  1  0.141386  0.358614  0.752572  1
  O  O16  1  0.858614  0.641386  0.752572  1
  O  O17  1  0.358614  0.858614  0.752572  1
