# generated using pymatgen
data_La3MgCd2AgPb2
_symmetry_space_group_name_H-M   'P 1'
_cell_length_a   7.82222693
_cell_length_b   7.82222778
_cell_length_c   4.82087000
_cell_angle_alpha   90.00000000
_cell_angle_beta   90.00000000
_cell_angle_gamma   120.61022949
_symmetry_Int_Tables_number   1
_chemical_formula_structural   La3MgCd2AgPb2
_chemical_formula_sum   'La3 Mg1 Cd2 Ag1 Pb2'
_cell_volume   253.87119846
_cell_formula_units_Z   1
loop_
 _symmetry_equiv_pos_site_id
 _symmetry_equiv_pos_as_xyz
  1  'x, y, z'
loop_
 _atom_site_type_symbol
 _atom_site_label
 _atom_site_symmetry_multiplicity
 _atom_site_fract_x
 _atom_site_fract_y
 _atom_site_fract_z
 _atom_site_occupancy
  La  La0  1  0.588223  0.003933  0.000000  1
  La  La1  1  0.003933  0.588223  0.000000  1
  La  La2  1  0.406271  0.406271  0.000000  1
  Mg  Mg3  1  0.776467  0.776467  0.500000  1
  Cd  Cd4  1  0.229109  0.998335  0.500000  1
  Cd  Cd5  1  0.998335  0.229109  0.500000  1
  Ag  Ag6  1  0.989372  0.989372  0.000000  1
  Pb  Pb7  1  0.340499  0.667789  0.500000  1
  Pb  Pb8  1  0.667789  0.340499  0.500000  1
