# generated using pymatgen
data_Ac4La2RuI10
_symmetry_space_group_name_H-M   'P 1'
_cell_length_a   8.48070815
_cell_length_b   10.54435827
_cell_length_c   10.18195435
_cell_angle_alpha   107.83702648
_cell_angle_beta   97.56947997
_cell_angle_gamma   105.05892984
_symmetry_Int_Tables_number   1
_chemical_formula_structural   Ac4La2RuI10
_chemical_formula_sum   'Ac4 La2 Ru1 I10'
_cell_volume   814.56173780
_cell_formula_units_Z   1
loop_
 _symmetry_equiv_pos_site_id
 _symmetry_equiv_pos_as_xyz
  1  'x, y, z'
loop_
 _atom_site_type_symbol
 _atom_site_label
 _atom_site_symmetry_multiplicity
 _atom_site_fract_x
 _atom_site_fract_y
 _atom_site_fract_z
 _atom_site_occupancy
  Ac  Ac0  1  0.463905  0.297439  0.592774  1
  Ac  Ac1  1  0.536095  0.702561  0.407226  1
  Ac  Ac2  1  0.861932  0.137212  0.688555  1
  Ac  Ac3  1  0.138068  0.862788  0.311445  1
  La  La4  1  0.391702  0.959185  0.720700  1
  La  La5  1  0.608298  0.040815  0.279300  1
  Ru  Ru6  1  0.500000  0.000000  0.500000  1
  I  I7  1  0.412347  0.636573  0.682135  1
  I  I8  1  0.587653  0.363427  0.317865  1
  I  I9  1  0.292700  0.251283  0.855872  1
  I  I10  1  0.707300  0.748717  0.144128  1
  I  I11  1  0.855697  0.462598  0.775993  1
  I  I12  1  0.144303  0.537402  0.224007  1
  I  I13  1  0.035131  0.176281  0.410090  1
  I  I14  1  0.255641  0.918077  0.034005  1
  I  I15  1  0.744359  0.081923  0.965995  1
  I  I16  1  0.964869  0.823719  0.589910  1
