# generated using pymatgen
data_Er5Tm11(CoHg)4
_symmetry_space_group_name_H-M   'P 1'
_cell_length_a   9.33212137
_cell_length_b   9.33259354
_cell_length_c   9.33259201
_cell_angle_alpha   60.00600914
_cell_angle_beta   60.00166771
_cell_angle_gamma   60.00167136
_symmetry_Int_Tables_number   1
_chemical_formula_structural   Er5Tm11(CoHg)4
_chemical_formula_sum   'Er5 Tm11 Co4 Hg4'
_cell_volume   574.77873473
_cell_formula_units_Z   1
loop_
 _symmetry_equiv_pos_site_id
 _symmetry_equiv_pos_as_xyz
  1  'x, y, z'
loop_
 _atom_site_type_symbol
 _atom_site_label
 _atom_site_symmetry_multiplicity
 _atom_site_fract_x
 _atom_site_fract_y
 _atom_site_fract_z
 _atom_site_occupancy
  Er  Er0  1  0.347934  0.348067  0.348067  1
  Er  Er1  1  0.348052  0.348081  0.955815  1
  Er  Er2  1  0.348052  0.955815  0.348081  1
  Er  Er3  1  0.955932  0.348067  0.348067  1
  Er  Er4  1  0.812209  0.187791  0.187791  1
  Tm  Tm5  1  0.187801  0.812199  0.812199  1
  Tm  Tm6  1  0.187947  0.812028  0.187834  1
  Tm  Tm7  1  0.812191  0.187834  0.812028  1
  Tm  Tm8  1  0.187947  0.187834  0.812028  1
  Tm  Tm9  1  0.812191  0.812028  0.187834  1
  Tm  Tm10  1  0.938344  0.561656  0.561656  1
  Tm  Tm11  1  0.561642  0.938358  0.938358  1
  Tm  Tm12  1  0.561575  0.938321  0.561726  1
  Tm  Tm13  1  0.938378  0.561726  0.938321  1
  Tm  Tm14  1  0.561575  0.561726  0.938321  1
  Tm  Tm15  1  0.938378  0.938321  0.561726  1
  Co  Co16  1  0.141591  0.141598  0.141598  1
  Co  Co17  1  0.141555  0.141601  0.575290  1
  Co  Co18  1  0.141555  0.575290  0.141601  1
  Co  Co19  1  0.575212  0.141598  0.141598  1
  Hg  Hg20  1  0.583989  0.583990  0.583990  1
  Hg  Hg21  1  0.583959  0.584063  0.248018  1
  Hg  Hg22  1  0.583959  0.248018  0.584063  1
  Hg  Hg23  1  0.248031  0.583990  0.583990  1
