# generated using pymatgen
data_Dy12Si8Os3Rh5
_symmetry_space_group_name_H-M   'P 1'
_cell_length_a   5.59834043
_cell_length_b   7.80256282
_cell_length_c   13.11961411
_cell_angle_alpha   89.99003638
_cell_angle_beta   90.01222791
_cell_angle_gamma   89.86392506
_symmetry_Int_Tables_number   1
_chemical_formula_structural   Dy12Si8Os3Rh5
_chemical_formula_sum   'Dy12 Si8 Os3 Rh5'
_cell_volume   573.08151104
_cell_formula_units_Z   1
loop_
 _symmetry_equiv_pos_site_id
 _symmetry_equiv_pos_as_xyz
  1  'x, y, z'
loop_
 _atom_site_type_symbol
 _atom_site_label
 _atom_site_symmetry_multiplicity
 _atom_site_fract_x
 _atom_site_fract_y
 _atom_site_fract_z
 _atom_site_occupancy
  Dy  Dy0  1  0.141938  0.601792  0.103883  1
  Dy  Dy1  1  0.142239  0.896837  0.896550  1
  Dy  Dy2  1  0.858514  0.101779  0.396031  1
  Dy  Dy3  1  0.857761  0.394156  0.603259  1
  Dy  Dy4  1  0.861599  0.390796  0.898193  1
  Dy  Dy5  1  0.861226  0.109874  0.101821  1
  Dy  Dy6  1  0.135578  0.892076  0.601500  1
  Dy  Dy7  1  0.141350  0.607850  0.396784  1
  Dy  Dy8  1  0.373184  0.246148  0.250291  1
  Dy  Dy9  1  0.372333  0.250351  0.751229  1
  Dy  Dy10  1  0.626263  0.747722  0.248777  1
  Dy  Dy11  1  0.627133  0.755466  0.750781  1
  Si  Si12  1  0.858820  0.395504  0.250586  1
  Si  Si13  1  0.860802  0.105384  0.750643  1
  Si  Si14  1  0.138714  0.894647  0.250336  1
  Si  Si15  1  0.137058  0.606847  0.748994  1
  Si  Si16  1  0.407863  0.250622  0.999899  1
  Si  Si17  1  0.598688  0.752483  0.499922  1
  Si  Si18  1  0.605543  0.749744  0.999799  1
  Si  Si19  1  0.394176  0.249354  0.497676  1
  Os  Os20  1  0.647572  0.478478  0.089934  1
  Os  Os21  1  0.648239  0.021858  0.910268  1
  Os  Os22  1  0.350825  0.974918  0.411296  1
  Rh  Rh23  1  0.353015  0.520200  0.590349  1
  Rh  Rh24  1  0.353164  0.526161  0.907470  1
  Rh  Rh25  1  0.351630  0.973623  0.090809  1
  Rh  Rh26  1  0.645189  0.028734  0.591399  1
  Rh  Rh27  1  0.649583  0.476595  0.411519  1
