# generated using pymatgen
data_Tm4Sc15Si16W
_symmetry_space_group_name_H-M   'P 1'
_cell_length_a   6.92738524
_cell_length_b   7.24815764
_cell_length_c   13.70546295
_cell_angle_alpha   89.96845157
_cell_angle_beta   89.88046282
_cell_angle_gamma   89.72695747
_symmetry_Int_Tables_number   1
_chemical_formula_structural   Tm4Sc15Si16W
_chemical_formula_sum   'Tm4 Sc15 Si16 W1'
_cell_volume   688.15257629
_cell_formula_units_Z   1
loop_
 _symmetry_equiv_pos_site_id
 _symmetry_equiv_pos_as_xyz
  1  'x, y, z'
loop_
 _atom_site_type_symbol
 _atom_site_label
 _atom_site_symmetry_multiplicity
 _atom_site_fract_x
 _atom_site_fract_y
 _atom_site_fract_z
 _atom_site_occupancy
  Tm  Tm0  1  0.994682  0.681108  0.599862  1
  Tm  Tm1  1  0.011388  0.322544  0.406999  1
  Tm  Tm2  1  0.509017  0.175835  0.408306  1
  Tm  Tm3  1  0.011456  0.322466  0.090244  1
  Sc  Sc4  1  0.839650  0.004919  0.248137  1
  Sc  Sc5  1  0.339748  0.495923  0.248921  1
  Sc  Sc6  1  0.658629  0.509488  0.751444  1
  Sc  Sc7  1  0.485459  0.822956  0.600758  1
  Sc  Sc8  1  0.993354  0.686214  0.898299  1
  Sc  Sc9  1  0.486433  0.823464  0.902092  1
  Sc  Sc10  1  0.513205  0.179966  0.094065  1
  Sc  Sc11  1  0.330335  0.321052  0.629841  1
  Sc  Sc12  1  0.668623  0.678362  0.374721  1
  Sc  Sc13  1  0.171665  0.826375  0.376682  1
  Sc  Sc14  1  0.669053  0.677446  0.124270  1
  Sc  Sc15  1  0.827482  0.169501  0.629378  1
  Sc  Sc16  1  0.330264  0.319377  0.873217  1
  Sc  Sc17  1  0.825414  0.169541  0.871901  1
  Sc  Sc18  1  0.171871  0.826596  0.120391  1
  Si  Si19  1  0.031232  0.384120  0.751681  1
  Si  Si20  1  0.969404  0.612518  0.249067  1
  Si  Si21  1  0.467539  0.891541  0.248309  1
  Si  Si22  1  0.519561  0.092131  0.750882  1
  Si  Si23  1  0.285947  0.646623  0.752576  1
  Si  Si24  1  0.714488  0.367433  0.247983  1
  Si  Si25  1  0.216104  0.132635  0.247637  1
  Si  Si26  1  0.792057  0.865912  0.751976  1
  Si  Si27  1  0.163545  0.030909  0.548829  1
  Si  Si28  1  0.841666  0.964333  0.464384  1
  Si  Si29  1  0.343241  0.538649  0.465655  1
  Si  Si30  1  0.836270  0.964041  0.034962  1
  Si  Si31  1  0.659536  0.469007  0.540955  1
  Si  Si32  1  0.158301  0.025335  0.949480  1
  Si  Si33  1  0.663920  0.468809  0.959716  1
  Si  Si34  1  0.346005  0.534731  0.035344  1
  W  W35  1  0.153452  0.998141  0.751036  1
