# generated using pymatgen
data_Ce2Dy3Y3(Si3Pt)4
_symmetry_space_group_name_H-M   'P 1'
_cell_length_a   8.12882700
_cell_length_b   8.12882789
_cell_length_c   8.23595300
_cell_angle_alpha   90.00000000
_cell_angle_beta   90.00000000
_cell_angle_gamma   119.99999231
_symmetry_Int_Tables_number   1
_chemical_formula_structural   Ce2Dy3Y3(Si3Pt)4
_chemical_formula_sum   'Ce2 Dy3 Y3 Si12 Pt4'
_cell_volume   471.30314102
_cell_formula_units_Z   1
loop_
 _symmetry_equiv_pos_site_id
 _symmetry_equiv_pos_as_xyz
  1  'x, y, z'
loop_
 _atom_site_type_symbol
 _atom_site_label
 _atom_site_symmetry_multiplicity
 _atom_site_fract_x
 _atom_site_fract_y
 _atom_site_fract_z
 _atom_site_occupancy
  Ce  Ce0  1  0.000000  0.000000  0.250000  1
  Ce  Ce1  1  0.000000  0.000000  0.750000  1
  Dy  Dy2  1  0.499377  0.500623  0.750000  1
  Dy  Dy3  1  0.499377  0.998753  0.750000  1
  Dy  Dy4  1  0.001247  0.500623  0.750000  1
  Y  Y5  1  0.500469  0.499531  0.250000  1
  Y  Y6  1  0.500469  0.000939  0.250000  1
  Y  Y7  1  0.999061  0.499531  0.250000  1
  Si  Si8  1  0.165555  0.834445  0.500322  1
  Si  Si9  1  0.165555  0.331110  0.500322  1
  Si  Si10  1  0.668890  0.834445  0.500322  1
  Si  Si11  1  0.834461  0.165539  0.500773  1
  Si  Si12  1  0.834461  0.668920  0.500773  1
  Si  Si13  1  0.331080  0.165539  0.500773  1
  Si  Si14  1  0.834461  0.165539  0.999227  1
  Si  Si15  1  0.834461  0.668920  0.999227  1
  Si  Si16  1  0.331080  0.165539  0.999227  1
  Si  Si17  1  0.165555  0.834445  0.999678  1
  Si  Si18  1  0.165555  0.331110  0.999678  1
  Si  Si19  1  0.668890  0.834445  0.999678  1
  Pt  Pt20  1  0.333333  0.666667  0.500236  1
  Pt  Pt21  1  0.666667  0.333333  0.502198  1
  Pt  Pt22  1  0.666667  0.333333  0.997802  1
  Pt  Pt23  1  0.333333  0.666667  0.999764  1
