# generated using pymatgen
data_CsK3GeSe4
_symmetry_space_group_name_H-M   'P 1'
_cell_length_a   8.30057100
_cell_length_b   10.30668200
_cell_length_c   15.62717200
_cell_angle_alpha   90.00000000
_cell_angle_beta   90.00000000
_cell_angle_gamma   90.00000000
_symmetry_Int_Tables_number   1
_chemical_formula_structural   CsK3GeSe4
_chemical_formula_sum   'Cs4 K12 Ge4 Se16'
_cell_volume   1336.92559433
_cell_formula_units_Z   4
loop_
 _symmetry_equiv_pos_site_id
 _symmetry_equiv_pos_as_xyz
  1  'x, y, z'
loop_
 _atom_site_type_symbol
 _atom_site_label
 _atom_site_symmetry_multiplicity
 _atom_site_fract_x
 _atom_site_fract_y
 _atom_site_fract_z
 _atom_site_occupancy
  Cs  Cs0  1  0.000000  0.000000  0.000000  1
  Cs  Cs1  1  0.500000  0.000000  0.500000  1
  Cs  Cs2  1  0.000000  0.500000  0.000000  1
  Cs  Cs3  1  0.500000  0.500000  0.500000  1
  K  K4  1  0.970015  0.750000  0.425784  1
  K  K5  1  0.470015  0.250000  0.074216  1
  K  K6  1  0.029985  0.250000  0.574216  1
  K  K7  1  0.529985  0.750000  0.925784  1
  K  K8  1  0.825580  0.046396  0.264342  1
  K  K9  1  0.325580  0.953604  0.235658  1
  K  K10  1  0.174420  0.546396  0.735658  1
  K  K11  1  0.674420  0.453604  0.764342  1
  K  K12  1  0.174420  0.953604  0.735658  1
  K  K13  1  0.674420  0.046396  0.764342  1
  K  K14  1  0.825580  0.453604  0.264342  1
  K  K15  1  0.325580  0.546396  0.235658  1
  Ge  Ge16  1  0.785916  0.750000  0.670910  1
  Ge  Ge17  1  0.214084  0.250000  0.329090  1
  Ge  Ge18  1  0.714084  0.750000  0.170910  1
  Ge  Ge19  1  0.285916  0.250000  0.829090  1
  Se  Se20  1  0.995945  0.250000  0.819648  1
  Se  Se21  1  0.504055  0.250000  0.319648  1
  Se  Se22  1  0.495945  0.750000  0.680352  1
  Se  Se23  1  0.004055  0.750000  0.180352  1
  Se  Se24  1  0.617670  0.564301  0.095300  1
  Se  Se25  1  0.117670  0.435699  0.404700  1
  Se  Se26  1  0.382330  0.064301  0.904700  1
  Se  Se27  1  0.882330  0.935699  0.595300  1
  Se  Se28  1  0.382330  0.435699  0.904700  1
  Se  Se29  1  0.882330  0.564301  0.595300  1
  Se  Se30  1  0.617670  0.935699  0.095300  1
  Se  Se31  1  0.117670  0.064301  0.404700  1
  Se  Se32  1  0.612076  0.750000  0.316955  1
  Se  Se33  1  0.112076  0.250000  0.183045  1
  Se  Se34  1  0.387924  0.250000  0.683045  1
  Se  Se35  1  0.887924  0.750000  0.816955  1
