# generated using pymatgen
data_Nd6Ho10Cd4TcPd3
_symmetry_space_group_name_H-M   'P 1'
_cell_length_a   9.80247358
_cell_length_b   9.80247295
_cell_length_c   9.80247441
_cell_angle_alpha   59.37032459
_cell_angle_beta   59.37032761
_cell_angle_gamma   59.37032870
_symmetry_Int_Tables_number   1
_chemical_formula_structural   Nd6Ho10Cd4TcPd3
_chemical_formula_sum   'Nd6 Ho10 Cd4 Tc1 Pd3'
_cell_volume   656.48204916
_cell_formula_units_Z   1
loop_
 _symmetry_equiv_pos_site_id
 _symmetry_equiv_pos_as_xyz
  1  'x, y, z'
loop_
 _atom_site_type_symbol
 _atom_site_label
 _atom_site_symmetry_multiplicity
 _atom_site_fract_x
 _atom_site_fract_y
 _atom_site_fract_z
 _atom_site_occupancy
  Nd  Nd0  1  0.936290  0.562883  0.562883  1
  Nd  Nd1  1  0.554502  0.939687  0.939687  1
  Nd  Nd2  1  0.562883  0.936290  0.562883  1
  Nd  Nd3  1  0.939687  0.554502  0.939687  1
  Nd  Nd4  1  0.562883  0.562883  0.936290  1
  Nd  Nd5  1  0.939687  0.939687  0.554502  1
  Ho  Ho6  1  0.352955  0.352955  0.352955  1
  Ho  Ho7  1  0.348879  0.348879  0.950991  1
  Ho  Ho8  1  0.348879  0.950991  0.348879  1
  Ho  Ho9  1  0.950991  0.348879  0.348879  1
  Ho  Ho10  1  0.819315  0.185451  0.185451  1
  Ho  Ho11  1  0.185482  0.811938  0.811938  1
  Ho  Ho12  1  0.185451  0.819315  0.185451  1
  Ho  Ho13  1  0.811938  0.185482  0.811938  1
  Ho  Ho14  1  0.185451  0.185451  0.819315  1
  Ho  Ho15  1  0.811938  0.811938  0.185482  1
  Cd  Cd16  1  0.578956  0.578956  0.578956  1
  Cd  Cd17  1  0.579447  0.579447  0.259892  1
  Cd  Cd18  1  0.579447  0.259892  0.579447  1
  Cd  Cd19  1  0.259892  0.579447  0.579447  1
  Tc  Tc20  1  0.143935  0.143935  0.143935  1
  Pd  Pd21  1  0.144777  0.144777  0.571561  1
  Pd  Pd22  1  0.144777  0.571561  0.144777  1
  Pd  Pd23  1  0.571561  0.144777  0.144777  1
