# generated using pymatgen
data_Hf6ZrTc12W5
_symmetry_space_group_name_H-M   'P 1'
_cell_length_a   4.51296500
_cell_length_b   6.41591300
_cell_length_c   13.66015500
_cell_angle_alpha   90.00000000
_cell_angle_beta   90.00001689
_cell_angle_gamma   90.00000000
_symmetry_Int_Tables_number   1
_chemical_formula_structural   Hf6ZrTc12W5
_chemical_formula_sum   'Hf6 Zr1 Tc12 W5'
_cell_volume   395.52693049
_cell_formula_units_Z   1
loop_
 _symmetry_equiv_pos_site_id
 _symmetry_equiv_pos_as_xyz
  1  'x, y, z'
loop_
 _atom_site_type_symbol
 _atom_site_label
 _atom_site_symmetry_multiplicity
 _atom_site_fract_x
 _atom_site_fract_y
 _atom_site_fract_z
 _atom_site_occupancy
  Hf  Hf0  1  0.000000  0.500000  0.000000  1
  Hf  Hf1  1  0.499995  0.000000  0.168313  1
  Hf  Hf2  1  0.999996  0.500000  0.333997  1
  Hf  Hf3  1  0.500001  0.000000  0.500000  1
  Hf  Hf4  1  0.000004  0.500000  0.666002  1
  Hf  Hf5  1  0.500006  0.000000  0.831686  1
  Zr  Zr6  1  0.000000  0.000000  0.000000  1
  Tc  Tc7  1  0.500000  0.257753  0.000000  1
  Tc  Tc8  1  0.500000  0.742248  0.000000  1
  Tc  Tc9  1  0.999994  0.253315  0.171579  1
  Tc  Tc10  1  0.999994  0.746685  0.171579  1
  Tc  Tc11  1  0.499994  0.249833  0.335053  1
  Tc  Tc12  1  0.499994  0.750166  0.335053  1
  Tc  Tc13  1  0.000000  0.250135  0.500000  1
  Tc  Tc14  1  0.000000  0.749866  0.500000  1
  Tc  Tc15  1  0.500008  0.249833  0.664947  1
  Tc  Tc16  1  0.500008  0.750166  0.664947  1
  Tc  Tc17  1  0.000006  0.253315  0.828421  1
  Tc  Tc18  1  0.000006  0.746685  0.828421  1
  W  W19  1  0.499993  0.500000  0.166362  1
  W  W20  1  0.999995  0.000000  0.334333  1
  W  W21  1  0.500001  0.500000  0.500000  1
  W  W22  1  0.000005  0.000000  0.665666  1
  W  W23  1  0.500006  0.500000  0.833638  1
