# generated using pymatgen
data_Tm3Hf(Si3Ni5)4
_symmetry_space_group_name_H-M   'P 1'
_cell_length_a   3.74951900
_cell_length_b   18.56570252
_cell_length_c   6.61631818
_cell_angle_alpha   89.97321497
_cell_angle_beta   90.00000000
_cell_angle_gamma   90.00000000
_symmetry_Int_Tables_number   1
_chemical_formula_structural   Tm3Hf(Si3Ni5)4
_chemical_formula_sum   'Tm3 Hf1 Si12 Ni20'
_cell_volume   460.57809666
_cell_formula_units_Z   1
loop_
 _symmetry_equiv_pos_site_id
 _symmetry_equiv_pos_as_xyz
  1  'x, y, z'
loop_
 _atom_site_type_symbol
 _atom_site_label
 _atom_site_symmetry_multiplicity
 _atom_site_fract_x
 _atom_site_fract_y
 _atom_site_fract_z
 _atom_site_occupancy
  Tm  Tm0  1  0.250000  0.357479  0.876123  1
  Tm  Tm1  1  0.250000  0.855680  0.622940  1
  Tm  Tm2  1  0.750000  0.143576  0.377171  1
  Hf  Hf3  1  0.750000  0.643849  0.121462  1
  Si  Si4  1  0.750000  0.737021  0.622412  1
  Si  Si5  1  0.250000  0.262286  0.378478  1
  Si  Si6  1  0.250000  0.759370  0.122484  1
  Si  Si7  1  0.750000  0.238643  0.877245  1
  Si  Si8  1  0.750000  0.923704  0.344562  1
  Si  Si9  1  0.250000  0.074384  0.654527  1
  Si  Si10  1  0.250000  0.576589  0.854502  1
  Si  Si11  1  0.750000  0.425165  0.154336  1
  Si  Si12  1  0.750000  0.912697  0.916625  1
  Si  Si13  1  0.250000  0.085839  0.083368  1
  Si  Si14  1  0.250000  0.587549  0.405124  1
  Si  Si15  1  0.750000  0.416711  0.584620  1
  Ni  Ni16  1  0.750000  0.798523  0.316445  1
  Ni  Ni17  1  0.250000  0.199413  0.684073  1
  Ni  Ni18  1  0.250000  0.698421  0.820903  1
  Ni  Ni19  1  0.750000  0.300691  0.183789  1
  Ni  Ni20  1  0.750000  0.992862  0.632723  1
  Ni  Ni21  1  0.250000  0.005324  0.366502  1
  Ni  Ni22  1  0.250000  0.506225  0.132868  1
  Ni  Ni23  1  0.750000  0.495681  0.869704  1
  Ni  Ni24  1  0.750000  0.517138  0.378152  1
  Ni  Ni25  1  0.250000  0.488977  0.615982  1
  Ni  Ni26  1  0.250000  0.984348  0.883780  1
  Ni  Ni27  1  0.750000  0.014463  0.116981  1
  Ni  Ni28  1  0.750000  0.791660  0.931083  1
  Ni  Ni29  1  0.250000  0.206472  0.069720  1
  Ni  Ni30  1  0.250000  0.705929  0.428793  1
  Ni  Ni31  1  0.750000  0.295128  0.569690  1
  Ni  Ni32  1  0.750000  0.614238  0.647178  1
  Ni  Ni33  1  0.250000  0.385859  0.357037  1
  Ni  Ni34  1  0.250000  0.883118  0.142969  1
  Ni  Ni35  1  0.750000  0.114987  0.855649  1
