# generated using pymatgen
data_PrLu(NbS2)8
_symmetry_space_group_name_H-M   'P 1'
_cell_length_a   6.69334200
_cell_length_b   6.69334319
_cell_length_c   13.94151500
_cell_angle_alpha   90.00000000
_cell_angle_beta   90.00000000
_cell_angle_gamma   120.00000402
_symmetry_Int_Tables_number   1
_chemical_formula_structural   PrLu(NbS2)8
_chemical_formula_sum   'Pr1 Lu1 Nb8 S16'
_cell_volume   540.91209624
_cell_formula_units_Z   1
loop_
 _symmetry_equiv_pos_site_id
 _symmetry_equiv_pos_as_xyz
  1  'x, y, z'
loop_
 _atom_site_type_symbol
 _atom_site_label
 _atom_site_symmetry_multiplicity
 _atom_site_fract_x
 _atom_site_fract_y
 _atom_site_fract_z
 _atom_site_occupancy
  Pr  Pr0  1  0.000000  0.000000  0.000000  1
  Lu  Lu1  1  0.000000  0.000000  0.500000  1
  Nb  Nb2  1  0.000000  0.000000  0.259667  1
  Nb  Nb3  1  0.000000  0.000000  0.740333  1
  Nb  Nb4  1  0.504515  0.009030  0.261066  1
  Nb  Nb5  1  0.495485  0.990970  0.738934  1
  Nb  Nb6  1  0.990970  0.495485  0.261066  1
  Nb  Nb7  1  0.009030  0.504515  0.738934  1
  Nb  Nb8  1  0.504515  0.495485  0.261066  1
  Nb  Nb9  1  0.495485  0.504515  0.738934  1
  S  S10  1  0.333333  0.666667  0.623844  1
  S  S11  1  0.666667  0.333333  0.376156  1
  S  S12  1  0.666667  0.333333  0.145948  1
  S  S13  1  0.333333  0.666667  0.854052  1
  S  S14  1  0.169319  0.338637  0.148011  1
  S  S15  1  0.830681  0.661363  0.851989  1
  S  S16  1  0.661363  0.830681  0.148011  1
  S  S17  1  0.831310  0.662619  0.626656  1
  S  S18  1  0.338637  0.169319  0.851989  1
  S  S19  1  0.168690  0.337381  0.373344  1
  S  S20  1  0.169319  0.830681  0.148011  1
  S  S21  1  0.337381  0.168690  0.626656  1
  S  S22  1  0.830681  0.169319  0.851989  1
  S  S23  1  0.662619  0.831310  0.373344  1
  S  S24  1  0.831310  0.168690  0.626656  1
  S  S25  1  0.168690  0.831310  0.373344  1
