# generated using pymatgen
data_Lu(Zn2Ag)4
_symmetry_space_group_name_H-M   'P 1'
_cell_length_a   6.95348831
_cell_length_b   6.95348858
_cell_length_c   6.95348790
_cell_angle_alpha   97.93279754
_cell_angle_beta   97.93279579
_cell_angle_gamma   136.38381243
_symmetry_Int_Tables_number   1
_chemical_formula_structural   Lu(Zn2Ag)4
_chemical_formula_sum   'Lu1 Zn8 Ag4'
_cell_volume   215.32640300
_cell_formula_units_Z   1
loop_
 _symmetry_equiv_pos_site_id
 _symmetry_equiv_pos_as_xyz
  1  'x, y, z'
loop_
 _atom_site_type_symbol
 _atom_site_label
 _atom_site_symmetry_multiplicity
 _atom_site_fract_x
 _atom_site_fract_y
 _atom_site_fract_z
 _atom_site_occupancy
  Lu  Lu0  1  0.000000  0.000000  0.000000  1
  Zn  Zn1  1  0.000000  0.000000  0.500000  1
  Zn  Zn2  1  0.500000  0.500000  0.500000  1
  Zn  Zn3  1  0.500000  0.000000  0.000000  1
  Zn  Zn4  1  0.000000  0.500000  0.000000  1
  Zn  Zn5  1  0.500000  0.288676  0.788676  1
  Zn  Zn6  1  0.500000  0.711324  0.211324  1
  Zn  Zn7  1  0.711324  0.500000  0.211324  1
  Zn  Zn8  1  0.288676  0.500000  0.788676  1
  Ag  Ag9  1  0.000000  0.343512  0.343512  1
  Ag  Ag10  1  0.000000  0.656488  0.656488  1
  Ag  Ag11  1  0.656488  0.000000  0.656488  1
  Ag  Ag12  1  0.343512  0.000000  0.343512  1
