# generated using pymatgen
data_Dy4LuSc3Ru4
_symmetry_space_group_name_H-M   'P 1'
_cell_length_a   4.19799400
_cell_length_b   7.35009431
_cell_length_c   8.61355392
_cell_angle_alpha   90.66632458
_cell_angle_beta   90.00000000
_cell_angle_gamma   90.00000000
_symmetry_Int_Tables_number   1
_chemical_formula_structural   Dy4LuSc3Ru4
_chemical_formula_sum   'Dy4 Lu1 Sc3 Ru4'
_cell_volume   265.75884810
_cell_formula_units_Z   1
loop_
 _symmetry_equiv_pos_site_id
 _symmetry_equiv_pos_as_xyz
  1  'x, y, z'
loop_
 _atom_site_type_symbol
 _atom_site_label
 _atom_site_symmetry_multiplicity
 _atom_site_fract_x
 _atom_site_fract_y
 _atom_site_fract_z
 _atom_site_occupancy
  Dy  Dy0  1  0.250000  0.969244  0.333688  1
  Dy  Dy1  1  0.250000  0.484367  0.172341  1
  Dy  Dy2  1  0.750000  0.028703  0.672604  1
  Dy  Dy3  1  0.750000  0.524171  0.825097  1
  Lu  Lu4  1  0.750000  0.146538  0.065042  1
  Sc  Sc5  1  0.250000  0.357975  0.559291  1
  Sc  Sc6  1  0.250000  0.854674  0.936784  1
  Sc  Sc7  1  0.750000  0.640218  0.441879  1
  Ru  Ru8  1  0.250000  0.231365  0.870669  1
  Ru  Ru9  1  0.250000  0.733835  0.619251  1
  Ru  Ru10  1  0.750000  0.762609  0.119059  1
  Ru  Ru11  1  0.750000  0.266301  0.384296  1
