# generated using pymatgen
data_Tm6PuO12
_symmetry_space_group_name_H-M   'P 1'
_cell_length_a   6.45593718
_cell_length_b   6.45593623
_cell_length_c   6.45593723
_cell_angle_alpha   98.87309144
_cell_angle_beta   98.87308518
_cell_angle_gamma   98.87307918
_symmetry_Int_Tables_number   1
_chemical_formula_structural   Tm6PuO12
_chemical_formula_sum   'Tm6 Pu1 O12'
_cell_volume   258.27046257
_cell_formula_units_Z   1
loop_
 _symmetry_equiv_pos_site_id
 _symmetry_equiv_pos_as_xyz
  1  'x, y, z'
loop_
 _atom_site_type_symbol
 _atom_site_label
 _atom_site_symmetry_multiplicity
 _atom_site_fract_x
 _atom_site_fract_y
 _atom_site_fract_z
 _atom_site_occupancy
  Tm  Tm0  1  0.854268  0.388794  0.677338  1
  Tm  Tm1  1  0.611206  0.322662  0.145732  1
  Tm  Tm2  1  0.322662  0.145732  0.611206  1
  Tm  Tm3  1  0.677338  0.854268  0.388794  1
  Tm  Tm4  1  0.388794  0.677338  0.854268  1
  Tm  Tm5  1  0.145732  0.611206  0.322662  1
  Pu  Pu6  1  0.000000  0.000000  0.000000  1
  O  O7  1  0.920430  0.044774  0.689270  1
  O  O8  1  0.955226  0.310730  0.079570  1
  O  O9  1  0.588731  0.177757  0.427955  1
  O  O10  1  0.822243  0.572045  0.411269  1
  O  O11  1  0.310730  0.079570  0.955226  1
  O  O12  1  0.572045  0.411269  0.822243  1
  O  O13  1  0.427955  0.588731  0.177757  1
  O  O14  1  0.689270  0.920430  0.044774  1
  O  O15  1  0.177757  0.427955  0.588731  1
  O  O16  1  0.411269  0.822243  0.572045  1
  O  O17  1  0.044774  0.689270  0.920430  1
  O  O18  1  0.079570  0.955226  0.310730  1
