# generated using pymatgen
data_HoUTe5As
_symmetry_space_group_name_H-M   'P 1'
_cell_length_a   12.97675458
_cell_length_b   12.97675434
_cell_length_c   4.10383400
_cell_angle_alpha   90.00000000
_cell_angle_beta   90.00000000
_cell_angle_gamma   160.42331032
_symmetry_Int_Tables_number   1
_chemical_formula_structural   HoUTe5As
_chemical_formula_sum   'Ho1 U1 Te5 As1'
_cell_volume   231.55558899
_cell_formula_units_Z   1
loop_
 _symmetry_equiv_pos_site_id
 _symmetry_equiv_pos_as_xyz
  1  'x, y, z'
loop_
 _atom_site_type_symbol
 _atom_site_label
 _atom_site_symmetry_multiplicity
 _atom_site_fract_x
 _atom_site_fract_y
 _atom_site_fract_z
 _atom_site_occupancy
  Ho  Ho0  1  0.168811  0.831189  0.500000  1
  U  U1  1  0.836705  0.163295  0.000000  1
  Te  Te2  1  0.571096  0.428904  0.500000  1
  Te  Te3  1  0.709540  0.290460  0.000000  1
  Te  Te4  1  0.297371  0.702629  0.500000  1
  Te  Te5  1  0.070636  0.929364  0.000000  1
  Te  Te6  1  0.928611  0.071389  0.500000  1
  As  As7  1  0.417229  0.582771  0.000000  1
