# generated using pymatgen
data_Tb2Ho6Al3Si8Ge
_symmetry_space_group_name_H-M   'P 1'
_cell_length_a   5.58729279
_cell_length_b   5.58729285
_cell_length_c   19.46533702
_cell_angle_alpha   82.26150642
_cell_angle_beta   82.26150557
_cell_angle_gamma   42.49121771
_symmetry_Int_Tables_number   1
_chemical_formula_structural   Tb2Ho6Al3Si8Ge
_chemical_formula_sum   'Tb2 Ho6 Al3 Si8 Ge1'
_cell_volume   406.15822858
_cell_formula_units_Z   1
loop_
 _symmetry_equiv_pos_site_id
 _symmetry_equiv_pos_as_xyz
  1  'x, y, z'
loop_
 _atom_site_type_symbol
 _atom_site_label
 _atom_site_symmetry_multiplicity
 _atom_site_fract_x
 _atom_site_fract_y
 _atom_site_fract_z
 _atom_site_occupancy
  Tb  Tb0  1  0.462340  0.462340  0.676463  1
  Tb  Tb1  1  0.702805  0.702805  0.928830  1
  Ho  Ho2  1  0.974075  0.974075  0.179282  1
  Ho  Ho3  1  0.216982  0.216982  0.427990  1
  Ho  Ho4  1  0.783074  0.783074  0.571752  1
  Ho  Ho5  1  0.025851  0.025851  0.820728  1
  Ho  Ho6  1  0.297028  0.297028  0.071542  1
  Ho  Ho7  1  0.537672  0.537672  0.323510  1
  Al  Al8  1  0.254934  0.254934  0.252395  1
  Al  Al9  1  0.500119  0.500119  0.499907  1
  Al  Al10  1  0.744860  0.744860  0.747679  1
  Si  Si11  1  0.172573  0.172573  0.676145  1
  Si  Si12  1  0.415760  0.415760  0.922973  1
  Si  Si13  1  0.687436  0.687436  0.180137  1
  Si  Si14  1  0.928234  0.928234  0.427897  1
  Si  Si15  1  0.072187  0.072187  0.571770  1
  Si  Si16  1  0.312696  0.312696  0.819899  1
  Si  Si17  1  0.584162  0.584162  0.077286  1
  Si  Si18  1  0.827663  0.827663  0.323717  1
  Ge  Ge19  1  0.999547  0.999547  0.000099  1
