# generated using pymatgen
data_LiTb16Cd3IrPt3
_symmetry_space_group_name_H-M   'P 1'
_cell_length_a   9.74824742
_cell_length_b   9.71802526
_cell_length_c   9.71802543
_cell_angle_alpha   59.89776494
_cell_angle_beta   60.09112017
_cell_angle_gamma   60.09112868
_symmetry_Int_Tables_number   1
_chemical_formula_structural   LiTb16Cd3IrPt3
_chemical_formula_sum   'Li1 Tb16 Cd3 Ir1 Pt3'
_cell_volume   651.36858051
_cell_formula_units_Z   1
loop_
 _symmetry_equiv_pos_site_id
 _symmetry_equiv_pos_as_xyz
  1  'x, y, z'
loop_
 _atom_site_type_symbol
 _atom_site_label
 _atom_site_symmetry_multiplicity
 _atom_site_fract_x
 _atom_site_fract_y
 _atom_site_fract_z
 _atom_site_occupancy
  Li  Li0  1  0.821317  0.821253  0.821253  1
  Tb  Tb1  1  0.603441  0.599615  0.599615  1
  Tb  Tb2  1  0.603199  0.598602  0.200796  1
  Tb  Tb3  1  0.603199  0.200796  0.598602  1
  Tb  Tb4  1  0.194309  0.602746  0.602746  1
  Tb  Tb5  1  0.056940  0.441367  0.441367  1
  Tb  Tb6  1  0.436899  0.061660  0.061660  1
  Tb  Tb7  1  0.443399  0.059146  0.441557  1
  Tb  Tb8  1  0.059995  0.435310  0.065393  1
  Tb  Tb9  1  0.443399  0.441557  0.059146  1
  Tb  Tb10  1  0.059995  0.065393  0.435310  1
  Tb  Tb11  1  0.187416  0.814326  0.814326  1
  Tb  Tb12  1  0.814207  0.186301  0.186301  1
  Tb  Tb13  1  0.815716  0.186737  0.812307  1
  Tb  Tb14  1  0.185955  0.813023  0.186057  1
  Tb  Tb15  1  0.815716  0.812307  0.186737  1
  Tb  Tb16  1  0.185955  0.186057  0.813023  1
  Cd  Cd17  1  0.832637  0.832861  0.503741  1
  Cd  Cd18  1  0.832637  0.503741  0.832861  1
  Cd  Cd19  1  0.504275  0.832645  0.832645  1
  Ir  Ir20  1  0.823277  0.393603  0.393603  1
  Pt  Pt21  1  0.392415  0.394566  0.394566  1
  Pt  Pt22  1  0.391853  0.394587  0.821805  1
  Pt  Pt23  1  0.391853  0.821805  0.394587  1
