# generated using pymatgen
data_Ho5Tm15(TlGa2)4
_symmetry_space_group_name_H-M   'P 1'
_cell_length_a   7.65658342
_cell_length_b   7.65748989
_cell_length_c   14.14906900
_cell_angle_alpha   90.08559028
_cell_angle_beta   90.07974854
_cell_angle_gamma   90.03385805
_symmetry_Int_Tables_number   1
_chemical_formula_structural   Ho5Tm15(TlGa2)4
_chemical_formula_sum   'Ho5 Tm15 Tl4 Ga8'
_cell_volume   829.56101327
_cell_formula_units_Z   1
loop_
 _symmetry_equiv_pos_site_id
 _symmetry_equiv_pos_as_xyz
  1  'x, y, z'
loop_
 _atom_site_type_symbol
 _atom_site_label
 _atom_site_symmetry_multiplicity
 _atom_site_fract_x
 _atom_site_fract_y
 _atom_site_fract_z
 _atom_site_occupancy
  Ho  Ho0  1  0.837888  0.832197  0.105750  1
  Ho  Ho1  1  0.338038  0.667777  0.394642  1
  Ho  Ho2  1  0.661998  0.667703  0.894123  1
  Ho  Ho3  1  0.838016  0.167745  0.605619  1
  Ho  Ho4  1  0.162290  0.168080  0.105631  1
  Tm  Tm5  1  0.000299  0.500069  0.753948  1
  Tm  Tm6  1  0.999782  0.499909  0.254459  1
  Tm  Tm7  1  0.500019  0.000094  0.246276  1
  Tm  Tm8  1  0.499671  0.000040  0.745782  1
  Tm  Tm9  1  0.667591  0.661906  0.606048  1
  Tm  Tm10  1  0.667326  0.337441  0.105977  1
  Tm  Tm11  1  0.832712  0.837785  0.394245  1
  Tm  Tm12  1  0.167917  0.837631  0.893721  1
  Tm  Tm13  1  0.332475  0.337508  0.606015  1
  Tm  Tm14  1  0.332512  0.661700  0.106091  1
  Tm  Tm15  1  0.167839  0.162140  0.394227  1
  Tm  Tm16  1  0.832343  0.162470  0.893558  1
  Tm  Tm17  1  0.661533  0.332579  0.393946  1
  Tm  Tm18  1  0.338268  0.332377  0.893551  1
  Tm  Tm19  1  0.161565  0.832593  0.606264  1
  Tl  Tl20  1  0.999892  0.500104  0.498411  1
  Tl  Tl21  1  0.000765  0.499378  0.997896  1
  Tl  Tl22  1  0.500014  0.000018  0.501777  1
  Tl  Tl23  1  0.499377  0.000699  0.001304  1
  Ga  Ga24  1  0.873931  0.873493  0.750296  1
  Ga  Ga25  1  0.873154  0.126873  0.250823  1
  Ga  Ga26  1  0.626682  0.626061  0.249705  1
  Ga  Ga27  1  0.372814  0.626492  0.749418  1
  Ga  Ga28  1  0.127077  0.126439  0.750424  1
  Ga  Ga29  1  0.126291  0.873792  0.250711  1
  Ga  Ga30  1  0.373943  0.373405  0.249748  1
  Ga  Ga31  1  0.625973  0.373504  0.749613  1
