# generated using pymatgen
data_Sc2CoH6
_symmetry_space_group_name_H-M   'P 1'
_cell_length_a   3.32116694
_cell_length_b   3.32047172
_cell_length_c   6.42073798
_cell_angle_alpha   75.02151789
_cell_angle_beta   105.00236517
_cell_angle_gamma   89.88166774
_symmetry_Int_Tables_number   1
_chemical_formula_structural   Sc2CoH6
_chemical_formula_sum   'Sc2 Co1 H6'
_cell_volume   65.88890168
_cell_formula_units_Z   1
loop_
 _symmetry_equiv_pos_site_id
 _symmetry_equiv_pos_as_xyz
  1  'x, y, z'
loop_
 _atom_site_type_symbol
 _atom_site_label
 _atom_site_symmetry_multiplicity
 _atom_site_fract_x
 _atom_site_fract_y
 _atom_site_fract_z
 _atom_site_occupancy
  Sc  Sc0  1  0.624552  0.565276  0.996841  1
  Sc  Sc1  1  0.907887  0.282208  0.565463  1
  Co  Co2  1  0.267617  0.921729  0.281327  1
  H  H3  1  0.015642  0.673952  0.780983  1
  H  H4  1  0.270689  0.421473  0.281676  1
  H  H5  1  0.516022  0.174566  0.780956  1
  H  H6  1  0.767732  0.916600  0.281410  1
  H  H7  1  0.133877  0.057122  0.017692  1
  H  H8  1  0.399158  0.791327  0.544871  1
