# generated using pymatgen
data_NaCd31O32
_symmetry_space_group_name_H-M   'P 1'
_cell_length_a   9.52813200
_cell_length_b   9.52813200
_cell_length_c   9.58867500
_cell_angle_alpha   90.00000000
_cell_angle_beta   90.00000000
_cell_angle_gamma   90.00000000
_symmetry_Int_Tables_number   1
_chemical_formula_structural   NaCd31O32
_chemical_formula_sum   'Na1 Cd31 O32'
_cell_volume   870.51073081
_cell_formula_units_Z   1
loop_
 _symmetry_equiv_pos_site_id
 _symmetry_equiv_pos_as_xyz
  1  'x, y, z'
loop_
 _atom_site_type_symbol
 _atom_site_label
 _atom_site_symmetry_multiplicity
 _atom_site_fract_x
 _atom_site_fract_y
 _atom_site_fract_z
 _atom_site_occupancy
  Na  Na0  1  0.000000  0.000000  0.500000  1
  Cd  Cd1  1  0.000000  0.500000  0.000000  1
  Cd  Cd2  1  0.000000  0.500000  0.500000  1
  Cd  Cd3  1  0.500000  0.000000  0.000000  1
  Cd  Cd4  1  0.500000  0.000000  0.500000  1
  Cd  Cd5  1  0.500000  0.500000  0.000000  1
  Cd  Cd6  1  0.500000  0.500000  0.500000  1
  Cd  Cd7  1  0.000000  0.248266  0.251870  1
  Cd  Cd8  1  0.000000  0.248266  0.748130  1
  Cd  Cd9  1  0.000000  0.751734  0.251870  1
  Cd  Cd10  1  0.000000  0.751734  0.748130  1
  Cd  Cd11  1  0.500000  0.249399  0.250501  1
  Cd  Cd12  1  0.500000  0.249399  0.749499  1
  Cd  Cd13  1  0.500000  0.750601  0.250501  1
  Cd  Cd14  1  0.500000  0.750601  0.749499  1
  Cd  Cd15  1  0.248266  0.000000  0.251870  1
  Cd  Cd16  1  0.248266  0.000000  0.748130  1
  Cd  Cd17  1  0.249399  0.500000  0.250501  1
  Cd  Cd18  1  0.249399  0.500000  0.749499  1
  Cd  Cd19  1  0.751734  0.000000  0.251870  1
  Cd  Cd20  1  0.751734  0.000000  0.748130  1
  Cd  Cd21  1  0.750601  0.500000  0.250501  1
  Cd  Cd22  1  0.750601  0.500000  0.749499  1
  Cd  Cd23  1  0.249498  0.249498  0.000000  1
  Cd  Cd24  1  0.248006  0.248006  0.500000  1
  Cd  Cd25  1  0.249498  0.750502  0.000000  1
  Cd  Cd26  1  0.248006  0.751994  0.500000  1
  Cd  Cd27  1  0.750502  0.249498  0.000000  1
  Cd  Cd28  1  0.751994  0.248006  0.500000  1
  Cd  Cd29  1  0.750502  0.750502  0.000000  1
  Cd  Cd30  1  0.751994  0.751994  0.500000  1
  Cd  Cd31  1  0.000000  0.000000  0.000000  1
  O  O32  1  0.252070  0.000000  0.000000  1
  O  O33  1  0.257069  0.000000  0.500000  1
  O  O34  1  0.250974  0.500000  0.000000  1
  O  O35  1  0.251955  0.500000  0.500000  1
  O  O36  1  0.747930  0.000000  0.000000  1
  O  O37  1  0.742931  0.000000  0.500000  1
  O  O38  1  0.749026  0.500000  0.000000  1
  O  O39  1  0.748045  0.500000  0.500000  1
  O  O40  1  0.250361  0.250361  0.249653  1
  O  O41  1  0.250361  0.250361  0.750347  1
  O  O42  1  0.250361  0.749639  0.249653  1
  O  O43  1  0.250361  0.749639  0.750347  1
  O  O44  1  0.749639  0.250361  0.249653  1
  O  O45  1  0.749639  0.250361  0.750347  1
  O  O46  1  0.749639  0.749639  0.249653  1
  O  O47  1  0.749639  0.749639  0.750347  1
  O  O48  1  0.000000  0.000000  0.242466  1
  O  O49  1  0.000000  0.000000  0.757534  1
  O  O50  1  0.000000  0.500000  0.248419  1
  O  O51  1  0.000000  0.500000  0.751581  1
  O  O52  1  0.500000  0.000000  0.248419  1
  O  O53  1  0.500000  0.000000  0.751581  1
  O  O54  1  0.500000  0.500000  0.249297  1
  O  O55  1  0.500000  0.500000  0.750703  1
  O  O56  1  0.000000  0.252070  0.000000  1
  O  O57  1  0.000000  0.257069  0.500000  1
  O  O58  1  0.000000  0.747930  0.000000  1
  O  O59  1  0.000000  0.742931  0.500000  1
  O  O60  1  0.500000  0.250974  0.000000  1
  O  O61  1  0.500000  0.251955  0.500000  1
  O  O62  1  0.500000  0.749026  0.000000  1
  O  O63  1  0.500000  0.748045  0.500000  1
