# generated using pymatgen
data_Hf5MnPt3Rh7
_symmetry_space_group_name_H-M   'P 1'
_cell_length_a   4.22665100
_cell_length_b   5.58436405
_cell_length_c   11.03012566
_cell_angle_alpha   86.93648882
_cell_angle_beta   90.00000000
_cell_angle_gamma   90.00000000
_symmetry_Int_Tables_number   1
_chemical_formula_structural   Hf5MnPt3Rh7
_chemical_formula_sum   'Hf5 Mn1 Pt3 Rh7'
_cell_volume   259.97373935
_cell_formula_units_Z   1
loop_
 _symmetry_equiv_pos_site_id
 _symmetry_equiv_pos_as_xyz
  1  'x, y, z'
loop_
 _atom_site_type_symbol
 _atom_site_label
 _atom_site_symmetry_multiplicity
 _atom_site_fract_x
 _atom_site_fract_y
 _atom_site_fract_z
 _atom_site_occupancy
  Hf  Hf0  1  0.500000  0.184129  0.638330  1
  Hf  Hf1  1  0.500000  0.815871  0.361670  1
  Hf  Hf2  1  0.500000  0.675229  0.854706  1
  Hf  Hf3  1  0.500000  0.324771  0.145294  1
  Hf  Hf4  1  0.000000  0.000000  0.000000  1
  Mn  Mn5  1  0.000000  0.500000  0.500000  1
  Pt  Pt6  1  0.000000  0.430708  0.742853  1
  Pt  Pt7  1  0.000000  0.569292  0.257147  1
  Pt  Pt8  1  0.000000  0.000000  0.500000  1
  Rh  Rh9  1  0.500000  0.192219  0.889849  1
  Rh  Rh10  1  0.500000  0.807781  0.110151  1
  Rh  Rh11  1  0.500000  0.698174  0.609018  1
  Rh  Rh12  1  0.500000  0.301826  0.390982  1
  Rh  Rh13  1  0.000000  0.500000  0.000000  1
  Rh  Rh14  1  0.000000  0.074262  0.245006  1
  Rh  Rh15  1  0.000000  0.925738  0.754994  1
