# generated using pymatgen
data_Er(Th2Co)3
_symmetry_space_group_name_H-M   'P 1'
_cell_length_a   9.77289700
_cell_length_b   9.77289705
_cell_length_c   6.13089800
_cell_angle_alpha   90.00000000
_cell_angle_beta   90.00000000
_cell_angle_gamma   119.99998966
_symmetry_Int_Tables_number   1
_chemical_formula_structural   Er(Th2Co)3
_chemical_formula_sum   'Er2 Th12 Co6'
_cell_volume   507.10911104
_cell_formula_units_Z   2
loop_
 _symmetry_equiv_pos_site_id
 _symmetry_equiv_pos_as_xyz
  1  'x, y, z'
loop_
 _atom_site_type_symbol
 _atom_site_label
 _atom_site_symmetry_multiplicity
 _atom_site_fract_x
 _atom_site_fract_y
 _atom_site_fract_z
 _atom_site_occupancy
  Er  Er0  1  0.333333  0.666667  0.055118  1
  Er  Er1  1  0.666667  0.333333  0.555118  1
  Th  Th2  1  0.126726  0.873274  0.236792  1
  Th  Th3  1  0.253452  0.126726  0.736792  1
  Th  Th4  1  0.873274  0.746548  0.736792  1
  Th  Th5  1  0.126726  0.253452  0.236792  1
  Th  Th6  1  0.746548  0.873274  0.236792  1
  Th  Th7  1  0.873274  0.126726  0.736792  1
  Th  Th8  1  0.542775  0.457225  0.064062  1
  Th  Th9  1  0.085549  0.542775  0.564062  1
  Th  Th10  1  0.457225  0.914451  0.564062  1
  Th  Th11  1  0.542775  0.085549  0.064062  1
  Th  Th12  1  0.914451  0.457225  0.064062  1
  Th  Th13  1  0.457225  0.542775  0.564062  1
  Co  Co14  1  0.818439  0.181561  0.290774  1
  Co  Co15  1  0.636878  0.818439  0.790774  1
  Co  Co16  1  0.181561  0.363122  0.790774  1
  Co  Co17  1  0.818439  0.636878  0.290774  1
  Co  Co18  1  0.363122  0.181561  0.290774  1
  Co  Co19  1  0.181561  0.818439  0.790774  1
