# generated using pymatgen
data_Ho13Er3In4NiRh3
_symmetry_space_group_name_H-M   'P 1'
_cell_length_a   9.59767709
_cell_length_b   9.59802774
_cell_length_c   9.57541354
_cell_angle_alpha   60.14904891
_cell_angle_beta   60.23556758
_cell_angle_gamma   60.09760800
_symmetry_Int_Tables_number   1
_chemical_formula_structural   Ho13Er3In4NiRh3
_chemical_formula_sum   'Ho13 Er3 In4 Ni1 Rh3'
_cell_volume   625.99038265
_cell_formula_units_Z   1
loop_
 _symmetry_equiv_pos_site_id
 _symmetry_equiv_pos_as_xyz
  1  'x, y, z'
loop_
 _atom_site_type_symbol
 _atom_site_label
 _atom_site_symmetry_multiplicity
 _atom_site_fract_x
 _atom_site_fract_y
 _atom_site_fract_z
 _atom_site_occupancy
  Ho  Ho0  1  0.187684  0.189994  0.810320  1
  Ho  Ho1  1  0.437913  0.061165  0.060789  1
  Ho  Ho2  1  0.436723  0.062246  0.436520  1
  Ho  Ho3  1  0.061481  0.437705  0.061253  1
  Ho  Ho4  1  0.648178  0.050464  0.648993  1
  Ho  Ho5  1  0.190137  0.811143  0.809674  1
  Ho  Ho6  1  0.059978  0.060101  0.438408  1
  Ho  Ho7  1  0.809664  0.190409  0.187865  1
  Ho  Ho8  1  0.809814  0.811373  0.190004  1
  Ho  Ho9  1  0.650257  0.647653  0.049615  1
  Ho  Ho10  1  0.655161  0.649793  0.654344  1
  Ho  Ho11  1  0.063911  0.437479  0.433632  1
  Ho  Ho12  1  0.049565  0.646936  0.650277  1
  Er  Er13  1  0.810328  0.192336  0.810770  1
  Er  Er14  1  0.434700  0.438867  0.062517  1
  Er  Er15  1  0.189912  0.810133  0.189683  1
  In  In16  1  0.418182  0.747342  0.418022  1
  In  In17  1  0.418660  0.417947  0.748102  1
  In  In18  1  0.747679  0.417932  0.418716  1
  In  In19  1  0.416020  0.416912  0.415820  1
  Ni  Ni20  1  0.859928  0.426627  0.861110  1
  Rh  Rh21  1  0.860332  0.858886  0.426146  1
  Rh  Rh22  1  0.426252  0.858132  0.860279  1
  Rh  Rh23  1  0.857545  0.858423  0.857141  1
