# generated using pymatgen
data_Hf3ZrIn2CoCu3
_symmetry_space_group_name_H-M   'P 1'
_cell_length_a   7.19472888
_cell_length_b   7.19472886
_cell_length_c   6.81357411
_cell_angle_alpha   90.07649933
_cell_angle_beta   90.07650318
_cell_angle_gamma   90.49220042
_symmetry_Int_Tables_number   1
_chemical_formula_structural   Hf3ZrIn2CoCu3
_chemical_formula_sum   'Hf6 Zr2 In4 Co2 Cu6'
_cell_volume   352.68504408
_cell_formula_units_Z   2
loop_
 _symmetry_equiv_pos_site_id
 _symmetry_equiv_pos_as_xyz
  1  'x, y, z'
loop_
 _atom_site_type_symbol
 _atom_site_label
 _atom_site_symmetry_multiplicity
 _atom_site_fract_x
 _atom_site_fract_y
 _atom_site_fract_z
 _atom_site_occupancy
  Hf  Hf0  1  0.647836  0.352164  0.500000  1
  Hf  Hf1  1  0.352164  0.647836  0.500000  1
  Hf  Hf2  1  0.676382  0.323618  0.000000  1
  Hf  Hf3  1  0.323618  0.676382  0.000000  1
  Hf  Hf4  1  0.805663  0.805663  0.508806  1
  Hf  Hf5  1  0.194337  0.194337  0.491194  1
  Zr  Zr6  1  0.156124  0.156124  0.009391  1
  Zr  Zr7  1  0.843876  0.843876  0.990609  1
  In  In8  1  0.502216  0.003242  0.247378  1
  In  In9  1  0.497784  0.996758  0.752622  1
  In  In10  1  0.003242  0.502216  0.247378  1
  In  In11  1  0.996758  0.497784  0.752622  1
  Co  Co12  1  0.377350  0.377350  0.227444  1
  Co  Co13  1  0.622650  0.622650  0.772556  1
  Cu  Cu14  1  0.627580  0.627580  0.210636  1
  Cu  Cu15  1  0.877101  0.126005  0.705213  1
  Cu  Cu16  1  0.873995  0.122899  0.294787  1
  Cu  Cu17  1  0.372420  0.372420  0.789364  1
  Cu  Cu18  1  0.122899  0.873995  0.294787  1
  Cu  Cu19  1  0.126005  0.877101  0.705213  1
