# generated using pymatgen
data_Li12Ho12TeW7O48
_symmetry_space_group_name_H-M   'P 1'
_cell_length_a   10.65979540
_cell_length_b   10.65979481
_cell_length_c   10.65979648
_cell_angle_alpha   109.45393910
_cell_angle_beta   109.45393505
_cell_angle_gamma   109.45393074
_symmetry_Int_Tables_number   1
_chemical_formula_structural   Li12Ho12TeW7O48
_chemical_formula_sum   'Li12 Ho12 Te1 W7 O48'
_cell_volume   933.04452238
_cell_formula_units_Z   1
loop_
 _symmetry_equiv_pos_site_id
 _symmetry_equiv_pos_as_xyz
  1  'x, y, z'
loop_
 _atom_site_type_symbol
 _atom_site_label
 _atom_site_symmetry_multiplicity
 _atom_site_fract_x
 _atom_site_fract_y
 _atom_site_fract_z
 _atom_site_occupancy
  Li  Li0  1  0.249201  0.374610  0.124475  1
  Li  Li1  1  0.875525  0.250799  0.125390  1
  Li  Li2  1  0.874610  0.624476  0.249201  1
  Li  Li3  1  0.375071  0.125143  0.250064  1
  Li  Li4  1  0.749936  0.124930  0.374857  1
  Li  Li5  1  0.625143  0.750064  0.375071  1
  Li  Li6  1  0.250065  0.875072  0.625144  1
  Li  Li7  1  0.374858  0.249937  0.624930  1
  Li  Li8  1  0.125388  0.375524  0.750799  1
  Li  Li9  1  0.624930  0.874858  0.749938  1
  Li  Li10  1  0.750799  0.625390  0.875524  1
  Li  Li11  1  0.124477  0.749202  0.874612  1
  Ho  Ho12  1  0.750056  0.874996  0.124960  1
  Ho  Ho13  1  0.376094  0.750579  0.125273  1
  Ho  Ho14  1  0.625003  0.375040  0.249944  1
  Ho  Ho15  1  0.125272  0.876095  0.250579  1
  Ho  Ho16  1  0.124960  0.250056  0.374995  1
  Ho  Ho17  1  0.250579  0.625274  0.376094  1
  Ho  Ho18  1  0.749422  0.374727  0.623906  1
  Ho  Ho19  1  0.875041  0.749946  0.625005  1
  Ho  Ho20  1  0.374995  0.624960  0.750054  1
  Ho  Ho21  1  0.874726  0.123905  0.749421  1
  Ho  Ho22  1  0.249943  0.125004  0.875040  1
  Ho  Ho23  1  0.623905  0.249422  0.874728  1
  Te  Te24  1  0.000000  0.500001  0.000000  1
  W  W25  1  0.000000  0.000000  0.000000  1
  W  W26  1  0.499998  0.000000  0.000000  1
  W  W27  1  0.500000  0.500000  0.000000  1
  W  W28  1  0.000000  0.000000  0.500000  1
  W  W29  1  0.000000  0.500000  0.500000  1
  W  W30  1  0.499999  0.000000  0.500000  1
  W  W31  1  0.500000  0.500001  0.500001  1
  O  O32  1  0.908473  0.826530  0.028250  1
  O  O33  1  0.120370  0.702041  0.029233  1
  O  O34  1  0.408458  0.380440  0.082333  1
  O  O35  1  0.673689  0.201671  0.082054  1
  O  O36  1  0.417744  0.119655  0.091468  1
  O  O37  1  0.673470  0.471749  0.091527  1
  O  O38  1  0.917667  0.091541  0.119560  1
  O  O39  1  0.202041  0.529232  0.120370  1
  O  O40  1  0.591673  0.972087  0.173761  1
  O  O41  1  0.582337  0.701803  0.173735  1
  O  O42  1  0.029232  0.620370  0.202040  1
  O  O43  1  0.173736  0.082337  0.201804  1
  O  O44  1  0.380478  0.971948  0.298084  1
  O  O45  1  0.917947  0.826312  0.298331  1
  O  O46  1  0.028252  0.408473  0.326530  1
  O  O47  1  0.298332  0.417949  0.326313  1
  O  O48  1  0.908532  0.082254  0.380344  1
  O  O49  1  0.471948  0.798084  0.380478  1
  O  O50  1  0.880440  0.582334  0.408458  1
  O  O51  1  0.527913  0.326239  0.408326  1
  O  O52  1  0.619654  0.591468  0.417744  1
  O  O53  1  0.798197  0.326265  0.417663  1
  O  O54  1  0.298084  0.880478  0.471948  1
  O  O55  1  0.173763  0.091674  0.472089  1
  O  O56  1  0.701916  0.119522  0.528052  1
  O  O57  1  0.826239  0.908326  0.527912  1
  O  O58  1  0.380345  0.408532  0.582254  1
  O  O59  1  0.201803  0.673736  0.582337  1
  O  O60  1  0.119559  0.417666  0.591541  1
  O  O61  1  0.472089  0.673762  0.591675  1
  O  O62  1  0.091469  0.917744  0.619655  1
  O  O63  1  0.528053  0.201916  0.619522  1
  O  O64  1  0.701670  0.582054  0.673689  1
  O  O65  1  0.971749  0.591527  0.673470  1
  O  O66  1  0.082052  0.173689  0.701669  1
  O  O67  1  0.619522  0.028053  0.701916  1
  O  O68  1  0.970766  0.379630  0.797959  1
  O  O69  1  0.826264  0.917663  0.798198  1
  O  O70  1  0.417663  0.298197  0.826264  1
  O  O71  1  0.408325  0.027912  0.826238  1
  O  O72  1  0.082333  0.908458  0.880438  1
  O  O73  1  0.797960  0.470768  0.879630  1
  O  O74  1  0.582255  0.880345  0.908531  1
  O  O75  1  0.326529  0.528251  0.908474  1
  O  O76  1  0.591542  0.619560  0.917667  1
  O  O77  1  0.326311  0.798331  0.917947  1
  O  O78  1  0.879630  0.297961  0.970768  1
  O  O79  1  0.091526  0.173471  0.971750  1
