# generated using pymatgen
data_NaEu3Y4(CuSe3)4
_symmetry_space_group_name_H-M   'P 1'
_cell_length_a   4.05054600
_cell_length_b   10.66734011
_cell_length_c   13.35583312
_cell_angle_alpha   89.86688939
_cell_angle_beta   90.00000000
_cell_angle_gamma   90.00000000
_symmetry_Int_Tables_number   1
_chemical_formula_structural   NaEu3Y4(CuSe3)4
_chemical_formula_sum   'Na1 Eu3 Y4 Cu4 Se12'
_cell_volume   577.08465002
_cell_formula_units_Z   1
loop_
 _symmetry_equiv_pos_site_id
 _symmetry_equiv_pos_as_xyz
  1  'x, y, z'
loop_
 _atom_site_type_symbol
 _atom_site_label
 _atom_site_symmetry_multiplicity
 _atom_site_fract_x
 _atom_site_fract_y
 _atom_site_fract_z
 _atom_site_occupancy
  Na  Na0  1  0.750000  0.756739  0.004222  1
  Eu  Eu1  1  0.250000  0.241192  0.997524  1
  Eu  Eu2  1  0.750000  0.257157  0.496098  1
  Eu  Eu3  1  0.250000  0.742977  0.503981  1
  Y  Y4  1  0.750000  0.004302  0.247775  1
  Y  Y5  1  0.250000  0.990053  0.750202  1
  Y  Y6  1  0.750000  0.509589  0.245329  1
  Y  Y7  1  0.250000  0.496643  0.752439  1
  Cu  Cu8  1  0.750000  0.744120  0.721834  1
  Cu  Cu9  1  0.250000  0.255691  0.278734  1
  Cu  Cu10  1  0.750000  0.244669  0.778609  1
  Cu  Cu11  1  0.250000  0.755523  0.220325  1
  Se  Se12  1  0.750000  0.256369  0.167941  1
  Se  Se13  1  0.250000  0.743569  0.830396  1
  Se  Se14  1  0.750000  0.755701  0.333891  1
  Se  Se15  1  0.250000  0.244564  0.667338  1
  Se  Se16  1  0.750000  0.064325  0.891323  1
  Se  Se17  1  0.250000  0.940202  0.110492  1
  Se  Se18  1  0.750000  0.561946  0.606330  1
  Se  Se19  1  0.250000  0.435833  0.393206  1
  Se  Se20  1  0.750000  0.422530  0.892976  1
  Se  Se21  1  0.250000  0.574166  0.109359  1
  Se  Se22  1  0.750000  0.925252  0.605347  1
  Se  Se23  1  0.250000  0.076889  0.394329  1
