# generated using pymatgen
data_MgNb2Sb3IrRh2
_symmetry_space_group_name_H-M   'P 1'
_cell_length_a   7.63964900
_cell_length_b   7.64705480
_cell_length_c   7.64273078
_cell_angle_alpha   99.68816506
_cell_angle_beta   99.60682983
_cell_angle_gamma   119.91784258
_symmetry_Int_Tables_number   1
_chemical_formula_structural   MgNb2Sb3IrRh2
_chemical_formula_sum   'Mg2 Nb4 Sb6 Ir2 Rh4'
_cell_volume   364.66739982
_cell_formula_units_Z   2
loop_
 _symmetry_equiv_pos_site_id
 _symmetry_equiv_pos_as_xyz
  1  'x, y, z'
loop_
 _atom_site_type_symbol
 _atom_site_label
 _atom_site_symmetry_multiplicity
 _atom_site_fract_x
 _atom_site_fract_y
 _atom_site_fract_z
 _atom_site_occupancy
  Mg  Mg0  1  0.836831  0.667242  0.002978  1
  Mg  Mg1  1  0.667222  0.836840  0.503984  1
  Nb  Nb2  1  0.331538  0.165217  0.499016  1
  Nb  Nb3  1  0.000949  0.499462  0.499392  1
  Nb  Nb4  1  0.164559  0.330523  0.998565  1
  Nb  Nb5  1  0.499187  0.000662  0.998668  1
  Sb  Sb6  1  0.253449  0.748938  0.246220  1
  Sb  Sb7  1  0.588248  0.432060  0.246534  1
  Sb  Sb8  1  0.907572  0.067563  0.254205  1
  Sb  Sb9  1  0.749706  0.254628  0.748410  1
  Sb  Sb10  1  0.429742  0.587481  0.749244  1
  Sb  Sb11  1  0.071875  0.909740  0.755439  1
  Ir  Ir12  1  0.621386  0.138999  0.366919  1
  Ir  Ir13  1  0.273860  0.440612  0.367144  1
  Rh  Rh14  1  0.978712  0.794264  0.387259  1
  Rh  Rh15  1  0.138294  0.621377  0.868771  1
  Rh  Rh16  1  0.442589  0.275769  0.868761  1
  Rh  Rh17  1  0.794282  0.978625  0.888492  1
