# generated using pymatgen
data_PuU9S20
_symmetry_space_group_name_H-M   'P 1'
_cell_length_a   10.13506726
_cell_length_b   10.12633605
_cell_length_c   6.27011100
_cell_angle_alpha   89.81548918
_cell_angle_beta   89.75952821
_cell_angle_gamma   89.82181729
_symmetry_Int_Tables_number   1
_chemical_formula_structural   PuU9S20
_chemical_formula_sum   'Pu1 U9 S20'
_cell_volume   643.49628114
_cell_formula_units_Z   1
loop_
 _symmetry_equiv_pos_site_id
 _symmetry_equiv_pos_as_xyz
  1  'x, y, z'
loop_
 _atom_site_type_symbol
 _atom_site_label
 _atom_site_symmetry_multiplicity
 _atom_site_fract_x
 _atom_site_fract_y
 _atom_site_fract_z
 _atom_site_occupancy
  Pu  Pu0  1  0.839699  0.150611  0.247318  1
  U  U1  1  0.651427  0.657943  0.252980  1
  U  U2  1  0.349152  0.336028  0.247441  1
  U  U3  1  0.157310  0.848816  0.251118  1
  U  U4  1  0.499234  0.001748  0.859104  1
  U  U5  1  0.341418  0.652230  0.748452  1
  U  U6  1  0.149405  0.160641  0.751509  1
  U  U7  1  0.849101  0.844707  0.747891  1
  U  U8  1  0.662263  0.345754  0.751665  1
  U  U9  1  0.999401  0.499711  0.141869  1
  S  S10  1  0.709850  0.088498  0.630363  1
  S  S11  1  0.589091  0.790846  0.619755  1
  S  S12  1  0.409031  0.206598  0.618468  1
  S  S13  1  0.291590  0.911475  0.619574  1
  S  S14  1  0.705998  0.908875  0.105749  1
  S  S15  1  0.584474  0.209061  0.109219  1
  S  S16  1  0.410539  0.792083  0.106983  1
  S  S17  1  0.288547  0.087329  0.109798  1
  S  S18  1  0.500768  0.499331  0.999849  1
  S  S19  1  0.000925  0.998181  0.998162  1
  S  S20  1  0.209901  0.410952  0.893705  1
  S  S21  1  0.088864  0.708114  0.891059  1
  S  S22  1  0.914513  0.293394  0.884104  1
  S  S23  1  0.792340  0.589696  0.891570  1
  S  S24  1  0.498028  0.495795  0.500616  1
  S  S25  1  0.002264  0.000823  0.500657  1
  S  S26  1  0.208328  0.591178  0.378780  1
  S  S27  1  0.092740  0.293679  0.383380  1
  S  S28  1  0.911543  0.711430  0.377864  1
  S  S29  1  0.792254  0.414470  0.380999  1
