# generated using pymatgen
data_BaCe(PPd)2
_symmetry_space_group_name_H-M   'P 1'
_cell_length_a   4.27395500
_cell_length_b   4.27395559
_cell_length_c   16.98924200
_cell_angle_alpha   90.00000000
_cell_angle_beta   90.00000000
_cell_angle_gamma   120.00000315
_symmetry_Int_Tables_number   1
_chemical_formula_structural   BaCe(PPd)2
_chemical_formula_sum   'Ba2 Ce2 P4 Pd4'
_cell_volume   268.75996207
_cell_formula_units_Z   2
loop_
 _symmetry_equiv_pos_site_id
 _symmetry_equiv_pos_as_xyz
  1  'x, y, z'
loop_
 _atom_site_type_symbol
 _atom_site_label
 _atom_site_symmetry_multiplicity
 _atom_site_fract_x
 _atom_site_fract_y
 _atom_site_fract_z
 _atom_site_occupancy
  Ba  Ba0  1  0.000000  0.000000  0.250000  1
  Ba  Ba1  1  0.000000  0.000000  0.750000  1
  Ce  Ce2  1  0.000000  0.000000  0.500000  1
  Ce  Ce3  1  0.000000  0.000000  0.000000  1
  P  P4  1  0.333333  0.666667  0.894861  1
  P  P5  1  0.666667  0.333333  0.105139  1
  P  P6  1  0.666667  0.333333  0.394861  1
  P  P7  1  0.333333  0.666667  0.605139  1
  Pd  Pd8  1  0.333333  0.666667  0.386789  1
  Pd  Pd9  1  0.666667  0.333333  0.613211  1
  Pd  Pd10  1  0.666667  0.333333  0.886789  1
  Pd  Pd11  1  0.333333  0.666667  0.113211  1
