# generated using pymatgen
data_Hf4MgNi4Ir
_symmetry_space_group_name_H-M   'P 1'
_cell_length_a   7.12069600
_cell_length_b   7.12069600
_cell_length_c   3.22234200
_cell_angle_alpha   90.00000000
_cell_angle_beta   90.00000000
_cell_angle_gamma   90.00000000
_symmetry_Int_Tables_number   1
_chemical_formula_structural   Hf4MgNi4Ir
_chemical_formula_sum   'Hf4 Mg1 Ni4 Ir1'
_cell_volume   163.38663261
_cell_formula_units_Z   1
loop_
 _symmetry_equiv_pos_site_id
 _symmetry_equiv_pos_as_xyz
  1  'x, y, z'
loop_
 _atom_site_type_symbol
 _atom_site_label
 _atom_site_symmetry_multiplicity
 _atom_site_fract_x
 _atom_site_fract_y
 _atom_site_fract_z
 _atom_site_occupancy
  Hf  Hf0  1  0.641462  0.194175  0.500000  1
  Hf  Hf1  1  0.358538  0.805825  0.500000  1
  Hf  Hf2  1  0.805825  0.641462  0.500000  1
  Hf  Hf3  1  0.194175  0.358538  0.500000  1
  Mg  Mg4  1  0.000000  0.000000  0.000000  1
  Ni  Ni5  1  0.638242  0.883162  0.000000  1
  Ni  Ni6  1  0.116838  0.638242  0.000000  1
  Ni  Ni7  1  0.883162  0.361758  0.000000  1
  Ni  Ni8  1  0.361758  0.116838  0.000000  1
  Ir  Ir9  1  0.500000  0.500000  0.000000  1
