# generated using pymatgen
data_Be3Nb6BRu10
_symmetry_space_group_name_H-M   'P 1'
_cell_length_a   9.42767560
_cell_length_b   9.42767560
_cell_length_c   3.12077300
_cell_angle_alpha   90.00000000
_cell_angle_beta   90.00000000
_cell_angle_gamma   90.26702915
_symmetry_Int_Tables_number   1
_chemical_formula_structural   Be3Nb6BRu10
_chemical_formula_sum   'Be3 Nb6 B1 Ru10'
_cell_volume   277.37462220
_cell_formula_units_Z   1
loop_
 _symmetry_equiv_pos_site_id
 _symmetry_equiv_pos_as_xyz
  1  'x, y, z'
loop_
 _atom_site_type_symbol
 _atom_site_label
 _atom_site_symmetry_multiplicity
 _atom_site_fract_x
 _atom_site_fract_y
 _atom_site_fract_z
 _atom_site_occupancy
  Be  Be0  1  0.621298  0.878500  0.000000  1
  Be  Be1  1  0.378500  0.121298  0.000000  1
  Be  Be2  1  0.121525  0.621525  0.000000  1
  Nb  Nb3  1  0.824649  0.675786  0.000000  1
  Nb  Nb4  1  0.175786  0.324649  0.000000  1
  Nb  Nb5  1  0.326176  0.826176  0.000000  1
  Nb  Nb6  1  0.674264  0.174264  0.000000  1
  Nb  Nb7  1  0.498317  0.500442  0.000000  1
  Nb  Nb8  1  0.000442  0.998317  0.000000  1
  B  B9  1  0.879534  0.379534  0.000000  1
  Ru  Ru10  1  0.574149  0.710327  0.500000  1
  Ru  Ru11  1  0.429091  0.288596  0.500000  1
  Ru  Ru12  1  0.072131  0.787140  0.500000  1
  Ru  Ru13  1  0.924267  0.217225  0.500000  1
  Ru  Ru14  1  0.287140  0.572131  0.500000  1
  Ru  Ru15  1  0.717225  0.424267  0.500000  1
  Ru  Ru16  1  0.210327  0.074149  0.500000  1
  Ru  Ru17  1  0.788596  0.929091  0.500000  1
  Ru  Ru18  1  0.499838  0.999838  0.500000  1
  Ru  Ru19  1  0.996745  0.496745  0.500000  1
