# generated using pymatgen
data_Li4Dy3YSn3Sb
_symmetry_space_group_name_H-M   'P 1'
_cell_length_a   9.38654263
_cell_length_b   9.39142705
_cell_length_c   7.26484862
_cell_angle_alpha   89.99999836
_cell_angle_beta   90.05995112
_cell_angle_gamma   120.01721021
_symmetry_Int_Tables_number   1
_chemical_formula_structural   Li4Dy3YSn3Sb
_chemical_formula_sum   'Li8 Dy6 Y2 Sn6 Sb2'
_cell_volume   554.52200830
_cell_formula_units_Z   2
loop_
 _symmetry_equiv_pos_site_id
 _symmetry_equiv_pos_as_xyz
  1  'x, y, z'
loop_
 _atom_site_type_symbol
 _atom_site_label
 _atom_site_symmetry_multiplicity
 _atom_site_fract_x
 _atom_site_fract_y
 _atom_site_fract_z
 _atom_site_occupancy
  Li  Li0  1  0.167146  0.333846  0.286403  1
  Li  Li1  1  0.167146  0.833300  0.286403  1
  Li  Li2  1  0.666294  0.833146  0.286535  1
  Li  Li3  1  0.832290  0.666085  0.786923  1
  Li  Li4  1  0.832290  0.166205  0.786923  1
  Li  Li5  1  0.334255  0.167128  0.787964  1
  Li  Li6  1  0.334088  0.667044  0.670819  1
  Li  Li7  1  0.666710  0.333355  0.172477  1
  Dy  Dy8  1  0.974259  0.487129  0.490777  1
  Dy  Dy9  1  0.489771  0.977177  0.995337  1
  Dy  Dy10  1  0.489771  0.512594  0.995337  1
  Dy  Dy11  1  0.021272  0.510636  0.996546  1
  Dy  Dy12  1  0.998056  0.999028  0.497296  1
  Dy  Dy13  1  0.998067  0.999033  0.002845  1
  Y  Y14  1  0.514323  0.025089  0.492103  1
  Y  Y15  1  0.514323  0.489233  0.492103  1
  Sn  Sn16  1  0.666484  0.833242  0.731890  1
  Sn  Sn17  1  0.833970  0.666682  0.231550  1
  Sn  Sn18  1  0.833970  0.167287  0.231550  1
  Sn  Sn19  1  0.333266  0.166633  0.231462  1
  Sn  Sn20  1  0.332595  0.666297  0.260950  1
  Sn  Sn21  1  0.667212  0.333605  0.761772  1
  Sb  Sb22  1  0.166223  0.333366  0.733014  1
  Sb  Sb23  1  0.166223  0.832856  0.733014  1
