# generated using pymatgen
data_Zr4MnCu(Si2Ir)2
_symmetry_space_group_name_H-M   'P 1'
_cell_length_a   3.88244500
_cell_length_b   6.57896186
_cell_length_c   7.55212722
_cell_angle_alpha   89.74833233
_cell_angle_beta   90.00000000
_cell_angle_gamma   90.00000000
_symmetry_Int_Tables_number   1
_chemical_formula_structural   Zr4MnCu(Si2Ir)2
_chemical_formula_sum   'Zr4 Mn1 Cu1 Si4 Ir2'
_cell_volume   192.89802831
_cell_formula_units_Z   1
loop_
 _symmetry_equiv_pos_site_id
 _symmetry_equiv_pos_as_xyz
  1  'x, y, z'
loop_
 _atom_site_type_symbol
 _atom_site_label
 _atom_site_symmetry_multiplicity
 _atom_site_fract_x
 _atom_site_fract_y
 _atom_site_fract_z
 _atom_site_occupancy
  Zr  Zr0  1  0.250000  0.018207  0.323329  1
  Zr  Zr1  1  0.250000  0.524631  0.178623  1
  Zr  Zr2  1  0.750000  0.970783  0.680248  1
  Zr  Zr3  1  0.750000  0.478175  0.819079  1
  Mn  Mn4  1  0.250000  0.648017  0.563564  1
  Cu  Cu5  1  0.250000  0.150422  0.938288  1
  Si  Si6  1  0.250000  0.272861  0.617387  1
  Si  Si7  1  0.250000  0.767818  0.877431  1
  Si  Si8  1  0.750000  0.724327  0.377790  1
  Si  Si9  1  0.750000  0.228121  0.125286  1
  Ir  Ir10  1  0.750000  0.859810  0.060028  1
  Ir  Ir11  1  0.750000  0.356830  0.438947  1
