# generated using pymatgen
data_Tm3ZnHg4Rh
_symmetry_space_group_name_H-M   'P 1'
_cell_length_a   7.86711200
_cell_length_b   7.86711263
_cell_length_c   3.81264500
_cell_angle_alpha   90.00000000
_cell_angle_beta   90.00000000
_cell_angle_gamma   120.00000575
_symmetry_Int_Tables_number   1
_chemical_formula_structural   Tm3ZnHg4Rh
_chemical_formula_sum   'Tm3 Zn1 Hg4 Rh1'
_cell_volume   204.35613349
_cell_formula_units_Z   1
loop_
 _symmetry_equiv_pos_site_id
 _symmetry_equiv_pos_as_xyz
  1  'x, y, z'
loop_
 _atom_site_type_symbol
 _atom_site_label
 _atom_site_symmetry_multiplicity
 _atom_site_fract_x
 _atom_site_fract_y
 _atom_site_fract_z
 _atom_site_occupancy
  Tm  Tm0  1  0.294807  0.241846  0.500000  1
  Tm  Tm1  1  0.758154  0.052962  0.500000  1
  Tm  Tm2  1  0.947038  0.705193  0.500000  1
  Zn  Zn3  1  0.333333  0.666667  0.500000  1
  Hg  Hg4  1  0.068894  0.400030  0.000000  1
  Hg  Hg5  1  0.599970  0.668863  0.000000  1
  Hg  Hg6  1  0.331137  0.931106  0.000000  1
  Hg  Hg7  1  0.666667  0.333333  0.000000  1
  Rh  Rh8  1  0.000000  0.000000  0.000000  1
