# generated using pymatgen
data_Hf6MnCoPb
_symmetry_space_group_name_H-M   'P 1'
_cell_length_a   3.33657200
_cell_length_b   7.92144649
_cell_length_c   7.91939001
_cell_angle_alpha   119.98673077
_cell_angle_beta   90.00000000
_cell_angle_gamma   90.00000000
_symmetry_Int_Tables_number   1
_chemical_formula_structural   Hf6MnCoPb
_chemical_formula_sum   'Hf6 Mn1 Co1 Pb1'
_cell_volume   181.29482629
_cell_formula_units_Z   1
loop_
 _symmetry_equiv_pos_site_id
 _symmetry_equiv_pos_as_xyz
  1  'x, y, z'
loop_
 _atom_site_type_symbol
 _atom_site_label
 _atom_site_symmetry_multiplicity
 _atom_site_fract_x
 _atom_site_fract_y
 _atom_site_fract_z
 _atom_site_occupancy
  Hf  Hf0  1  0.500000  0.620951  0.059623  1
  Hf  Hf1  1  0.500000  0.438380  0.378891  1
  Hf  Hf2  1  0.500000  0.940613  0.561373  1
  Hf  Hf3  1  0.000000  0.238249  0.995224  1
  Hf  Hf4  1  0.000000  0.756902  0.761562  1
  Hf  Hf5  1  0.000000  0.004824  0.243149  1
  Mn  Mn6  1  0.000000  0.666798  0.333643  1
  Co  Co7  1  0.500000  0.999782  0.999836  1
  Pb  Pb8  1  0.000000  0.333404  0.666701  1
