# generated using pymatgen
data_HoTaB6Os
_symmetry_space_group_name_H-M   'P 1'
_cell_length_a   3.49594700
_cell_length_b   8.98724100
_cell_length_c   11.26962300
_cell_angle_alpha   90.00000000
_cell_angle_beta   90.00000000
_cell_angle_gamma   90.00000000
_symmetry_Int_Tables_number   1
_chemical_formula_structural   HoTaB6Os
_chemical_formula_sum   'Ho4 Ta4 B24 Os4'
_cell_volume   354.07936332
_cell_formula_units_Z   4
loop_
 _symmetry_equiv_pos_site_id
 _symmetry_equiv_pos_as_xyz
  1  'x, y, z'
loop_
 _atom_site_type_symbol
 _atom_site_label
 _atom_site_symmetry_multiplicity
 _atom_site_fract_x
 _atom_site_fract_y
 _atom_site_fract_z
 _atom_site_occupancy
  Ho  Ho0  1  0.000000  0.323681  0.413328  1
  Ho  Ho1  1  0.000000  0.676319  0.586672  1
  Ho  Ho2  1  0.000000  0.823681  0.086672  1
  Ho  Ho3  1  0.000000  0.176319  0.913328  1
  Ta  Ta4  1  0.000000  0.947305  0.377052  1
  Ta  Ta5  1  0.000000  0.052695  0.622948  1
  Ta  Ta6  1  0.000000  0.447305  0.122948  1
  Ta  Ta7  1  0.000000  0.552695  0.877052  1
  B  B8  1  0.500000  0.554587  0.434135  1
  B  B9  1  0.500000  0.445413  0.565865  1
  B  B10  1  0.500000  0.054587  0.065865  1
  B  B11  1  0.500000  0.945413  0.934135  1
  B  B12  1  0.500000  0.754313  0.419155  1
  B  B13  1  0.500000  0.245687  0.580845  1
  B  B14  1  0.500000  0.254313  0.080845  1
  B  B15  1  0.500000  0.745687  0.919155  1
  B  B16  1  0.500000  0.798224  0.262809  1
  B  B17  1  0.500000  0.201776  0.737190  1
  B  B18  1  0.500000  0.298224  0.237191  1
  B  B19  1  0.500000  0.701776  0.762810  1
  B  B20  1  0.500000  0.629696  0.180998  1
  B  B21  1  0.500000  0.370304  0.819002  1
  B  B22  1  0.500000  0.129696  0.319002  1
  B  B23  1  0.500000  0.870304  0.680998  1
  B  B24  1  0.500000  0.980767  0.213806  1
  B  B25  1  0.500000  0.019233  0.786194  1
  B  B26  1  0.500000  0.480767  0.286194  1
  B  B27  1  0.500000  0.519233  0.713806  1
  B  B28  1  0.500000  0.600710  0.026810  1
  B  B29  1  0.500000  0.399290  0.973190  1
  B  B30  1  0.500000  0.100710  0.473190  1
  B  B31  1  0.500000  0.899290  0.526810  1
  Os  Os32  1  0.000000  0.643926  0.317594  1
  Os  Os33  1  0.000000  0.356074  0.682406  1
  Os  Os34  1  0.000000  0.143926  0.182406  1
  Os  Os35  1  0.000000  0.856074  0.817594  1
