# generated using pymatgen
data_Yb4IrRh3O14
_symmetry_space_group_name_H-M   'P 1'
_cell_length_a   7.21724538
_cell_length_b   7.18757588
_cell_length_c   7.18757600
_cell_angle_alpha   59.99999025
_cell_angle_beta   60.13588542
_cell_angle_gamma   60.13588007
_symmetry_Int_Tables_number   1
_chemical_formula_structural   Yb4IrRh3O14
_chemical_formula_sum   'Yb4 Ir1 Rh3 O14'
_cell_volume   264.18628633
_cell_formula_units_Z   1
loop_
 _symmetry_equiv_pos_site_id
 _symmetry_equiv_pos_as_xyz
  1  'x, y, z'
loop_
 _atom_site_type_symbol
 _atom_site_label
 _atom_site_symmetry_multiplicity
 _atom_site_fract_x
 _atom_site_fract_y
 _atom_site_fract_z
 _atom_site_occupancy
  Yb  Yb0  1  0.125000  0.125000  0.625000  1
  Yb  Yb1  1  0.125000  0.125000  0.125000  1
  Yb  Yb2  1  0.625000  0.125000  0.125000  1
  Yb  Yb3  1  0.125000  0.625000  0.125000  1
  Ir  Ir4  1  0.125000  0.625000  0.625000  1
  Rh  Rh5  1  0.625000  0.625000  0.625000  1
  Rh  Rh6  1  0.625000  0.125000  0.625000  1
  Rh  Rh7  1  0.625000  0.625000  0.125000  1
  O  O8  1  0.954622  0.548085  0.548085  1
  O  O9  1  0.295378  0.300793  0.701915  1
  O  O10  1  0.954622  0.548085  0.949207  1
  O  O11  1  0.706834  0.295561  0.295561  1
  O  O12  1  0.543166  0.547956  0.954439  1
  O  O13  1  0.543166  0.954439  0.547956  1
  O  O14  1  0.543166  0.954439  0.954439  1
  O  O15  1  0.249893  0.250035  0.250035  1
  O  O16  1  0.295378  0.701915  0.701915  1
  O  O17  1  0.706834  0.295561  0.702044  1
  O  O18  1  0.000107  0.999965  0.999965  1
  O  O19  1  0.954622  0.949207  0.548085  1
  O  O20  1  0.295378  0.701915  0.300793  1
  O  O21  1  0.706834  0.702044  0.295561  1
