# generated using pymatgen
data_Sc15Al7Ir8
_symmetry_space_group_name_H-M   'P 1'
_cell_length_a   9.19710491
_cell_length_b   9.19710528
_cell_length_c   9.19710300
_cell_angle_alpha   60.03841051
_cell_angle_beta   60.03841639
_cell_angle_gamma   60.03841503
_symmetry_Int_Tables_number   1
_chemical_formula_structural   Sc15Al7Ir8
_chemical_formula_sum   'Sc15 Al7 Ir8'
_cell_volume   550.57481224
_cell_formula_units_Z   1
loop_
 _symmetry_equiv_pos_site_id
 _symmetry_equiv_pos_as_xyz
  1  'x, y, z'
loop_
 _atom_site_type_symbol
 _atom_site_label
 _atom_site_symmetry_multiplicity
 _atom_site_fract_x
 _atom_site_fract_y
 _atom_site_fract_z
 _atom_site_occupancy
  Sc  Sc0  1  0.148177  0.148177  0.148177  1
  Sc  Sc1  1  0.205061  0.766974  0.205061  1
  Sc  Sc2  1  0.192493  0.809474  0.809474  1
  Sc  Sc3  1  0.766974  0.205061  0.205061  1
  Sc  Sc4  1  0.809474  0.809474  0.192493  1
  Sc  Sc5  1  0.205061  0.205061  0.766974  1
  Sc  Sc6  1  0.809474  0.192493  0.809474  1
  Sc  Sc7  1  0.376747  0.376747  0.376747  1
  Sc  Sc8  1  0.133344  0.624033  0.624033  1
  Sc  Sc9  1  0.624033  0.133344  0.624033  1
  Sc  Sc10  1  0.624033  0.624033  0.133344  1
  Sc  Sc11  1  0.382542  0.861048  0.382542  1
  Sc  Sc12  1  0.382542  0.382542  0.861048  1
  Sc  Sc13  1  0.861048  0.382542  0.382542  1
  Sc  Sc14  1  0.625691  0.625691  0.625691  1
  Al  Al15  1  0.837963  0.837963  0.837963  1
  Al  Al16  1  0.497371  0.165070  0.165070  1
  Al  Al17  1  0.165070  0.165070  0.497371  1
  Al  Al18  1  0.165070  0.497371  0.165070  1
  Al  Al19  1  0.844677  0.844677  0.476987  1
  Al  Al20  1  0.844677  0.476987  0.844677  1
  Al  Al21  1  0.476987  0.844677  0.844677  1
  Ir  Ir22  1  0.501532  0.501532  0.003035  1
  Ir  Ir23  1  0.998239  0.998239  0.509363  1
  Ir  Ir24  1  0.501532  0.003035  0.501532  1
  Ir  Ir25  1  0.003035  0.501532  0.501532  1
  Ir  Ir26  1  0.509363  0.998239  0.998239  1
  Ir  Ir27  1  0.998239  0.509363  0.998239  1
  Ir  Ir28  1  0.500028  0.500028  0.500028  1
  Ir  Ir29  1  0.009524  0.009524  0.009524  1
