# generated using pymatgen
data_DyY19(CoSb2)4
_symmetry_space_group_name_H-M   'P 1'
_cell_length_a   7.93123560
_cell_length_b   8.79630009
_cell_length_c   12.23989202
_cell_angle_alpha   90.01958451
_cell_angle_beta   90.01100581
_cell_angle_gamma   90.01992384
_symmetry_Int_Tables_number   1
_chemical_formula_structural   DyY19(CoSb2)4
_chemical_formula_sum   'Dy1 Y19 Co4 Sb8'
_cell_volume   853.92241691
_cell_formula_units_Z   1
loop_
 _symmetry_equiv_pos_site_id
 _symmetry_equiv_pos_as_xyz
  1  'x, y, z'
loop_
 _atom_site_type_symbol
 _atom_site_label
 _atom_site_symmetry_multiplicity
 _atom_site_fract_x
 _atom_site_fract_y
 _atom_site_fract_z
 _atom_site_occupancy
  Dy  Dy0  1  0.322322  0.465861  0.434358  1
  Y  Y1  1  0.155960  0.750018  0.203994  1
  Y  Y2  1  0.656043  0.250263  0.296114  1
  Y  Y3  1  0.844055  0.249973  0.796186  1
  Y  Y4  1  0.343926  0.749940  0.704093  1
  Y  Y5  1  0.456775  0.750052  0.998294  1
  Y  Y6  1  0.957917  0.250565  0.501544  1
  Y  Y7  1  0.543469  0.250014  0.001796  1
  Y  Y8  1  0.044509  0.749270  0.498033  1
  Y  Y9  1  0.624350  0.749730  0.305974  1
  Y  Y10  1  0.124291  0.250129  0.194013  1
  Y  Y11  1  0.375261  0.250108  0.694014  1
  Y  Y12  1  0.875481  0.750163  0.806096  1
  Y  Y13  1  0.821660  0.965964  0.066170  1
  Y  Y14  1  0.321447  0.034131  0.433885  1
  Y  Y15  1  0.178226  0.465811  0.934018  1
  Y  Y16  1  0.678733  0.534157  0.566061  1
  Y  Y17  1  0.178244  0.034275  0.933930  1
  Y  Y18  1  0.678370  0.965857  0.565727  1
  Y  Y19  1  0.821640  0.534154  0.066147  1
  Co  Co20  1  0.435168  0.748819  0.490398  1
  Co  Co21  1  0.935777  0.250045  0.009456  1
  Co  Co22  1  0.563151  0.250319  0.509115  1
  Co  Co23  1  0.064344  0.750055  0.990653  1
  Sb  Sb24  1  0.929585  0.992060  0.327330  1
  Sb  Sb25  1  0.429776  0.008004  0.173039  1
  Sb  Sb26  1  0.069995  0.492168  0.673228  1
  Sb  Sb27  1  0.570233  0.507928  0.827009  1
  Sb  Sb28  1  0.070104  0.007832  0.672702  1
  Sb  Sb29  1  0.570040  0.992230  0.826865  1
  Sb  Sb30  1  0.929580  0.508001  0.326867  1
  Sb  Sb31  1  0.429568  0.492108  0.172888  1
