# generated using pymatgen
data_Tb5Dy7Ni5Pb
_symmetry_space_group_name_H-M   'P 1'
_cell_length_a   8.35649046
_cell_length_b   8.35925860
_cell_length_c   8.35648900
_cell_angle_alpha   107.31233044
_cell_angle_beta   109.63365885
_cell_angle_gamma   111.48113313
_symmetry_Int_Tables_number   1
_chemical_formula_structural   Tb5Dy7Ni5Pb
_chemical_formula_sum   'Tb5 Dy7 Ni5 Pb1'
_cell_volume   448.83751965
_cell_formula_units_Z   1
loop_
 _symmetry_equiv_pos_site_id
 _symmetry_equiv_pos_as_xyz
  1  'x, y, z'
loop_
 _atom_site_type_symbol
 _atom_site_label
 _atom_site_symmetry_multiplicity
 _atom_site_fract_x
 _atom_site_fract_y
 _atom_site_fract_z
 _atom_site_occupancy
  Tb  Tb0  1  0.477015  0.295538  0.181032  1
  Tb  Tb1  1  0.114506  0.295538  0.818523  1
  Tb  Tb2  1  0.885186  0.704245  0.181173  1
  Tb  Tb3  1  0.523072  0.704245  0.819059  1
  Tb  Tb4  1  0.307470  0.628474  0.321005  1
  Dy  Dy5  1  0.307854  0.986694  0.678839  1
  Dy  Dy6  1  0.692157  0.370863  0.678705  1
  Dy  Dy7  1  0.692251  0.013586  0.321336  1
  Dy  Dy8  1  0.190965  0.208649  0.399987  1
  Dy  Dy9  1  0.809026  0.791239  0.600137  1
  Dy  Dy10  1  0.191103  0.791239  0.982212  1
  Dy  Dy11  1  0.808662  0.208649  0.017685  1
  Ni  Ni12  1  0.500283  0.625104  0.124822  1
  Ni  Ni13  1  0.499963  0.374765  0.874802  1
  Ni  Ni14  1  0.366355  0.000495  0.366250  1
  Ni  Ni15  1  0.634246  0.000495  0.634141  1
  Ni  Ni16  1  0.000002  0.999986  0.999985  1
  Pb  Pb17  1  0.999885  0.500194  0.500310  1
