# generated using pymatgen
data_Sc2Re2B4OsRu2
_symmetry_space_group_name_H-M   'P 1'
_cell_length_a   3.03941100
_cell_length_b   8.55076906
_cell_length_c   10.08186201
_cell_angle_alpha   89.99023677
_cell_angle_beta   90.00000000
_cell_angle_gamma   90.00000000
_symmetry_Int_Tables_number   1
_chemical_formula_structural   Sc2Re2B4OsRu2
_chemical_formula_sum   'Sc4 Re4 B8 Os2 Ru4'
_cell_volume   262.02054813
_cell_formula_units_Z   2
loop_
 _symmetry_equiv_pos_site_id
 _symmetry_equiv_pos_as_xyz
  1  'x, y, z'
loop_
 _atom_site_type_symbol
 _atom_site_label
 _atom_site_symmetry_multiplicity
 _atom_site_fract_x
 _atom_site_fract_y
 _atom_site_fract_z
 _atom_site_occupancy
  Sc  Sc0  1  0.500000  0.838675  0.182370  1
  Sc  Sc1  1  0.500000  0.161325  0.817630  1
  Sc  Sc2  1  0.500000  0.661271  0.682316  1
  Sc  Sc3  1  0.500000  0.338729  0.317684  1
  Re  Re4  1  0.000000  0.660418  0.953901  1
  Re  Re5  1  0.000000  0.339582  0.046099  1
  Re  Re6  1  0.000000  0.839709  0.453887  1
  Re  Re7  1  0.000000  0.160291  0.546113  1
  B  B8  1  0.500000  0.964699  0.588743  1
  B  B9  1  0.500000  0.035301  0.411257  1
  B  B10  1  0.500000  0.849199  0.901940  1
  B  B11  1  0.500000  0.150801  0.098060  1
  B  B12  1  0.500000  0.650822  0.401959  1
  B  B13  1  0.500000  0.349178  0.598041  1
  B  B14  1  0.500000  0.464712  0.911304  1
  B  B15  1  0.500000  0.535288  0.088696  1
  Os  Os16  1  0.000000  0.000000  0.000000  1
  Os  Os17  1  0.000000  0.500000  0.500000  1
  Ru  Ru18  1  0.000000  0.406740  0.760294  1
  Ru  Ru19  1  0.000000  0.593260  0.239706  1
  Ru  Ru20  1  0.000000  0.906725  0.739687  1
  Ru  Ru21  1  0.000000  0.093275  0.260313  1
