# generated using pymatgen
data_Li2Th2Ni15
_symmetry_space_group_name_H-M   'P 1'
_cell_length_a   6.32075749
_cell_length_b   6.32075806
_cell_length_c   6.32075811
_cell_angle_alpha   83.14410449
_cell_angle_beta   96.85589619
_cell_angle_gamma   96.85589657
_symmetry_Int_Tables_number   1
_chemical_formula_structural   Li2Th2Ni15
_chemical_formula_sum   'Li2 Th2 Ni15'
_cell_volume   247.50880280
_cell_formula_units_Z   1
loop_
 _symmetry_equiv_pos_site_id
 _symmetry_equiv_pos_as_xyz
  1  'x, y, z'
loop_
 _atom_site_type_symbol
 _atom_site_label
 _atom_site_symmetry_multiplicity
 _atom_site_fract_x
 _atom_site_fract_y
 _atom_site_fract_z
 _atom_site_occupancy
  Li  Li0  1  0.909370  0.090629  0.090629  1
  Li  Li1  1  0.090628  0.909371  0.909371  1
  Th  Th2  1  0.658556  0.341443  0.341443  1
  Th  Th3  1  0.341442  0.658557  0.658557  1
  Ni  Ni4  1  0.500000  0.000000  0.000000  1
  Ni  Ni5  1  0.307559  0.307560  0.000000  1
  Ni  Ni6  1  0.000000  0.500000  0.000000  1
  Ni  Ni7  1  0.692441  0.692441  0.000000  1
  Ni  Ni8  1  0.341083  0.658917  0.158958  1
  Ni  Ni9  1  0.000000  0.692441  0.307558  1
  Ni  Ni10  1  0.307559  0.000000  0.307559  1
  Ni  Ni11  1  0.658916  0.841042  0.341083  1
  Ni  Ni12  1  0.158957  0.341084  0.341084  1
  Ni  Ni13  1  0.000000  0.000000  0.500000  1
  Ni  Ni14  1  0.341083  0.158958  0.658916  1
  Ni  Ni15  1  0.841042  0.658917  0.658917  1
  Ni  Ni16  1  0.000000  0.307560  0.692440  1
  Ni  Ni17  1  0.692441  0.000000  0.692441  1
  Ni  Ni18  1  0.658916  0.341084  0.841043  1
