# generated using pymatgen
data_TbGaPt3Au
_symmetry_space_group_name_H-M   'P 1'
_cell_length_a   5.18887441
_cell_length_b   5.18887397
_cell_length_c   5.18887442
_cell_angle_alpha   63.93378786
_cell_angle_beta   63.93379164
_cell_angle_gamma   63.93379247
_symmetry_Int_Tables_number   1
_chemical_formula_structural   TbGaPt3Au
_chemical_formula_sum   'Tb1 Ga1 Pt3 Au1'
_cell_volume   107.35138740
_cell_formula_units_Z   1
loop_
 _symmetry_equiv_pos_site_id
 _symmetry_equiv_pos_as_xyz
  1  'x, y, z'
loop_
 _atom_site_type_symbol
 _atom_site_label
 _atom_site_symmetry_multiplicity
 _atom_site_fract_x
 _atom_site_fract_y
 _atom_site_fract_z
 _atom_site_occupancy
  Tb  Tb0  1  0.004187  0.004187  0.004187  1
  Ga  Ga1  1  0.622927  0.622927  0.622927  1
  Pt  Pt2  1  0.622692  0.622692  0.125731  1
  Pt  Pt3  1  0.622692  0.125731  0.622692  1
  Pt  Pt4  1  0.125731  0.622692  0.622692  1
  Au  Au5  1  0.251769  0.251769  0.251769  1
