# generated using pymatgen
data_Sc4Ga18(IrRh)3
_symmetry_space_group_name_H-M   'P 1'
_cell_length_a   7.47648496
_cell_length_b   7.47648452
_cell_length_c   9.41184905
_cell_angle_alpha   90.01618754
_cell_angle_beta   90.01619229
_cell_angle_gamma   119.99848068
_symmetry_Int_Tables_number   1
_chemical_formula_structural   Sc4Ga18(IrRh)3
_chemical_formula_sum   'Sc4 Ga18 Ir3 Rh3'
_cell_volume   455.62449748
_cell_formula_units_Z   1
loop_
 _symmetry_equiv_pos_site_id
 _symmetry_equiv_pos_as_xyz
  1  'x, y, z'
loop_
 _atom_site_type_symbol
 _atom_site_label
 _atom_site_symmetry_multiplicity
 _atom_site_fract_x
 _atom_site_fract_y
 _atom_site_fract_z
 _atom_site_occupancy
  Sc  Sc0  1  0.998837  0.667346  0.248494  1
  Sc  Sc1  1  0.002685  0.333997  0.751922  1
  Sc  Sc2  1  0.666003  0.997315  0.248078  1
  Sc  Sc3  1  0.332654  0.001163  0.751506  1
  Ga  Ga4  1  0.329083  0.328500  0.570745  1
  Ga  Ga5  1  0.671500  0.670917  0.429255  1
  Ga  Ga6  1  0.671084  0.670947  0.070481  1
  Ga  Ga7  1  0.329053  0.328916  0.929519  1
  Ga  Ga8  1  0.339923  0.549549  0.249849  1
  Ga  Ga9  1  0.660194  0.447845  0.749357  1
  Ga  Ga10  1  0.552155  0.339806  0.250643  1
  Ga  Ga11  1  0.450451  0.660077  0.750151  1
  Ga  Ga12  1  0.996656  0.332837  0.084733  1
  Ga  Ga13  1  0.002628  0.667197  0.915810  1
  Ga  Ga14  1  0.002441  0.666348  0.583675  1
  Ga  Ga15  1  0.333652  0.997559  0.416325  1
  Ga  Ga16  1  0.994706  0.332512  0.416176  1
  Ga  Ga17  1  0.667488  0.005294  0.583824  1
  Ga  Ga18  1  0.667163  0.003344  0.915267  1
  Ga  Ga19  1  0.332803  0.997372  0.084190  1
  Ga  Ga20  1  0.118862  0.118732  0.250223  1
  Ga  Ga21  1  0.881268  0.881138  0.749777  1
  Ir  Ir22  1  0.671925  0.328075  0.000000  1
  Ir  Ir23  1  0.327703  0.672297  0.000000  1
  Ir  Ir24  1  0.328165  0.671835  0.500000  1
  Rh  Rh25  1  0.999843  0.000157  0.000000  1
  Rh  Rh26  1  0.000021  0.999979  0.500000  1
  Rh  Rh27  1  0.671052  0.328948  0.500000  1
