# generated using pymatgen
data_Lu4Al24CuIrPd4Pt3
_symmetry_space_group_name_H-M   'P 1'
_cell_length_a   7.50535061
_cell_length_b   7.53173149
_cell_length_c   13.11642600
_cell_angle_alpha   84.72444314
_cell_angle_beta   79.16760963
_cell_angle_gamma   59.87908989
_symmetry_Int_Tables_number   1
_chemical_formula_structural   Lu4Al24CuIrPd4Pt3
_chemical_formula_sum   'Lu4 Al24 Cu1 Ir1 Pd4 Pt3'
_cell_volume   629.89977660
_cell_formula_units_Z   1
loop_
 _symmetry_equiv_pos_site_id
 _symmetry_equiv_pos_as_xyz
  1  'x, y, z'
loop_
 _atom_site_type_symbol
 _atom_site_label
 _atom_site_symmetry_multiplicity
 _atom_site_fract_x
 _atom_site_fract_y
 _atom_site_fract_z
 _atom_site_occupancy
  Lu  Lu0  1  0.393500  0.168486  0.808556  1
  Lu  Lu1  1  0.606799  0.831709  0.191697  1
  Lu  Lu2  1  0.733476  0.498892  0.807986  1
  Lu  Lu3  1  0.266740  0.501101  0.191945  1
  Al  Al4  1  0.686078  0.831334  0.945021  1
  Al  Al5  1  0.314105  0.168814  0.054963  1
  Al  Al6  1  0.145808  0.832967  0.563175  1
  Al  Al7  1  0.854907  0.167260  0.437261  1
  Al  Al8  1  0.481342  0.165441  0.557991  1
  Al  Al9  1  0.520309  0.833688  0.439826  1
  Al  Al10  1  0.221826  0.165967  0.326587  1
  Al  Al11  1  0.782608  0.833950  0.673179  1
  Al  Al12  1  0.435792  0.507080  0.673230  1
  Al  Al13  1  0.564844  0.489717  0.326567  1
  Al  Al14  1  0.108078  0.160913  0.671669  1
  Al  Al15  1  0.887471  0.843352  0.328407  1
  Al  Al16  1  0.351334  0.498379  0.944946  1
  Al  Al17  1  0.648907  0.501277  0.054707  1
  Al  Al18  1  0.015346  0.171268  0.953225  1
  Al  Al19  1  0.984155  0.829083  0.046208  1
  Al  Al20  1  0.188177  0.499456  0.440601  1
  Al  Al21  1  0.812266  0.499968  0.559522  1
  Al  Al22  1  0.729857  0.163690  0.185542  1
  Al  Al23  1  0.266219  0.836596  0.816977  1
  Al  Al24  1  0.061178  0.627874  0.816976  1
  Al  Al25  1  0.938461  0.371248  0.183267  1
  Al  Al26  1  0.854488  0.043089  0.816618  1
  Al  Al27  1  0.143899  0.957435  0.183668  1
  Cu  Cu28  1  0.537602  0.166930  0.361046  1
  Ir  Ir29  1  0.999991  0.499704  0.000378  1
  Pd  Pd30  1  0.120885  0.490143  0.639108  1
  Pd  Pd31  1  0.880719  0.509003  0.360453  1
  Pd  Pd32  1  0.656999  0.171681  0.000257  1
  Pd  Pd33  1  0.342950  0.828617  0.000510  1
  Pt  Pt34  1  0.463038  0.833918  0.638105  1
  Pt  Pt35  1  0.777473  0.175535  0.636852  1
  Pt  Pt36  1  0.222372  0.824434  0.362976  1
