# generated using pymatgen
data_DyYEr2InRh
_symmetry_space_group_name_H-M   'P 1'
_cell_length_a   9.62921032
_cell_length_b   9.62992218
_cell_length_c   9.63241972
_cell_angle_alpha   60.04454538
_cell_angle_beta   60.04587357
_cell_angle_gamma   60.03586831
_symmetry_Int_Tables_number   1
_chemical_formula_structural   DyYEr2InRh
_chemical_formula_sum   'Dy4 Y4 Er8 In4 Rh4'
_cell_volume   632.19059753
_cell_formula_units_Z   4
loop_
 _symmetry_equiv_pos_site_id
 _symmetry_equiv_pos_as_xyz
  1  'x, y, z'
loop_
 _atom_site_type_symbol
 _atom_site_label
 _atom_site_symmetry_multiplicity
 _atom_site_fract_x
 _atom_site_fract_y
 _atom_site_fract_z
 _atom_site_occupancy
  Dy  Dy0  1  0.147754  0.551075  0.148716  1
  Dy  Dy1  1  0.311139  0.689865  0.688174  1
  Dy  Dy2  1  0.689712  0.310655  0.688355  1
  Dy  Dy3  1  0.551038  0.147587  0.148974  1
  Y  Y4  1  0.938092  0.561397  0.560452  1
  Y  Y5  1  0.559973  0.560381  0.938835  1
  Y  Y6  1  0.561840  0.937555  0.936825  1
  Y  Y7  1  0.937659  0.561576  0.937652  1
  Er  Er8  1  0.689783  0.310257  0.311578  1
  Er  Er9  1  0.688809  0.689121  0.311317  1
  Er  Er10  1  0.310827  0.689754  0.311306  1
  Er  Er11  1  0.937735  0.938496  0.560491  1
  Er  Er12  1  0.148534  0.148089  0.551102  1
  Er  Er13  1  0.560477  0.939080  0.559935  1
  Er  Er14  1  0.151917  0.151859  0.152152  1
  Er  Er15  1  0.311101  0.310247  0.689556  1
  In  In16  1  0.917458  0.918005  0.250023  1
  In  In17  1  0.249365  0.918306  0.917535  1
  In  In18  1  0.918316  0.248752  0.918175  1
  In  In19  1  0.916819  0.916781  0.916417  1
  Rh  Rh20  1  0.357269  0.356721  0.356780  1
  Rh  Rh21  1  0.927083  0.357822  0.359533  1
  Rh  Rh22  1  0.359365  0.359375  0.926441  1
  Rh  Rh23  1  0.357934  0.927243  0.359673  1
