# generated using pymatgen
data_Dy2GaSiAu2
_symmetry_space_group_name_H-M   'P 1'
_cell_length_a   5.71769275
_cell_length_b   5.67488046
_cell_length_c   5.67488054
_cell_angle_alpha   133.54865351
_cell_angle_beta   102.15728678
_cell_angle_gamma   95.63005286
_symmetry_Int_Tables_number   1
_chemical_formula_structural   Dy2GaSiAu2
_chemical_formula_sum   'Dy2 Ga1 Si1 Au2'
_cell_volume   122.53923985
_cell_formula_units_Z   1
loop_
 _symmetry_equiv_pos_site_id
 _symmetry_equiv_pos_as_xyz
  1  'x, y, z'
loop_
 _atom_site_type_symbol
 _atom_site_label
 _atom_site_symmetry_multiplicity
 _atom_site_fract_x
 _atom_site_fract_y
 _atom_site_fract_z
 _atom_site_occupancy
  Dy  Dy0  1  0.293989  0.292962  0.001027  1
  Dy  Dy1  1  0.857499  0.358961  0.498538  1
  Ga  Ga2  1  0.469108  0.661383  0.807725  1
  Si  Si3  1  0.859999  0.662682  0.197316  1
  Au  Au4  1  0.266191  0.987588  0.278602  1
  Au  Au5  1  0.715015  0.998224  0.716791  1
