# generated using pymatgen
data_Pr3NdIn2(CuRh)2
_symmetry_space_group_name_H-M   'P 1'
_cell_length_a   7.78846802
_cell_length_b   7.75668202
_cell_length_c   3.90686200
_cell_angle_alpha   90.00000000
_cell_angle_beta   90.00000000
_cell_angle_gamma   89.99125736
_symmetry_Int_Tables_number   1
_chemical_formula_structural   Pr3NdIn2(CuRh)2
_chemical_formula_sum   'Pr3 Nd1 In2 Cu2 Rh2'
_cell_volume   236.02396158
_cell_formula_units_Z   1
loop_
 _symmetry_equiv_pos_site_id
 _symmetry_equiv_pos_as_xyz
  1  'x, y, z'
loop_
 _atom_site_type_symbol
 _atom_site_label
 _atom_site_symmetry_multiplicity
 _atom_site_fract_x
 _atom_site_fract_y
 _atom_site_fract_z
 _atom_site_occupancy
  Pr  Pr0  1  0.687567  0.174574  0.500000  1
  Pr  Pr1  1  0.337020  0.821886  0.500000  1
  Pr  Pr2  1  0.812616  0.674390  0.500000  1
  Nd  Nd3  1  0.162391  0.321948  0.500000  1
  In  In4  1  0.495923  0.496845  0.000000  1
  In  In5  1  0.003901  0.997699  0.000000  1
  Cu  Cu6  1  0.383131  0.125958  0.000000  1
  Cu  Cu7  1  0.116621  0.624927  0.000000  1
  Rh  Rh8  1  0.883030  0.380731  0.000000  1
  Rh  Rh9  1  0.617800  0.881042  0.000000  1
