# generated using pymatgen
data_SrCa3(HgSb2)2
_symmetry_space_group_name_H-M   'P 1'
_cell_length_a   4.69214800
_cell_length_b   7.33081900
_cell_length_c   18.08087900
_cell_angle_alpha   90.00000000
_cell_angle_beta   90.00000000
_cell_angle_gamma   90.00000000
_symmetry_Int_Tables_number   1
_chemical_formula_structural   SrCa3(HgSb2)2
_chemical_formula_sum   'Sr2 Ca6 Hg4 Sb8'
_cell_volume   621.93319700
_cell_formula_units_Z   2
loop_
 _symmetry_equiv_pos_site_id
 _symmetry_equiv_pos_as_xyz
  1  'x, y, z'
loop_
 _atom_site_type_symbol
 _atom_site_label
 _atom_site_symmetry_multiplicity
 _atom_site_fract_x
 _atom_site_fract_y
 _atom_site_fract_z
 _atom_site_occupancy
  Sr  Sr0  1  0.750000  0.776728  0.446666  1
  Sr  Sr1  1  0.250000  0.723272  0.946666  1
  Ca  Ca2  1  0.250000  0.535808  0.728313  1
  Ca  Ca3  1  0.750000  0.964192  0.228313  1
  Ca  Ca4  1  0.750000  0.278060  0.054367  1
  Ca  Ca5  1  0.250000  0.221940  0.554367  1
  Ca  Ca6  1  0.750000  0.461761  0.270248  1
  Ca  Ca7  1  0.250000  0.038239  0.770248  1
  Hg  Hg8  1  0.250000  0.632788  0.150617  1
  Hg  Hg9  1  0.750000  0.867212  0.650617  1
  Hg  Hg10  1  0.750000  0.366486  0.850668  1
  Hg  Hg11  1  0.250000  0.133514  0.350668  1
  Sb  Sb12  1  0.750000  0.259593  0.682643  1
  Sb  Sb13  1  0.250000  0.741153  0.312853  1
  Sb  Sb14  1  0.250000  0.240407  0.182643  1
  Sb  Sb15  1  0.750000  0.764499  0.075122  1
  Sb  Sb16  1  0.750000  0.758847  0.812853  1
  Sb  Sb17  1  0.250000  0.228835  0.928503  1
  Sb  Sb18  1  0.750000  0.271165  0.428503  1
  Sb  Sb19  1  0.250000  0.735501  0.575122  1
