# generated using pymatgen
data_Zr4Co4Si3As
_symmetry_space_group_name_H-M   'P 1'
_cell_length_a   3.84971400
_cell_length_b   6.50530880
_cell_length_c   7.22630632
_cell_angle_alpha   90.26651361
_cell_angle_beta   90.00000000
_cell_angle_gamma   90.00000000
_symmetry_Int_Tables_number   1
_chemical_formula_structural   Zr4Co4Si3As
_chemical_formula_sum   'Zr4 Co4 Si3 As1'
_cell_volume   180.97061068
_cell_formula_units_Z   1
loop_
 _symmetry_equiv_pos_site_id
 _symmetry_equiv_pos_as_xyz
  1  'x, y, z'
loop_
 _atom_site_type_symbol
 _atom_site_label
 _atom_site_symmetry_multiplicity
 _atom_site_fract_x
 _atom_site_fract_y
 _atom_site_fract_z
 _atom_site_occupancy
  Zr  Zr0  1  0.250000  0.009535  0.307534  1
  Zr  Zr1  1  0.250000  0.511204  0.188861  1
  Zr  Zr2  1  0.750000  0.983899  0.692184  1
  Zr  Zr3  1  0.750000  0.491382  0.810137  1
  Co  Co4  1  0.250000  0.140405  0.940140  1
  Co  Co5  1  0.250000  0.648959  0.565446  1
  Co  Co6  1  0.750000  0.857909  0.065924  1
  Co  Co7  1  0.750000  0.360638  0.426675  1
  Si  Si8  1  0.250000  0.781437  0.895905  1
  Si  Si9  1  0.750000  0.719785  0.391525  1
  Si  Si10  1  0.750000  0.219188  0.106216  1
  As  As11  1  0.250000  0.275660  0.609453  1
