# generated using pymatgen
data_Ho2Co7(P2Ru)3
_symmetry_space_group_name_H-M   'P 1'
_cell_length_a   3.71949500
_cell_length_b   10.43041300
_cell_length_c   11.83858700
_cell_angle_alpha   90.00000000
_cell_angle_beta   90.00000000
_cell_angle_gamma   90.00000000
_symmetry_Int_Tables_number   1
_chemical_formula_structural   Ho2Co7(P2Ru)3
_chemical_formula_sum   'Ho4 Co14 P12 Ru6'
_cell_volume   459.28827041
_cell_formula_units_Z   2
loop_
 _symmetry_equiv_pos_site_id
 _symmetry_equiv_pos_as_xyz
  1  'x, y, z'
loop_
 _atom_site_type_symbol
 _atom_site_label
 _atom_site_symmetry_multiplicity
 _atom_site_fract_x
 _atom_site_fract_y
 _atom_site_fract_z
 _atom_site_occupancy
  Ho  Ho0  1  0.250000  0.586476  0.705001  1
  Ho  Ho1  1  0.250000  0.913524  0.205001  1
  Ho  Ho2  1  0.750000  0.415215  0.292400  1
  Ho  Ho3  1  0.750000  0.084785  0.792400  1
  Co  Co4  1  0.750000  0.597488  0.513075  1
  Co  Co5  1  0.750000  0.902512  0.013075  1
  Co  Co6  1  0.250000  0.224843  0.179360  1
  Co  Co7  1  0.250000  0.275157  0.679360  1
  Co  Co8  1  0.750000  0.777102  0.822249  1
  Co  Co9  1  0.750000  0.722898  0.322249  1
  Co  Co10  1  0.250000  0.884610  0.700380  1
  Co  Co11  1  0.250000  0.615390  0.200380  1
  Co  Co12  1  0.750000  0.113433  0.298590  1
  Co  Co13  1  0.750000  0.386567  0.798590  1
  Co  Co14  1  0.250000  0.465367  0.931087  1
  Co  Co15  1  0.250000  0.034633  0.431087  1
  Co  Co16  1  0.750000  0.537058  0.068059  1
  Co  Co17  1  0.750000  0.962942  0.568059  1
  P  P18  1  0.250000  0.422191  0.112188  1
  P  P19  1  0.250000  0.077809  0.612188  1
  P  P20  1  0.750000  0.579335  0.887054  1
  P  P21  1  0.750000  0.920665  0.387054  1
  P  P22  1  0.250000  0.272679  0.866434  1
  P  P23  1  0.250000  0.227321  0.366434  1
  P  P24  1  0.750000  0.729731  0.132725  1
  P  P25  1  0.750000  0.770269  0.632725  1
  P  P26  1  0.250000  0.600546  0.386700  1
  P  P27  1  0.250000  0.899454  0.886700  1
  P  P28  1  0.750000  0.402578  0.612806  1
  P  P29  1  0.750000  0.097422  0.112806  1
  Ru  Ru30  1  0.250000  0.714520  0.990205  1
  Ru  Ru31  1  0.250000  0.785480  0.490205  1
  Ru  Ru32  1  0.750000  0.289720  0.012874  1
  Ru  Ru33  1  0.750000  0.210280  0.512874  1
  Ru  Ru34  1  0.250000  0.409150  0.488812  1
  Ru  Ru35  1  0.250000  0.090850  0.988812  1
