# generated using pymatgen
data_Li2AlPd5
_symmetry_space_group_name_H-M   'P 1'
_cell_length_a   4.15508400
_cell_length_b   5.34945000
_cell_length_c   10.32217200
_cell_angle_alpha   90.00000000
_cell_angle_beta   90.00000000
_cell_angle_gamma   90.00000000
_symmetry_Int_Tables_number   1
_chemical_formula_structural   Li2AlPd5
_chemical_formula_sum   'Li4 Al2 Pd10'
_cell_volume   229.43519149
_cell_formula_units_Z   2
loop_
 _symmetry_equiv_pos_site_id
 _symmetry_equiv_pos_as_xyz
  1  'x, y, z'
loop_
 _atom_site_type_symbol
 _atom_site_label
 _atom_site_symmetry_multiplicity
 _atom_site_fract_x
 _atom_site_fract_y
 _atom_site_fract_z
 _atom_site_occupancy
  Li  Li0  1  0.500000  0.160680  0.365086  1
  Li  Li1  1  0.500000  0.839320  0.634914  1
  Li  Li2  1  0.500000  0.660680  0.134914  1
  Li  Li3  1  0.500000  0.339320  0.865086  1
  Al  Al4  1  0.000000  0.000000  0.000000  1
  Al  Al5  1  0.000000  0.500000  0.500000  1
  Pd  Pd6  1  0.500000  0.173747  0.110070  1
  Pd  Pd7  1  0.500000  0.826253  0.889930  1
  Pd  Pd8  1  0.500000  0.673747  0.389930  1
  Pd  Pd9  1  0.500000  0.326253  0.610070  1
  Pd  Pd10  1  0.000000  0.000000  0.500000  1
  Pd  Pd11  1  0.000000  0.500000  0.000000  1
  Pd  Pd12  1  0.000000  0.884094  0.236777  1
  Pd  Pd13  1  0.000000  0.115906  0.763223  1
  Pd  Pd14  1  0.000000  0.384094  0.263223  1
  Pd  Pd15  1  0.000000  0.615906  0.736777  1
