# generated using pymatgen
data_Ac4Zn3Ge5
_symmetry_space_group_name_H-M   'P 1'
_cell_length_a   4.37481900
_cell_length_b   9.22185629
_cell_length_c   7.56719611
_cell_angle_alpha   90.00442868
_cell_angle_beta   90.00000000
_cell_angle_gamma   90.00000000
_symmetry_Int_Tables_number   1
_chemical_formula_structural   Ac4Zn3Ge5
_chemical_formula_sum   'Ac4 Zn3 Ge5'
_cell_volume   305.29059682
_cell_formula_units_Z   1
loop_
 _symmetry_equiv_pos_site_id
 _symmetry_equiv_pos_as_xyz
  1  'x, y, z'
loop_
 _atom_site_type_symbol
 _atom_site_label
 _atom_site_symmetry_multiplicity
 _atom_site_fract_x
 _atom_site_fract_y
 _atom_site_fract_z
 _atom_site_occupancy
  Ac  Ac0  1  0.500000  0.502535  0.757214  1
  Ac  Ac1  1  0.500000  0.998055  0.754913  1
  Ac  Ac2  1  0.000000  0.496207  0.243232  1
  Ac  Ac3  1  0.000000  0.001742  0.246250  1
  Zn  Zn4  1  0.500000  0.745813  0.416436  1
  Zn  Zn5  1  0.000000  0.755097  0.917567  1
  Zn  Zn6  1  0.000000  0.256279  0.577964  1
  Ge  Ge7  1  0.500000  0.748786  0.085862  1
  Ge  Ge8  1  0.500000  0.249503  0.426927  1
  Ge  Ge9  1  0.000000  0.248984  0.904315  1
  Ge  Ge10  1  0.000000  0.749385  0.582569  1
  Ge  Ge11  1  0.500000  0.247614  0.086752  1
