# generated using pymatgen
data_K6TmFeF12
_symmetry_space_group_name_H-M   'P 1'
_cell_length_a   6.50484277
_cell_length_b   6.26280343
_cell_length_c   10.90137533
_cell_angle_alpha   55.29377732
_cell_angle_beta   89.71544632
_cell_angle_gamma   90.07122371
_symmetry_Int_Tables_number   1
_chemical_formula_structural   K6TmFeF12
_chemical_formula_sum   'K6 Tm1 Fe1 F12'
_cell_volume   365.08286101
_cell_formula_units_Z   1
loop_
 _symmetry_equiv_pos_site_id
 _symmetry_equiv_pos_as_xyz
  1  'x, y, z'
loop_
 _atom_site_type_symbol
 _atom_site_label
 _atom_site_symmetry_multiplicity
 _atom_site_fract_x
 _atom_site_fract_y
 _atom_site_fract_z
 _atom_site_occupancy
  K  K0  1  0.500000  0.500000  0.000000  1
  K  K1  1  0.000000  0.500000  0.500000  1
  K  K2  1  0.053560  0.741203  0.744480  1
  K  K3  1  0.946440  0.258797  0.255520  1
  K  K4  1  0.549741  0.276173  0.737836  1
  K  K5  1  0.450259  0.723827  0.262164  1
  Tm  Tm6  1  0.000000  0.000000  0.000000  1
  Fe  Fe7  1  0.500000  0.000000  0.500000  1
  F  F8  1  0.751043  0.782249  0.559596  1
  F  F9  1  0.248957  0.217751  0.440404  1
  F  F10  1  0.273518  0.235096  0.930441  1
  F  F11  1  0.726482  0.764904  0.069559  1
  F  F12  1  0.453834  0.891621  0.707079  1
  F  F13  1  0.546166  0.108379  0.292921  1
  F  F14  1  0.947634  0.116277  0.775403  1
  F  F15  1  0.052366  0.883723  0.224597  1
  F  F16  1  0.332020  0.701033  0.542285  1
  F  F17  1  0.667980  0.298967  0.457715  1
  F  F18  1  0.826703  0.329939  0.950562  1
  F  F19  1  0.173297  0.670061  0.049438  1
