# generated using pymatgen
data_GdY3(TcB4)4
_symmetry_space_group_name_H-M   'P 1'
_cell_length_a   5.98032700
_cell_length_b   11.57289001
_cell_length_c   3.60579600
_cell_angle_alpha   90.00000000
_cell_angle_beta   90.00000000
_cell_angle_gamma   90.00160757
_symmetry_Int_Tables_number   1
_chemical_formula_structural   GdY3(TcB4)4
_chemical_formula_sum   'Gd1 Y3 Tc4 B16'
_cell_volume   249.55593891
_cell_formula_units_Z   1
loop_
 _symmetry_equiv_pos_site_id
 _symmetry_equiv_pos_as_xyz
  1  'x, y, z'
loop_
 _atom_site_type_symbol
 _atom_site_label
 _atom_site_symmetry_multiplicity
 _atom_site_fract_x
 _atom_site_fract_y
 _atom_site_fract_z
 _atom_site_occupancy
  Gd  Gd0  1  0.873078  0.150137  0.000000  1
  Y  Y1  1  0.372768  0.349989  0.000000  1
  Y  Y2  1  0.627226  0.650141  0.000000  1
  Y  Y3  1  0.127067  0.849943  0.000000  1
  Tc  Tc4  1  0.366440  0.087223  0.000000  1
  Tc  Tc5  1  0.866118  0.413153  0.000000  1
  Tc  Tc6  1  0.134024  0.587348  0.000000  1
  Tc  Tc7  1  0.633290  0.912191  0.000000  1
  B  B8  1  0.136195  0.031256  0.499999  1
  B  B9  1  0.612866  0.046925  0.499999  1
  B  B10  1  0.213225  0.184864  0.499999  1
  B  B11  1  0.523504  0.192039  0.499999  1
  B  B12  1  0.023305  0.308086  0.499999  1
  B  B13  1  0.713320  0.315120  0.499999  1
  B  B14  1  0.113212  0.452980  0.499999  1
  B  B15  1  0.636087  0.468575  0.499999  1
  B  B16  1  0.363844  0.531613  0.499999  1
  B  B17  1  0.887062  0.547126  0.499999  1
  B  B18  1  0.286809  0.685090  0.499999  1
  B  B19  1  0.976766  0.692213  0.499999  1
  B  B20  1  0.476498  0.807738  0.499999  1
  B  B21  1  0.786879  0.814881  0.499999  1
  B  B22  1  0.386880  0.952898  0.499999  1
  B  B23  1  0.863536  0.968480  0.499999  1
