# generated using pymatgen
data_DyHoTm8(Tl2Pt)4
_symmetry_space_group_name_H-M   'P 1'
_cell_length_a   3.57072800
_cell_length_b   8.22805740
_cell_length_c   18.35248700
_cell_angle_alpha   89.98151455
_cell_angle_beta   90.00000000
_cell_angle_gamma   90.00000000
_symmetry_Int_Tables_number   1
_chemical_formula_structural   DyHoTm8(Tl2Pt)4
_chemical_formula_sum   'Dy1 Ho1 Tm8 Tl8 Pt4'
_cell_volume   539.19888344
_cell_formula_units_Z   1
loop_
 _symmetry_equiv_pos_site_id
 _symmetry_equiv_pos_as_xyz
  1  'x, y, z'
loop_
 _atom_site_type_symbol
 _atom_site_label
 _atom_site_symmetry_multiplicity
 _atom_site_fract_x
 _atom_site_fract_y
 _atom_site_fract_z
 _atom_site_occupancy
  Dy  Dy0  1  0.000000  0.000000  0.000000  1
  Ho  Ho1  1  0.000000  0.500000  0.500000  1
  Tm  Tm2  1  0.000000  0.114943  0.412799  1
  Tm  Tm3  1  0.000000  0.885057  0.587201  1
  Tm  Tm4  1  0.000000  0.384800  0.912641  1
  Tm  Tm5  1  0.000000  0.615200  0.087359  1
  Tm  Tm6  1  0.000000  0.244359  0.220928  1
  Tm  Tm7  1  0.000000  0.755641  0.779072  1
  Tm  Tm8  1  0.000000  0.255680  0.720709  1
  Tm  Tm9  1  0.000000  0.744320  0.279291  1
  Tl  Tl10  1  0.500000  0.421321  0.352716  1
  Tl  Tl11  1  0.500000  0.578679  0.647284  1
  Tl  Tl12  1  0.500000  0.078752  0.852463  1
  Tl  Tl13  1  0.500000  0.921248  0.147537  1
  Tl  Tl14  1  0.500000  0.294261  0.065036  1
  Tl  Tl15  1  0.500000  0.705739  0.934964  1
  Tl  Tl16  1  0.500000  0.206269  0.564876  1
  Tl  Tl17  1  0.500000  0.793731  0.435124  1
  Pt  Pt18  1  0.500000  0.027239  0.303360  1
  Pt  Pt19  1  0.500000  0.972761  0.696640  1
  Pt  Pt20  1  0.500000  0.472715  0.803110  1
  Pt  Pt21  1  0.500000  0.527285  0.196890  1
