# generated using pymatgen
data_Dy8Y12Cd5InNi2
_symmetry_space_group_name_H-M   'P 1'
_cell_length_a   9.67754170
_cell_length_b   9.67754116
_cell_length_c   9.81280700
_cell_angle_alpha   89.99778856
_cell_angle_beta   90.00221092
_cell_angle_gamma   120.14482323
_symmetry_Int_Tables_number   1
_chemical_formula_structural   Dy8Y12Cd5InNi2
_chemical_formula_sum   'Dy8 Y12 Cd5 In1 Ni2'
_cell_volume   794.72767060
_cell_formula_units_Z   1
loop_
 _symmetry_equiv_pos_site_id
 _symmetry_equiv_pos_as_xyz
  1  'x, y, z'
loop_
 _atom_site_type_symbol
 _atom_site_label
 _atom_site_symmetry_multiplicity
 _atom_site_fract_x
 _atom_site_fract_y
 _atom_site_fract_z
 _atom_site_occupancy
  Dy  Dy0  1  0.001753  0.998247  0.501543  1
  Dy  Dy1  1  0.001751  0.998249  0.998455  1
  Dy  Dy2  1  0.210756  0.789244  0.436985  1
  Dy  Dy3  1  0.210137  0.420813  0.436254  1
  Dy  Dy4  1  0.579187  0.789863  0.436254  1
  Dy  Dy5  1  0.789548  0.210452  0.562779  1
  Dy  Dy6  1  0.788972  0.578342  0.564194  1
  Dy  Dy7  1  0.421658  0.211028  0.564194  1
  Y  Y8  1  0.542907  0.457093  0.250413  1
  Y  Y9  1  0.540167  0.087432  0.250464  1
  Y  Y10  1  0.912568  0.459833  0.250464  1
  Y  Y11  1  0.456056  0.543944  0.749608  1
  Y  Y12  1  0.456615  0.912622  0.749589  1
  Y  Y13  1  0.087378  0.543385  0.749589  1
  Y  Y14  1  0.789931  0.210069  0.937655  1
  Y  Y15  1  0.789409  0.579268  0.936227  1
  Y  Y16  1  0.420732  0.210591  0.936227  1
  Y  Y17  1  0.210407  0.789593  0.062574  1
  Y  Y18  1  0.209756  0.419950  0.063351  1
  Y  Y19  1  0.580050  0.790244  0.063351  1
  Cd  Cd20  1  0.884969  0.769016  0.249803  1
  Cd  Cd21  1  0.230984  0.115031  0.249803  1
  Cd  Cd22  1  0.116448  0.883552  0.750179  1
  Cd  Cd23  1  0.115086  0.231115  0.750159  1
  Cd  Cd24  1  0.768885  0.884914  0.750159  1
  In  In25  1  0.884106  0.115894  0.249688  1
  Ni  Ni26  1  0.332881  0.667119  0.251549  1
  Ni  Ni27  1  0.666906  0.333094  0.748490  1
