# generated using pymatgen
data_SrBiF7
_symmetry_space_group_name_H-M   'P 1'
_cell_length_a   7.50491600
_cell_length_b   5.08393537
_cell_length_c   6.97801238
_cell_angle_alpha   85.51000745
_cell_angle_beta   90.00000000
_cell_angle_gamma   90.00000000
_symmetry_Int_Tables_number   1
_chemical_formula_structural   SrBiF7
_chemical_formula_sum   'Sr2 Bi2 F14'
_cell_volume   265.42553558
_cell_formula_units_Z   2
loop_
 _symmetry_equiv_pos_site_id
 _symmetry_equiv_pos_as_xyz
  1  'x, y, z'
loop_
 _atom_site_type_symbol
 _atom_site_label
 _atom_site_symmetry_multiplicity
 _atom_site_fract_x
 _atom_site_fract_y
 _atom_site_fract_z
 _atom_site_occupancy
  Sr  Sr0  1  0.250000  0.029306  0.686213  1
  Sr  Sr1  1  0.750000  0.970694  0.313787  1
  Bi  Bi2  1  0.250000  0.464896  0.222452  1
  Bi  Bi3  1  0.750000  0.535104  0.777548  1
  F  F4  1  0.250000  0.661346  0.942543  1
  F  F5  1  0.517322  0.316128  0.784330  1
  F  F6  1  0.750000  0.338654  0.057457  1
  F  F7  1  0.017322  0.683872  0.215670  1
  F  F8  1  0.250000  0.164274  0.038864  1
  F  F9  1  0.073833  0.183454  0.365578  1
  F  F10  1  0.426167  0.183454  0.365578  1
  F  F11  1  0.573833  0.816546  0.634422  1
  F  F12  1  0.982678  0.316128  0.784330  1
  F  F13  1  0.750000  0.835726  0.961136  1
  F  F14  1  0.482678  0.683872  0.215670  1
  F  F15  1  0.750000  0.413726  0.494917  1
  F  F16  1  0.926167  0.816546  0.634422  1
  F  F17  1  0.250000  0.586274  0.505083  1
