# generated using pymatgen
data_Ti5Fe4Rh
_symmetry_space_group_name_H-M   'P 1'
_cell_length_a   2.98480700
_cell_length_b   2.98480700
_cell_length_c   14.99923600
_cell_angle_alpha   90.00000000
_cell_angle_beta   90.00000000
_cell_angle_gamma   90.00000000
_symmetry_Int_Tables_number   1
_chemical_formula_structural   Ti5Fe4Rh
_chemical_formula_sum   'Ti5 Fe4 Rh1'
_cell_volume   133.62928588
_cell_formula_units_Z   1
loop_
 _symmetry_equiv_pos_site_id
 _symmetry_equiv_pos_as_xyz
  1  'x, y, z'
loop_
 _atom_site_type_symbol
 _atom_site_label
 _atom_site_symmetry_multiplicity
 _atom_site_fract_x
 _atom_site_fract_y
 _atom_site_fract_z
 _atom_site_occupancy
  Ti  Ti0  1  0.500000  0.500000  0.110118  1
  Ti  Ti1  1  0.500000  0.500000  0.304745  1
  Ti  Ti2  1  0.500000  0.500000  0.500000  1
  Ti  Ti3  1  0.500000  0.500000  0.695255  1
  Ti  Ti4  1  0.500000  0.500000  0.889882  1
  Fe  Fe5  1  0.000000  0.000000  0.204665  1
  Fe  Fe6  1  0.000000  0.000000  0.402045  1
  Fe  Fe7  1  0.000000  0.000000  0.597955  1
  Fe  Fe8  1  0.000000  0.000000  0.795335  1
  Rh  Rh9  1  0.000000  0.000000  0.000000  1
