# generated using pymatgen
data_Ta4Cr3Ga4Cu
_symmetry_space_group_name_H-M   'P 1'
_cell_length_a   4.92010924
_cell_length_b   4.92009116
_cell_length_c   8.29238700
_cell_angle_alpha   90.00000000
_cell_angle_beta   90.00000000
_cell_angle_gamma   60.94784932
_symmetry_Int_Tables_number   1
_chemical_formula_structural   Ta4Cr3Ga4Cu
_chemical_formula_sum   'Ta4 Cr3 Ga4 Cu1'
_cell_volume   175.47989424
_cell_formula_units_Z   1
loop_
 _symmetry_equiv_pos_site_id
 _symmetry_equiv_pos_as_xyz
  1  'x, y, z'
loop_
 _atom_site_type_symbol
 _atom_site_label
 _atom_site_symmetry_multiplicity
 _atom_site_fract_x
 _atom_site_fract_y
 _atom_site_fract_z
 _atom_site_occupancy
  Ta  Ta0  1  0.333589  0.333570  0.554585  1
  Ta  Ta1  1  0.664248  0.664298  0.430432  1
  Ta  Ta2  1  0.664248  0.664298  0.069568  1
  Ta  Ta3  1  0.333589  0.333570  0.945415  1
  Cr  Cr4  1  0.174427  0.645855  0.250000  1
  Cr  Cr5  1  0.645826  0.174492  0.250000  1
  Cr  Cr6  1  0.174217  0.174395  0.250000  1
  Ga  Ga7  1  0.993990  0.993886  0.494370  1
  Ga  Ga8  1  0.993990  0.993886  0.005630  1
  Ga  Ga9  1  0.834066  0.350836  0.750000  1
  Ga  Ga10  1  0.350908  0.833996  0.750000  1
  Cu  Cu11  1  0.836902  0.836918  0.750000  1
