# generated using pymatgen
data_Hf18CuRe8Ni
_symmetry_space_group_name_H-M   'P 1'
_cell_length_a   8.60417100
_cell_length_b   8.60417154
_cell_length_c   8.49875700
_cell_angle_alpha   90.00000000
_cell_angle_beta   90.00000000
_cell_angle_gamma   120.00000177
_symmetry_Int_Tables_number   1
_chemical_formula_structural   Hf18CuRe8Ni
_chemical_formula_sum   'Hf18 Cu1 Re8 Ni1'
_cell_volume   544.88409247
_cell_formula_units_Z   1
loop_
 _symmetry_equiv_pos_site_id
 _symmetry_equiv_pos_as_xyz
  1  'x, y, z'
loop_
 _atom_site_type_symbol
 _atom_site_label
 _atom_site_symmetry_multiplicity
 _atom_site_fract_x
 _atom_site_fract_y
 _atom_site_fract_z
 _atom_site_occupancy
  Hf  Hf0  1  0.195140  0.804860  0.447198  1
  Hf  Hf1  1  0.195140  0.390279  0.447198  1
  Hf  Hf2  1  0.609721  0.804860  0.447198  1
  Hf  Hf3  1  0.801948  0.198052  0.556058  1
  Hf  Hf4  1  0.801948  0.603896  0.556058  1
  Hf  Hf5  1  0.396104  0.198052  0.556058  1
  Hf  Hf6  1  0.801948  0.198052  0.943942  1
  Hf  Hf7  1  0.801948  0.603896  0.943942  1
  Hf  Hf8  1  0.396104  0.198052  0.943942  1
  Hf  Hf9  1  0.195140  0.804860  0.052802  1
  Hf  Hf10  1  0.195140  0.390279  0.052802  1
  Hf  Hf11  1  0.609721  0.804860  0.052802  1
  Hf  Hf12  1  0.541316  0.458684  0.250000  1
  Hf  Hf13  1  0.541316  0.082632  0.250000  1
  Hf  Hf14  1  0.917368  0.458684  0.250000  1
  Hf  Hf15  1  0.458848  0.541152  0.750000  1
  Hf  Hf16  1  0.458848  0.917696  0.750000  1
  Hf  Hf17  1  0.082304  0.541152  0.750000  1
  Cu  Cu18  1  0.333333  0.666667  0.250000  1
  Re  Re19  1  0.888818  0.111182  0.250000  1
  Re  Re20  1  0.888818  0.777635  0.250000  1
  Re  Re21  1  0.222365  0.111182  0.250000  1
  Re  Re22  1  0.111159  0.888841  0.750000  1
  Re  Re23  1  0.111159  0.222318  0.750000  1
  Re  Re24  1  0.777682  0.888841  0.750000  1
  Re  Re25  1  0.000000  0.000000  0.500294  1
  Re  Re26  1  0.000000  0.000000  0.999706  1
  Ni  Ni27  1  0.666667  0.333333  0.750000  1
