# generated using pymatgen
data_Ce8Ti9Si16Mo3
_symmetry_space_group_name_H-M   'P 1'
_cell_length_a   7.04236118
_cell_length_b   7.04236082
_cell_length_c   13.10241544
_cell_angle_alpha   89.92001061
_cell_angle_beta   90.07998940
_cell_angle_gamma   90.09726161
_symmetry_Int_Tables_number   1
_chemical_formula_structural   Ce8Ti9Si16Mo3
_chemical_formula_sum   'Ce8 Ti9 Si16 Mo3'
_cell_volume   649.81010769
_cell_formula_units_Z   1
loop_
 _symmetry_equiv_pos_site_id
 _symmetry_equiv_pos_as_xyz
  1  'x, y, z'
loop_
 _atom_site_type_symbol
 _atom_site_label
 _atom_site_symmetry_multiplicity
 _atom_site_fract_x
 _atom_site_fract_y
 _atom_site_fract_z
 _atom_site_occupancy
  Ce  Ce0  1  0.993462  0.668148  0.031989  1
  Ce  Ce1  1  0.004125  0.332344  0.531838  1
  Ce  Ce2  1  0.668148  0.993462  0.968011  1
  Ce  Ce3  1  0.169044  0.509385  0.781208  1
  Ce  Ce4  1  0.831947  0.494015  0.281953  1
  Ce  Ce5  1  0.509385  0.169044  0.218792  1
  Ce  Ce6  1  0.494015  0.831947  0.718047  1
  Ce  Ce7  1  0.332344  0.004125  0.468162  1
  Ti  Ti8  1  0.342012  0.508020  0.371927  1
  Ti  Ti9  1  0.843066  0.993090  0.378072  1
  Ti  Ti10  1  0.006286  0.157683  0.123551  1
  Ti  Ti11  1  0.993090  0.843066  0.621928  1
  Ti  Ti12  1  0.508020  0.342012  0.628073  1
  Ti  Ti13  1  0.157683  0.006286  0.876449  1
  Ti  Ti14  1  0.328467  0.328467  0.000000  1
  Ti  Ti15  1  0.494185  0.656730  0.129840  1
  Ti  Ti16  1  0.656730  0.494185  0.870160  1
  Si  Si17  1  0.041568  0.706324  0.433236  1
  Si  Si18  1  0.956978  0.293018  0.931749  1
  Si  Si19  1  0.706324  0.041568  0.566764  1
  Si  Si20  1  0.206931  0.458170  0.182914  1
  Si  Si21  1  0.793341  0.542772  0.682941  1
  Si  Si22  1  0.458170  0.206931  0.817086  1
  Si  Si23  1  0.542772  0.793341  0.317059  1
  Si  Si24  1  0.293018  0.956978  0.068251  1
  Si  Si25  1  0.802075  0.873654  0.188663  1
  Si  Si26  1  0.302141  0.624394  0.561488  1
  Si  Si27  1  0.699372  0.373382  0.060297  1
  Si  Si28  1  0.624394  0.302141  0.438512  1
  Si  Si29  1  0.373382  0.699372  0.939703  1
  Si  Si30  1  0.126894  0.198489  0.311490  1
  Si  Si31  1  0.198489  0.126894  0.688510  1
  Si  Si32  1  0.873654  0.802075  0.811337  1
  Mo  Mo33  1  0.670372  0.670372  0.500000  1
  Mo  Mo34  1  0.828445  0.169668  0.748773  1
  Mo  Mo35  1  0.169668  0.828445  0.251227  1
