# generated using pymatgen
data_Y4ReB12Rh
_symmetry_space_group_name_H-M   'P 1'
_cell_length_a   3.68806100
_cell_length_b   9.17161846
_cell_length_c   11.56692110
_cell_angle_alpha   90.44412035
_cell_angle_beta   90.00000000
_cell_angle_gamma   90.00000000
_symmetry_Int_Tables_number   1
_chemical_formula_structural   Y4ReB12Rh
_chemical_formula_sum   'Y8 Re2 B24 Rh2'
_cell_volume   391.24500080
_cell_formula_units_Z   2
loop_
 _symmetry_equiv_pos_site_id
 _symmetry_equiv_pos_as_xyz
  1  'x, y, z'
loop_
 _atom_site_type_symbol
 _atom_site_label
 _atom_site_symmetry_multiplicity
 _atom_site_fract_x
 _atom_site_fract_y
 _atom_site_fract_z
 _atom_site_occupancy
  Y  Y0  1  0.000000  0.318520  0.410798  1
  Y  Y1  1  0.000000  0.681480  0.589202  1
  Y  Y2  1  0.000000  0.826283  0.082636  1
  Y  Y3  1  0.000000  0.173717  0.917364  1
  Y  Y4  1  0.000000  0.945155  0.371756  1
  Y  Y5  1  0.000000  0.054845  0.628244  1
  Y  Y6  1  0.000000  0.442358  0.126824  1
  Y  Y7  1  0.000000  0.557642  0.873176  1
  Re  Re8  1  0.000000  0.138701  0.179732  1
  Re  Re9  1  0.000000  0.861299  0.820268  1
  B  B10  1  0.500000  0.554475  0.433960  1
  B  B11  1  0.500000  0.445525  0.566040  1
  B  B12  1  0.500000  0.053219  0.067575  1
  B  B13  1  0.500000  0.946781  0.932425  1
  B  B14  1  0.500000  0.748521  0.421146  1
  B  B15  1  0.500000  0.251479  0.578854  1
  B  B16  1  0.500000  0.247945  0.081508  1
  B  B17  1  0.500000  0.752055  0.918492  1
  B  B18  1  0.500000  0.790668  0.265317  1
  B  B19  1  0.500000  0.209332  0.734683  1
  B  B20  1  0.500000  0.292307  0.234702  1
  B  B21  1  0.500000  0.707693  0.765298  1
  B  B22  1  0.500000  0.632478  0.183777  1
  B  B23  1  0.500000  0.367522  0.816223  1
  B  B24  1  0.500000  0.131994  0.314508  1
  B  B25  1  0.500000  0.868006  0.685492  1
  B  B26  1  0.500000  0.983488  0.212803  1
  B  B27  1  0.500000  0.016512  0.787197  1
  B  B28  1  0.500000  0.483801  0.288053  1
  B  B29  1  0.500000  0.516199  0.711947  1
  B  B30  1  0.500000  0.606497  0.029682  1
  B  B31  1  0.500000  0.393503  0.970318  1
  B  B32  1  0.500000  0.108005  0.470823  1
  B  B33  1  0.500000  0.891995  0.529177  1
  Rh  Rh34  1  0.000000  0.637702  0.321604  1
  Rh  Rh35  1  0.000000  0.362298  0.678396  1
