# generated using pymatgen
data_Ca3Lu(SbPt)4
_symmetry_space_group_name_H-M   'P 1'
_cell_length_a   4.61957200
_cell_length_b   7.34108011
_cell_length_c   7.94048003
_cell_angle_alpha   90.19060040
_cell_angle_beta   90.00000000
_cell_angle_gamma   90.00000000
_symmetry_Int_Tables_number   1
_chemical_formula_structural   Ca3Lu(SbPt)4
_chemical_formula_sum   'Ca3 Lu1 Sb4 Pt4'
_cell_volume   269.28121531
_cell_formula_units_Z   1
loop_
 _symmetry_equiv_pos_site_id
 _symmetry_equiv_pos_as_xyz
  1  'x, y, z'
loop_
 _atom_site_type_symbol
 _atom_site_label
 _atom_site_symmetry_multiplicity
 _atom_site_fract_x
 _atom_site_fract_y
 _atom_site_fract_z
 _atom_site_occupancy
  Ca  Ca0  1  0.250000  0.006411  0.302491  1
  Ca  Ca1  1  0.750000  0.492909  0.800814  1
  Ca  Ca2  1  0.250000  0.507312  0.199003  1
  Lu  Lu3  1  0.750000  0.991486  0.699157  1
  Sb  Sb4  1  0.750000  0.310740  0.408844  1
  Sb  Sb5  1  0.250000  0.187683  0.909089  1
  Sb  Sb6  1  0.250000  0.684386  0.590904  1
  Sb  Sb7  1  0.750000  0.810331  0.089865  1
  Pt  Pt8  1  0.250000  0.810429  0.908733  1
  Pt  Pt9  1  0.250000  0.291327  0.586239  1
  Pt  Pt10  1  0.750000  0.710900  0.424222  1
  Pt  Pt11  1  0.750000  0.196086  0.080639  1
