# generated using pymatgen
data_Pm4ZnPd3
_symmetry_space_group_name_H-M   'P 1'
_cell_length_a   7.39780334
_cell_length_b   5.75623068
_cell_length_c   4.64259500
_cell_angle_alpha   90.00000000
_cell_angle_beta   90.00000000
_cell_angle_gamma   89.87554091
_symmetry_Int_Tables_number   1
_chemical_formula_structural   Pm4ZnPd3
_chemical_formula_sum   'Pm4 Zn1 Pd3'
_cell_volume   197.69730381
_cell_formula_units_Z   1
loop_
 _symmetry_equiv_pos_site_id
 _symmetry_equiv_pos_as_xyz
  1  'x, y, z'
loop_
 _atom_site_type_symbol
 _atom_site_label
 _atom_site_symmetry_multiplicity
 _atom_site_fract_x
 _atom_site_fract_y
 _atom_site_fract_z
 _atom_site_occupancy
  Pm  Pm0  1  0.106241  0.503481  0.000000  1
  Pm  Pm1  1  0.591027  0.737586  0.000000  1
  Pm  Pm2  1  0.238260  0.022787  0.499999  1
  Pm  Pm3  1  0.728729  0.239389  0.499999  1
  Zn  Zn4  1  0.883228  0.742652  0.499999  1
  Pd  Pd5  1  0.461329  0.229871  0.000000  1
  Pd  Pd6  1  0.950504  0.990817  0.000000  1
  Pd  Pd7  1  0.374014  0.533418  0.499999  1
