# generated using pymatgen
data_Sm3LuSc2(Si3Ru)8
_symmetry_space_group_name_H-M   'P 1'
_cell_length_a   10.07452069
_cell_length_b   10.07452129
_cell_length_c   8.13796600
_cell_angle_alpha   90.07524163
_cell_angle_beta   89.92475837
_cell_angle_gamma   132.37327200
_symmetry_Int_Tables_number   1
_chemical_formula_structural   Sm3LuSc2(Si3Ru)8
_chemical_formula_sum   'Sm3 Lu1 Sc2 Si24 Ru8'
_cell_volume   610.20165234
_cell_formula_units_Z   1
loop_
 _symmetry_equiv_pos_site_id
 _symmetry_equiv_pos_as_xyz
  1  'x, y, z'
loop_
 _atom_site_type_symbol
 _atom_site_label
 _atom_site_symmetry_multiplicity
 _atom_site_fract_x
 _atom_site_fract_y
 _atom_site_fract_z
 _atom_site_occupancy
  Sm  Sm0  1  0.501765  0.001765  0.750000  1
  Sm  Sm1  1  0.998025  0.498025  0.250000  1
  Sm  Sm2  1  0.497345  0.997345  0.250000  1
  Lu  Lu3  1  0.001805  0.501805  0.750000  1
  Sc  Sc4  1  0.499867  0.499893  0.500129  1
  Sc  Sc5  1  0.999893  0.999867  0.999871  1
  Si  Si6  1  0.796454  0.206533  0.502225  1
  Si  Si7  1  0.293253  0.703213  0.997948  1
  Si  Si8  1  0.203213  0.793253  0.502052  1
  Si  Si9  1  0.706533  0.296454  0.997775  1
  Si  Si10  1  0.331792  0.331068  0.832330  1
  Si  Si11  1  0.668579  0.668463  0.167998  1
  Si  Si12  1  0.168463  0.168579  0.332002  1
  Si  Si13  1  0.831068  0.831792  0.667670  1
  Si  Si14  1  0.119097  0.887779  0.728774  1
  Si  Si15  1  0.112471  0.880556  0.269617  1
  Si  Si16  1  0.610777  0.378510  0.230109  1
  Si  Si17  1  0.621292  0.389509  0.770461  1
  Si  Si18  1  0.878510  0.110777  0.269891  1
  Si  Si19  1  0.889509  0.121292  0.729539  1
  Si  Si20  1  0.387779  0.619097  0.771226  1
  Si  Si21  1  0.380556  0.612471  0.230383  1
  Si  Si22  1  0.347024  0.115093  0.504661  1
  Si  Si23  1  0.886599  0.656443  0.497454  1
  Si  Si24  1  0.384609  0.152818  0.004900  1
  Si  Si25  1  0.844352  0.613461  0.993851  1
  Si  Si26  1  0.652818  0.884609  0.495100  1
  Si  Si27  1  0.113461  0.344352  0.506149  1
  Si  Si28  1  0.615093  0.847024  0.995339  1
  Si  Si29  1  0.156443  0.386599  0.002546  1
  Ru  Ru30  1  0.670877  0.335984  0.501497  1
  Ru  Ru31  1  0.164234  0.829540  0.997619  1
  Ru  Ru32  1  0.329540  0.664234  0.502381  1
  Ru  Ru33  1  0.835984  0.170877  0.998503  1
  Ru  Ru34  1  0.126727  0.126584  0.627050  1
  Ru  Ru35  1  0.873603  0.874007  0.372383  1
  Ru  Ru36  1  0.374007  0.373603  0.127617  1
  Ru  Ru37  1  0.626584  0.626727  0.872950  1
