# generated using pymatgen
data_La3Lu(Sn5Ir3)2
_symmetry_space_group_name_H-M   'P 1'
_cell_length_a   13.58274015
_cell_length_b   13.58273972
_cell_length_c   7.27563000
_cell_angle_alpha   90.12847622
_cell_angle_beta   89.87152801
_cell_angle_gamma   160.89798777
_symmetry_Int_Tables_number   1
_chemical_formula_structural   La3Lu(Sn5Ir3)2
_chemical_formula_sum   'La3 Lu1 Sn10 Ir6'
_cell_volume   439.26373379
_cell_formula_units_Z   1
loop_
 _symmetry_equiv_pos_site_id
 _symmetry_equiv_pos_as_xyz
  1  'x, y, z'
loop_
 _atom_site_type_symbol
 _atom_site_label
 _atom_site_symmetry_multiplicity
 _atom_site_fract_x
 _atom_site_fract_y
 _atom_site_fract_z
 _atom_site_occupancy
  La  La0  1  0.171996  0.828004  0.743957  1
  La  La1  1  0.827829  0.172171  0.243477  1
  La  La2  1  0.477560  0.522440  0.764884  1
  Lu  Lu3  1  0.524267  0.475733  0.262317  1
  Sn  Sn4  1  0.879274  0.120726  0.768463  1
  Sn  Sn5  1  0.119633  0.880367  0.267472  1
  Sn  Sn6  1  0.704268  0.295732  0.448234  1
  Sn  Sn7  1  0.294475  0.705525  0.948022  1
  Sn  Sn8  1  0.596481  0.403519  0.891810  1
  Sn  Sn9  1  0.404743  0.595257  0.388805  1
  Sn  Sn10  1  0.953398  0.046602  0.104935  1
  Sn  Sn11  1  0.048561  0.951439  0.597516  1
  Sn  Sn12  1  0.290375  0.709625  0.523816  1
  Sn  Sn13  1  0.709219  0.290781  0.024679  1
  Ir  Ir14  1  0.050488  0.949512  0.986702  1
  Ir  Ir15  1  0.950531  0.049469  0.477577  1
  Ir  Ir16  1  0.776357  0.223643  0.735200  1
  Ir  Ir17  1  0.222563  0.777437  0.235750  1
  Ir  Ir18  1  0.393700  0.606300  0.018200  1
  Ir  Ir19  1  0.604282  0.395718  0.512184  1
