# generated using pymatgen
data_DyErCO5
_symmetry_space_group_name_H-M   'P 1'
_cell_length_a   3.90993809
_cell_length_b   3.90993774
_cell_length_c   15.11130422
_cell_angle_alpha   90.04108649
_cell_angle_beta   89.95891456
_cell_angle_gamma   122.12703758
_symmetry_Int_Tables_number   1
_chemical_formula_structural   DyErCO5
_chemical_formula_sum   'Dy2 Er2 C2 O10'
_cell_volume   195.64052489
_cell_formula_units_Z   2
loop_
 _symmetry_equiv_pos_site_id
 _symmetry_equiv_pos_as_xyz
  1  'x, y, z'
loop_
 _atom_site_type_symbol
 _atom_site_label
 _atom_site_symmetry_multiplicity
 _atom_site_fract_x
 _atom_site_fract_y
 _atom_site_fract_z
 _atom_site_occupancy
  Dy  Dy0  1  0.664730  0.335270  0.406123  1
  Dy  Dy1  1  0.335270  0.664730  0.593877  1
  Er  Er2  1  0.336069  0.663931  0.908234  1
  Er  Er3  1  0.663931  0.336069  0.091766  1
  C  C4  1  0.075048  0.924952  0.752075  1
  C  C5  1  0.924952  0.075048  0.247925  1
  O  O6  1  0.985867  0.014133  0.828134  1
  O  O7  1  0.014133  0.985867  0.171866  1
  O  O8  1  0.012700  0.987300  0.324447  1
  O  O9  1  0.987300  0.012700  0.675553  1
  O  O10  1  0.335659  0.664341  0.442354  1
  O  O11  1  0.664341  0.335659  0.557646  1
  O  O12  1  0.664505  0.335495  0.942935  1
  O  O13  1  0.335495  0.664505  0.057065  1
  O  O14  1  0.262033  0.737967  0.752236  1
  O  O15  1  0.737967  0.262033  0.247764  1
