# generated using pymatgen
data_Tb8Ho4Co4PdPb
_symmetry_space_group_name_H-M   'P 1'
_cell_length_a   8.37866771
_cell_length_b   8.37872672
_cell_length_c   8.37866635
_cell_angle_alpha   110.98154598
_cell_angle_beta   110.24748966
_cell_angle_gamma   107.20864564
_symmetry_Int_Tables_number   1
_chemical_formula_structural   Tb8Ho4Co4PdPb
_chemical_formula_sum   'Tb8 Ho4 Co4 Pd1 Pb1'
_cell_volume   452.25484435
_cell_formula_units_Z   1
loop_
 _symmetry_equiv_pos_site_id
 _symmetry_equiv_pos_as_xyz
  1  'x, y, z'
loop_
 _atom_site_type_symbol
 _atom_site_label
 _atom_site_symmetry_multiplicity
 _atom_site_fract_x
 _atom_site_fract_y
 _atom_site_fract_z
 _atom_site_occupancy
  Tb  Tb0  1  0.412578  0.212281  0.200291  1
  Tb  Tb1  1  0.587422  0.787719  0.799709  1
  Tb  Tb2  1  0.011989  0.212281  0.799704  1
  Tb  Tb3  1  0.988011  0.787719  0.200296  1
  Tb  Tb4  1  0.185034  0.293241  0.478274  1
  Tb  Tb5  1  0.814966  0.706759  0.521726  1
  Tb  Tb6  1  0.185035  0.706759  0.891794  1
  Tb  Tb7  1  0.814965  0.293241  0.108206  1
  Ho  Ho8  1  0.315108  0.623007  0.307899  1
  Ho  Ho9  1  0.684892  0.376993  0.692101  1
  Ho  Ho10  1  0.315104  0.007205  0.692101  1
  Ho  Ho11  1  0.684896  0.992795  0.307899  1
  Co  Co12  1  0.378895  0.000000  0.378895  1
  Co  Co13  1  0.621105  0.000000  0.621105  1
  Co  Co14  1  0.112098  0.612100  0.500002  1
  Co  Co15  1  0.887902  0.387900  0.499998  1
  Pd  Pd16  1  0.000000  0.000000  0.000000  1
  Pb  Pb17  1  0.500000  0.500000  0.000000  1
