# generated using pymatgen
data_TbEr9Hg3Ru
_symmetry_space_group_name_H-M   'P 1'
_cell_length_a   9.48884400
_cell_length_b   9.49079470
_cell_length_c   9.66965600
_cell_angle_alpha   90.00000000
_cell_angle_beta   90.00000000
_cell_angle_gamma   119.93039652
_symmetry_Int_Tables_number   1
_chemical_formula_structural   TbEr9Hg3Ru
_chemical_formula_sum   'Tb2 Er18 Hg6 Ru2'
_cell_volume   754.67804555
_cell_formula_units_Z   2
loop_
 _symmetry_equiv_pos_site_id
 _symmetry_equiv_pos_as_xyz
  1  'x, y, z'
loop_
 _atom_site_type_symbol
 _atom_site_label
 _atom_site_symmetry_multiplicity
 _atom_site_fract_x
 _atom_site_fract_y
 _atom_site_fract_z
 _atom_site_occupancy
  Tb  Tb0  1  0.459314  0.918278  0.750000  1
  Tb  Tb1  1  0.081746  0.540712  0.750000  1
  Er  Er2  1  0.999890  0.000067  0.499797  1
  Er  Er3  1  0.999890  0.000067  0.000203  1
  Er  Er4  1  0.209207  0.790779  0.439475  1
  Er  Er5  1  0.209747  0.418571  0.439848  1
  Er  Er6  1  0.581396  0.790239  0.439871  1
  Er  Er7  1  0.790445  0.209611  0.559128  1
  Er  Er8  1  0.789991  0.581135  0.559379  1
  Er  Er9  1  0.418898  0.210040  0.559385  1
  Er  Er10  1  0.790445  0.209611  0.940872  1
  Er  Er11  1  0.789991  0.581135  0.940621  1
  Er  Er12  1  0.418898  0.210040  0.940615  1
  Er  Er13  1  0.209207  0.790779  0.060525  1
  Er  Er14  1  0.209747  0.418571  0.060152  1
  Er  Er15  1  0.581396  0.790239  0.060129  1
  Er  Er16  1  0.541168  0.458851  0.250000  1
  Er  Er17  1  0.541111  0.081908  0.250000  1
  Er  Er18  1  0.918041  0.458842  0.250000  1
  Er  Er19  1  0.459806  0.540321  0.750000  1
  Hg  Hg20  1  0.881519  0.118681  0.250000  1
  Hg  Hg21  1  0.880968  0.762855  0.250000  1
  Hg  Hg22  1  0.237132  0.119125  0.250000  1
  Hg  Hg23  1  0.117304  0.882503  0.750000  1
  Hg  Hg24  1  0.119296  0.236063  0.750000  1
  Hg  Hg25  1  0.763903  0.880588  0.750000  1
  Ru  Ru26  1  0.333123  0.666914  0.250000  1
  Ru  Ru27  1  0.666418  0.333479  0.750000  1
