# generated using pymatgen
data_Th5SiSn2Bi
_symmetry_space_group_name_H-M   'P 1'
_cell_length_a   9.61318450
_cell_length_b   9.61535651
_cell_length_c   6.54638400
_cell_angle_alpha   90.00000000
_cell_angle_beta   90.00000000
_cell_angle_gamma   120.00747045
_symmetry_Int_Tables_number   1
_chemical_formula_structural   Th5SiSn2Bi
_chemical_formula_sum   'Th10 Si2 Sn4 Bi2'
_cell_volume   524.00095677
_cell_formula_units_Z   2
loop_
 _symmetry_equiv_pos_site_id
 _symmetry_equiv_pos_as_xyz
  1  'x, y, z'
loop_
 _atom_site_type_symbol
 _atom_site_label
 _atom_site_symmetry_multiplicity
 _atom_site_fract_x
 _atom_site_fract_y
 _atom_site_fract_z
 _atom_site_occupancy
  Th  Th0  1  0.669461  0.335703  0.002659  1
  Th  Th1  1  0.330539  0.666243  0.002659  1
  Th  Th2  1  0.330539  0.666243  0.497341  1
  Th  Th3  1  0.669461  0.335703  0.497341  1
  Th  Th4  1  0.745614  0.741870  0.750000  1
  Th  Th5  1  0.254386  0.996257  0.750000  1
  Th  Th6  1  0.000000  0.258156  0.750000  1
  Th  Th7  1  0.257202  0.257456  0.250000  1
  Th  Th8  1  0.742798  0.000254  0.250000  1
  Th  Th9  1  0.000000  0.741548  0.250000  1
  Si  Si10  1  0.000000  0.000464  0.000379  1
  Si  Si11  1  0.000000  0.000464  0.499621  1
  Sn  Sn12  1  0.000000  0.608830  0.750000  1
  Sn  Sn13  1  0.611717  0.612145  0.250000  1
  Sn  Sn14  1  0.388283  0.000428  0.250000  1
  Sn  Sn15  1  0.000000  0.389281  0.250000  1
  Bi  Bi16  1  0.390261  0.389608  0.750000  1
  Bi  Bi17  1  0.609739  0.999347  0.750000  1
