# generated using pymatgen
data_Li2Nd3ZnAgSn4
_symmetry_space_group_name_H-M   'P 1'
_cell_length_a   8.80760551
_cell_length_b   8.87783142
_cell_length_c   8.87782992
_cell_angle_alpha   149.32610993
_cell_angle_beta   131.23989969
_cell_angle_gamma   58.78958711
_symmetry_Int_Tables_number   1
_chemical_formula_structural   Li2Nd3ZnAgSn4
_chemical_formula_sum   'Li2 Nd3 Zn1 Ag1 Sn4'
_cell_volume   264.13162995
_cell_formula_units_Z   1
loop_
 _symmetry_equiv_pos_site_id
 _symmetry_equiv_pos_as_xyz
  1  'x, y, z'
loop_
 _atom_site_type_symbol
 _atom_site_label
 _atom_site_symmetry_multiplicity
 _atom_site_fract_x
 _atom_site_fract_y
 _atom_site_fract_z
 _atom_site_occupancy
  Li  Li0  1  0.857867  0.673138  0.184729  1
  Li  Li1  1  0.137941  0.325689  0.812252  1
  Nd  Nd2  1  0.503067  0.999293  0.503774  1
  Nd  Nd3  1  0.860954  0.872178  0.988776  1
  Nd  Nd4  1  0.142500  0.130038  0.012462  1
  Zn  Zn5  1  0.479209  0.668063  0.811147  1
  Ag  Ag6  1  0.517954  0.334388  0.183564  1
  Sn  Sn7  1  0.280372  0.782172  0.498199  1
  Sn  Sn8  1  0.712260  0.213233  0.499027  1
  Sn  Sn9  1  0.812797  0.505880  0.306916  1
  Sn  Sn10  1  0.195078  0.495927  0.699152  1
