# generated using pymatgen
data_Li4PrBi2
_symmetry_space_group_name_H-M   'P 1'
_cell_length_a   8.83327409
_cell_length_b   8.83327427
_cell_length_c   8.83327392
_cell_angle_alpha   30.96698627
_cell_angle_beta   30.96698272
_cell_angle_gamma   30.96698944
_symmetry_Int_Tables_number   1
_chemical_formula_structural   Li4PrBi2
_chemical_formula_sum   'Li4 Pr1 Bi2'
_cell_volume   161.87100597
_cell_formula_units_Z   1
loop_
 _symmetry_equiv_pos_site_id
 _symmetry_equiv_pos_as_xyz
  1  'x, y, z'
loop_
 _atom_site_type_symbol
 _atom_site_label
 _atom_site_symmetry_multiplicity
 _atom_site_fract_x
 _atom_site_fract_y
 _atom_site_fract_z
 _atom_site_occupancy
  Li  Li0  1  0.137704  0.137704  0.137704  1
  Li  Li1  1  0.429567  0.429567  0.429567  1
  Li  Li2  1  0.570433  0.570433  0.570433  1
  Li  Li3  1  0.862296  0.862296  0.862296  1
  Pr  Pr4  1  0.000000  0.000000  0.000000  1
  Bi  Bi5  1  0.253316  0.253316  0.253316  1
  Bi  Bi6  1  0.746684  0.746684  0.746684  1
