# generated using pymatgen
data_Y5Ho2TmAu4
_symmetry_space_group_name_H-M   'P 1'
_cell_length_a   4.92515400
_cell_length_b   7.16804095
_cell_length_c   8.93859423
_cell_angle_alpha   89.98233521
_cell_angle_beta   90.00000000
_cell_angle_gamma   90.00000000
_symmetry_Int_Tables_number   1
_chemical_formula_structural   Y5Ho2TmAu4
_chemical_formula_sum   'Y5 Ho2 Tm1 Au4'
_cell_volume   315.56548377
_cell_formula_units_Z   1
loop_
 _symmetry_equiv_pos_site_id
 _symmetry_equiv_pos_as_xyz
  1  'x, y, z'
loop_
 _atom_site_type_symbol
 _atom_site_label
 _atom_site_symmetry_multiplicity
 _atom_site_fract_x
 _atom_site_fract_y
 _atom_site_fract_z
 _atom_site_occupancy
  Y  Y0  1  0.250000  0.484912  0.175049  1
  Y  Y1  1  0.750000  0.514059  0.823717  1
  Y  Y2  1  0.250000  0.986962  0.324086  1
  Y  Y3  1  0.750000  0.014784  0.677648  1
  Y  Y4  1  0.750000  0.648793  0.419526  1
  Ho  Ho5  1  0.250000  0.351826  0.579756  1
  Ho  Ho6  1  0.250000  0.852597  0.920989  1
  Tm  Tm7  1  0.750000  0.147827  0.079831  1
  Au  Au8  1  0.250000  0.252870  0.900260  1
  Au  Au9  1  0.750000  0.748240  0.097982  1
  Au  Au10  1  0.250000  0.753575  0.602435  1
  Au  Au11  1  0.750000  0.243553  0.398721  1
