# generated using pymatgen
data_SrAc6OsI12
_symmetry_space_group_name_H-M   'P 1'
_cell_length_a   10.52147487
_cell_length_b   10.52147396
_cell_length_c   10.52147541
_cell_angle_alpha   106.57926939
_cell_angle_beta   106.57927881
_cell_angle_gamma   106.57926427
_symmetry_Int_Tables_number   1
_chemical_formula_structural   SrAc6OsI12
_chemical_formula_sum   'Sr1 Ac6 Os1 I12'
_cell_volume   980.92845549
_cell_formula_units_Z   1
loop_
 _symmetry_equiv_pos_site_id
 _symmetry_equiv_pos_as_xyz
  1  'x, y, z'
loop_
 _atom_site_type_symbol
 _atom_site_label
 _atom_site_symmetry_multiplicity
 _atom_site_fract_x
 _atom_site_fract_y
 _atom_site_fract_z
 _atom_site_occupancy
  Sr  Sr0  1  0.500000  0.500000  0.500000  1
  Ac  Ac1  1  0.099898  0.303861  0.023241  1
  Ac  Ac2  1  0.303860  0.023240  0.099898  1
  Ac  Ac3  1  0.023240  0.099898  0.303861  1
  Ac  Ac4  1  0.976759  0.900102  0.696139  1
  Ac  Ac5  1  0.696140  0.976759  0.900101  1
  Ac  Ac6  1  0.900102  0.696139  0.976759  1
  Os  Os7  1  0.000000  0.000000  0.000000  1
  I  I8  1  0.225411  0.676997  0.073343  1
  I  I9  1  0.460196  0.379841  0.159441  1
  I  I10  1  0.676997  0.073344  0.225411  1
  I  I11  1  0.926657  0.774590  0.323004  1
  I  I12  1  0.159441  0.460196  0.379841  1
  I  I13  1  0.379841  0.159441  0.460197  1
  I  I14  1  0.620159  0.840559  0.539803  1
  I  I15  1  0.840558  0.539804  0.620159  1
  I  I16  1  0.073344  0.225411  0.676997  1
  I  I17  1  0.323004  0.926657  0.774589  1
  I  I18  1  0.539803  0.620158  0.840559  1
  I  I19  1  0.774589  0.323004  0.926657  1
