# generated using pymatgen
data_Cs6ScSbSe3
_symmetry_space_group_name_H-M   'P 1'
_cell_length_a   11.34346800
_cell_length_b   11.34346847
_cell_length_c   9.22283300
_cell_angle_alpha   90.00000000
_cell_angle_beta   90.00000000
_cell_angle_gamma   119.99999862
_symmetry_Int_Tables_number   1
_chemical_formula_structural   Cs6ScSbSe3
_chemical_formula_sum   'Cs12 Sc2 Sb2 Se6'
_cell_volume   1027.74814384
_cell_formula_units_Z   2
loop_
 _symmetry_equiv_pos_site_id
 _symmetry_equiv_pos_as_xyz
  1  'x, y, z'
loop_
 _atom_site_type_symbol
 _atom_site_label
 _atom_site_symmetry_multiplicity
 _atom_site_fract_x
 _atom_site_fract_y
 _atom_site_fract_z
 _atom_site_occupancy
  Cs  Cs0  1  0.142231  0.857769  0.539216  1
  Cs  Cs1  1  0.284461  0.142231  0.039216  1
  Cs  Cs2  1  0.857769  0.715539  0.039216  1
  Cs  Cs3  1  0.142231  0.284461  0.539216  1
  Cs  Cs4  1  0.715539  0.857769  0.539216  1
  Cs  Cs5  1  0.857769  0.142231  0.039216  1
  Cs  Cs6  1  0.529747  0.470253  0.367647  1
  Cs  Cs7  1  0.059495  0.529747  0.867647  1
  Cs  Cs8  1  0.470253  0.940505  0.867647  1
  Cs  Cs9  1  0.529747  0.059495  0.367647  1
  Cs  Cs10  1  0.940505  0.470253  0.367647  1
  Cs  Cs11  1  0.470253  0.529747  0.867647  1
  Sc  Sc12  1  0.333333  0.666667  0.248950  1
  Sc  Sc13  1  0.666667  0.333333  0.748950  1
  Sb  Sb14  1  0.333333  0.666667  0.556359  1
  Sb  Sb15  1  0.666667  0.333333  0.056359  1
  Se  Se16  1  0.204232  0.795768  0.161269  1
  Se  Se17  1  0.408463  0.204232  0.661269  1
  Se  Se18  1  0.795768  0.591537  0.661269  1
  Se  Se19  1  0.204232  0.408463  0.161269  1
  Se  Se20  1  0.591537  0.795768  0.161269  1
  Se  Se21  1  0.795768  0.204232  0.661269  1
