# generated using pymatgen
data_YEr3AlIr
_symmetry_space_group_name_H-M   'P 1'
_cell_length_a   9.49758985
_cell_length_b   9.49240056
_cell_length_c   9.49240000
_cell_angle_alpha   60.03617165
_cell_angle_beta   59.98191267
_cell_angle_gamma   59.98191426
_symmetry_Int_Tables_number   1
_chemical_formula_structural   YEr3AlIr
_chemical_formula_sum   'Y4 Er12 Al4 Ir4'
_cell_volume   605.13216177
_cell_formula_units_Z   4
loop_
 _symmetry_equiv_pos_site_id
 _symmetry_equiv_pos_as_xyz
  1  'x, y, z'
loop_
 _atom_site_type_symbol
 _atom_site_label
 _atom_site_symmetry_multiplicity
 _atom_site_fract_x
 _atom_site_fract_y
 _atom_site_fract_z
 _atom_site_occupancy
  Y  Y0  1  0.561788  0.938212  0.561788  1
  Y  Y1  1  0.938212  0.561788  0.938212  1
  Y  Y2  1  0.561788  0.561788  0.938212  1
  Y  Y3  1  0.938212  0.938212  0.561788  1
  Er  Er4  1  0.352188  0.351633  0.351633  1
  Er  Er5  1  0.351633  0.352188  0.944546  1
  Er  Er6  1  0.351633  0.944546  0.352188  1
  Er  Er7  1  0.944546  0.351633  0.351633  1
  Er  Er8  1  0.805881  0.194119  0.194119  1
  Er  Er9  1  0.194119  0.805881  0.805881  1
  Er  Er10  1  0.194357  0.805643  0.194357  1
  Er  Er11  1  0.805643  0.194357  0.805643  1
  Er  Er12  1  0.194357  0.194357  0.805643  1
  Er  Er13  1  0.805643  0.805643  0.194357  1
  Er  Er14  1  0.940643  0.559357  0.559357  1
  Er  Er15  1  0.559357  0.940643  0.940643  1
  Al  Al16  1  0.578317  0.577970  0.577970  1
  Al  Al17  1  0.577970  0.578317  0.265743  1
  Al  Al18  1  0.577970  0.265743  0.578317  1
  Al  Al19  1  0.265743  0.577970  0.577970  1
  Ir  Ir20  1  0.142663  0.140704  0.140704  1
  Ir  Ir21  1  0.140704  0.142663  0.575928  1
  Ir  Ir22  1  0.140704  0.575928  0.142663  1
  Ir  Ir23  1  0.575928  0.140704  0.140704  1
