# generated using pymatgen
data_Yb2Ho2Sb6Rh7
_symmetry_space_group_name_H-M   'P 1'
_cell_length_a   7.59162954
_cell_length_b   7.59999175
_cell_length_c   7.59999103
_cell_angle_alpha   109.46124565
_cell_angle_beta   109.49853550
_cell_angle_gamma   109.49852594
_symmetry_Int_Tables_number   1
_chemical_formula_structural   Yb2Ho2Sb6Rh7
_chemical_formula_sum   'Yb2 Ho2 Sb6 Rh7'
_cell_volume   337.36478784
_cell_formula_units_Z   1
loop_
 _symmetry_equiv_pos_site_id
 _symmetry_equiv_pos_as_xyz
  1  'x, y, z'
loop_
 _atom_site_type_symbol
 _atom_site_label
 _atom_site_symmetry_multiplicity
 _atom_site_fract_x
 _atom_site_fract_y
 _atom_site_fract_z
 _atom_site_occupancy
  Yb  Yb0  1  0.500000  0.000000  0.000000  1
  Yb  Yb1  1  0.500000  0.500000  0.500000  1
  Ho  Ho2  1  0.000000  0.500000  0.000000  1
  Ho  Ho3  1  0.000000  0.000000  0.500000  1
  Sb  Sb4  1  0.319401  0.001537  0.317863  1
  Sb  Sb5  1  0.000000  0.681911  0.681911  1
  Sb  Sb6  1  0.680599  0.682137  0.998463  1
  Sb  Sb7  1  0.680599  0.998463  0.682137  1
  Sb  Sb8  1  0.000000  0.318089  0.318089  1
  Sb  Sb9  1  0.319401  0.317863  0.001537  1
  Rh  Rh10  1  0.247831  0.497799  0.750032  1
  Rh  Rh11  1  0.500000  0.250000  0.750000  1
  Rh  Rh12  1  0.752169  0.249968  0.502201  1
  Rh  Rh13  1  0.500000  0.750000  0.250000  1
  Rh  Rh14  1  0.000000  0.000000  0.000000  1
  Rh  Rh15  1  0.247831  0.750032  0.497799  1
  Rh  Rh16  1  0.752169  0.502201  0.249968  1
