# generated using pymatgen
data_Pr6Nd10Cd4PdRu3
_symmetry_space_group_name_H-M   'P 1'
_cell_length_a   9.94001168
_cell_length_b   9.98845567
_cell_length_c   9.98845500
_cell_angle_alpha   60.00000553
_cell_angle_beta   59.83865564
_cell_angle_gamma   59.83865433
_symmetry_Int_Tables_number   1
_chemical_formula_structural   Pr6Nd10Cd4PdRu3
_chemical_formula_sum   'Pr6 Nd10 Cd4 Pd1 Ru3'
_cell_volume   699.52805399
_cell_formula_units_Z   1
loop_
 _symmetry_equiv_pos_site_id
 _symmetry_equiv_pos_as_xyz
  1  'x, y, z'
loop_
 _atom_site_type_symbol
 _atom_site_label
 _atom_site_symmetry_multiplicity
 _atom_site_fract_x
 _atom_site_fract_y
 _atom_site_fract_z
 _atom_site_occupancy
  Pr  Pr0  1  0.936743  0.562494  0.562494  1
  Pr  Pr1  1  0.558038  0.938419  0.938419  1
  Pr  Pr2  1  0.558038  0.938419  0.565123  1
  Pr  Pr3  1  0.936743  0.562494  0.938270  1
  Pr  Pr4  1  0.558038  0.565123  0.938419  1
  Pr  Pr5  1  0.936743  0.938270  0.562494  1
  Nd  Nd6  1  0.342886  0.351115  0.351115  1
  Nd  Nd7  1  0.342886  0.351115  0.954885  1
  Nd  Nd8  1  0.342886  0.954885  0.351115  1
  Nd  Nd9  1  0.961784  0.346072  0.346072  1
  Nd  Nd10  1  0.816628  0.190544  0.190544  1
  Nd  Nd11  1  0.189725  0.810949  0.810949  1
  Nd  Nd12  1  0.189725  0.810949  0.188377  1
  Nd  Nd13  1  0.816628  0.190544  0.802285  1
  Nd  Nd14  1  0.189725  0.188377  0.810949  1
  Nd  Nd15  1  0.816628  0.802285  0.190544  1
  Cd  Cd16  1  0.579669  0.579549  0.579549  1
  Cd  Cd17  1  0.579669  0.579549  0.261232  1
  Cd  Cd18  1  0.579669  0.261232  0.579549  1
  Cd  Cd19  1  0.261256  0.579581  0.579581  1
  Pd  Pd20  1  0.576449  0.141184  0.141184  1
  Ru  Ru21  1  0.143149  0.137948  0.137948  1
  Ru  Ru22  1  0.143149  0.137948  0.580955  1
  Ru  Ru23  1  0.143149  0.580955  0.137948  1
