# generated using pymatgen
data_Tb2Y14MgCo4Ag3
_symmetry_space_group_name_H-M   'P 1'
_cell_length_a   9.48620627
_cell_length_b   9.50954802
_cell_length_c   9.49933200
_cell_angle_alpha   60.03544468
_cell_angle_beta   59.95412109
_cell_angle_gamma   60.01957664
_symmetry_Int_Tables_number   1
_chemical_formula_structural   Tb2Y14MgCo4Ag3
_chemical_formula_sum   'Tb2 Y14 Mg1 Co4 Ag3'
_cell_volume   605.98241646
_cell_formula_units_Z   1
loop_
 _symmetry_equiv_pos_site_id
 _symmetry_equiv_pos_as_xyz
  1  'x, y, z'
loop_
 _atom_site_type_symbol
 _atom_site_label
 _atom_site_symmetry_multiplicity
 _atom_site_fract_x
 _atom_site_fract_y
 _atom_site_fract_z
 _atom_site_occupancy
  Tb  Tb0  1  0.346241  0.345378  0.344549  1
  Tb  Tb1  1  0.346240  0.345374  0.963832  1
  Y  Y2  1  0.347611  0.961463  0.345460  1
  Y  Y3  1  0.949699  0.351223  0.349537  1
  Y  Y4  1  0.809323  0.188582  0.189540  1
  Y  Y5  1  0.185631  0.813127  0.814084  1
  Y  Y6  1  0.185630  0.813124  0.187162  1
  Y  Y7  1  0.809324  0.188582  0.812557  1
  Y  Y8  1  0.185653  0.186454  0.813944  1
  Y  Y9  1  0.809349  0.811503  0.189575  1
  Y  Y10  1  0.935665  0.562548  0.562630  1
  Y  Y11  1  0.562401  0.937424  0.937364  1
  Y  Y12  1  0.562402  0.937423  0.562811  1
  Y  Y13  1  0.935667  0.562547  0.939156  1
  Y  Y14  1  0.561796  0.562795  0.937702  1
  Y  Y15  1  0.935621  0.938619  0.562882  1
  Mg  Mg16  1  0.289396  0.570221  0.570191  1
  Co  Co17  1  0.139611  0.143237  0.141301  1
  Co  Co18  1  0.139601  0.143224  0.575866  1
  Co  Co19  1  0.140843  0.574889  0.142134  1
  Co  Co20  1  0.574700  0.143316  0.140992  1
  Ag  Ag21  1  0.582605  0.582874  0.582196  1
  Ag  Ag22  1  0.582603  0.582874  0.252327  1
  Ag  Ag23  1  0.582384  0.253198  0.582209  1
