# generated using pymatgen
data_K4Zn5(GaAg4)3
_symmetry_space_group_name_H-M   'P 1'
_cell_length_a   5.49474496
_cell_length_b   7.20526948
_cell_length_c   13.96862342
_cell_angle_alpha   90.07263667
_cell_angle_beta   90.22845921
_cell_angle_gamma   90.00462220
_symmetry_Int_Tables_number   1
_chemical_formula_structural   K4Zn5(GaAg4)3
_chemical_formula_sum   'K4 Zn5 Ga3 Ag12'
_cell_volume   553.02857791
_cell_formula_units_Z   1
loop_
 _symmetry_equiv_pos_site_id
 _symmetry_equiv_pos_as_xyz
  1  'x, y, z'
loop_
 _atom_site_type_symbol
 _atom_site_label
 _atom_site_symmetry_multiplicity
 _atom_site_fract_x
 _atom_site_fract_y
 _atom_site_fract_z
 _atom_site_occupancy
  K  K0  1  0.250002  0.126620  0.082248  1
  K  K1  1  0.249923  0.373018  0.581272  1
  K  K2  1  0.750232  0.873686  0.918132  1
  K  K3  1  0.749761  0.626602  0.418239  1
  Zn  Zn4  1  0.998230  0.863643  0.647453  1
  Zn  Zn5  1  0.503102  0.636090  0.148036  1
  Zn  Zn6  1  0.498983  0.136219  0.352303  1
  Zn  Zn7  1  0.000392  0.363614  0.851554  1
  Zn  Zn8  1  0.001328  0.135199  0.352455  1
  Ga  Ga9  1  0.499692  0.362326  0.853234  1
  Ga  Ga10  1  0.502921  0.862628  0.646621  1
  Ga  Ga11  1  0.994448  0.637306  0.147574  1
  Ag  Ag12  1  0.251620  0.073895  0.781271  1
  Ag  Ag13  1  0.249847  0.426399  0.281202  1
  Ag  Ag14  1  0.750683  0.927838  0.218800  1
  Ag  Ag15  1  0.748902  0.573997  0.718806  1
  Ag  Ag16  1  0.249831  0.667016  0.782374  1
  Ag  Ag17  1  0.251172  0.833179  0.282998  1
  Ag  Ag18  1  0.751139  0.331135  0.218648  1
  Ag  Ag19  1  0.749908  0.166967  0.717522  1
  Ag  Ag20  1  0.248311  0.570314  0.986168  1
  Ag  Ag21  1  0.250287  0.930839  0.485288  1
  Ag  Ag22  1  0.748589  0.431095  0.013689  1
  Ag  Ag23  1  0.750697  0.070375  0.514114  1
