# generated using pymatgen
data_La11Yb2Pr3(CdIr)4
_symmetry_space_group_name_H-M   'P 1'
_cell_length_a   10.08433089
_cell_length_b   10.06694614
_cell_length_c   10.07851783
_cell_angle_alpha   60.06066897
_cell_angle_beta   60.23062241
_cell_angle_gamma   60.24379331
_symmetry_Int_Tables_number   1
_chemical_formula_structural   La11Yb2Pr3(CdIr)4
_chemical_formula_sum   'La11 Yb2 Pr3 Cd4 Ir4'
_cell_volume   726.39774409
_cell_formula_units_Z   1
loop_
 _symmetry_equiv_pos_site_id
 _symmetry_equiv_pos_as_xyz
  1  'x, y, z'
loop_
 _atom_site_type_symbol
 _atom_site_label
 _atom_site_symmetry_multiplicity
 _atom_site_fract_x
 _atom_site_fract_y
 _atom_site_fract_z
 _atom_site_occupancy
  La  La0  1  0.346385  0.347069  0.346510  1
  La  La1  1  0.347193  0.348013  0.957708  1
  La  La2  1  0.346379  0.958104  0.347744  1
  La  La3  1  0.959244  0.346702  0.344730  1
  La  La4  1  0.809503  0.188646  0.192589  1
  La  La5  1  0.194669  0.805753  0.809154  1
  La  La6  1  0.192862  0.808838  0.188240  1
  La  La7  1  0.808721  0.189145  0.808920  1
  La  La8  1  0.196811  0.186358  0.809074  1
  La  La9  1  0.806817  0.807319  0.193023  1
  La  La10  1  0.937617  0.562242  0.563412  1
  Yb  Yb11  1  0.562354  0.938436  0.938561  1
  Yb  Yb12  1  0.562420  0.938425  0.561846  1
  Pr  Pr13  1  0.934828  0.564348  0.937427  1
  Pr  Pr14  1  0.563217  0.566625  0.935728  1
  Pr  Pr15  1  0.934519  0.939046  0.565021  1
  Cd  Cd16  1  0.579215  0.579562  0.579676  1
  Cd  Cd17  1  0.580533  0.579424  0.259597  1
  Cd  Cd18  1  0.580385  0.260344  0.579490  1
  Cd  Cd19  1  0.260627  0.579117  0.580150  1
  Ir  Ir20  1  0.140261  0.142057  0.139656  1
  Ir  Ir21  1  0.138484  0.142864  0.579287  1
  Ir  Ir22  1  0.139290  0.578994  0.141852  1
  Ir  Ir23  1  0.577660  0.142569  0.140604  1
