# generated using pymatgen
data_Tm3In3Ag2Au
_symmetry_space_group_name_H-M   'P 1'
_cell_length_a   7.82285800
_cell_length_b   7.82285821
_cell_length_c   3.88773000
_cell_angle_alpha   90.00000000
_cell_angle_beta   90.00000000
_cell_angle_gamma   119.99999911
_symmetry_Int_Tables_number   1
_chemical_formula_structural   Tm3In3Ag2Au
_chemical_formula_sum   'Tm3 In3 Ag2 Au1'
_cell_volume   206.04289208
_cell_formula_units_Z   1
loop_
 _symmetry_equiv_pos_site_id
 _symmetry_equiv_pos_as_xyz
  1  'x, y, z'
loop_
 _atom_site_type_symbol
 _atom_site_label
 _atom_site_symmetry_multiplicity
 _atom_site_fract_x
 _atom_site_fract_y
 _atom_site_fract_z
 _atom_site_occupancy
  Tm  Tm0  1  0.401605  0.408527  0.500000  1
  Tm  Tm1  1  0.591473  0.993077  0.500000  1
  Tm  Tm2  1  0.006923  0.598395  0.500000  1
  In  In3  1  0.740042  0.735257  0.000000  1
  In  In4  1  0.264743  0.004785  0.000000  1
  In  In5  1  0.995215  0.259958  0.000000  1
  Ag  Ag6  1  0.666667  0.333333  0.000000  1
  Ag  Ag7  1  0.000000  0.000000  0.500000  1
  Au  Au8  1  0.333333  0.666667  0.000000  1
