# generated using pymatgen
data_Pr3Nd3Al24Os7Au
_symmetry_space_group_name_H-M   'P 1'
_cell_length_a   8.92762173
_cell_length_b   8.92623710
_cell_length_c   9.72007473
_cell_angle_alpha   90.14417468
_cell_angle_beta   89.84914259
_cell_angle_gamma   119.60346561
_symmetry_Int_Tables_number   1
_chemical_formula_structural   Pr3Nd3Al24Os7Au
_chemical_formula_sum   'Pr3 Nd3 Al24 Os7 Au1'
_cell_volume   673.47891407
_cell_formula_units_Z   1
loop_
 _symmetry_equiv_pos_site_id
 _symmetry_equiv_pos_as_xyz
  1  'x, y, z'
loop_
 _atom_site_type_symbol
 _atom_site_label
 _atom_site_symmetry_multiplicity
 _atom_site_fract_x
 _atom_site_fract_y
 _atom_site_fract_z
 _atom_site_occupancy
  Pr  Pr0  1  0.188990  0.382905  0.249905  1
  Pr  Pr1  1  0.810865  0.617130  0.750152  1
  Pr  Pr2  1  0.616907  0.810817  0.249808  1
  Nd  Nd3  1  0.383760  0.189236  0.749966  1
  Nd  Nd4  1  0.191761  0.808264  0.253052  1
  Nd  Nd5  1  0.808155  0.191641  0.746859  1
  Al  Al6  1  0.328042  0.671892  0.017789  1
  Al  Al7  1  0.671667  0.328035  0.981445  1
  Al  Al8  1  0.667062  0.332627  0.516566  1
  Al  Al9  1  0.332655  0.667263  0.484181  1
  Al  Al10  1  0.163669  0.327847  0.572767  1
  Al  Al11  1  0.836563  0.671835  0.427601  1
  Al  Al12  1  0.671815  0.836483  0.572602  1
  Al  Al13  1  0.849867  0.676927  0.077420  1
  Al  Al14  1  0.328094  0.163422  0.428090  1
  Al  Al15  1  0.150351  0.322908  0.922240  1
  Al  Al16  1  0.164117  0.836502  0.574401  1
  Al  Al17  1  0.323058  0.150232  0.076989  1
  Al  Al18  1  0.836020  0.163946  0.425897  1
  Al  Al19  1  0.676883  0.849869  0.922350  1
  Al  Al20  1  0.835694  0.164296  0.073641  1
  Al  Al21  1  0.164421  0.836184  0.925963  1
  Al  Al22  1  0.561207  0.124227  0.249362  1
  Al  Al23  1  0.438615  0.876234  0.750607  1
  Al  Al24  1  0.875666  0.438606  0.249376  1
  Al  Al25  1  0.124174  0.561289  0.750644  1
  Al  Al26  1  0.565445  0.434241  0.256608  1
  Al  Al27  1  0.434327  0.565049  0.743556  1
  Al  Al28  1  0.998506  0.001384  0.250417  1
  Al  Al29  1  0.002552  0.999134  0.749629  1
  Os  Os30  1  0.499843  0.000188  0.999725  1
  Os  Os31  1  0.999938  0.499963  0.999932  1
  Os  Os32  1  0.499833  0.000137  0.500245  1
  Os  Os33  1  0.999924  0.499938  0.500119  1
  Os  Os34  1  0.499850  0.499703  0.500241  1
  Os  Os35  1  0.000021  0.000065  0.999904  1
  Os  Os36  1  0.000000  0.000021  0.500114  1
  Au  Au37  1  0.499682  0.499557  0.999838  1
