# generated using pymatgen
data_La2Lu3Ru2
_symmetry_space_group_name_H-M   'P 1'
_cell_length_a   6.42866364
_cell_length_b   7.23125716
_cell_length_c   8.61917427
_cell_angle_alpha   96.74801830
_cell_angle_beta   111.89630853
_cell_angle_gamma   90.00000249
_symmetry_Int_Tables_number   1
_chemical_formula_structural   La2Lu3Ru2
_chemical_formula_sum   'La4 Lu6 Ru4'
_cell_volume   368.78398969
_cell_formula_units_Z   2
loop_
 _symmetry_equiv_pos_site_id
 _symmetry_equiv_pos_as_xyz
  1  'x, y, z'
loop_
 _atom_site_type_symbol
 _atom_site_label
 _atom_site_symmetry_multiplicity
 _atom_site_fract_x
 _atom_site_fract_y
 _atom_site_fract_z
 _atom_site_occupancy
  La  La0  1  0.520966  0.087279  0.802615  1
  La  La1  1  0.479034  0.912721  0.197385  1
  La  La2  1  0.718351  0.412721  0.197385  1
  La  La3  1  0.281649  0.587279  0.802615  1
  Lu  Lu4  1  0.299788  0.313514  0.429393  1
  Lu  Lu5  1  0.700212  0.686486  0.570607  1
  Lu  Lu6  1  0.870397  0.186486  0.570607  1
  Lu  Lu7  1  0.129603  0.813514  0.429393  1
  Lu  Lu8  1  0.075448  0.250000  0.000000  1
  Lu  Lu9  1  0.924552  0.750000  0.000000  1
  Ru  Ru10  1  0.321747  0.580593  0.226036  1
  Ru  Ru11  1  0.678253  0.419407  0.773964  1
  Ru  Ru12  1  0.095712  0.919407  0.773964  1
  Ru  Ru13  1  0.904288  0.080593  0.226036  1
