# generated using pymatgen
data_CdMo2(P2O7)2
_symmetry_space_group_name_H-M   'P 1'
_cell_length_a   5.09690905
_cell_length_b   7.05412314
_cell_length_c   8.47566410
_cell_angle_alpha   91.83170905
_cell_angle_beta   91.36930320
_cell_angle_gamma   107.49756604
_symmetry_Int_Tables_number   1
_chemical_formula_structural   CdMo2(P2O7)2
_chemical_formula_sum   'Cd1 Mo2 P4 O14'
_cell_volume   290.30768978
_cell_formula_units_Z   1
loop_
 _symmetry_equiv_pos_site_id
 _symmetry_equiv_pos_as_xyz
  1  'x, y, z'
loop_
 _atom_site_type_symbol
 _atom_site_label
 _atom_site_symmetry_multiplicity
 _atom_site_fract_x
 _atom_site_fract_y
 _atom_site_fract_z
 _atom_site_occupancy
  Cd  Cd0  1  0.671002  0.993343  0.030618  1
  Mo  Mo1  1  0.492587  0.001529  0.501358  1
  Mo  Mo2  1  0.004348  0.506392  0.996430  1
  P  P3  1  0.477279  0.364332  0.234492  1
  P  P4  1  0.523216  0.634323  0.762875  1
  P  P5  1  0.878149  0.767440  0.295130  1
  P  P6  1  0.106094  0.224420  0.707679  1
  O  O7  1  0.684588  0.901450  0.295559  1
  O  O8  1  0.305279  0.101649  0.700276  1
  O  O9  1  0.886340  0.188507  0.578849  1
  O  O10  1  0.100971  0.811301  0.421140  1
  O  O11  1  0.244721  0.439947  0.179436  1
  O  O12  1  0.762560  0.560728  0.808793  1
  O  O13  1  0.995810  0.221978  0.880341  1
  O  O14  1  0.968381  0.769400  0.120031  1
  O  O15  1  0.275588  0.456656  0.685866  1
  O  O16  1  0.700772  0.543410  0.330868  1
  O  O17  1  0.637403  0.304235  0.093661  1
  O  O18  1  0.394244  0.707474  0.912734  1
  O  O19  1  0.598956  0.793931  0.644353  1
  O  O20  1  0.386612  0.197756  0.345811  1
