# generated using pymatgen
data_Tm20Bi9Os2Pb
_symmetry_space_group_name_H-M   'P 1'
_cell_length_a   7.90291308
_cell_length_b   9.32029800
_cell_length_c   12.05111500
_cell_angle_alpha   90.00000000
_cell_angle_beta   89.94179009
_cell_angle_gamma   90.00000000
_symmetry_Int_Tables_number   1
_chemical_formula_structural   Tm20Bi9Os2Pb
_chemical_formula_sum   'Tm20 Bi9 Os2 Pb1'
_cell_volume   887.65460479
_cell_formula_units_Z   1
loop_
 _symmetry_equiv_pos_site_id
 _symmetry_equiv_pos_as_xyz
  1  'x, y, z'
loop_
 _atom_site_type_symbol
 _atom_site_label
 _atom_site_symmetry_multiplicity
 _atom_site_fract_x
 _atom_site_fract_y
 _atom_site_fract_z
 _atom_site_occupancy
  Tm  Tm0  1  0.678507  0.928510  0.436551  1
  Tm  Tm1  1  0.820289  0.570376  0.937105  1
  Tm  Tm2  1  0.320553  0.472610  0.568062  1
  Tm  Tm3  1  0.177729  0.029065  0.064865  1
  Tm  Tm4  1  0.320553  0.027390  0.568062  1
  Tm  Tm5  1  0.177729  0.470935  0.064865  1
  Tm  Tm6  1  0.678507  0.571490  0.436551  1
  Tm  Tm7  1  0.820289  0.929624  0.937105  1
  Tm  Tm8  1  0.337276  0.750000  0.290293  1
  Tm  Tm9  1  0.162722  0.750000  0.789793  1
  Tm  Tm10  1  0.679001  0.250000  0.730333  1
  Tm  Tm11  1  0.830383  0.250000  0.223236  1
  Tm  Tm12  1  0.056128  0.750000  0.502458  1
  Tm  Tm13  1  0.443193  0.750000  0.003958  1
  Tm  Tm14  1  0.988169  0.250000  0.506041  1
  Tm  Tm15  1  0.516285  0.250000  0.007299  1
  Tm  Tm16  1  0.878294  0.750000  0.194613  1
  Tm  Tm17  1  0.620299  0.750000  0.695260  1
  Tm  Tm18  1  0.154666  0.250000  0.779559  1
  Tm  Tm19  1  0.342939  0.250000  0.280944  1
  Bi  Bi20  1  0.595863  0.250000  0.473624  1
  Bi  Bi21  1  0.571167  0.992916  0.174667  1
  Bi  Bi22  1  0.927799  0.509026  0.672591  1
  Bi  Bi23  1  0.434062  0.487873  0.830557  1
  Bi  Bi24  1  0.065103  0.010728  0.329572  1
  Bi  Bi25  1  0.434062  0.012127  0.830557  1
  Bi  Bi26  1  0.065103  0.489272  0.329572  1
  Bi  Bi27  1  0.571167  0.507084  0.174667  1
  Bi  Bi28  1  0.927799  0.990974  0.672591  1
  Os  Os29  1  0.082951  0.750000  0.012166  1
  Os  Os30  1  0.416895  0.750000  0.512814  1
  Pb  Pb31  1  0.904519  0.250000  0.969668  1
