# generated using pymatgen
data_Y2Tm5Co6Sn23
_symmetry_space_group_name_H-M   'P 1'
_cell_length_a   9.68025879
_cell_length_b   9.68025938
_cell_length_c   9.93859301
_cell_angle_alpha   89.95543024
_cell_angle_beta   90.04456881
_cell_angle_gamma   119.98719489
_symmetry_Int_Tables_number   1
_chemical_formula_structural   Y2Tm5Co6Sn23
_chemical_formula_sum   'Y2 Tm5 Co6 Sn23'
_cell_volume   806.65039058
_cell_formula_units_Z   1
loop_
 _symmetry_equiv_pos_site_id
 _symmetry_equiv_pos_as_xyz
  1  'x, y, z'
loop_
 _atom_site_type_symbol
 _atom_site_label
 _atom_site_symmetry_multiplicity
 _atom_site_fract_x
 _atom_site_fract_y
 _atom_site_fract_z
 _atom_site_occupancy
  Y  Y0  1  0.999782  0.000218  0.000282  1
  Y  Y1  1  0.521989  0.478011  0.692620  1
  Tm  Tm2  1  0.041759  0.520978  0.306138  1
  Tm  Tm3  1  0.479022  0.958241  0.306138  1
  Tm  Tm4  1  0.479242  0.520758  0.306093  1
  Tm  Tm5  1  0.958110  0.479218  0.693641  1
  Tm  Tm6  1  0.520782  0.041890  0.693641  1
  Co  Co7  1  0.168399  0.831601  0.803053  1
  Co  Co8  1  0.664456  0.833412  0.803154  1
  Co  Co9  1  0.166588  0.335544  0.803154  1
  Co  Co10  1  0.831813  0.168187  0.197398  1
  Co  Co11  1  0.336142  0.168049  0.196957  1
  Co  Co12  1  0.831951  0.663858  0.196957  1
  Sn  Sn13  1  0.999911  0.000089  0.499823  1
  Sn  Sn14  1  0.118633  0.881367  0.274805  1
  Sn  Sn15  1  0.762801  0.881306  0.274879  1
  Sn  Sn16  1  0.118694  0.237199  0.274879  1
  Sn  Sn17  1  0.881197  0.118803  0.725134  1
  Sn  Sn18  1  0.236390  0.117958  0.725266  1
  Sn  Sn19  1  0.882042  0.763610  0.725266  1
  Sn  Sn20  1  0.346554  0.000187  0.000345  1
  Sn  Sn21  1  0.653678  0.653696  0.000366  1
  Sn  Sn22  1  0.999972  0.346509  0.000027  1
  Sn  Sn23  1  0.346304  0.346322  0.000366  1
  Sn  Sn24  1  0.999813  0.653446  0.000345  1
  Sn  Sn25  1  0.653491  0.000028  0.000027  1
  Sn  Sn26  1  0.781681  0.562308  0.450478  1
  Sn  Sn27  1  0.780918  0.219082  0.451347  1
  Sn  Sn28  1  0.437692  0.218319  0.450478  1
  Sn  Sn29  1  0.217955  0.437961  0.548316  1
  Sn  Sn30  1  0.218966  0.781034  0.548329  1
  Sn  Sn31  1  0.562039  0.782045  0.548316  1
  Sn  Sn32  1  0.666581  0.333419  0.183055  1
  Sn  Sn33  1  0.333219  0.666781  0.817410  1
  Sn  Sn34  1  0.668117  0.331883  0.880531  1
  Sn  Sn35  1  0.333315  0.666685  0.120988  1
