# generated using pymatgen
data_Na2Er3Si7P5Ir19
_symmetry_space_group_name_H-M   'P 1'
_cell_length_a   12.78576502
_cell_length_b   12.77011132
_cell_length_c   3.94812100
_cell_angle_alpha   90.00000000
_cell_angle_beta   90.00000000
_cell_angle_gamma   120.23149427
_symmetry_Int_Tables_number   1
_chemical_formula_structural   Na2Er3Si7P5Ir19
_chemical_formula_sum   'Na2 Er3 Si7 P5 Ir19'
_cell_volume   556.96086368
_cell_formula_units_Z   1
loop_
 _symmetry_equiv_pos_site_id
 _symmetry_equiv_pos_as_xyz
  1  'x, y, z'
loop_
 _atom_site_type_symbol
 _atom_site_label
 _atom_site_symmetry_multiplicity
 _atom_site_fract_x
 _atom_site_fract_y
 _atom_site_fract_z
 _atom_site_occupancy
  Na  Na0  1  0.818668  0.817225  0.500000  1
  Na  Na1  1  0.182608  0.999303  0.500000  1
  Er  Er2  1  0.668183  0.333854  0.000000  1
  Er  Er3  1  0.330339  0.664429  0.000000  1
  Er  Er4  1  0.999211  0.178087  0.500000  1
  Si  Si5  1  0.684038  0.164376  0.500000  1
  Si  Si6  1  0.835445  0.521197  0.500000  1
  Si  Si7  1  0.480722  0.314958  0.500000  1
  Si  Si8  1  0.168508  0.689467  0.500000  1
  Si  Si9  1  0.638203  0.637164  0.000000  1
  Si  Si10  1  0.364328  0.001482  0.000000  1
  Si  Si11  1  0.999761  0.364010  0.000000  1
  P  P12  1  0.516529  0.824257  0.500000  1
  P  P13  1  0.307594  0.481143  0.500000  1
  P  P14  1  0.181078  0.177083  0.000000  1
  P  P15  1  0.819063  0.996407  0.000000  1
  P  P16  1  0.002472  0.822801  0.000000  1
  Ir  Ir17  1  0.808656  0.177464  0.000000  1
  Ir  Ir18  1  0.820055  0.624343  0.000000  1
  Ir  Ir19  1  0.375603  0.196681  0.000000  1
  Ir  Ir20  1  0.184412  0.805814  0.000000  1
  Ir  Ir21  1  0.614736  0.816501  0.000000  1
  Ir  Ir22  1  0.196297  0.375535  0.000000  1
  Ir  Ir23  1  0.451839  0.451257  0.000000  1
  Ir  Ir24  1  0.555690  0.012154  0.000000  1
  Ir  Ir25  1  0.000176  0.549592  0.000000  1
  Ir  Ir26  1  0.280720  0.286002  0.500000  1
  Ir  Ir27  1  0.715251  0.995632  0.500000  1
  Ir  Ir28  1  0.001883  0.722687  0.500000  1
  Ir  Ir29  1  0.870961  0.357337  0.500000  1
  Ir  Ir30  1  0.640669  0.513839  0.500000  1
  Ir  Ir31  1  0.486062  0.129137  0.500000  1
  Ir  Ir32  1  0.367962  0.872066  0.500000  1
  Ir  Ir33  1  0.504316  0.634762  0.500000  1
  Ir  Ir34  1  0.128096  0.488137  0.500000  1
  Ir  Ir35  1  0.999863  0.003815  0.000000  1
