# generated using pymatgen
data_K4MgMnV2F14
_symmetry_space_group_name_H-M   'P 1'
_cell_length_a   7.77635013
_cell_length_b   7.77635031
_cell_length_c   7.84844418
_cell_angle_alpha   120.73847248
_cell_angle_beta   117.05027858
_cell_angle_gamma   91.44131656
_symmetry_Int_Tables_number   1
_chemical_formula_structural   K4MgMnV2F14
_chemical_formula_sum   'K4 Mg1 Mn1 V2 F14'
_cell_volume   342.11723716
_cell_formula_units_Z   1
loop_
 _symmetry_equiv_pos_site_id
 _symmetry_equiv_pos_as_xyz
  1  'x, y, z'
loop_
 _atom_site_type_symbol
 _atom_site_label
 _atom_site_symmetry_multiplicity
 _atom_site_fract_x
 _atom_site_fract_y
 _atom_site_fract_z
 _atom_site_occupancy
  K  K0  1  0.500000  0.500000  0.000000  1
  K  K1  1  0.000000  0.000000  0.000000  1
  K  K2  1  0.000000  0.500000  0.000000  1
  K  K3  1  0.000000  0.000000  0.500000  1
  Mg  Mg4  1  0.500000  0.500000  0.500000  1
  Mn  Mn5  1  0.500000  0.000000  0.000000  1
  V  V6  1  0.000000  0.500000  0.500000  1
  V  V7  1  0.500000  0.000000  0.500000  1
  F  F8  1  0.877757  0.587292  0.288737  1
  F  F9  1  0.201444  0.910981  0.288737  1
  F  F10  1  0.181273  0.802385  0.758924  1
  F  F11  1  0.462729  0.700386  0.397894  1
  F  F12  1  0.456539  0.077652  0.758924  1
  F  F13  1  0.197508  0.435164  0.397894  1
  F  F14  1  0.802492  0.564836  0.602106  1
  F  F15  1  0.543461  0.922348  0.241076  1
  F  F16  1  0.537271  0.299614  0.602106  1
  F  F17  1  0.818727  0.197615  0.241076  1
  F  F18  1  0.403769  0.260391  0.164160  1
  F  F19  1  0.122243  0.412708  0.711263  1
  F  F20  1  0.798556  0.089019  0.711263  1
  F  F21  1  0.596231  0.739609  0.835840  1
