# generated using pymatgen
data_La3Nd3Ir11Rh7
_symmetry_space_group_name_H-M   'P 1'
_cell_length_a   5.37992200
_cell_length_b   5.38672095
_cell_length_c   17.72426486
_cell_angle_alpha   90.03083129
_cell_angle_beta   90.00000000
_cell_angle_gamma   119.95825657
_symmetry_Int_Tables_number   1
_chemical_formula_structural   La3Nd3Ir11Rh7
_chemical_formula_sum   'La3 Nd3 Ir11 Rh7'
_cell_volume   445.02228795
_cell_formula_units_Z   1
loop_
 _symmetry_equiv_pos_site_id
 _symmetry_equiv_pos_as_xyz
  1  'x, y, z'
loop_
 _atom_site_type_symbol
 _atom_site_label
 _atom_site_symmetry_multiplicity
 _atom_site_fract_x
 _atom_site_fract_y
 _atom_site_fract_z
 _atom_site_occupancy
  La  La0  1  0.333340  0.666680  0.541857  1
  La  La1  1  0.333354  0.666708  0.750065  1
  La  La2  1  0.666713  0.333425  0.249777  1
  Nd  Nd3  1  0.666622  0.333242  0.041665  1
  Nd  Nd4  1  0.666316  0.332631  0.457989  1
  Nd  Nd5  1  0.333401  0.666804  0.958393  1
  Ir  Ir6  1  0.166975  0.333948  0.127457  1
  Ir  Ir7  1  0.832974  0.665949  0.627719  1
  Ir  Ir8  1  0.665744  0.833020  0.127204  1
  Ir  Ir9  1  0.167276  0.833020  0.127204  1
  Ir  Ir10  1  0.832950  0.167253  0.627885  1
  Ir  Ir11  1  0.334302  0.167253  0.627885  1
  Ir  Ir12  1  0.832845  0.665691  0.872894  1
  Ir  Ir13  1  0.832709  0.167083  0.872884  1
  Ir  Ir14  1  0.334373  0.167083  0.872884  1
  Ir  Ir15  1  0.667043  0.834624  0.372100  1
  Ir  Ir16  1  0.167581  0.834624  0.372100  1
  Rh  Rh17  1  0.167189  0.334378  0.372544  1
  Rh  Rh18  1  0.999375  0.998750  0.249452  1
  Rh  Rh19  1  0.999976  0.999951  0.750411  1
  Rh  Rh20  1  0.333337  0.666676  0.249836  1
  Rh  Rh21  1  0.666763  0.333526  0.750235  1
  Rh  Rh22  1  0.000060  0.000121  0.999971  1
  Rh  Rh23  1  0.998781  0.997561  0.499592  1
