# generated using pymatgen
data_La17Pr3Si15Ir
_symmetry_space_group_name_H-M   'P 1'
_cell_length_a   7.99355439
_cell_length_b   7.99538892
_cell_length_c   15.55518100
_cell_angle_alpha   89.89497354
_cell_angle_beta   89.74624657
_cell_angle_gamma   90.03444060
_symmetry_Int_Tables_number   1
_chemical_formula_structural   La17Pr3Si15Ir
_chemical_formula_sum   'La17 Pr3 Si15 Ir1'
_cell_volume   994.14453131
_cell_formula_units_Z   1
loop_
 _symmetry_equiv_pos_site_id
 _symmetry_equiv_pos_as_xyz
  1  'x, y, z'
loop_
 _atom_site_type_symbol
 _atom_site_label
 _atom_site_symmetry_multiplicity
 _atom_site_fract_x
 _atom_site_fract_y
 _atom_site_fract_z
 _atom_site_occupancy
  La  La0  1  0.307541  0.308264  0.998598  1
  La  La1  1  0.195432  0.805319  0.249416  1
  La  La2  1  0.820590  0.191093  0.750655  1
  La  La3  1  0.691269  0.685081  0.499695  1
  La  La4  1  0.376658  0.010276  0.446624  1
  La  La5  1  0.487083  0.878941  0.696557  1
  La  La6  1  0.510734  0.121822  0.196647  1
  La  La7  1  0.877595  0.487654  0.301742  1
  La  La8  1  0.124701  0.507808  0.799987  1
  La  La9  1  0.625300  0.988314  0.947199  1
  La  La10  1  0.007646  0.376283  0.554253  1
  La  La11  1  0.989654  0.622838  0.053219  1
  La  La12  1  0.132837  0.986755  0.873339  1
  La  La13  1  0.518003  0.629703  0.127120  1
  La  La14  1  0.469284  0.361078  0.628880  1
  La  La15  1  0.628004  0.517997  0.873351  1
  La  La16  1  0.371809  0.481124  0.373651  1
  Pr  Pr17  1  0.874164  0.019397  0.376846  1
  Pr  Pr18  1  0.982467  0.125374  0.124383  1
  Pr  Pr19  1  0.023224  0.881052  0.623658  1
  Si  Si20  1  0.332973  0.696854  0.952510  1
  Si  Si21  1  0.666056  0.300563  0.454100  1
  Si  Si22  1  0.698853  0.333313  0.048727  1
  Si  Si23  1  0.301961  0.670806  0.546963  1
  Si  Si24  1  0.807405  0.832428  0.204842  1
  Si  Si25  1  0.166898  0.194373  0.295988  1
  Si  Si26  1  0.832390  0.804187  0.795702  1
  Si  Si27  1  0.287406  0.921974  0.058025  1
  Si  Si28  1  0.583190  0.788724  0.310258  1
  Si  Si29  1  0.425922  0.208924  0.811698  1
  Si  Si30  1  0.783365  0.585164  0.689878  1
  Si  Si31  1  0.209801  0.418510  0.190445  1
  Si  Si32  1  0.704468  0.073449  0.558258  1
  Si  Si33  1  0.918826  0.287560  0.942870  1
  Si  Si34  1  0.079626  0.717053  0.442023  1
  Ir  Ir35  1  0.186867  0.179949  0.701896  1
