# generated using pymatgen
data_Nd2MnFe(Co4P3)2
_symmetry_space_group_name_H-M   'P 1'
_cell_length_a   3.70211600
_cell_length_b   10.41688100
_cell_length_c   11.90531600
_cell_angle_alpha   90.00000000
_cell_angle_beta   90.00000000
_cell_angle_gamma   90.00000000
_symmetry_Int_Tables_number   1
_chemical_formula_structural   Nd2MnFe(Co4P3)2
_chemical_formula_sum   'Nd4 Mn2 Fe2 Co16 P12'
_cell_volume   459.12258055
_cell_formula_units_Z   2
loop_
 _symmetry_equiv_pos_site_id
 _symmetry_equiv_pos_as_xyz
  1  'x, y, z'
loop_
 _atom_site_type_symbol
 _atom_site_label
 _atom_site_symmetry_multiplicity
 _atom_site_fract_x
 _atom_site_fract_y
 _atom_site_fract_z
 _atom_site_occupancy
  Nd  Nd0  1  0.250000  0.582674  0.703022  1
  Nd  Nd1  1  0.250000  0.917326  0.203022  1
  Nd  Nd2  1  0.750000  0.418325  0.297386  1
  Nd  Nd3  1  0.750000  0.081675  0.797386  1
  Mn  Mn4  1  0.750000  0.291670  0.011546  1
  Mn  Mn5  1  0.750000  0.208330  0.511546  1
  Fe  Fe6  1  0.250000  0.708151  0.988058  1
  Fe  Fe7  1  0.250000  0.791849  0.488058  1
  Co  Co8  1  0.250000  0.404667  0.489533  1
  Co  Co9  1  0.250000  0.095333  0.989533  1
  Co  Co10  1  0.750000  0.594448  0.510637  1
  Co  Co11  1  0.750000  0.905552  0.010637  1
  Co  Co12  1  0.250000  0.221022  0.175306  1
  Co  Co13  1  0.250000  0.278978  0.675306  1
  Co  Co14  1  0.750000  0.779078  0.824450  1
  Co  Co15  1  0.750000  0.720922  0.324450  1
  Co  Co16  1  0.250000  0.882274  0.697081  1
  Co  Co17  1  0.250000  0.617726  0.197081  1
  Co  Co18  1  0.750000  0.117345  0.302514  1
  Co  Co19  1  0.750000  0.382655  0.802514  1
  Co  Co20  1  0.250000  0.467961  0.933384  1
  Co  Co21  1  0.250000  0.032039  0.433384  1
  Co  Co22  1  0.750000  0.532987  0.066285  1
  Co  Co23  1  0.750000  0.967013  0.566285  1
  P  P24  1  0.250000  0.419174  0.110828  1
  P  P25  1  0.250000  0.080826  0.610828  1
  P  P26  1  0.750000  0.581932  0.889608  1
  P  P27  1  0.750000  0.918068  0.389608  1
  P  P28  1  0.250000  0.274764  0.867731  1
  P  P29  1  0.250000  0.225236  0.367731  1
  P  P30  1  0.750000  0.725823  0.131837  1
  P  P31  1  0.750000  0.774177  0.631837  1
  P  P32  1  0.250000  0.606387  0.393991  1
  P  P33  1  0.250000  0.893613  0.893991  1
  P  P34  1  0.750000  0.396840  0.606801  1
  P  P35  1  0.750000  0.103160  0.106801  1
