# generated using pymatgen
data_Nd2Si2BOs2
_symmetry_space_group_name_H-M   'P 1'
_cell_length_a   5.98644363
_cell_length_b   5.98644401
_cell_length_c   7.10095700
_cell_angle_alpha   125.55055910
_cell_angle_beta   125.55056167
_cell_angle_gamma   40.64749334
_symmetry_Int_Tables_number   1
_chemical_formula_structural   Nd2Si2BOs2
_chemical_formula_sum   'Nd2 Si2 B1 Os2'
_cell_volume   130.06038984
_cell_formula_units_Z   1
loop_
 _symmetry_equiv_pos_site_id
 _symmetry_equiv_pos_as_xyz
  1  'x, y, z'
loop_
 _atom_site_type_symbol
 _atom_site_label
 _atom_site_symmetry_multiplicity
 _atom_site_fract_x
 _atom_site_fract_y
 _atom_site_fract_z
 _atom_site_occupancy
  Nd  Nd0  1  0.565858  0.565858  0.305942  1
  Nd  Nd1  1  0.434142  0.434142  0.694056  1
  Si  Si2  1  0.835918  0.835918  0.278772  1
  Si  Si3  1  0.164082  0.164082  0.721228  1
  B  B4  1  0.000000  0.000000  0.000000  1
  Os  Os5  1  0.209048  0.209048  0.102446  1
  Os  Os6  1  0.790953  0.790953  0.897554  1
