# generated using pymatgen
data_TaNb11IrPt3
_symmetry_space_group_name_H-M   'P 1'
_cell_length_a   5.20842800
_cell_length_b   5.20034300
_cell_length_c   10.39734100
_cell_angle_alpha   90.00000000
_cell_angle_beta   90.00000000
_cell_angle_gamma   90.00000000
_symmetry_Int_Tables_number   1
_chemical_formula_structural   TaNb11IrPt3
_chemical_formula_sum   'Ta1 Nb11 Ir1 Pt3'
_cell_volume   281.61834510
_cell_formula_units_Z   1
loop_
 _symmetry_equiv_pos_site_id
 _symmetry_equiv_pos_as_xyz
  1  'x, y, z'
loop_
 _atom_site_type_symbol
 _atom_site_label
 _atom_site_symmetry_multiplicity
 _atom_site_fract_x
 _atom_site_fract_y
 _atom_site_fract_z
 _atom_site_occupancy
  Ta  Ta0  1  0.751255  0.500000  0.500000  1
  Nb  Nb1  1  0.499197  0.000000  0.375738  1
  Nb  Nb2  1  0.499176  0.000000  0.874874  1
  Nb  Nb3  1  0.749356  0.500000  0.000000  1
  Nb  Nb4  1  0.000776  0.750144  0.252609  1
  Nb  Nb5  1  0.000776  0.750144  0.747391  1
  Nb  Nb6  1  0.499176  0.000000  0.125126  1
  Nb  Nb7  1  0.499197  0.000000  0.624262  1
  Nb  Nb8  1  0.251100  0.500000  0.000000  1
  Nb  Nb9  1  0.248599  0.500000  0.500000  1
  Nb  Nb10  1  0.000776  0.249856  0.252609  1
  Nb  Nb11  1  0.000776  0.249856  0.747391  1
  Ir  Ir12  1  0.995839  0.000000  0.500000  1
  Pt  Pt13  1  0.502757  0.500000  0.250005  1
  Pt  Pt14  1  0.502757  0.500000  0.749995  1
  Pt  Pt15  1  0.998487  0.000000  0.000000  1
