# generated using pymatgen
data_Li5Sc(SnRh2)6
_symmetry_space_group_name_H-M   'P 1'
_cell_length_a   4.41795900
_cell_length_b   6.27179200
_cell_length_c   13.28482600
_cell_angle_alpha   90.00000000
_cell_angle_beta   89.99906302
_cell_angle_gamma   90.00000000
_symmetry_Int_Tables_number   1
_chemical_formula_structural   Li5Sc(SnRh2)6
_chemical_formula_sum   'Li5 Sc1 Sn6 Rh12'
_cell_volume   368.10286573
_cell_formula_units_Z   1
loop_
 _symmetry_equiv_pos_site_id
 _symmetry_equiv_pos_as_xyz
  1  'x, y, z'
loop_
 _atom_site_type_symbol
 _atom_site_label
 _atom_site_symmetry_multiplicity
 _atom_site_fract_x
 _atom_site_fract_y
 _atom_site_fract_z
 _atom_site_occupancy
  Li  Li0  1  0.499793  0.000000  0.168119  1
  Li  Li1  1  0.999779  0.499999  0.334046  1
  Li  Li2  1  0.500001  0.000000  0.500000  1
  Li  Li3  1  0.000221  0.499999  0.665953  1
  Li  Li4  1  0.500207  0.000000  0.831881  1
  Sc  Sc5  1  0.000000  0.499999  0.000000  1
  Sn  Sn6  1  0.000000  0.000000  0.000000  1
  Sn  Sn7  1  0.499769  0.499999  0.172138  1
  Sn  Sn8  1  0.999838  0.000000  0.338017  1
  Sn  Sn9  1  0.500001  0.499999  0.500000  1
  Sn  Sn10  1  0.000161  0.000000  0.661984  1
  Sn  Sn11  1  0.500230  0.499999  0.827863  1
  Rh  Rh12  1  0.500001  0.248277  0.000000  1
  Rh  Rh13  1  0.500001  0.751723  0.000000  1
  Rh  Rh14  1  0.999851  0.245439  0.168129  1
  Rh  Rh15  1  0.999851  0.754561  0.168129  1
  Rh  Rh16  1  0.499854  0.247735  0.334276  1
  Rh  Rh17  1  0.499854  0.752265  0.334276  1
  Rh  Rh18  1  0.000000  0.253760  0.500000  1
  Rh  Rh19  1  0.000000  0.746240  0.500000  1
  Rh  Rh20  1  0.500145  0.247735  0.665724  1
  Rh  Rh21  1  0.500145  0.752265  0.665724  1
  Rh  Rh22  1  0.000149  0.245439  0.831870  1
  Rh  Rh23  1  0.000149  0.754561  0.831870  1
