# generated using pymatgen
data_La3Pr5(HgRh)2
_symmetry_space_group_name_H-M   'P 1'
_cell_length_a   9.99464707
_cell_length_b   10.04160027
_cell_length_c   10.04160027
_cell_angle_alpha   59.69088461
_cell_angle_beta   60.15455690
_cell_angle_gamma   60.15455768
_symmetry_Int_Tables_number   1
_chemical_formula_structural   La3Pr5(HgRh)2
_chemical_formula_sum   'La6 Pr10 Hg4 Rh4'
_cell_volume   712.58949849
_cell_formula_units_Z   2
loop_
 _symmetry_equiv_pos_site_id
 _symmetry_equiv_pos_as_xyz
  1  'x, y, z'
loop_
 _atom_site_type_symbol
 _atom_site_label
 _atom_site_symmetry_multiplicity
 _atom_site_fract_x
 _atom_site_fract_y
 _atom_site_fract_z
 _atom_site_occupancy
  La  La0  1  0.348602  0.350000  0.350000  1
  La  La1  1  0.350000  0.348602  0.951396  1
  La  La2  1  0.350000  0.951396  0.348602  1
  La  La3  1  0.951396  0.350000  0.350000  1
  La  La4  1  0.811164  0.188836  0.188836  1
  La  La5  1  0.188836  0.811165  0.811164  1
  Pr  Pr6  1  0.191644  0.808356  0.191643  1
  Pr  Pr7  1  0.808356  0.191644  0.808356  1
  Pr  Pr8  1  0.191644  0.191644  0.808356  1
  Pr  Pr9  1  0.808357  0.808357  0.191643  1
  Pr  Pr10  1  0.936674  0.563326  0.563326  1
  Pr  Pr11  1  0.563326  0.936674  0.936674  1
  Pr  Pr12  1  0.562930  0.937070  0.562930  1
  Pr  Pr13  1  0.937070  0.562930  0.937070  1
  Pr  Pr14  1  0.562930  0.562930  0.937070  1
  Pr  Pr15  1  0.937070  0.937070  0.562930  1
  Hg  Hg16  1  0.584851  0.583613  0.583613  1
  Hg  Hg17  1  0.583613  0.584851  0.247924  1
  Hg  Hg18  1  0.583613  0.247924  0.584851  1
  Hg  Hg19  1  0.247924  0.583613  0.583613  1
  Rh  Rh20  1  0.137749  0.144507  0.144507  1
  Rh  Rh21  1  0.144507  0.137749  0.573237  1
  Rh  Rh22  1  0.144507  0.573237  0.137749  1
  Rh  Rh23  1  0.573237  0.144507  0.144507  1
