# generated using pymatgen
data_NaPr5SmRuBr12
_symmetry_space_group_name_H-M   'P 1'
_cell_length_a   9.63002287
_cell_length_b   9.59265580
_cell_length_c   9.61274007
_cell_angle_alpha   107.13277764
_cell_angle_beta   107.41888932
_cell_angle_gamma   107.01874373
_symmetry_Int_Tables_number   1
_chemical_formula_structural   NaPr5SmRuBr12
_chemical_formula_sum   'Na1 Pr5 Sm1 Ru1 Br12'
_cell_volume   735.65877873
_cell_formula_units_Z   1
loop_
 _symmetry_equiv_pos_site_id
 _symmetry_equiv_pos_as_xyz
  1  'x, y, z'
loop_
 _atom_site_type_symbol
 _atom_site_label
 _atom_site_symmetry_multiplicity
 _atom_site_fract_x
 _atom_site_fract_y
 _atom_site_fract_z
 _atom_site_occupancy
  Na  Na0  1  0.499985  0.500139  0.499893  1
  Pr  Pr1  1  0.318840  0.030187  0.113230  1
  Pr  Pr2  1  0.031311  0.114123  0.319823  1
  Pr  Pr3  1  0.969384  0.888267  0.680966  1
  Pr  Pr4  1  0.681279  0.969958  0.886599  1
  Pr  Pr5  1  0.887491  0.680526  0.969088  1
  Sm  Sm6  1  0.111558  0.315433  0.031114  1
  Ru  Ru7  1  0.000207  0.000110  0.000641  1
  Br  Br8  1  0.216042  0.680439  0.072275  1
  Br  Br9  1  0.448423  0.372247  0.153693  1
  Br  Br10  1  0.685212  0.073785  0.217238  1
  Br  Br11  1  0.926835  0.782879  0.314964  1
  Br  Br12  1  0.156162  0.454819  0.365380  1
  Br  Br13  1  0.372593  0.156696  0.456165  1
  Br  Br14  1  0.627422  0.843437  0.543948  1
  Br  Br15  1  0.843308  0.544744  0.627841  1
  Br  Br16  1  0.074619  0.221143  0.691907  1
  Br  Br17  1  0.314866  0.926384  0.782875  1
  Br  Br18  1  0.544487  0.627992  0.843046  1
  Br  Br19  1  0.789978  0.316693  0.929317  1
