# generated using pymatgen
data_Ho5In7Rh12
_symmetry_space_group_name_H-M   'P 1'
_cell_length_a   4.67395500
_cell_length_b   6.54550704
_cell_length_c   13.95836800
_cell_angle_alpha   89.99961485
_cell_angle_beta   89.99876189
_cell_angle_gamma   90.00624120
_symmetry_Int_Tables_number   1
_chemical_formula_structural   Ho5In7Rh12
_chemical_formula_sum   'Ho5 In7 Rh12'
_cell_volume   427.03400774
_cell_formula_units_Z   1
loop_
 _symmetry_equiv_pos_site_id
 _symmetry_equiv_pos_as_xyz
  1  'x, y, z'
loop_
 _atom_site_type_symbol
 _atom_site_label
 _atom_site_symmetry_multiplicity
 _atom_site_fract_x
 _atom_site_fract_y
 _atom_site_fract_z
 _atom_site_occupancy
  Ho  Ho0  1  0.999926  0.999992  0.996477  1
  Ho  Ho1  1  0.499935  0.500006  0.166471  1
  Ho  Ho2  1  0.999944  0.999989  0.333332  1
  Ho  Ho3  1  0.500064  0.500005  0.500193  1
  Ho  Ho4  1  0.000024  0.999999  0.670187  1
  In  In5  1  0.500134  0.499996  0.833327  1
  In  In6  1  0.999971  0.500003  0.002061  1
  In  In7  1  0.499937  0.999996  0.162946  1
  In  In8  1  0.000065  0.500005  0.333339  1
  In  In9  1  0.500004  0.999999  0.503734  1
  In  In10  1  0.000153  0.500003  0.664619  1
  In  In11  1  0.499891  0.000005  0.833330  1
  Rh  Rh12  1  0.499947  0.256703  0.994151  1
  Rh  Rh13  1  0.499958  0.743287  0.994149  1
  Rh  Rh14  1  0.999894  0.249532  0.165733  1
  Rh  Rh15  1  0.999901  0.750463  0.165735  1
  Rh  Rh16  1  0.500005  0.248850  0.333333  1
  Rh  Rh17  1  0.499993  0.751156  0.333332  1
  Rh  Rh18  1  0.999994  0.249527  0.500934  1
  Rh  Rh19  1  0.000009  0.750470  0.500932  1
  Rh  Rh20  1  0.500093  0.256707  0.672513  1
  Rh  Rh21  1  0.500101  0.743288  0.672514  1
  Rh  Rh22  1  0.000029  0.263008  0.833330  1
  Rh  Rh23  1  0.000033  0.737009  0.833329  1
