# generated using pymatgen
data_NaPr5YIrI12
_symmetry_space_group_name_H-M   'P 1'
_cell_length_a   10.04518727
_cell_length_b   10.13411373
_cell_length_c   10.03572669
_cell_angle_alpha   107.31918731
_cell_angle_beta   107.14089483
_cell_angle_gamma   106.75858783
_symmetry_Int_Tables_number   1
_chemical_formula_structural   NaPr5YIrI12
_chemical_formula_sum   'Na1 Pr5 Y1 Ir1 I12'
_cell_volume   849.10747665
_cell_formula_units_Z   1
loop_
 _symmetry_equiv_pos_site_id
 _symmetry_equiv_pos_as_xyz
  1  'x, y, z'
loop_
 _atom_site_type_symbol
 _atom_site_label
 _atom_site_symmetry_multiplicity
 _atom_site_fract_x
 _atom_site_fract_y
 _atom_site_fract_z
 _atom_site_occupancy
  Na  Na0  1  0.500050  0.500156  0.499992  1
  Pr  Pr1  1  0.305435  0.030858  0.102489  1
  Pr  Pr2  1  0.031519  0.104719  0.307099  1
  Pr  Pr3  1  0.969746  0.899340  0.694017  1
  Pr  Pr4  1  0.695264  0.970651  0.897629  1
  Pr  Pr5  1  0.893532  0.682311  0.968132  1
  Y  Y6  1  0.104524  0.309988  0.032137  1
  Ir  Ir7  1  0.000839  0.001696  0.000982  1
  I  I8  1  0.225410  0.677538  0.075177  1
  I  I9  1  0.447374  0.377424  0.145423  1
  I  I10  1  0.683048  0.076433  0.227664  1
  I  I11  1  0.924826  0.775711  0.318010  1
  I  I12  1  0.148779  0.456207  0.369299  1
  I  I13  1  0.379405  0.150346  0.459116  1
  I  I14  1  0.620478  0.849648  0.540965  1
  I  I15  1  0.850691  0.543185  0.620662  1
  I  I16  1  0.076989  0.229765  0.691326  1
  I  I17  1  0.317024  0.923760  0.772538  1
  I  I18  1  0.541720  0.622907  0.850142  1
  I  I19  1  0.783352  0.317359  0.927205  1
