# generated using pymatgen
data_Lu12Co4HgRu
_symmetry_space_group_name_H-M   'P 1'
_cell_length_a   8.08888429
_cell_length_b   8.08888373
_cell_length_c   8.08888363
_cell_angle_alpha   111.36544710
_cell_angle_beta   110.99321307
_cell_angle_gamma   106.10672980
_symmetry_Int_Tables_number   1
_chemical_formula_structural   Lu12Co4HgRu
_chemical_formula_sum   'Lu12 Co4 Hg1 Ru1'
_cell_volume   406.37114744
_cell_formula_units_Z   1
loop_
 _symmetry_equiv_pos_site_id
 _symmetry_equiv_pos_as_xyz
  1  'x, y, z'
loop_
 _atom_site_type_symbol
 _atom_site_label
 _atom_site_symmetry_multiplicity
 _atom_site_fract_x
 _atom_site_fract_y
 _atom_site_fract_z
 _atom_site_occupancy
  Lu  Lu0  1  0.418037  0.224058  0.193980  1
  Lu  Lu1  1  0.581963  0.775942  0.806020  1
  Lu  Lu2  1  0.030077  0.224058  0.806020  1
  Lu  Lu3  1  0.969923  0.775942  0.193980  1
  Lu  Lu4  1  0.182881  0.279138  0.462019  1
  Lu  Lu5  1  0.817119  0.720862  0.537981  1
  Lu  Lu6  1  0.182881  0.720862  0.903744  1
  Lu  Lu7  1  0.817119  0.279138  0.096256  1
  Lu  Lu8  1  0.314420  0.620507  0.306086  1
  Lu  Lu9  1  0.685580  0.379493  0.693914  1
  Lu  Lu10  1  0.314420  0.008334  0.693914  1
  Lu  Lu11  1  0.685580  0.991666  0.306086  1
  Co  Co12  1  0.372652  0.000000  0.372652  1
  Co  Co13  1  0.627348  0.000000  0.627348  1
  Co  Co14  1  0.113071  0.613071  0.500000  1
  Co  Co15  1  0.886929  0.386929  0.500000  1
  Hg  Hg16  1  0.500000  0.500000  0.000000  1
  Ru  Ru17  1  0.000000  0.000000  0.000000  1
