# generated using pymatgen
data_Th(Zn2Pt)2
_symmetry_space_group_name_H-M   'P 1'
_cell_length_a   7.69934000
_cell_length_b   7.69934000
_cell_length_c   4.22998900
_cell_angle_alpha   90.00000000
_cell_angle_beta   90.00000000
_cell_angle_gamma   90.00000000
_symmetry_Int_Tables_number   1
_chemical_formula_structural   Th(Zn2Pt)2
_chemical_formula_sum   'Th2 Zn8 Pt4'
_cell_volume   250.75305604
_cell_formula_units_Z   2
loop_
 _symmetry_equiv_pos_site_id
 _symmetry_equiv_pos_as_xyz
  1  'x, y, z'
loop_
 _atom_site_type_symbol
 _atom_site_label
 _atom_site_symmetry_multiplicity
 _atom_site_fract_x
 _atom_site_fract_y
 _atom_site_fract_z
 _atom_site_occupancy
  Th  Th0  1  0.500000  0.500000  0.500000  1
  Th  Th1  1  0.000000  0.000000  0.000000  1
  Zn  Zn2  1  0.348295  0.092641  0.500000  1
  Zn  Zn3  1  0.651705  0.907359  0.500000  1
  Zn  Zn4  1  0.848295  0.407359  0.000000  1
  Zn  Zn5  1  0.151705  0.592641  0.000000  1
  Zn  Zn6  1  0.092641  0.348295  0.500000  1
  Zn  Zn7  1  0.907359  0.651705  0.500000  1
  Zn  Zn8  1  0.407359  0.848295  0.000000  1
  Zn  Zn9  1  0.592641  0.151705  0.000000  1
  Pt  Pt10  1  0.785146  0.214854  0.500000  1
  Pt  Pt11  1  0.214854  0.785146  0.500000  1
  Pt  Pt12  1  0.285146  0.285146  0.000000  1
  Pt  Pt13  1  0.714854  0.714854  0.000000  1
