# generated using pymatgen
data_Dy4Zn4Si3Ge
_symmetry_space_group_name_H-M   'P 1'
_cell_length_a   4.18464500
_cell_length_b   4.18464399
_cell_length_c   15.52574600
_cell_angle_alpha   90.00000000
_cell_angle_beta   90.00000000
_cell_angle_gamma   120.00000007
_symmetry_Int_Tables_number   1
_chemical_formula_structural   Dy4Zn4Si3Ge
_chemical_formula_sum   'Dy4 Zn4 Si3 Ge1'
_cell_volume   235.45084074
_cell_formula_units_Z   1
loop_
 _symmetry_equiv_pos_site_id
 _symmetry_equiv_pos_as_xyz
  1  'x, y, z'
loop_
 _atom_site_type_symbol
 _atom_site_label
 _atom_site_symmetry_multiplicity
 _atom_site_fract_x
 _atom_site_fract_y
 _atom_site_fract_z
 _atom_site_occupancy
  Dy  Dy0  1  0.000000  0.000000  0.250404  1
  Dy  Dy1  1  0.000000  0.000000  0.748158  1
  Dy  Dy2  1  0.000000  0.000000  0.001904  1
  Dy  Dy3  1  0.000000  0.000000  0.499666  1
  Zn  Zn4  1  0.333333  0.666667  0.141550  1
  Zn  Zn5  1  0.666667  0.333333  0.854547  1
  Zn  Zn6  1  0.666667  0.333333  0.639728  1
  Zn  Zn7  1  0.333333  0.666667  0.359345  1
  Si  Si8  1  0.333333  0.666667  0.617593  1
  Si  Si9  1  0.666667  0.333333  0.382349  1
  Si  Si10  1  0.666667  0.333333  0.118659  1
  Ge  Ge11  1  0.333333  0.666667  0.886099  1
