# generated using pymatgen
data_TmLu19Pt12
_symmetry_space_group_name_H-M   'P 1'
_cell_length_a   10.79939704
_cell_length_b   10.80019514
_cell_length_c   6.37493701
_cell_angle_alpha   89.98752227
_cell_angle_beta   90.00371624
_cell_angle_gamma   89.99830813
_symmetry_Int_Tables_number   1
_chemical_formula_structural   TmLu19Pt12
_chemical_formula_sum   'Tm1 Lu19 Pt12'
_cell_volume   743.54455467
_cell_formula_units_Z   1
loop_
 _symmetry_equiv_pos_site_id
 _symmetry_equiv_pos_as_xyz
  1  'x, y, z'
loop_
 _atom_site_type_symbol
 _atom_site_label
 _atom_site_symmetry_multiplicity
 _atom_site_fract_x
 _atom_site_fract_y
 _atom_site_fract_z
 _atom_site_occupancy
  Tm  Tm0  1  0.087279  0.291510  0.123374  1
  Lu  Lu1  1  0.292148  0.086993  0.377160  1
  Lu  Lu2  1  0.291978  0.912764  0.877091  1
  Lu  Lu3  1  0.708021  0.087228  0.876927  1
  Lu  Lu4  1  0.708008  0.912751  0.377060  1
  Lu  Lu5  1  0.587225  0.791937  0.877085  1
  Lu  Lu6  1  0.587223  0.208067  0.376996  1
  Lu  Lu7  1  0.412811  0.791941  0.377054  1
  Lu  Lu8  1  0.412799  0.208028  0.876956  1
  Lu  Lu9  1  0.208145  0.412927  0.622994  1
  Lu  Lu10  1  0.208068  0.587507  0.122983  1
  Lu  Lu11  1  0.791719  0.412884  0.122994  1
  Lu  Lu12  1  0.791874  0.587255  0.623003  1
  Lu  Lu13  1  0.912724  0.708029  0.123013  1
  Lu  Lu14  1  0.912542  0.291987  0.623040  1
  Lu  Lu15  1  0.087323  0.708099  0.623007  1
  Lu  Lu16  1  0.999925  0.999916  0.500013  1
  Lu  Lu17  1  0.999867  0.999699  0.999819  1
  Lu  Lu18  1  0.499993  0.500023  0.999888  1
  Lu  Lu19  1  0.500085  0.500018  0.500041  1
  Pt  Pt20  1  0.845542  0.153740  0.250192  1
  Pt  Pt21  1  0.845943  0.845972  0.750014  1
  Pt  Pt22  1  0.154257  0.153552  0.748826  1
  Pt  Pt23  1  0.153985  0.846057  0.250043  1
  Pt  Pt24  1  0.653976  0.345995  0.750012  1
  Pt  Pt25  1  0.653982  0.654022  0.249953  1
  Pt  Pt26  1  0.346749  0.346123  0.250344  1
  Pt  Pt27  1  0.346044  0.654089  0.750058  1
  Pt  Pt28  1  0.500094  0.999978  0.119142  1
  Pt  Pt29  1  0.500027  0.999924  0.619150  1
  Pt  Pt30  1  0.999792  0.500536  0.880533  1
  Pt  Pt31  1  0.999850  0.500448  0.381235  1
