# generated using pymatgen
data_CrOsCl10
_symmetry_space_group_name_H-M   'P 1'
_cell_length_a   14.36435875
_cell_length_b   14.36435905
_cell_length_c   6.20842400
_cell_angle_alpha   87.09132193
_cell_angle_beta   87.09132986
_cell_angle_gamma   103.77767119
_symmetry_Int_Tables_number   1
_chemical_formula_structural   CrOsCl10
_chemical_formula_sum   'Cr3 Os3 Cl30'
_cell_volume   1239.94329839
_cell_formula_units_Z   3
loop_
 _symmetry_equiv_pos_site_id
 _symmetry_equiv_pos_as_xyz
  1  'x, y, z'
loop_
 _atom_site_type_symbol
 _atom_site_label
 _atom_site_symmetry_multiplicity
 _atom_site_fract_x
 _atom_site_fract_y
 _atom_site_fract_z
 _atom_site_occupancy
  Cr  Cr0  1  0.815011  0.522055  0.432040  1
  Cr  Cr1  1  0.477945  0.184989  0.567960  1
  Cr  Cr2  1  0.148030  0.851970  0.000000  1
  Os  Os3  1  0.228802  0.438067  0.567645  1
  Os  Os4  1  0.561933  0.771198  0.432355  1
  Os  Os5  1  0.894792  0.105208  0.000000  1
  Cl  Cl6  1  0.699014  0.512576  0.233154  1
  Cl  Cl7  1  0.487424  0.300986  0.766846  1
  Cl  Cl8  1  0.312389  0.520323  0.832421  1
  Cl  Cl9  1  0.479677  0.687611  0.167579  1
  Cl  Cl10  1  0.793402  0.395062  0.631718  1
  Cl  Cl11  1  0.604938  0.206598  0.368282  1
  Cl  Cl12  1  0.890865  0.958689  0.862841  1
  Cl  Cl13  1  0.041311  0.109135  0.137159  1
  Cl  Cl14  1  0.748105  0.103652  0.865189  1
  Cl  Cl15  1  0.896348  0.251895  0.134811  1
  Cl  Cl16  1  0.279513  0.876460  0.148411  1
  Cl  Cl17  1  0.123540  0.720487  0.851589  1
  Cl  Cl18  1  0.819628  0.028512  0.317227  1
  Cl  Cl19  1  0.971488  0.180372  0.682773  1
  Cl  Cl20  1  0.152614  0.963939  0.764338  1
  Cl  Cl21  1  0.036061  0.847386  0.235662  1
  Cl  Cl22  1  0.704532  0.772252  0.245819  1
  Cl  Cl23  1  0.227748  0.295468  0.754181  1
  Cl  Cl24  1  0.559411  0.914225  0.250835  1
  Cl  Cl25  1  0.085775  0.440589  0.749165  1
  Cl  Cl26  1  0.458509  0.056841  0.762742  1
  Cl  Cl27  1  0.943159  0.541491  0.237258  1
  Cl  Cl28  1  0.645712  0.853156  0.697247  1
  Cl  Cl29  1  0.146844  0.354288  0.302753  1
  Cl  Cl30  1  0.360488  0.175419  0.373488  1
  Cl  Cl31  1  0.824581  0.639512  0.626512  1
  Cl  Cl32  1  0.562287  0.628582  0.616667  1
  Cl  Cl33  1  0.371418  0.437713  0.383333  1
  Cl  Cl34  1  0.419332  0.772628  0.616235  1
  Cl  Cl35  1  0.227372  0.580668  0.383765  1
