# generated using pymatgen
data_Cs6MoP4
_symmetry_space_group_name_H-M   'P 1'
_cell_length_a   10.84796700
_cell_length_b   10.84796675
_cell_length_c   8.76609200
_cell_angle_alpha   90.00000000
_cell_angle_beta   90.00000000
_cell_angle_gamma   119.99999772
_symmetry_Int_Tables_number   1
_chemical_formula_structural   Cs6MoP4
_chemical_formula_sum   'Cs12 Mo2 P8'
_cell_volume   893.37411863
_cell_formula_units_Z   2
loop_
 _symmetry_equiv_pos_site_id
 _symmetry_equiv_pos_as_xyz
  1  'x, y, z'
loop_
 _atom_site_type_symbol
 _atom_site_label
 _atom_site_symmetry_multiplicity
 _atom_site_fract_x
 _atom_site_fract_y
 _atom_site_fract_z
 _atom_site_occupancy
  Cs  Cs0  1  0.147401  0.294804  0.285927  1
  Cs  Cs1  1  0.852599  0.147401  0.785927  1
  Cs  Cs2  1  0.535491  0.464509  0.102685  1
  Cs  Cs3  1  0.070981  0.535491  0.602685  1
  Cs  Cs4  1  0.464509  0.929019  0.602685  1
  Cs  Cs5  1  0.535491  0.070981  0.102685  1
  Cs  Cs6  1  0.929019  0.464509  0.102685  1
  Cs  Cs7  1  0.464509  0.535491  0.602685  1
  Cs  Cs8  1  0.147401  0.852599  0.285927  1
  Cs  Cs9  1  0.705196  0.852599  0.285927  1
  Cs  Cs10  1  0.852599  0.705196  0.785927  1
  Cs  Cs11  1  0.294804  0.147401  0.785927  1
  Mo  Mo12  1  0.666667  0.333333  0.498745  1
  Mo  Mo13  1  0.333333  0.666667  0.998745  1
  P  P14  1  0.784963  0.569925  0.415314  1
  P  P15  1  0.430075  0.215037  0.415314  1
  P  P16  1  0.333333  0.666667  0.264377  1
  P  P17  1  0.666667  0.333333  0.764377  1
  P  P18  1  0.784963  0.215037  0.415314  1
  P  P19  1  0.215037  0.784963  0.915314  1
  P  P20  1  0.215037  0.430075  0.915314  1
  P  P21  1  0.569925  0.784963  0.915314  1
