# generated using pymatgen
data_Li12Tb3Dy9(WO6)8
_symmetry_space_group_name_H-M   'P 1'
_cell_length_a   10.69752051
_cell_length_b   10.69345784
_cell_length_c   10.69346010
_cell_angle_alpha   109.46361824
_cell_angle_beta   109.47898537
_cell_angle_gamma   109.47895041
_symmetry_Int_Tables_number   1
_chemical_formula_structural   Li12Tb3Dy9(WO6)8
_chemical_formula_sum   'Li12 Tb3 Dy9 W8 O48'
_cell_volume   941.57590655
_cell_formula_units_Z   1
loop_
 _symmetry_equiv_pos_site_id
 _symmetry_equiv_pos_as_xyz
  1  'x, y, z'
loop_
 _atom_site_type_symbol
 _atom_site_label
 _atom_site_symmetry_multiplicity
 _atom_site_fract_x
 _atom_site_fract_y
 _atom_site_fract_z
 _atom_site_occupancy
  Li  Li0  1  0.875153  0.750011  0.125259  1
  Li  Li1  1  0.250105  0.875247  0.125256  1
  Li  Li2  1  0.875122  0.125114  0.250109  1
  Li  Li3  1  0.374988  0.624998  0.250113  1
  Li  Li4  1  0.624877  0.249891  0.374885  1
  Li  Li5  1  0.750008  0.624994  0.374883  1
  Li  Li6  1  0.249896  0.374744  0.624753  1
  Li  Li7  1  0.374857  0.750008  0.624751  1
  Li  Li8  1  0.125143  0.875249  0.749992  1
  Li  Li9  1  0.624848  0.374742  0.749989  1
  Li  Li10  1  0.125013  0.249888  0.875003  1
  Li  Li11  1  0.749992  0.125116  0.875005  1
  Tb  Tb12  1  0.874907  0.624907  0.749814  1
  Tb  Tb13  1  0.250000  0.624907  0.875093  1
  Tb  Tb14  1  0.625093  0.750186  0.875093  1
  Dy  Dy15  1  0.750000  0.374993  0.125007  1
  Dy  Dy16  1  0.375007  0.250014  0.125007  1
  Dy  Dy17  1  0.625146  0.875146  0.250292  1
  Dy  Dy18  1  0.124993  0.374993  0.249985  1
  Dy  Dy19  1  0.124977  0.749955  0.374978  1
  Dy  Dy20  1  0.250001  0.125023  0.374978  1
  Dy  Dy21  1  0.750000  0.875146  0.624854  1
  Dy  Dy22  1  0.874855  0.249708  0.624854  1
  Dy  Dy23  1  0.375023  0.125022  0.750045  1
  W  W24  1  0.000409  0.000541  0.000198  1
  W  W25  1  0.500132  0.000541  0.000344  1
  W  W26  1  0.500212  0.499803  0.000343  1
  W  W27  1  0.999789  0.499657  0.000198  1
  W  W28  1  0.000097  0.000000  0.500001  1
  W  W29  1  0.999869  0.499656  0.499459  1
  W  W30  1  0.499904  0.000000  0.500000  1
  W  W31  1  0.499591  0.499803  0.499459  1
  O  O32  1  0.119302  0.201581  0.027961  1
  O  O33  1  0.908659  0.326379  0.027960  1
  O  O34  1  0.409138  0.881859  0.082909  1
  O  O35  1  0.673771  0.701051  0.082910  1
  O  O36  1  0.673532  0.972821  0.091855  1
  O  O37  1  0.418322  0.619034  0.091855  1
  O  O38  1  0.201333  0.027855  0.119077  1
  O  O39  1  0.917743  0.591222  0.119076  1
  O  O40  1  0.582280  0.201583  0.173620  1
  O  O41  1  0.591342  0.472040  0.173622  1
  O  O42  1  0.027758  0.119168  0.201252  1
  O  O43  1  0.173493  0.582084  0.201252  1
  O  O44  1  0.917719  0.326379  0.298417  1
  O  O45  1  0.380697  0.472039  0.298418  1
  O  O46  1  0.298835  0.917860  0.326526  1
  O  O47  1  0.027689  0.908666  0.326526  1
  O  O48  1  0.472241  0.298749  0.380831  1
  O  O49  1  0.908590  0.582083  0.380832  1
  O  O50  1  0.527637  0.826527  0.408608  1
  O  O51  1  0.880972  0.082082  0.408610  1
  O  O52  1  0.619028  0.091391  0.417918  1
  O  O53  1  0.798890  0.826527  0.417918  1
  O  O54  1  0.298666  0.380923  0.472145  1
  O  O55  1  0.173479  0.591222  0.472145  1
  O  O56  1  0.700711  0.619034  0.527179  1
  O  O57  1  0.826467  0.408144  0.527178  1
  O  O58  1  0.201165  0.173474  0.582141  1
  O  O59  1  0.380977  0.908667  0.582141  1
  O  O60  1  0.119024  0.917859  0.591334  1
  O  O61  1  0.472311  0.173475  0.591334  1
  O  O62  1  0.527280  0.701051  0.618141  1
  O  O63  1  0.090861  0.417090  0.618141  1
  O  O64  1  0.701111  0.082083  0.673473  1
  O  O65  1  0.972364  0.091392  0.673474  1
  O  O66  1  0.082293  0.673582  0.700454  1
  O  O67  1  0.618160  0.526872  0.700453  1
  O  O68  1  0.972720  0.881858  0.798950  1
  O  O69  1  0.826229  0.417090  0.798949  1
  O  O70  1  0.408711  0.526871  0.826418  1
  O  O71  1  0.417706  0.799546  0.826418  1
  O  O72  1  0.081678  0.408146  0.880967  1
  O  O73  1  0.799289  0.972821  0.880967  1
  O  O74  1  0.582257  0.380924  0.908778  1
  O  O75  1  0.326520  0.027854  0.908777  1
  O  O76  1  0.326507  0.298748  0.917917  1
  O  O77  1  0.591409  0.119167  0.917916  1
  O  O78  1  0.091289  0.673582  0.973129  1
  O  O79  1  0.881840  0.799547  0.973129  1
