# generated using pymatgen
data_La4RuAu3
_symmetry_space_group_name_H-M   'P 1'
_cell_length_a   4.84629400
_cell_length_b   5.87217462
_cell_length_c   7.62248980
_cell_angle_alpha   92.90492597
_cell_angle_beta   90.00000000
_cell_angle_gamma   90.00000000
_symmetry_Int_Tables_number   1
_chemical_formula_structural   La4RuAu3
_chemical_formula_sum   'La4 Ru1 Au3'
_cell_volume   216.64423886
_cell_formula_units_Z   1
loop_
 _symmetry_equiv_pos_site_id
 _symmetry_equiv_pos_as_xyz
  1  'x, y, z'
loop_
 _atom_site_type_symbol
 _atom_site_label
 _atom_site_symmetry_multiplicity
 _atom_site_fract_x
 _atom_site_fract_y
 _atom_site_fract_z
 _atom_site_occupancy
  La  La0  1  0.250000  0.608658  0.170846  1
  La  La1  1  0.750000  0.348227  0.825688  1
  La  La2  1  0.750000  0.138517  0.302686  1
  La  La3  1  0.250000  0.858775  0.694878  1
  Ru  Ru4  1  0.250000  0.201792  0.042123  1
  Au  Au5  1  0.750000  0.850992  0.957311  1
  Au  Au6  1  0.750000  0.650041  0.467116  1
  Au  Au7  1  0.250000  0.342998  0.539351  1
