# generated using pymatgen
data_Sm3Zr(Ta3Si4)2
_symmetry_space_group_name_H-M   'P 1'
_cell_length_a   7.04457110
_cell_length_b   7.04451025
_cell_length_c   13.05053440
_cell_angle_alpha   90.15091762
_cell_angle_beta   90.25089488
_cell_angle_gamma   89.97788228
_symmetry_Int_Tables_number   1
_chemical_formula_structural   Sm3Zr(Ta3Si4)2
_chemical_formula_sum   'Sm6 Zr2 Ta12 Si16'
_cell_volume   647.63148965
_cell_formula_units_Z   2
loop_
 _symmetry_equiv_pos_site_id
 _symmetry_equiv_pos_as_xyz
  1  'x, y, z'
loop_
 _atom_site_type_symbol
 _atom_site_label
 _atom_site_symmetry_multiplicity
 _atom_site_fract_x
 _atom_site_fract_y
 _atom_site_fract_z
 _atom_site_occupancy
  Sm  Sm0  1  0.996878  0.661219  0.030767  1
  Sm  Sm1  1  0.004185  0.339014  0.532753  1
  Sm  Sm2  1  0.660904  0.996437  0.967887  1
  Sm  Sm3  1  0.161712  0.503831  0.779690  1
  Sm  Sm4  1  0.839747  0.496765  0.284048  1
  Sm  Sm5  1  0.503629  0.161709  0.219567  1
  Zr  Zr6  1  0.505291  0.845536  0.716290  1
  Zr  Zr7  1  0.343997  0.994617  0.469489  1
  Ta  Ta8  1  0.344716  0.510095  0.378666  1
  Ta  Ta9  1  0.845434  0.993361  0.377156  1
  Ta  Ta10  1  0.010025  0.154704  0.126541  1
  Ta  Ta11  1  0.991512  0.847802  0.624889  1
  Ta  Ta12  1  0.650723  0.492026  0.872746  1
  Ta  Ta13  1  0.502628  0.344471  0.623696  1
  Ta  Ta14  1  0.491212  0.656082  0.124904  1
  Ta  Ta15  1  0.156672  0.004566  0.871259  1
  Ta  Ta16  1  0.666290  0.673573  0.501411  1
  Ta  Ta17  1  0.826735  0.167050  0.748054  1
  Ta  Ta18  1  0.171612  0.830591  0.251851  1
  Ta  Ta19  1  0.329703  0.329134  0.998086  1
  Si  Si20  1  0.048016  0.710898  0.438038  1
  Si  Si21  1  0.956691  0.291383  0.935235  1
  Si  Si22  1  0.699402  0.042885  0.564027  1
  Si  Si23  1  0.207334  0.456374  0.187571  1
  Si  Si24  1  0.787913  0.546899  0.685829  1
  Si  Si25  1  0.456005  0.200791  0.811258  1
  Si  Si26  1  0.541597  0.795558  0.315750  1
  Si  Si27  1  0.293469  0.956827  0.062790  1
  Si  Si28  1  0.863606  0.795893  0.814553  1
  Si  Si29  1  0.136546  0.199219  0.321726  1
  Si  Si30  1  0.797367  0.869262  0.184950  1
  Si  Si31  1  0.299364  0.641402  0.570517  1
  Si  Si32  1  0.702849  0.369634  0.065390  1
  Si  Si33  1  0.625111  0.290109  0.433675  1
  Si  Si34  1  0.369181  0.705393  0.930184  1
  Si  Si35  1  0.211942  0.124889  0.678758  1
