# generated using pymatgen
data_CeHf(AlAu)2
_symmetry_space_group_name_H-M   'P 1'
_cell_length_a   4.44600500
_cell_length_b   7.00938700
_cell_length_c   7.76673900
_cell_angle_alpha   89.99723368
_cell_angle_beta   90.00000000
_cell_angle_gamma   90.00000000
_symmetry_Int_Tables_number   1
_chemical_formula_structural   CeHf(AlAu)2
_chemical_formula_sum   'Ce2 Hf2 Al4 Au4'
_cell_volume   242.04086498
_cell_formula_units_Z   2
loop_
 _symmetry_equiv_pos_site_id
 _symmetry_equiv_pos_as_xyz
  1  'x, y, z'
loop_
 _atom_site_type_symbol
 _atom_site_label
 _atom_site_symmetry_multiplicity
 _atom_site_fract_x
 _atom_site_fract_y
 _atom_site_fract_z
 _atom_site_occupancy
  Ce  Ce0  1  0.750000  0.992304  0.691639  1
  Ce  Ce1  1  0.750000  0.492469  0.808407  1
  Hf  Hf2  1  0.250000  0.011141  0.296219  1
  Hf  Hf3  1  0.250000  0.511239  0.203730  1
  Al  Al4  1  0.250000  0.185608  0.930952  1
  Al  Al5  1  0.250000  0.686331  0.569075  1
  Al  Al6  1  0.750000  0.823728  0.090759  1
  Al  Al7  1  0.750000  0.324240  0.409082  1
  Au  Au8  1  0.250000  0.284938  0.581151  1
  Au  Au9  1  0.250000  0.785278  0.918617  1
  Au  Au10  1  0.750000  0.701501  0.396722  1
  Au  Au11  1  0.750000  0.201223  0.103649  1
