# generated using pymatgen
data_MgNb(ZnRh2)2
_symmetry_space_group_name_H-M   'P 1'
_cell_length_a   6.04539525
_cell_length_b   6.04512229
_cell_length_c   6.47158200
_cell_angle_alpha   90.00022889
_cell_angle_beta   90.00034770
_cell_angle_gamma   89.96588935
_symmetry_Int_Tables_number   1
_chemical_formula_structural   MgNb(ZnRh2)2
_chemical_formula_sum   'Mg2 Nb2 Zn4 Rh8'
_cell_volume   236.50491603
_cell_formula_units_Z   2
loop_
 _symmetry_equiv_pos_site_id
 _symmetry_equiv_pos_as_xyz
  1  'x, y, z'
loop_
 _atom_site_type_symbol
 _atom_site_label
 _atom_site_symmetry_multiplicity
 _atom_site_fract_x
 _atom_site_fract_y
 _atom_site_fract_z
 _atom_site_occupancy
  Mg  Mg0  1  0.750038  0.250001  0.000000  1
  Mg  Mg1  1  0.249961  0.749991  0.999997  1
  Nb  Nb2  1  0.750004  0.250000  0.500013  1
  Nb  Nb3  1  0.249996  0.750000  0.500013  1
  Zn  Zn4  1  0.249991  0.250017  0.999996  1
  Zn  Zn5  1  0.750009  0.749986  0.000002  1
  Zn  Zn6  1  0.750015  0.750007  0.500000  1
  Zn  Zn7  1  0.249984  0.249993  0.500007  1
  Rh  Rh8  1  0.000001  0.499998  0.251270  1
  Rh  Rh9  1  0.000003  0.999997  0.251119  1
  Rh  Rh10  1  0.499998  0.500003  0.251113  1
  Rh  Rh11  1  0.499998  0.000006  0.251248  1
  Rh  Rh12  1  0.500003  0.499997  0.748885  1
  Rh  Rh13  1  0.500001  0.999999  0.748745  1
  Rh  Rh14  1  0.999998  0.500001  0.748725  1
  Rh  Rh15  1  0.999997  0.000004  0.748870  1
