# generated using pymatgen
data_TbU9(Re3C8)2
_symmetry_space_group_name_H-M   'P 1'
_cell_length_a   11.37872360
_cell_length_b   11.37872360
_cell_length_c   3.26878000
_cell_angle_alpha   90.00000000
_cell_angle_beta   90.00000000
_cell_angle_gamma   89.84356191
_symmetry_Int_Tables_number   1
_chemical_formula_structural   TbU9(Re3C8)2
_chemical_formula_sum   'Tb1 U9 Re6 C16'
_cell_volume   423.22485978
_cell_formula_units_Z   1
loop_
 _symmetry_equiv_pos_site_id
 _symmetry_equiv_pos_as_xyz
  1  'x, y, z'
loop_
 _atom_site_type_symbol
 _atom_site_label
 _atom_site_symmetry_multiplicity
 _atom_site_fract_x
 _atom_site_fract_y
 _atom_site_fract_z
 _atom_site_occupancy
  Tb  Tb0  1  0.000000  0.500000  0.000000  1
  U  U1  1  0.271343  0.542211  0.500000  1
  U  U2  1  0.728657  0.457789  0.500000  1
  U  U3  1  0.542201  0.728037  0.500000  1
  U  U4  1  0.771963  0.957799  0.500000  1
  U  U5  1  0.228037  0.042201  0.500000  1
  U  U6  1  0.957789  0.228657  0.500000  1
  U  U7  1  0.457799  0.271963  0.500000  1
  U  U8  1  0.500000  0.000000  0.000000  1
  U  U9  1  0.042211  0.771343  0.500000  1
  Re  Re10  1  0.204898  0.295102  0.000000  1
  Re  Re11  1  0.702435  0.202435  0.000000  1
  Re  Re12  1  0.297565  0.797565  0.000000  1
  Re  Re13  1  0.500000  0.500000  0.000000  1
  Re  Re14  1  0.795102  0.704898  0.000000  1
  Re  Re15  1  0.000000  0.000000  0.000000  1
  C  C16  1  0.347201  0.403187  0.000000  1
  C  C17  1  0.616588  0.116588  0.500000  1
  C  C18  1  0.903187  0.847201  0.000000  1
  C  C19  1  0.653353  0.846647  0.000000  1
  C  C20  1  0.346647  0.153353  0.000000  1
  C  C21  1  0.120095  0.379905  0.500000  1
  C  C22  1  0.152132  0.902245  0.000000  1
  C  C23  1  0.843710  0.343710  0.000000  1
  C  C24  1  0.652799  0.596813  0.000000  1
  C  C25  1  0.597755  0.347868  0.000000  1
  C  C26  1  0.879905  0.620095  0.500000  1
  C  C27  1  0.847868  0.097755  0.000000  1
  C  C28  1  0.383412  0.883412  0.500000  1
  C  C29  1  0.156290  0.656290  0.000000  1
  C  C30  1  0.096813  0.152799  0.000000  1
  C  C31  1  0.402245  0.652132  0.000000  1
