# generated using pymatgen
data_Dy4ReMoOs6
_symmetry_space_group_name_H-M   'P 1'
_cell_length_a   5.24321600
_cell_length_b   5.24321730
_cell_length_c   8.99309400
_cell_angle_alpha   90.00000000
_cell_angle_beta   90.00000000
_cell_angle_gamma   116.44092765
_symmetry_Int_Tables_number   1
_chemical_formula_structural   Dy4ReMoOs6
_chemical_formula_sum   'Dy4 Re1 Mo1 Os6'
_cell_volume   221.37005852
_cell_formula_units_Z   1
loop_
 _symmetry_equiv_pos_site_id
 _symmetry_equiv_pos_as_xyz
  1  'x, y, z'
loop_
 _atom_site_type_symbol
 _atom_site_label
 _atom_site_symmetry_multiplicity
 _atom_site_fract_x
 _atom_site_fract_y
 _atom_site_fract_z
 _atom_site_occupancy
  Dy  Dy0  1  0.330813  0.669187  0.434560  1
  Dy  Dy1  1  0.667923  0.332077  0.563137  1
  Dy  Dy2  1  0.667923  0.332077  0.936863  1
  Dy  Dy3  1  0.330813  0.669187  0.065440  1
  Re  Re4  1  0.833461  0.166539  0.250000  1
  Mo  Mo5  1  0.169251  0.830749  0.750000  1
  Os  Os6  1  0.997507  0.002493  0.498263  1
  Os  Os7  1  0.997507  0.002493  0.001737  1
  Os  Os8  1  0.828004  0.651571  0.250000  1
  Os  Os9  1  0.348429  0.171996  0.250000  1
  Os  Os10  1  0.171536  0.343167  0.750000  1
  Os  Os11  1  0.656833  0.828464  0.750000  1
