# generated using pymatgen
data_Mg3NiBi4(AsO5)4
_symmetry_space_group_name_H-M   'P 1'
_cell_length_a   5.37008629
_cell_length_b   7.72637140
_cell_length_c   11.37978623
_cell_angle_alpha   93.75729931
_cell_angle_beta   96.66644490
_cell_angle_gamma   70.94081497
_symmetry_Int_Tables_number   1
_chemical_formula_structural   Mg3NiBi4(AsO5)4
_chemical_formula_sum   'Mg3 Ni1 Bi4 As4 O20'
_cell_volume   443.06954182
_cell_formula_units_Z   1
loop_
 _symmetry_equiv_pos_site_id
 _symmetry_equiv_pos_as_xyz
  1  'x, y, z'
loop_
 _atom_site_type_symbol
 _atom_site_label
 _atom_site_symmetry_multiplicity
 _atom_site_fract_x
 _atom_site_fract_y
 _atom_site_fract_z
 _atom_site_occupancy
  Mg  Mg0  1  0.782546  0.048368  0.683166  1
  Mg  Mg1  1  0.216704  0.952007  0.317116  1
  Mg  Mg2  1  0.282999  0.548135  0.182968  1
  Ni  Ni3  1  0.718486  0.448658  0.814385  1
  Bi  Bi4  1  0.799162  0.601743  0.363259  1
  Bi  Bi5  1  0.297740  0.102551  0.864656  1
  Bi  Bi6  1  0.200034  0.399795  0.637448  1
  Bi  Bi7  1  0.700985  0.897734  0.136683  1
  As  As8  1  0.130417  0.712281  0.898269  1
  As  As9  1  0.628227  0.213553  0.398330  1
  As  As10  1  0.870204  0.286939  0.101314  1
  As  As11  1  0.371901  0.786831  0.602403  1
  O  O12  1  0.496767  0.272551  0.775278  1
  O  O13  1  0.997237  0.772228  0.274758  1
  O  O14  1  0.502591  0.727865  0.225333  1
  O  O15  1  0.001390  0.228662  0.725893  1
  O  O16  1  0.956453  0.311347  0.962744  1
  O  O17  1  0.456599  0.810559  0.463800  1
  O  O18  1  0.045129  0.689301  0.036703  1
  O  O19  1  0.543165  0.189506  0.536786  1
  O  O20  1  0.005238  0.574694  0.798979  1
  O  O21  1  0.506056  0.074228  0.299269  1
  O  O22  1  0.993159  0.425743  0.200357  1
  O  O23  1  0.492486  0.927021  0.701060  1
  O  O24  1  0.522016  0.560078  0.644359  1
  O  O25  1  0.020963  0.061381  0.144220  1
  O  O26  1  0.478479  0.439174  0.355211  1
  O  O27  1  0.980683  0.938352  0.855623  1
  O  O28  1  0.536969  0.333185  0.095633  1
  O  O29  1  0.038172  0.833284  0.596134  1
  O  O30  1  0.465016  0.665607  0.903612  1
  O  O31  1  0.962029  0.166638  0.404253  1
