# generated using pymatgen
data_NdHo5(SnIr)6
_symmetry_space_group_name_H-M   'P 1'
_cell_length_a   7.46968104
_cell_length_b   7.49538020
_cell_length_c   7.96156400
_cell_angle_alpha   90.00000000
_cell_angle_beta   90.00000000
_cell_angle_gamma   119.87386077
_symmetry_Int_Tables_number   1
_chemical_formula_structural   NdHo5(SnIr)6
_chemical_formula_sum   'Nd1 Ho5 Sn6 Ir6'
_cell_volume   386.52301654
_cell_formula_units_Z   1
loop_
 _symmetry_equiv_pos_site_id
 _symmetry_equiv_pos_as_xyz
  1  'x, y, z'
loop_
 _atom_site_type_symbol
 _atom_site_label
 _atom_site_symmetry_multiplicity
 _atom_site_fract_x
 _atom_site_fract_y
 _atom_site_fract_z
 _atom_site_occupancy
  Nd  Nd0  1  0.409184  0.998978  0.750000  1
  Ho  Ho1  1  0.404621  0.000966  0.250000  1
  Ho  Ho2  1  0.594953  0.594802  0.750000  1
  Ho  Ho3  1  0.594823  0.595674  0.250000  1
  Ho  Ho4  1  0.997922  0.403835  0.250000  1
  Ho  Ho5  1  0.001483  0.405620  0.750000  1
  Sn  Sn6  1  0.257971  0.259673  0.499083  1
  Sn  Sn7  1  0.257971  0.259673  0.000917  1
  Sn  Sn8  1  0.742710  0.000018  0.003824  1
  Sn  Sn9  1  0.998250  0.740322  0.499033  1
  Sn  Sn10  1  0.742710  0.000018  0.496176  1
  Sn  Sn11  1  0.998250  0.740322  0.000967  1
  Ir  Ir12  1  0.669210  0.337073  0.496326  1
  Ir  Ir13  1  0.669210  0.337073  0.003674  1
  Ir  Ir14  1  0.332164  0.662997  0.006212  1
  Ir  Ir15  1  0.332164  0.662997  0.493788  1
  Ir  Ir16  1  0.995451  0.999925  0.750000  1
  Ir  Ir17  1  0.000954  0.000032  0.250000  1
