# generated using pymatgen
data_Pu4TcB16Ru3
_symmetry_space_group_name_H-M   'P 1'
_cell_length_a   5.98692400
_cell_length_b   11.59865900
_cell_length_c   3.53875000
_cell_angle_alpha   90.00000000
_cell_angle_beta   90.00000000
_cell_angle_gamma   89.99886728
_symmetry_Int_Tables_number   1
_chemical_formula_structural   Pu4TcB16Ru3
_chemical_formula_sum   'Pu4 Tc1 B16 Ru3'
_cell_volume   245.73182598
_cell_formula_units_Z   1
loop_
 _symmetry_equiv_pos_site_id
 _symmetry_equiv_pos_as_xyz
  1  'x, y, z'
loop_
 _atom_site_type_symbol
 _atom_site_label
 _atom_site_symmetry_multiplicity
 _atom_site_fract_x
 _atom_site_fract_y
 _atom_site_fract_z
 _atom_site_occupancy
  Pu  Pu0  1  0.627032  0.349626  0.000000  1
  Pu  Pu1  1  0.373165  0.649594  0.000000  1
  Pu  Pu2  1  0.126294  0.150137  0.000000  1
  Pu  Pu3  1  0.873221  0.850143  0.000000  1
  Tc  Tc4  1  0.636284  0.090804  0.000000  1
  B  B5  1  0.786461  0.187296  0.500000  1
  B  B6  1  0.214346  0.813338  0.500000  1
  B  B7  1  0.285498  0.313651  0.500000  1
  B  B8  1  0.714240  0.686457  0.500000  1
  B  B9  1  0.865413  0.031497  0.500000  1
  B  B10  1  0.135413  0.968317  0.500000  1
  B  B11  1  0.364725  0.468237  0.500000  1
  B  B12  1  0.635211  0.531504  0.500000  1
  B  B13  1  0.886218  0.453245  0.500000  1
  B  B14  1  0.113974  0.546665  0.500000  1
  B  B15  1  0.385707  0.046829  0.500000  1
  B  B16  1  0.614448  0.953451  0.500000  1
  B  B17  1  0.973583  0.308362  0.500000  1
  B  B18  1  0.027098  0.691798  0.500000  1
  B  B19  1  0.472420  0.192053  0.500000  1
  B  B20  1  0.527025  0.808306  0.500000  1
  Ru  Ru21  1  0.362923  0.908321  0.000000  1
  Ru  Ru22  1  0.136565  0.408612  0.000000  1
  Ru  Ru23  1  0.862737  0.591755  0.000000  1
