# generated using pymatgen
data_Tc3Se4
_symmetry_space_group_name_H-M   'P 1'
_cell_length_a   6.70981011
_cell_length_b   6.70981036
_cell_length_c   6.70981086
_cell_angle_alpha   93.23716328
_cell_angle_beta   93.23717255
_cell_angle_gamma   93.23718807
_symmetry_Int_Tables_number   1
_chemical_formula_structural   Tc3Se4
_chemical_formula_sum   'Tc6 Se8'
_cell_volume   300.58304222
_cell_formula_units_Z   2
loop_
 _symmetry_equiv_pos_site_id
 _symmetry_equiv_pos_as_xyz
  1  'x, y, z'
loop_
 _atom_site_type_symbol
 _atom_site_label
 _atom_site_symmetry_multiplicity
 _atom_site_fract_x
 _atom_site_fract_y
 _atom_site_fract_z
 _atom_site_occupancy
  Tc  Tc0  1  0.452559  0.585340  0.765483  1
  Tc  Tc1  1  0.765483  0.452559  0.585340  1
  Tc  Tc2  1  0.585340  0.765483  0.452559  1
  Tc  Tc3  1  0.547441  0.414660  0.234517  1
  Tc  Tc4  1  0.234517  0.547441  0.414660  1
  Tc  Tc5  1  0.414660  0.234517  0.547441  1
  Se  Se6  1  0.782811  0.782811  0.782811  1
  Se  Se7  1  0.217189  0.217189  0.217189  1
  Se  Se8  1  0.269077  0.873355  0.626533  1
  Se  Se9  1  0.626533  0.269077  0.873355  1
  Se  Se10  1  0.873355  0.626533  0.269077  1
  Se  Se11  1  0.730923  0.126645  0.373467  1
  Se  Se12  1  0.373467  0.730923  0.126645  1
  Se  Se13  1  0.126645  0.373468  0.730923  1
