# generated using pymatgen
data_Zr3Ti3BeSb2
_symmetry_space_group_name_H-M   'P 1'
_cell_length_a   7.28625000
_cell_length_b   7.28625171
_cell_length_c   3.80399800
_cell_angle_alpha   90.00000000
_cell_angle_beta   90.00000000
_cell_angle_gamma   120.00000130
_symmetry_Int_Tables_number   1
_chemical_formula_structural   Zr3Ti3BeSb2
_chemical_formula_sum   'Zr3 Ti3 Be1 Sb2'
_cell_volume   174.89570513
_cell_formula_units_Z   1
loop_
 _symmetry_equiv_pos_site_id
 _symmetry_equiv_pos_as_xyz
  1  'x, y, z'
loop_
 _atom_site_type_symbol
 _atom_site_label
 _atom_site_symmetry_multiplicity
 _atom_site_fract_x
 _atom_site_fract_y
 _atom_site_fract_z
 _atom_site_occupancy
  Zr  Zr0  1  0.612822  0.000000  0.000000  1
  Zr  Zr1  1  0.387178  0.387178  0.000000  1
  Zr  Zr2  1  0.000000  0.612823  0.000000  1
  Ti  Ti3  1  0.222822  0.000000  0.499999  1
  Ti  Ti4  1  0.000000  0.222822  0.499999  1
  Ti  Ti5  1  0.777179  0.777178  0.499999  1
  Be  Be6  1  0.000000  0.000000  0.000000  1
  Sb  Sb7  1  0.666667  0.333334  0.499999  1
  Sb  Sb8  1  0.333334  0.666667  0.499999  1
