# generated using pymatgen
data_Zr4Ti2NbMoP4
_symmetry_space_group_name_H-M   'P 1'
_cell_length_a   3.55564700
_cell_length_b   6.82595207
_cell_length_c   8.22435405
_cell_angle_alpha   90.03739577
_cell_angle_beta   90.00000000
_cell_angle_gamma   90.00000000
_symmetry_Int_Tables_number   1
_chemical_formula_structural   Zr4Ti2NbMoP4
_chemical_formula_sum   'Zr4 Ti2 Nb1 Mo1 P4'
_cell_volume   199.61059012
_cell_formula_units_Z   1
loop_
 _symmetry_equiv_pos_site_id
 _symmetry_equiv_pos_as_xyz
  1  'x, y, z'
loop_
 _atom_site_type_symbol
 _atom_site_label
 _atom_site_symmetry_multiplicity
 _atom_site_fract_x
 _atom_site_fract_y
 _atom_site_fract_z
 _atom_site_occupancy
  Zr  Zr0  1  0.250000  0.540022  0.833696  1
  Zr  Zr1  1  0.750000  0.964134  0.328626  1
  Zr  Zr2  1  0.250000  0.035641  0.670506  1
  Zr  Zr3  1  0.750000  0.466267  0.167343  1
  Ti  Ti4  1  0.250000  0.130603  0.059189  1
  Ti  Ti5  1  0.250000  0.636607  0.439724  1
  Nb  Nb6  1  0.750000  0.362969  0.559943  1
  Mo  Mo7  1  0.750000  0.863347  0.941408  1
  P  P8  1  0.750000  0.739590  0.638231  1
  P  P9  1  0.250000  0.761088  0.140979  1
  P  P10  1  0.750000  0.237899  0.865044  1
  P  P11  1  0.250000  0.261835  0.355310  1
