# generated using pymatgen
data_DyY14Ho(CdPt)4
_symmetry_space_group_name_H-M   'P 1'
_cell_length_a   9.71234155
_cell_length_b   9.71234272
_cell_length_c   9.71380001
_cell_angle_alpha   59.99178773
_cell_angle_beta   59.99178326
_cell_angle_gamma   59.98380034
_symmetry_Int_Tables_number   1
_chemical_formula_structural   DyY14Ho(CdPt)4
_chemical_formula_sum   'Dy1 Y14 Ho1 Cd4 Pt4'
_cell_volume   647.76128265
_cell_formula_units_Z   1
loop_
 _symmetry_equiv_pos_site_id
 _symmetry_equiv_pos_as_xyz
  1  'x, y, z'
loop_
 _atom_site_type_symbol
 _atom_site_label
 _atom_site_symmetry_multiplicity
 _atom_site_fract_x
 _atom_site_fract_y
 _atom_site_fract_z
 _atom_site_occupancy
  Dy  Dy0  1  0.351907  0.351907  0.945730  1
  Y  Y1  1  0.354451  0.939762  0.352896  1
  Y  Y2  1  0.939762  0.354451  0.352896  1
  Y  Y3  1  0.810351  0.189959  0.190054  1
  Y  Y4  1  0.189919  0.810411  0.809639  1
  Y  Y5  1  0.189959  0.810351  0.190054  1
  Y  Y6  1  0.810411  0.189919  0.809639  1
  Y  Y7  1  0.190715  0.190715  0.809256  1
  Y  Y8  1  0.810805  0.810805  0.189186  1
  Y  Y9  1  0.936218  0.563843  0.564549  1
  Y  Y10  1  0.563869  0.936183  0.935385  1
  Y  Y11  1  0.563843  0.936218  0.564549  1
  Y  Y12  1  0.936183  0.563869  0.935385  1
  Y  Y13  1  0.564583  0.564583  0.935430  1
  Y  Y14  1  0.936151  0.936151  0.563854  1
  Ho  Ho15  1  0.351832  0.351832  0.350403  1
  Cd  Cd16  1  0.581441  0.581441  0.582587  1
  Cd  Cd17  1  0.581410  0.581410  0.254549  1
  Cd  Cd18  1  0.581151  0.254078  0.582350  1
  Cd  Cd19  1  0.254078  0.581151  0.582350  1
  Pt  Pt20  1  0.143858  0.143858  0.143780  1
  Pt  Pt21  1  0.143993  0.143993  0.568338  1
  Pt  Pt22  1  0.143720  0.569388  0.143571  1
  Pt  Pt23  1  0.569388  0.143720  0.143571  1
