# generated using pymatgen
data_Rb10SrSn12
_symmetry_space_group_name_H-M   'P 1'
_cell_length_a   10.86323344
_cell_length_b   10.86323385
_cell_length_c   10.86323400
_cell_angle_alpha   109.47121532
_cell_angle_beta   109.47121608
_cell_angle_gamma   109.47122180
_symmetry_Int_Tables_number   1
_chemical_formula_structural   Rb10SrSn12
_chemical_formula_sum   'Rb10 Sr1 Sn12'
_cell_volume   986.85996634
_cell_formula_units_Z   1
loop_
 _symmetry_equiv_pos_site_id
 _symmetry_equiv_pos_as_xyz
  1  'x, y, z'
loop_
 _atom_site_type_symbol
 _atom_site_label
 _atom_site_symmetry_multiplicity
 _atom_site_fract_x
 _atom_site_fract_y
 _atom_site_fract_z
 _atom_site_occupancy
  Rb  Rb0  1  0.500000  0.250000  0.750000  1
  Rb  Rb1  1  0.750000  0.250000  0.500000  1
  Rb  Rb2  1  0.250000  0.750000  0.500000  1
  Rb  Rb3  1  0.500000  0.750000  0.250000  1
  Rb  Rb4  1  0.597912  0.000000  0.000000  1
  Rb  Rb5  1  0.402088  0.402088  0.402088  1
  Rb  Rb6  1  0.000000  0.597912  0.000000  1
  Rb  Rb7  1  0.000000  0.000000  0.597912  1
  Rb  Rb8  1  0.750000  0.500000  0.250000  1
  Rb  Rb9  1  0.250000  0.500000  0.750000  1
  Sr  Sr10  1  0.000000  0.000000  0.000000  1
  Sn  Sn11  1  0.000000  0.173211  0.341485  1
  Sn  Sn12  1  0.826789  0.168274  0.826789  1
  Sn  Sn13  1  0.658515  0.658515  0.831726  1
  Sn  Sn14  1  0.341485  0.173211  0.000000  1
  Sn  Sn15  1  0.173211  0.341485  0.000000  1
  Sn  Sn16  1  0.341485  0.000000  0.173211  1
  Sn  Sn17  1  0.658515  0.831726  0.658515  1
  Sn  Sn18  1  0.831726  0.658515  0.658515  1
  Sn  Sn19  1  0.000000  0.341485  0.173211  1
  Sn  Sn20  1  0.826789  0.826789  0.168274  1
  Sn  Sn21  1  0.168274  0.826789  0.826789  1
  Sn  Sn22  1  0.173211  0.000000  0.341485  1
