# generated using pymatgen
data_Ba8Al2Ga8B12O41
_symmetry_space_group_name_H-M   'P 1'
_cell_length_a   9.44643814
_cell_length_b   10.00458186
_cell_length_c   11.32380452
_cell_angle_alpha   76.49697009
_cell_angle_beta   73.94643313
_cell_angle_gamma   77.73334359
_symmetry_Int_Tables_number   1
_chemical_formula_structural   Ba8Al2Ga8B12O41
_chemical_formula_sum   'Ba8 Al2 Ga8 B12 O41'
_cell_volume   987.41988231
_cell_formula_units_Z   1
loop_
 _symmetry_equiv_pos_site_id
 _symmetry_equiv_pos_as_xyz
  1  'x, y, z'
loop_
 _atom_site_type_symbol
 _atom_site_label
 _atom_site_symmetry_multiplicity
 _atom_site_fract_x
 _atom_site_fract_y
 _atom_site_fract_z
 _atom_site_occupancy
  Ba  Ba0  1  0.775495  0.955738  0.852118  1
  Ba  Ba1  1  0.224505  0.044262  0.147882  1
  Ba  Ba2  1  0.801785  0.424893  0.848172  1
  Ba  Ba3  1  0.198215  0.575107  0.151828  1
  Ba  Ba4  1  0.793866  0.572967  0.446262  1
  Ba  Ba5  1  0.206134  0.427033  0.553738  1
  Ba  Ba6  1  0.207439  0.944994  0.558612  1
  Ba  Ba7  1  0.792561  0.055006  0.441388  1
  Al  Al8  1  0.581023  0.792479  0.703590  1
  Al  Al9  1  0.418977  0.207521  0.296410  1
  Ga  Ga10  1  0.581997  0.289006  0.700222  1
  Ga  Ga11  1  0.418003  0.710994  0.299778  1
  Ga  Ga12  1  0.451714  0.333053  0.993824  1
  Ga  Ga13  1  0.548286  0.666947  0.006176  1
  Ga  Ga14  1  0.105578  0.132634  0.814884  1
  Ga  Ga15  1  0.894422  0.867366  0.185116  1
  Ga  Ga16  1  0.128580  0.636411  0.794902  1
  Ga  Ga17  1  0.871420  0.363589  0.205098  1
  B  B18  1  0.902787  0.218076  0.644908  1
  B  B19  1  0.097213  0.781924  0.355092  1
  B  B20  1  0.434984  0.072424  0.661302  1
  B  B21  1  0.565016  0.927576  0.338698  1
  B  B22  1  0.437401  0.580521  0.662911  1
  B  B23  1  0.562599  0.419479  0.337089  1
  B  B24  1  0.180443  0.348860  0.908399  1
  B  B25  1  0.819557  0.651140  0.091601  1
  B  B26  1  0.119618  0.842036  0.938443  1
  B  B27  1  0.880382  0.157964  0.061557  1
  B  B28  1  0.897562  0.715674  0.655814  1
  B  B29  1  0.102438  0.284326  0.344186  1
  O  O30  1  0.920005  0.088320  0.621851  1
  O  O31  1  0.079995  0.911680  0.378149  1
  O  O32  1  0.779719  0.321932  0.624409  1
  O  O33  1  0.220281  0.678068  0.375591  1
  O  O34  1  0.001892  0.256854  0.698687  1
  O  O35  1  0.998108  0.743146  0.301313  1
  O  O36  1  0.462547  0.936065  0.641338  1
  O  O37  1  0.537453  0.063935  0.358662  1
  O  O38  1  0.294082  0.147616  0.672826  1
  O  O39  1  0.705918  0.852384  0.327174  1
  O  O40  1  0.561216  0.127168  0.658207  1
  O  O41  1  0.438784  0.872832  0.341793  1
  O  O42  1  0.451889  0.443694  0.648988  1
  O  O43  1  0.548111  0.556306  0.351012  1
  O  O44  1  0.298146  0.662082  0.664150  1
  O  O45  1  0.701854  0.337918  0.335850  1
  O  O46  1  0.557994  0.635156  0.666857  1
  O  O47  1  0.442006  0.364844  0.333143  1
  O  O48  1  0.181592  0.208491  0.917269  1
  O  O49  1  0.818408  0.791509  0.082731  1
  O  O50  1  0.104855  0.448942  0.828101  1
  O  O51  1  0.895145  0.551058  0.171899  1
  O  O52  1  0.251706  0.391278  0.980568  1
  O  O53  1  0.748294  0.608722  0.019432  1
  O  O54  1  0.136744  0.701790  0.930370  1
  O  O55  1  0.863256  0.298210  0.069630  1
  O  O56  1  0.102582  0.870374  0.055131  1
  O  O57  1  0.897418  0.129626  0.944869  1
  O  O58  1  0.120298  0.940003  0.828790  1
  O  O59  1  0.879702  0.059997  0.171210  1
  O  O60  1  0.976676  0.755909  0.727560  1
  O  O61  1  0.023324  0.244091  0.272440  1
  O  O62  1  0.935236  0.590558  0.620510  1
  O  O63  1  0.064764  0.409442  0.379490  1
  O  O64  1  0.772251  0.811915  0.629902  1
  O  O65  1  0.227749  0.188085  0.370098  1
  O  O66  1  0.585152  0.253669  0.866447  1
  O  O67  1  0.414848  0.746331  0.133553  1
  O  O68  1  0.433270  0.206035  0.139849  1
  O  O69  1  0.566730  0.793965  0.860151  1
  O  O70  1  0.500000  0.500000  0.000000  1
