# generated using pymatgen
data_Pr2NdIn2Sn3
_symmetry_space_group_name_H-M   'P 1'
_cell_length_a   6.64614465
_cell_length_b   6.64614451
_cell_length_c   10.50909400
_cell_angle_alpha   90.00000000
_cell_angle_beta   90.00000000
_cell_angle_gamma   102.48701336
_symmetry_Int_Tables_number   1
_chemical_formula_structural   Pr2NdIn2Sn3
_chemical_formula_sum   'Pr4 Nd2 In4 Sn6'
_cell_volume   453.21906499
_cell_formula_units_Z   2
loop_
 _symmetry_equiv_pos_site_id
 _symmetry_equiv_pos_as_xyz
  1  'x, y, z'
loop_
 _atom_site_type_symbol
 _atom_site_label
 _atom_site_symmetry_multiplicity
 _atom_site_fract_x
 _atom_site_fract_y
 _atom_site_fract_z
 _atom_site_occupancy
  Pr  Pr0  1  0.201864  0.798136  0.500000  1
  Pr  Pr1  1  0.201864  0.798136  0.000000  1
  Pr  Pr2  1  0.798136  0.201864  0.500000  1
  Pr  Pr3  1  0.798136  0.201864  0.000000  1
  Nd  Nd4  1  0.637354  0.637354  0.250000  1
  Nd  Nd5  1  0.362646  0.362646  0.750000  1
  In  In6  1  0.311892  0.311892  0.045359  1
  In  In7  1  0.688108  0.688108  0.954641  1
  In  In8  1  0.311892  0.311892  0.454641  1
  In  In9  1  0.688108  0.688108  0.545359  1
  Sn  Sn10  1  0.020870  0.020869  0.250000  1
  Sn  Sn11  1  0.979131  0.979130  0.750000  1
  Sn  Sn12  1  0.495150  0.075973  0.250000  1
  Sn  Sn13  1  0.924027  0.504850  0.750000  1
  Sn  Sn14  1  0.504850  0.924027  0.750000  1
  Sn  Sn15  1  0.075973  0.495150  0.250000  1
