# generated using pymatgen
data_Li4Y4Pd3Pt
_symmetry_space_group_name_H-M   'P 1'
_cell_length_a   3.99359300
_cell_length_b   7.18071832
_cell_length_c   8.51660979
_cell_angle_alpha   89.47367673
_cell_angle_beta   90.00000000
_cell_angle_gamma   90.00000000
_symmetry_Int_Tables_number   1
_chemical_formula_structural   Li4Y4Pd3Pt
_chemical_formula_sum   'Li4 Y4 Pd3 Pt1'
_cell_volume   244.21937665
_cell_formula_units_Z   1
loop_
 _symmetry_equiv_pos_site_id
 _symmetry_equiv_pos_as_xyz
  1  'x, y, z'
loop_
 _atom_site_type_symbol
 _atom_site_label
 _atom_site_symmetry_multiplicity
 _atom_site_fract_x
 _atom_site_fract_y
 _atom_site_fract_z
 _atom_site_occupancy
  Li  Li0  1  0.250000  0.372218  0.556933  1
  Li  Li1  1  0.250000  0.872007  0.941980  1
  Li  Li2  1  0.750000  0.623950  0.442163  1
  Li  Li3  1  0.750000  0.128344  0.059238  1
  Y  Y4  1  0.250000  0.958159  0.318154  1
  Y  Y5  1  0.250000  0.450436  0.185584  1
  Y  Y6  1  0.750000  0.049319  0.680013  1
  Y  Y7  1  0.750000  0.546175  0.818336  1
  Pd  Pd8  1  0.250000  0.253542  0.876553  1
  Pd  Pd9  1  0.250000  0.754221  0.623254  1
  Pd  Pd10  1  0.750000  0.746014  0.122100  1
  Pt  Pt11  1  0.750000  0.245613  0.375692  1
