# generated using pymatgen
data_SiNi2Mo3N
_symmetry_space_group_name_H-M   'P 1'
_cell_length_a   7.81127474
_cell_length_b   7.81127473
_cell_length_c   7.81127400
_cell_angle_alpha   59.99999463
_cell_angle_beta   59.99999467
_cell_angle_gamma   60.00000129
_symmetry_Int_Tables_number   1
_chemical_formula_structural   SiNi2Mo3N
_chemical_formula_sum   'Si4 Ni8 Mo12 N4'
_cell_volume   337.01611615
_cell_formula_units_Z   4
loop_
 _symmetry_equiv_pos_site_id
 _symmetry_equiv_pos_as_xyz
  1  'x, y, z'
loop_
 _atom_site_type_symbol
 _atom_site_label
 _atom_site_symmetry_multiplicity
 _atom_site_fract_x
 _atom_site_fract_y
 _atom_site_fract_z
 _atom_site_occupancy
  Si  Si0  1  0.625000  0.125000  0.125000  1
  Si  Si1  1  0.125000  0.125000  0.625000  1
  Si  Si2  1  0.125000  0.625000  0.125000  1
  Si  Si3  1  0.125000  0.125000  0.125000  1
  Ni  Ni4  1  0.246998  0.917668  0.917668  1
  Ni  Ni5  1  0.917668  0.246998  0.917668  1
  Ni  Ni6  1  0.917668  0.917668  0.917668  1
  Ni  Ni7  1  0.917668  0.917668  0.246998  1
  Ni  Ni8  1  0.003002  0.332332  0.332332  1
  Ni  Ni9  1  0.332332  0.332332  0.003002  1
  Ni  Ni10  1  0.332332  0.003002  0.332332  1
  Ni  Ni11  1  0.332332  0.332332  0.332332  1
  Mo  Mo12  1  0.693413  0.306587  0.693413  1
  Mo  Mo13  1  0.556587  0.556587  0.943413  1
  Mo  Mo14  1  0.556587  0.943413  0.556587  1
  Mo  Mo15  1  0.943413  0.943413  0.556587  1
  Mo  Mo16  1  0.943413  0.556587  0.556587  1
  Mo  Mo17  1  0.943413  0.556587  0.943413  1
  Mo  Mo18  1  0.693413  0.306587  0.306587  1
  Mo  Mo19  1  0.306587  0.693413  0.306587  1
  Mo  Mo20  1  0.306587  0.306587  0.693413  1
  Mo  Mo21  1  0.306587  0.693413  0.693413  1
  Mo  Mo22  1  0.693413  0.693413  0.306587  1
  Mo  Mo23  1  0.556587  0.943413  0.943413  1
  N  N24  1  0.625000  0.625000  0.625000  1
  N  N25  1  0.125000  0.625000  0.625000  1
  N  N26  1  0.625000  0.125000  0.625000  1
  N  N27  1  0.625000  0.625000  0.125000  1
