# generated using pymatgen
data_Tb3Y(SnRh2)8
_symmetry_space_group_name_H-M   'P 1'
_cell_length_a   4.39720700
_cell_length_b   9.76215704
_cell_length_c   11.84677908
_cell_angle_alpha   90.01148615
_cell_angle_beta   90.00000000
_cell_angle_gamma   90.00000000
_symmetry_Int_Tables_number   1
_chemical_formula_structural   Tb3Y(SnRh2)8
_chemical_formula_sum   'Tb3 Y1 Sn8 Rh16'
_cell_volume   508.53749699
_cell_formula_units_Z   1
loop_
 _symmetry_equiv_pos_site_id
 _symmetry_equiv_pos_as_xyz
  1  'x, y, z'
loop_
 _atom_site_type_symbol
 _atom_site_label
 _atom_site_symmetry_multiplicity
 _atom_site_fract_x
 _atom_site_fract_y
 _atom_site_fract_z
 _atom_site_occupancy
  Tb  Tb0  1  0.250000  0.150583  0.826558  1
  Tb  Tb1  1  0.250000  0.349503  0.326666  1
  Tb  Tb2  1  0.750000  0.849126  0.173251  1
  Y  Y3  1  0.750000  0.649922  0.673414  1
  Sn  Sn4  1  0.250000  0.414102  0.637519  1
  Sn  Sn5  1  0.250000  0.085928  0.137497  1
  Sn  Sn6  1  0.750000  0.586699  0.362769  1
  Sn  Sn7  1  0.750000  0.913312  0.862315  1
  Sn  Sn8  1  0.250000  0.617034  0.063608  1
  Sn  Sn9  1  0.250000  0.883044  0.563690  1
  Sn  Sn10  1  0.750000  0.382802  0.936318  1
  Sn  Sn11  1  0.750000  0.117242  0.436094  1
  Rh  Rh12  1  0.250000  0.619034  0.497206  1
  Rh  Rh13  1  0.250000  0.881110  0.996680  1
  Rh  Rh14  1  0.750000  0.381351  0.503086  1
  Rh  Rh15  1  0.750000  0.118521  0.003005  1
  Rh  Rh16  1  0.250000  0.711795  0.274886  1
  Rh  Rh17  1  0.250000  0.787787  0.774760  1
  Rh  Rh18  1  0.750000  0.288341  0.725215  1
  Rh  Rh19  1  0.750000  0.212090  0.224988  1
  Rh  Rh20  1  0.250000  0.166636  0.564641  1
  Rh  Rh21  1  0.250000  0.333475  0.064737  1
  Rh  Rh22  1  0.750000  0.833578  0.435470  1
  Rh  Rh23  1  0.750000  0.666525  0.935583  1
  Rh  Rh24  1  0.250000  0.995412  0.344315  1
  Rh  Rh25  1  0.250000  0.504787  0.844516  1
  Rh  Rh26  1  0.750000  0.005176  0.655536  1
  Rh  Rh27  1  0.750000  0.495087  0.155673  1
