# generated using pymatgen
data_Er3Sc2Ga2Sb
_symmetry_space_group_name_H-M   'P 1'
_cell_length_a   8.49410792
_cell_length_b   8.49007374
_cell_length_c   6.19012600
_cell_angle_alpha   90.00000000
_cell_angle_beta   90.00000000
_cell_angle_gamma   119.98430060
_symmetry_Int_Tables_number   1
_chemical_formula_structural   Er3Sc2Ga2Sb
_chemical_formula_sum   'Er6 Sc4 Ga4 Sb2'
_cell_volume   386.65892610
_cell_formula_units_Z   2
loop_
 _symmetry_equiv_pos_site_id
 _symmetry_equiv_pos_as_xyz
  1  'x, y, z'
loop_
 _atom_site_type_symbol
 _atom_site_label
 _atom_site_symmetry_multiplicity
 _atom_site_fract_x
 _atom_site_fract_y
 _atom_site_fract_z
 _atom_site_occupancy
  Er  Er0  1  0.986920  0.748928  0.750000  1
  Er  Er1  1  0.986920  0.237993  0.250000  1
  Er  Er2  1  0.764620  0.764975  0.250000  1
  Er  Er3  1  0.764620  0.999646  0.750000  1
  Er  Er4  1  0.237630  0.250460  0.750000  1
  Er  Er5  1  0.237630  0.987169  0.250000  1
  Sc  Sc6  1  0.330601  0.665301  0.500000  1
  Sc  Sc7  1  0.683847  0.341924  0.000000  1
  Sc  Sc8  1  0.683847  0.341924  0.500000  1
  Sc  Sc9  1  0.330601  0.665301  0.000000  1
  Ga  Ga10  1  0.001398  0.598072  0.250000  1
  Ga  Ga11  1  0.001398  0.403326  0.750000  1
  Ga  Ga12  1  0.596120  0.599694  0.750000  1
  Ga  Ga13  1  0.596120  0.996425  0.250000  1
  Sb  Sb14  1  0.398863  0.004037  0.750000  1
  Sb  Sb15  1  0.398863  0.394826  0.250000  1
