# generated using pymatgen
data_DyEr9Os3Ru
_symmetry_space_group_name_H-M   'P 1'
_cell_length_a   6.30617079
_cell_length_b   7.31725375
_cell_length_c   8.36978728
_cell_angle_alpha   96.85818691
_cell_angle_beta   112.25076312
_cell_angle_gamma   90.08053624
_symmetry_Int_Tables_number   1
_chemical_formula_structural   DyEr9Os3Ru
_chemical_formula_sum   'Dy1 Er9 Os3 Ru1'
_cell_volume   354.44019990
_cell_formula_units_Z   1
loop_
 _symmetry_equiv_pos_site_id
 _symmetry_equiv_pos_as_xyz
  1  'x, y, z'
loop_
 _atom_site_type_symbol
 _atom_site_label
 _atom_site_symmetry_multiplicity
 _atom_site_fract_x
 _atom_site_fract_y
 _atom_site_fract_z
 _atom_site_occupancy
  Dy  Dy0  1  0.794186  0.583654  0.816450  1
  Er  Er1  1  0.975738  0.916338  0.182984  1
  Er  Er2  1  0.207831  0.416660  0.186369  1
  Er  Er3  1  0.024515  0.084896  0.817737  1
  Er  Er4  1  0.203695  0.683352  0.564703  1
  Er  Er5  1  0.640490  0.817197  0.435922  1
  Er  Er6  1  0.794305  0.315834  0.434149  1
  Er  Er7  1  0.360384  0.181977  0.563479  1
  Er  Er8  1  0.421242  0.749934  0.000190  1
  Er  Er9  1  0.579631  0.250009  0.000584  1
  Os  Os10  1  0.603534  0.922661  0.780399  1
  Os  Os11  1  0.822266  0.577953  0.220039  1
  Os  Os12  1  0.395846  0.077765  0.218552  1
  Ru  Ru13  1  0.176338  0.421768  0.778444  1
