# generated using pymatgen
data_K7RbLi4(AlBi2)4
_symmetry_space_group_name_H-M   'P 1'
_cell_length_a   10.85153575
_cell_length_b   10.85153653
_cell_length_c   6.87674057
_cell_angle_alpha   90.01175971
_cell_angle_beta   89.98824261
_cell_angle_gamma   101.17466453
_symmetry_Int_Tables_number   1
_chemical_formula_structural   K7RbLi4(AlBi2)4
_chemical_formula_sum   'K7 Rb1 Li4 Al4 Bi8'
_cell_volume   794.42371825
_cell_formula_units_Z   1
loop_
 _symmetry_equiv_pos_site_id
 _symmetry_equiv_pos_as_xyz
  1  'x, y, z'
loop_
 _atom_site_type_symbol
 _atom_site_label
 _atom_site_symmetry_multiplicity
 _atom_site_fract_x
 _atom_site_fract_y
 _atom_site_fract_z
 _atom_site_occupancy
  K  K0  1  0.581295  0.919789  0.249632  1
  K  K1  1  0.668432  0.331568  0.221447  1
  K  K2  1  0.332373  0.667627  0.778447  1
  K  K3  1  0.080211  0.418705  0.249632  1
  K  K4  1  0.918895  0.579815  0.749861  1
  K  K5  1  0.420185  0.081105  0.749861  1
  K  K6  1  0.831322  0.168678  0.722011  1
  Rb  Rb7  1  0.172903  0.827097  0.278528  1
  Li  Li8  1  0.878189  0.879318  0.500072  1
  Li  Li9  1  0.120682  0.121811  0.500072  1
  Li  Li10  1  0.619974  0.620390  0.999705  1
  Li  Li11  1  0.379610  0.380026  0.999705  1
  Al  Al12  1  0.868739  0.869596  0.000712  1
  Al  Al13  1  0.130404  0.131261  0.000712  1
  Al  Al14  1  0.370217  0.370304  0.499942  1
  Al  Al15  1  0.629696  0.629783  0.499942  1
  Bi  Bi16  1  0.096652  0.903348  0.782156  1
  Bi  Bi17  1  0.598451  0.401549  0.718386  1
  Bi  Bi18  1  0.901429  0.098571  0.217954  1
  Bi  Bi19  1  0.402280  0.597720  0.281920  1
  Bi  Bi20  1  0.348618  0.153579  0.249772  1
  Bi  Bi21  1  0.152091  0.349067  0.749879  1
  Bi  Bi22  1  0.650933  0.847909  0.749879  1
  Bi  Bi23  1  0.846421  0.651382  0.249772  1
