# generated using pymatgen
data_Pr7Ho6Th3(CdIr)4
_symmetry_space_group_name_H-M   'P 1'
_cell_length_a   9.85058931
_cell_length_b   9.85797240
_cell_length_c   9.82011100
_cell_angle_alpha   60.12697118
_cell_angle_beta   60.10230136
_cell_angle_gamma   60.39362707
_symmetry_Int_Tables_number   1
_chemical_formula_structural   Pr7Ho6Th3(CdIr)4
_chemical_formula_sum   'Pr7 Ho6 Th3 Cd4 Ir4'
_cell_volume   677.45636392
_cell_formula_units_Z   1
loop_
 _symmetry_equiv_pos_site_id
 _symmetry_equiv_pos_as_xyz
  1  'x, y, z'
loop_
 _atom_site_type_symbol
 _atom_site_label
 _atom_site_symmetry_multiplicity
 _atom_site_fract_x
 _atom_site_fract_y
 _atom_site_fract_z
 _atom_site_occupancy
  Pr  Pr0  1  0.814242  0.813143  0.186307  1
  Pr  Pr1  1  0.944043  0.557353  0.561538  1
  Pr  Pr2  1  0.558130  0.941750  0.938027  1
  Pr  Pr3  1  0.558130  0.941750  0.562092  1
  Pr  Pr4  1  0.944043  0.557353  0.937065  1
  Pr  Pr5  1  0.560794  0.561553  0.938827  1
  Pr  Pr6  1  0.940821  0.938361  0.560408  1
  Ho  Ho7  1  0.954376  0.345385  0.350118  1
  Ho  Ho8  1  0.813436  0.189616  0.186369  1
  Ho  Ho9  1  0.188575  0.814680  0.812724  1
  Ho  Ho10  1  0.188575  0.814680  0.184022  1
  Ho  Ho11  1  0.813436  0.189616  0.810578  1
  Ho  Ho12  1  0.185006  0.184688  0.815154  1
  Th  Th13  1  0.345267  0.348657  0.348528  1
  Th  Th14  1  0.345267  0.348657  0.957547  1
  Th  Th15  1  0.342937  0.957368  0.349847  1
  Cd  Cd16  1  0.580345  0.577826  0.579966  1
  Cd  Cd17  1  0.580345  0.577826  0.261862  1
  Cd  Cd18  1  0.581828  0.260693  0.578740  1
  Cd  Cd19  1  0.259338  0.580652  0.580005  1
  Ir  Ir20  1  0.143357  0.140401  0.142798  1
  Ir  Ir21  1  0.143357  0.140401  0.573444  1
  Ir  Ir22  1  0.147920  0.569196  0.141442  1
  Ir  Ir23  1  0.566428  0.148390  0.142591  1
