# generated using pymatgen
data_SmHo2WO7
_symmetry_space_group_name_H-M   'P 1'
_cell_length_a   6.47574662
_cell_length_b   6.47574653
_cell_length_c   7.54507300
_cell_angle_alpha   90.00000000
_cell_angle_beta   90.00000000
_cell_angle_gamma   109.18413104
_symmetry_Int_Tables_number   1
_chemical_formula_structural   SmHo2WO7
_chemical_formula_sum   'Sm2 Ho4 W2 O14'
_cell_volume   298.83407401
_cell_formula_units_Z   2
loop_
 _symmetry_equiv_pos_site_id
 _symmetry_equiv_pos_as_xyz
  1  'x, y, z'
loop_
 _atom_site_type_symbol
 _atom_site_label
 _atom_site_symmetry_multiplicity
 _atom_site_fract_x
 _atom_site_fract_y
 _atom_site_fract_z
 _atom_site_occupancy
  Sm  Sm0  1  0.500000  0.500000  0.500000  1
  Sm  Sm1  1  0.500000  0.500000  0.000000  1
  Ho  Ho2  1  0.532888  0.001418  0.750000  1
  Ho  Ho3  1  0.001418  0.532888  0.250000  1
  Ho  Ho4  1  0.467112  0.998582  0.250000  1
  Ho  Ho5  1  0.998582  0.467112  0.750000  1
  W  W6  1  0.000000  0.000000  0.500000  1
  W  W7  1  0.000000  0.000000  0.000000  1
  O  O8  1  0.677288  0.926416  0.470921  1
  O  O9  1  0.926416  0.677288  0.529079  1
  O  O10  1  0.677288  0.926416  0.029079  1
  O  O11  1  0.926416  0.677288  0.970921  1
  O  O12  1  0.322712  0.073584  0.529079  1
  O  O13  1  0.073584  0.322712  0.470921  1
  O  O14  1  0.322712  0.073584  0.970921  1
  O  O15  1  0.073584  0.322712  0.029079  1
  O  O16  1  0.926562  0.073438  0.750000  1
  O  O17  1  0.073438  0.926562  0.250000  1
  O  O18  1  0.364413  0.635587  0.750000  1
  O  O19  1  0.635587  0.364413  0.250000  1
  O  O20  1  0.640251  0.359749  0.750000  1
  O  O21  1  0.359749  0.640251  0.250000  1
