# generated using pymatgen
data_Li2Lu2Ni15
_symmetry_space_group_name_H-M   'P 1'
_cell_length_a   6.21902071
_cell_length_b   6.21902076
_cell_length_c   6.21902066
_cell_angle_alpha   82.99074398
_cell_angle_beta   97.00925946
_cell_angle_gamma   97.00924943
_symmetry_Int_Tables_number   1
_chemical_formula_structural   Li2Lu2Ni15
_chemical_formula_sum   'Li2 Lu2 Ni15'
_cell_volume   235.54093646
_cell_formula_units_Z   1
loop_
 _symmetry_equiv_pos_site_id
 _symmetry_equiv_pos_as_xyz
  1  'x, y, z'
loop_
 _atom_site_type_symbol
 _atom_site_label
 _atom_site_symmetry_multiplicity
 _atom_site_fract_x
 _atom_site_fract_y
 _atom_site_fract_z
 _atom_site_occupancy
  Li  Li0  1  0.906433  0.093566  0.093566  1
  Li  Li1  1  0.093565  0.906434  0.906434  1
  Lu  Lu2  1  0.656709  0.343290  0.343290  1
  Lu  Lu3  1  0.343289  0.656710  0.656710  1
  Ni  Ni4  1  0.500000  0.000000  0.000000  1
  Ni  Ni5  1  0.306597  0.306598  0.000000  1
  Ni  Ni6  1  0.000000  0.500000  0.000000  1
  Ni  Ni7  1  0.693403  0.693403  0.000000  1
  Ni  Ni8  1  0.344311  0.655689  0.159070  1
  Ni  Ni9  1  0.000000  0.693403  0.306596  1
  Ni  Ni10  1  0.306597  0.000000  0.306597  1
  Ni  Ni11  1  0.655688  0.840930  0.344311  1
  Ni  Ni12  1  0.159069  0.344312  0.344312  1
  Ni  Ni13  1  0.000000  0.000000  0.500000  1
  Ni  Ni14  1  0.344311  0.159070  0.655688  1
  Ni  Ni15  1  0.840930  0.655689  0.655689  1
  Ni  Ni16  1  0.000000  0.306598  0.693402  1
  Ni  Ni17  1  0.693403  0.000000  0.693403  1
  Ni  Ni18  1  0.655688  0.344312  0.840931  1
