# generated using pymatgen
data_HoLuCoB6
_symmetry_space_group_name_H-M   'P 1'
_cell_length_a   3.52743700
_cell_length_b   9.02566400
_cell_length_c   11.38844300
_cell_angle_alpha   90.00000000
_cell_angle_beta   90.00000000
_cell_angle_gamma   90.00000000
_symmetry_Int_Tables_number   1
_chemical_formula_structural   HoLuCoB6
_chemical_formula_sum   'Ho4 Lu4 Co4 B24'
_cell_volume   362.57911149
_cell_formula_units_Z   4
loop_
 _symmetry_equiv_pos_site_id
 _symmetry_equiv_pos_as_xyz
  1  'x, y, z'
loop_
 _atom_site_type_symbol
 _atom_site_label
 _atom_site_symmetry_multiplicity
 _atom_site_fract_x
 _atom_site_fract_y
 _atom_site_fract_z
 _atom_site_occupancy
  Ho  Ho0  1  0.000000  0.824217  0.085357  1
  Ho  Ho1  1  0.000000  0.175783  0.914643  1
  Ho  Ho2  1  0.000000  0.324217  0.414643  1
  Ho  Ho3  1  0.000000  0.675783  0.585357  1
  Lu  Lu4  1  0.000000  0.443990  0.129228  1
  Lu  Lu5  1  0.000000  0.556010  0.870772  1
  Lu  Lu6  1  0.000000  0.943990  0.370772  1
  Lu  Lu7  1  0.000000  0.056010  0.629228  1
  Co  Co8  1  0.000000  0.141355  0.180377  1
  Co  Co9  1  0.000000  0.858645  0.819623  1
  Co  Co10  1  0.000000  0.641355  0.319623  1
  Co  Co11  1  0.000000  0.358645  0.680377  1
  B  B12  1  0.500000  0.054173  0.067536  1
  B  B13  1  0.500000  0.945827  0.932464  1
  B  B14  1  0.500000  0.554173  0.432464  1
  B  B15  1  0.500000  0.445827  0.567536  1
  B  B16  1  0.500000  0.248491  0.082182  1
  B  B17  1  0.500000  0.751509  0.917818  1
  B  B18  1  0.500000  0.748491  0.417818  1
  B  B19  1  0.500000  0.251509  0.582182  1
  B  B20  1  0.500000  0.292518  0.235580  1
  B  B21  1  0.500000  0.707482  0.764420  1
  B  B22  1  0.500000  0.792518  0.264420  1
  B  B23  1  0.500000  0.207482  0.735580  1
  B  B24  1  0.500000  0.133166  0.316028  1
  B  B25  1  0.500000  0.866834  0.683972  1
  B  B26  1  0.500000  0.633166  0.183972  1
  B  B27  1  0.500000  0.366834  0.816028  1
  B  B28  1  0.500000  0.485963  0.288044  1
  B  B29  1  0.500000  0.514037  0.711956  1
  B  B30  1  0.500000  0.985963  0.211956  1
  B  B31  1  0.500000  0.014037  0.788044  1
  B  B32  1  0.500000  0.105129  0.471667  1
  B  B33  1  0.500000  0.894871  0.528333  1
  B  B34  1  0.500000  0.605129  0.028333  1
  B  B35  1  0.500000  0.394871  0.971667  1
