# generated using pymatgen
data_Ba8Sr2Si5Hg
_symmetry_space_group_name_H-M   'P 1'
_cell_length_a   8.41271500
_cell_length_b   8.41271500
_cell_length_c   17.22203100
_cell_angle_alpha   90.00000000
_cell_angle_beta   90.00000000
_cell_angle_gamma   90.00000000
_symmetry_Int_Tables_number   1
_chemical_formula_structural   Ba8Sr2Si5Hg
_chemical_formula_sum   'Ba16 Sr4 Si10 Hg2'
_cell_volume   1218.86812415
_cell_formula_units_Z   2
loop_
 _symmetry_equiv_pos_site_id
 _symmetry_equiv_pos_as_xyz
  1  'x, y, z'
loop_
 _atom_site_type_symbol
 _atom_site_label
 _atom_site_symmetry_multiplicity
 _atom_site_fract_x
 _atom_site_fract_y
 _atom_site_fract_z
 _atom_site_occupancy
  Ba  Ba0  1  0.316995  0.669960  0.118455  1
  Ba  Ba1  1  0.169960  0.183005  0.118455  1
  Ba  Ba2  1  0.322997  0.690586  0.393946  1
  Ba  Ba3  1  0.669960  0.683005  0.881545  1
  Ba  Ba4  1  0.190586  0.177003  0.393946  1
  Ba  Ba5  1  0.677003  0.309414  0.393946  1
  Ba  Ba6  1  0.177003  0.809414  0.606054  1
  Ba  Ba7  1  0.330040  0.316995  0.881545  1
  Ba  Ba8  1  0.183005  0.830040  0.881545  1
  Ba  Ba9  1  0.822997  0.190586  0.606054  1
  Ba  Ba10  1  0.309414  0.322997  0.606054  1
  Ba  Ba11  1  0.809414  0.822997  0.393946  1
  Ba  Ba12  1  0.816995  0.169960  0.881545  1
  Ba  Ba13  1  0.830040  0.816995  0.118455  1
  Ba  Ba14  1  0.683005  0.330040  0.118455  1
  Ba  Ba15  1  0.690586  0.677003  0.606054  1
  Sr  Sr16  1  0.500000  0.000000  0.729368  1
  Sr  Sr17  1  0.500000  0.000000  0.246626  1
  Sr  Sr18  1  0.000000  0.500000  0.270632  1
  Sr  Sr19  1  0.000000  0.500000  0.753374  1
  Si  Si20  1  0.103356  0.104513  0.743786  1
  Si  Si21  1  0.395487  0.603356  0.743786  1
  Si  Si22  1  0.603356  0.604513  0.256214  1
  Si  Si23  1  0.104513  0.896644  0.256214  1
  Si  Si24  1  0.604513  0.396644  0.743786  1
  Si  Si25  1  0.896644  0.895487  0.743786  1
  Si  Si26  1  0.396644  0.395487  0.256214  1
  Si  Si27  1  0.895487  0.103356  0.256214  1
  Si  Si28  1  0.500000  0.000000  0.511379  1
  Si  Si29  1  0.000000  0.500000  0.488621  1
  Hg  Hg30  1  0.000000  0.500000  0.991377  1
  Hg  Hg31  1  0.500000  0.000000  0.008623  1
