# generated using pymatgen
data_Ca11Pr8TmSi16
_symmetry_space_group_name_H-M   'P 1'
_cell_length_a   7.54250830
_cell_length_b   7.97600364
_cell_length_c   15.25159557
_cell_angle_alpha   89.96873943
_cell_angle_beta   90.00385794
_cell_angle_gamma   90.03266258
_symmetry_Int_Tables_number   1
_chemical_formula_structural   Ca11Pr8TmSi16
_chemical_formula_sum   'Ca11 Pr8 Tm1 Si16'
_cell_volume   917.52157323
_cell_formula_units_Z   1
loop_
 _symmetry_equiv_pos_site_id
 _symmetry_equiv_pos_as_xyz
  1  'x, y, z'
loop_
 _atom_site_type_symbol
 _atom_site_label
 _atom_site_symmetry_multiplicity
 _atom_site_fract_x
 _atom_site_fract_y
 _atom_site_fract_z
 _atom_site_occupancy
  Ca  Ca0  1  0.321435  0.182101  0.622434  1
  Ca  Ca1  1  0.678486  0.818269  0.377313  1
  Ca  Ca2  1  0.648129  0.999846  0.750060  1
  Ca  Ca3  1  0.180163  0.681595  0.377444  1
  Ca  Ca4  1  0.820462  0.318445  0.878573  1
  Ca  Ca5  1  0.821540  0.317724  0.622079  1
  Ca  Ca6  1  0.854315  0.496989  0.250684  1
  Ca  Ca7  1  0.349093  0.003031  0.250368  1
  Ca  Ca8  1  0.321299  0.180298  0.880025  1
  Ca  Ca9  1  0.178513  0.683354  0.120878  1
  Ca  Ca10  1  0.147302  0.499415  0.750134  1
  Pr  Pr11  1  0.025480  0.184609  0.400703  1
  Pr  Pr12  1  0.525609  0.315348  0.401480  1
  Pr  Pr13  1  0.472863  0.685888  0.901425  1
  Pr  Pr14  1  0.473131  0.686045  0.599047  1
  Pr  Pr15  1  0.973421  0.813807  0.598573  1
  Pr  Pr16  1  0.972501  0.813476  0.900567  1
  Pr  Pr17  1  0.526780  0.315752  0.099258  1
  Pr  Pr18  1  0.025378  0.185884  0.096969  1
  Tm  Tm19  1  0.677840  0.816496  0.123571  1
  Si  Si20  1  0.259360  0.873863  0.750794  1
  Si  Si21  1  0.472106  0.595180  0.246506  1
  Si  Si22  1  0.032603  0.089684  0.750711  1
  Si  Si23  1  0.531935  0.409301  0.751386  1
  Si  Si24  1  0.144295  0.472406  0.536616  1
  Si  Si25  1  0.963027  0.905559  0.244627  1
  Si  Si26  1  0.738139  0.121675  0.246492  1
  Si  Si27  1  0.850196  0.534417  0.038662  1
  Si  Si28  1  0.365340  0.970887  0.041050  1
  Si  Si29  1  0.139740  0.473322  0.963279  1
  Si  Si30  1  0.643193  0.027398  0.536632  1
  Si  Si31  1  0.355927  0.973733  0.462216  1
  Si  Si32  1  0.857472  0.526452  0.461905  1
  Si  Si33  1  0.758296  0.626555  0.750605  1
  Si  Si34  1  0.243712  0.376664  0.249039  1
  Si  Si35  1  0.650920  0.024531  0.967895  1
