# generated using pymatgen
data_LaNd3PI5
_symmetry_space_group_name_H-M   'P 1'
_cell_length_a   10.02083553
_cell_length_b   10.02083559
_cell_length_c   9.15973473
_cell_angle_alpha   77.36929173
_cell_angle_beta   77.36929260
_cell_angle_gamma   24.29139275
_symmetry_Int_Tables_number   1
_chemical_formula_structural   LaNd3PI5
_chemical_formula_sum   'La1 Nd3 P1 I5'
_cell_volume   368.79605807
_cell_formula_units_Z   1
loop_
 _symmetry_equiv_pos_site_id
 _symmetry_equiv_pos_as_xyz
  1  'x, y, z'
loop_
 _atom_site_type_symbol
 _atom_site_label
 _atom_site_symmetry_multiplicity
 _atom_site_fract_x
 _atom_site_fract_y
 _atom_site_fract_z
 _atom_site_occupancy
  La  La0  1  0.498898  0.498898  0.786919  1
  Nd  Nd1  1  0.854698  0.854698  0.075354  1
  Nd  Nd2  1  0.145356  0.145356  0.927712  1
  Nd  Nd3  1  0.500785  0.500785  0.209614  1
  P  P4  1  0.000002  0.000002  0.001389  1
  I  I5  1  0.671097  0.671097  0.176163  1
  I  I6  1  0.326931  0.326931  0.826999  1
  I  I7  1  0.666982  0.666982  0.659181  1
  I  I8  1  0.335154  0.335154  0.341751  1
  I  I9  1  0.000098  0.000098  0.494918  1
