# generated using pymatgen
data_Li3Sc6OsRh2
_symmetry_space_group_name_H-M   'P 1'
_cell_length_a   4.67237200
_cell_length_b   6.54210700
_cell_length_c   13.89332900
_cell_angle_alpha   90.00000000
_cell_angle_beta   90.00071028
_cell_angle_gamma   90.00000000
_symmetry_Int_Tables_number   1
_chemical_formula_structural   Li3Sc6OsRh2
_chemical_formula_sum   'Li6 Sc12 Os2 Rh4'
_cell_volume   424.67957667
_cell_formula_units_Z   2
loop_
 _symmetry_equiv_pos_site_id
 _symmetry_equiv_pos_as_xyz
  1  'x, y, z'
loop_
 _atom_site_type_symbol
 _atom_site_label
 _atom_site_symmetry_multiplicity
 _atom_site_fract_x
 _atom_site_fract_y
 _atom_site_fract_z
 _atom_site_occupancy
  Li  Li0  1  0.999991  0.000000  0.998727  1
  Li  Li1  1  0.499522  0.500000  0.165876  1
  Li  Li2  1  0.999509  0.000000  0.334115  1
  Li  Li3  1  0.499994  0.500000  0.501267  1
  Li  Li4  1  0.000507  0.000000  0.667071  1
  Li  Li5  1  0.500506  0.500000  0.832954  1
  Sc  Sc6  1  0.500018  0.245741  0.998083  1
  Sc  Sc7  1  0.500018  0.754260  0.998083  1
  Sc  Sc8  1  0.999630  0.251787  0.167008  1
  Sc  Sc9  1  0.999630  0.748212  0.167008  1
  Sc  Sc10  1  0.499626  0.248231  0.332988  1
  Sc  Sc11  1  0.499626  0.751770  0.332988  1
  Sc  Sc12  1  0.000004  0.254238  0.501938  1
  Sc  Sc13  1  0.000004  0.745761  0.501938  1
  Sc  Sc14  1  0.500375  0.251351  0.668872  1
  Sc  Sc15  1  0.500375  0.748650  0.668872  1
  Sc  Sc16  1  0.000373  0.248642  0.831132  1
  Sc  Sc17  1  0.000373  0.751357  0.831132  1
  Os  Os18  1  0.000386  0.500000  0.664826  1
  Os  Os19  1  0.500376  0.000000  0.835201  1
  Rh  Rh20  1  0.000015  0.500000  0.003499  1
  Rh  Rh21  1  0.499570  0.000000  0.168021  1
  Rh  Rh22  1  0.999576  0.500000  0.331887  1
  Rh  Rh23  1  0.499996  0.000000  0.496511  1
