# generated using pymatgen
data_Er11Th8ScSi15As
_symmetry_space_group_name_H-M   'P 1'
_cell_length_a   7.54378822
_cell_length_b   7.68628104
_cell_length_c   14.54094097
_cell_angle_alpha   89.97641824
_cell_angle_beta   89.33382856
_cell_angle_gamma   90.05614493
_symmetry_Int_Tables_number   1
_chemical_formula_structural   Er11Th8ScSi15As
_chemical_formula_sum   'Er11 Th8 Sc1 Si15 As1'
_cell_volume   843.07974642
_cell_formula_units_Z   1
loop_
 _symmetry_equiv_pos_site_id
 _symmetry_equiv_pos_as_xyz
  1  'x, y, z'
loop_
 _atom_site_type_symbol
 _atom_site_label
 _atom_site_symmetry_multiplicity
 _atom_site_fract_x
 _atom_site_fract_y
 _atom_site_fract_z
 _atom_site_occupancy
  Er  Er0  1  0.182035  0.508930  0.753022  1
  Er  Er1  1  0.820039  0.494212  0.249244  1
  Er  Er2  1  0.316134  0.004054  0.248045  1
  Er  Er3  1  0.682516  0.994378  0.750792  1
  Er  Er4  1  0.359647  0.167211  0.623192  1
  Er  Er5  1  0.641432  0.831148  0.376194  1
  Er  Er6  1  0.141115  0.667804  0.377627  1
  Er  Er7  1  0.648451  0.825984  0.121797  1
  Er  Er8  1  0.855549  0.332779  0.621518  1
  Er  Er9  1  0.349895  0.173958  0.879068  1
  Er  Er10  1  0.850575  0.328686  0.876877  1
  Th  Th11  1  0.998801  0.179155  0.096722  1
  Th  Th12  1  0.002923  0.820363  0.905374  1
  Th  Th13  1  0.501343  0.682992  0.904425  1
  Th  Th14  1  0.007085  0.820556  0.597174  1
  Th  Th15  1  0.498906  0.320345  0.095679  1
  Th  Th16  1  0.991951  0.179731  0.400768  1
  Th  Th17  1  0.493231  0.315529  0.400193  1
  Th  Th18  1  0.510157  0.684383  0.597834  1
  Sc  Sc19  1  0.151522  0.671077  0.124904  1
  Si  Si20  1  0.058186  0.111965  0.749445  1
  Si  Si21  1  0.943026  0.885126  0.248472  1
  Si  Si22  1  0.438763  0.609677  0.248084  1
  Si  Si23  1  0.556849  0.391582  0.749832  1
  Si  Si24  1  0.301246  0.873679  0.751054  1
  Si  Si25  1  0.699055  0.125916  0.247728  1
  Si  Si26  1  0.199331  0.375319  0.247669  1
  Si  Si27  1  0.801628  0.628835  0.750787  1
  Si  Si28  1  0.795012  0.536742  0.456378  1
  Si  Si29  1  0.301618  0.961905  0.458132  1
  Si  Si30  1  0.825223  0.536453  0.042428  1
  Si  Si31  1  0.697895  0.037320  0.541781  1
  Si  Si32  1  0.183683  0.467852  0.963654  1
  Si  Si33  1  0.687701  0.037038  0.958579  1
  Si  Si34  1  0.307302  0.956411  0.042348  1
  As  As35  1  0.200176  0.460906  0.543178  1
