# generated using pymatgen
data_Tb12Tc3Au2
_symmetry_space_group_name_H-M   'P 1'
_cell_length_a   8.35385638
_cell_length_b   8.35369278
_cell_length_c   8.35385688
_cell_angle_alpha   110.34212351
_cell_angle_beta   110.35050465
_cell_angle_gamma   107.73562113
_symmetry_Int_Tables_number   1
_chemical_formula_structural   Tb12Tc3Au2
_chemical_formula_sum   'Tb12 Tc3 Au2'
_cell_volume   448.46502261
_cell_formula_units_Z   1
loop_
 _symmetry_equiv_pos_site_id
 _symmetry_equiv_pos_as_xyz
  1  'x, y, z'
loop_
 _atom_site_type_symbol
 _atom_site_label
 _atom_site_symmetry_multiplicity
 _atom_site_fract_x
 _atom_site_fract_y
 _atom_site_fract_z
 _atom_site_occupancy
  Tb  Tb0  1  0.182628  0.433413  0.250785  1
  Tb  Tb1  1  0.817372  0.566587  0.749215  1
  Tb  Tb2  1  0.182628  0.931843  0.749215  1
  Tb  Tb3  1  0.931829  0.182606  0.749223  1
  Tb  Tb4  1  0.817372  0.068157  0.250785  1
  Tb  Tb5  1  0.068171  0.817394  0.250777  1
  Tb  Tb6  1  0.433383  0.182606  0.250777  1
  Tb  Tb7  1  0.566617  0.817394  0.749223  1
  Tb  Tb8  1  0.319007  0.319033  0.638043  1
  Tb  Tb9  1  0.680993  0.680967  0.361957  1
  Tb  Tb10  1  0.680992  0.319033  0.000026  1
  Tb  Tb11  1  0.319008  0.680967  0.999974  1
  Tc  Tc12  1  0.337134  0.337135  0.000000  1
  Tc  Tc13  1  0.662866  0.662865  0.000000  1
  Tc  Tc14  1  0.000000  0.000000  0.000000  1
  Au  Au15  1  0.000000  0.500000  0.500000  1
  Au  Au16  1  0.500000  0.000000  0.500000  1
