# generated using pymatgen
data_YHo2Al12Ru3Rh
_symmetry_space_group_name_H-M   'P 1'
_cell_length_a   8.80076561
_cell_length_b   8.79869780
_cell_length_c   9.55299600
_cell_angle_alpha   90.00000000
_cell_angle_beta   90.00000000
_cell_angle_gamma   119.45894472
_symmetry_Int_Tables_number   1
_chemical_formula_structural   YHo2Al12Ru3Rh
_chemical_formula_sum   'Y2 Ho4 Al24 Ru6 Rh2'
_cell_volume   644.09680682
_cell_formula_units_Z   2
loop_
 _symmetry_equiv_pos_site_id
 _symmetry_equiv_pos_as_xyz
  1  'x, y, z'
loop_
 _atom_site_type_symbol
 _atom_site_label
 _atom_site_symmetry_multiplicity
 _atom_site_fract_x
 _atom_site_fract_y
 _atom_site_fract_z
 _atom_site_occupancy
  Y  Y0  1  0.189359  0.386289  0.250000  1
  Y  Y1  1  0.810641  0.613711  0.750000  1
  Ho  Ho2  1  0.613400  0.810739  0.250000  1
  Ho  Ho3  1  0.386600  0.189261  0.750000  1
  Ho  Ho4  1  0.194741  0.805365  0.250000  1
  Ho  Ho5  1  0.805259  0.194635  0.750000  1
  Al  Al6  1  0.332280  0.668041  0.018974  1
  Al  Al7  1  0.667720  0.331959  0.981026  1
  Al  Al8  1  0.667720  0.331959  0.518974  1
  Al  Al9  1  0.332280  0.668041  0.481026  1
  Al  Al10  1  0.161304  0.323599  0.578537  1
  Al  Al11  1  0.838696  0.676401  0.421463  1
  Al  Al12  1  0.676326  0.838803  0.578208  1
  Al  Al13  1  0.838696  0.676401  0.078537  1
  Al  Al14  1  0.323674  0.161197  0.421792  1
  Al  Al15  1  0.161304  0.323599  0.921463  1
  Al  Al16  1  0.163301  0.836990  0.577679  1
  Al  Al17  1  0.323674  0.161197  0.078208  1
  Al  Al18  1  0.836699  0.163010  0.422321  1
  Al  Al19  1  0.676326  0.838803  0.921792  1
  Al  Al20  1  0.836699  0.163010  0.077679  1
  Al  Al21  1  0.163301  0.836990  0.922321  1
  Al  Al22  1  0.560055  0.122535  0.250000  1
  Al  Al23  1  0.439945  0.877465  0.750000  1
  Al  Al24  1  0.877196  0.440054  0.250000  1
  Al  Al25  1  0.122804  0.559946  0.750000  1
  Al  Al26  1  0.560980  0.439483  0.250000  1
  Al  Al27  1  0.439020  0.560517  0.750000  1
  Al  Al28  1  0.999084  0.000060  0.250000  1
  Al  Al29  1  0.000916  0.999940  0.750000  1
  Ru  Ru30  1  0.500000  0.000000  0.000000  1
  Ru  Ru31  1  0.000000  0.500000  0.000000  1
  Ru  Ru32  1  0.500000  0.000000  0.500000  1
  Ru  Ru33  1  0.000000  0.500000  0.500000  1
  Ru  Ru34  1  0.000000  0.000000  0.000000  1
  Ru  Ru35  1  0.000000  0.000000  0.500000  1
  Rh  Rh36  1  0.500000  0.500000  0.000000  1
  Rh  Rh37  1  0.500000  0.500000  0.500000  1
