# generated using pymatgen
data_Ho3ZnCoSn3Rh
_symmetry_space_group_name_H-M   'P 1'
_cell_length_a   7.53465800
_cell_length_b   7.53465779
_cell_length_c   3.82417500
_cell_angle_alpha   90.00000000
_cell_angle_beta   90.00000000
_cell_angle_gamma   120.00000090
_symmetry_Int_Tables_number   1
_chemical_formula_structural   Ho3ZnCoSn3Rh
_chemical_formula_sum   'Ho3 Zn1 Co1 Sn3 Rh1'
_cell_volume   188.01628303
_cell_formula_units_Z   1
loop_
 _symmetry_equiv_pos_site_id
 _symmetry_equiv_pos_as_xyz
  1  'x, y, z'
loop_
 _atom_site_type_symbol
 _atom_site_label
 _atom_site_symmetry_multiplicity
 _atom_site_fract_x
 _atom_site_fract_y
 _atom_site_fract_z
 _atom_site_occupancy
  Ho  Ho0  1  0.014987  0.407084  0.000000  1
  Ho  Ho1  1  0.592916  0.607903  0.000000  1
  Ho  Ho2  1  0.392097  0.985013  0.000000  1
  Zn  Zn3  1  0.666667  0.333333  0.500000  1
  Co  Co4  1  0.000000  0.000000  0.000000  1
  Sn  Sn5  1  0.251986  0.251019  0.500000  1
  Sn  Sn6  1  0.999034  0.748014  0.500000  1
  Sn  Sn7  1  0.748981  0.000966  0.500000  1
  Rh  Rh8  1  0.333333  0.666667  0.500000  1
