# generated using pymatgen
data_Dy15Th(CdCo)4
_symmetry_space_group_name_H-M   'P 1'
_cell_length_a   9.53188204
_cell_length_b   9.52787083
_cell_length_c   9.53188300
_cell_angle_alpha   59.98607268
_cell_angle_beta   60.00000013
_cell_angle_gamma   59.98607464
_symmetry_Int_Tables_number   1
_chemical_formula_structural   Dy15Th(CdCo)4
_chemical_formula_sum   'Dy15 Th1 Cd4 Co4'
_cell_volume   611.99345242
_cell_formula_units_Z   1
loop_
 _symmetry_equiv_pos_site_id
 _symmetry_equiv_pos_as_xyz
  1  'x, y, z'
loop_
 _atom_site_type_symbol
 _atom_site_label
 _atom_site_symmetry_multiplicity
 _atom_site_fract_x
 _atom_site_fract_y
 _atom_site_fract_z
 _atom_site_occupancy
  Dy  Dy0  1  0.687761  0.313038  0.687761  1
  Dy  Dy1  1  0.687761  0.313038  0.311441  1
  Dy  Dy2  1  0.936297  0.563617  0.563789  1
  Dy  Dy3  1  0.540495  0.151737  0.153884  1
  Dy  Dy4  1  0.153884  0.151737  0.540495  1
  Dy  Dy5  1  0.936626  0.938439  0.562468  1
  Dy  Dy6  1  0.312773  0.687891  0.312773  1
  Dy  Dy7  1  0.562468  0.938439  0.936626  1
  Dy  Dy8  1  0.562468  0.938439  0.562468  1
  Dy  Dy9  1  0.686563  0.687891  0.312773  1
  Dy  Dy10  1  0.563789  0.563617  0.936297  1
  Dy  Dy11  1  0.936297  0.563617  0.936297  1
  Dy  Dy12  1  0.312773  0.687891  0.686563  1
  Dy  Dy13  1  0.153884  0.151737  0.153884  1
  Dy  Dy14  1  0.311441  0.313038  0.687761  1
  Th  Th15  1  0.157242  0.528274  0.157242  1
  Cd  Cd16  1  0.920133  0.239602  0.920133  1
  Cd  Cd17  1  0.918950  0.919914  0.918950  1
  Cd  Cd18  1  0.918950  0.919914  0.242187  1
  Cd  Cd19  1  0.242187  0.919914  0.918950  1
  Co  Co20  1  0.356301  0.361790  0.925609  1
  Co  Co21  1  0.359052  0.922846  0.359052  1
  Co  Co22  1  0.925609  0.361790  0.356301  1
  Co  Co23  1  0.356301  0.361790  0.356301  1
