# generated using pymatgen
data_CeNp(Si7Ir3)2
_symmetry_space_group_name_H-M   'P 1'
_cell_length_a   8.05730184
_cell_length_b   8.05730101
_cell_length_c   8.05730196
_cell_angle_alpha   56.88788270
_cell_angle_beta   56.88788846
_cell_angle_gamma   56.88788767
_symmetry_Int_Tables_number   1
_chemical_formula_structural   CeNp(Si7Ir3)2
_chemical_formula_sum   'Ce1 Np1 Si14 Ir6'
_cell_volume   343.31789981
_cell_formula_units_Z   1
loop_
 _symmetry_equiv_pos_site_id
 _symmetry_equiv_pos_as_xyz
  1  'x, y, z'
loop_
 _atom_site_type_symbol
 _atom_site_label
 _atom_site_symmetry_multiplicity
 _atom_site_fract_x
 _atom_site_fract_y
 _atom_site_fract_z
 _atom_site_occupancy
  Ce  Ce0  1  0.500000  0.500000  0.500000  1
  Np  Np1  1  0.000000  0.000000  0.000000  1
  Si  Si2  1  0.851864  0.064868  0.673250  1
  Si  Si3  1  0.673250  0.851864  0.064868  1
  Si  Si4  1  0.064868  0.673250  0.851864  1
  Si  Si5  1  0.649800  0.828598  0.433155  1
  Si  Si6  1  0.249834  0.249834  0.249834  1
  Si  Si7  1  0.750166  0.750166  0.750166  1
  Si  Si8  1  0.171402  0.566845  0.350200  1
  Si  Si9  1  0.566845  0.350200  0.171402  1
  Si  Si10  1  0.350200  0.171402  0.566845  1
  Si  Si11  1  0.935132  0.326750  0.148136  1
  Si  Si12  1  0.326750  0.148136  0.935132  1
  Si  Si13  1  0.148136  0.935132  0.326750  1
  Si  Si14  1  0.828598  0.433155  0.649800  1
  Si  Si15  1  0.433155  0.649800  0.828598  1
  Ir  Ir16  1  0.750937  0.067307  0.430963  1
  Ir  Ir17  1  0.430963  0.750937  0.067307  1
  Ir  Ir18  1  0.067307  0.430963  0.750937  1
  Ir  Ir19  1  0.249063  0.932693  0.569037  1
  Ir  Ir20  1  0.569037  0.249063  0.932693  1
  Ir  Ir21  1  0.932693  0.569037  0.249063  1
