# generated using pymatgen
data_Zn11Cu(BIr2)6
_symmetry_space_group_name_H-M   'P 1'
_cell_length_a   13.39725105
_cell_length_b   13.39725023
_cell_length_c   10.15579301
_cell_angle_alpha   89.99541956
_cell_angle_beta   90.00458028
_cell_angle_gamma   167.61206933
_symmetry_Int_Tables_number   1
_chemical_formula_structural   Zn11Cu(BIr2)6
_chemical_formula_sum   'Zn11 Cu1 B6 Ir12'
_cell_volume   391.05009937
_cell_formula_units_Z   1
loop_
 _symmetry_equiv_pos_site_id
 _symmetry_equiv_pos_as_xyz
  1  'x, y, z'
loop_
 _atom_site_type_symbol
 _atom_site_label
 _atom_site_symmetry_multiplicity
 _atom_site_fract_x
 _atom_site_fract_y
 _atom_site_fract_z
 _atom_site_occupancy
  Zn  Zn0  1  0.912964  0.087036  0.880590  1
  Zn  Zn1  1  0.911739  0.088261  0.620934  1
  Zn  Zn2  1  0.088341  0.911659  0.375160  1
  Zn  Zn3  1  0.238928  0.761072  0.609554  1
  Zn  Zn4  1  0.760398  0.239602  0.388798  1
  Zn  Zn5  1  0.002471  0.997529  0.007665  1
  Zn  Zn6  1  0.000459  0.999541  0.499693  1
  Zn  Zn7  1  0.819792  0.180208  0.750171  1
  Zn  Zn8  1  0.177690  0.822310  0.247960  1
  Zn  Zn9  1  0.239038  0.760962  0.890166  1
  Zn  Zn10  1  0.760682  0.239318  0.110204  1
  Cu  Cu11  1  0.089112  0.910888  0.123618  1
  B  B12  1  0.138623  0.861377  0.605597  1
  B  B13  1  0.861519  0.138481  0.394093  1
  B  B14  1  0.861304  0.138696  0.105108  1
  B  B15  1  0.137613  0.862387  0.896101  1
  B  B16  1  0.957896  0.042104  0.249609  1
  B  B17  1  0.042146  0.957854  0.750602  1
  Ir  Ir18  1  0.332011  0.667989  0.528536  1
  Ir  Ir19  1  0.667983  0.332017  0.471219  1
  Ir  Ir20  1  0.668383  0.331617  0.027249  1
  Ir  Ir21  1  0.331842  0.668158  0.970556  1
  Ir  Ir22  1  0.516840  0.483160  0.248709  1
  Ir  Ir23  1  0.482806  0.517194  0.748784  1
  Ir  Ir24  1  0.328822  0.671178  0.249902  1
  Ir  Ir25  1  0.670804  0.329196  0.750031  1
  Ir  Ir26  1  0.575070  0.424930  0.608416  1
  Ir  Ir27  1  0.425179  0.574821  0.391309  1
  Ir  Ir28  1  0.424789  0.575211  0.108172  1
  Ir  Ir29  1  0.574755  0.425245  0.891494  1
