# generated using pymatgen
data_LaU3F15
_symmetry_space_group_name_H-M   'P 1'
_cell_length_a   7.95032443
_cell_length_b   7.95032380
_cell_length_c   7.95032501
_cell_angle_alpha   112.84031727
_cell_angle_beta   112.84032725
_cell_angle_gamma   112.84033666
_symmetry_Int_Tables_number   1
_chemical_formula_structural   LaU3F15
_chemical_formula_sum   'La1 U3 F15'
_cell_volume   329.91388517
_cell_formula_units_Z   1
loop_
 _symmetry_equiv_pos_site_id
 _symmetry_equiv_pos_as_xyz
  1  'x, y, z'
loop_
 _atom_site_type_symbol
 _atom_site_label
 _atom_site_symmetry_multiplicity
 _atom_site_fract_x
 _atom_site_fract_y
 _atom_site_fract_z
 _atom_site_occupancy
  La  La0  1  0.497548  0.497548  0.497548  1
  U  U1  1  0.857689  0.287274  0.857689  1
  U  U2  1  0.287274  0.857689  0.857689  1
  U  U3  1  0.857689  0.857689  0.287274  1
  F  F4  1  0.602487  0.932373  0.144649  1
  F  F5  1  0.932373  0.144649  0.602487  1
  F  F6  1  0.144649  0.602487  0.932373  1
  F  F7  1  0.932373  0.602487  0.144649  1
  F  F8  1  0.596132  0.596132  0.258553  1
  F  F9  1  0.258553  0.596132  0.596132  1
  F  F10  1  0.596132  0.258553  0.596132  1
  F  F11  1  0.142926  0.142926  0.359507  1
  F  F12  1  0.359507  0.142926  0.142926  1
  F  F13  1  0.142926  0.359507  0.142926  1
  F  F14  1  0.667097  0.667097  0.897576  1
  F  F15  1  0.897576  0.667097  0.667097  1
  F  F16  1  0.667097  0.897576  0.667097  1
  F  F17  1  0.144649  0.932373  0.602487  1
  F  F18  1  0.602487  0.144649  0.932373  1
