# generated using pymatgen
data_Ho5Ta2MoP12Ru9Rh7
_symmetry_space_group_name_H-M   'P 1'
_cell_length_a   12.63060700
_cell_length_b   12.63060629
_cell_length_c   3.95330700
_cell_angle_alpha   90.00000000
_cell_angle_beta   90.00000000
_cell_angle_gamma   119.99999923
_symmetry_Int_Tables_number   1
_chemical_formula_structural   Ho5Ta2MoP12Ru9Rh7
_chemical_formula_sum   'Ho5 Ta2 Mo1 P12 Ru9 Rh7'
_cell_volume   546.18478370
_cell_formula_units_Z   1
loop_
 _symmetry_equiv_pos_site_id
 _symmetry_equiv_pos_as_xyz
  1  'x, y, z'
loop_
 _atom_site_type_symbol
 _atom_site_label
 _atom_site_symmetry_multiplicity
 _atom_site_fract_x
 _atom_site_fract_y
 _atom_site_fract_z
 _atom_site_occupancy
  Ho  Ho0  1  0.999171  0.187749  0.500000  1
  Ho  Ho1  1  0.811422  0.812251  0.500000  1
  Ho  Ho2  1  0.188829  0.000000  0.500000  1
  Ho  Ho3  1  0.666305  0.332378  0.000000  1
  Ho  Ho4  1  0.333926  0.667622  0.000000  1
  Ta  Ta5  1  0.000552  0.560032  0.000000  1
  Ta  Ta6  1  0.440520  0.439968  0.000000  1
  Mo  Mo7  1  0.557646  0.000000  0.000000  1
  P  P8  1  0.000345  0.820129  0.000000  1
  P  P9  1  0.180216  0.179871  0.000000  1
  P  P10  1  0.818682  0.000000  0.000000  1
  P  P11  1  0.682905  0.164922  0.500000  1
  P  P12  1  0.832082  0.517127  0.500000  1
  P  P13  1  0.482920  0.314690  0.500000  1
  P  P14  1  0.168231  0.685310  0.500000  1
  P  P15  1  0.517984  0.835078  0.500000  1
  P  P16  1  0.314956  0.482873  0.500000  1
  P  P17  1  0.998786  0.364302  0.000000  1
  P  P18  1  0.634484  0.635698  0.000000  1
  P  P19  1  0.372297  0.000000  0.000000  1
  Ru  Ru20  1  0.000272  0.720334  0.500000  1
  Ru  Ru21  1  0.279938  0.279666  0.500000  1
  Ru  Ru22  1  0.719092  0.000000  0.500000  1
  Ru  Ru23  1  0.870625  0.356698  0.500000  1
  Ru  Ru24  1  0.642407  0.514435  0.500000  1
  Ru  Ru25  1  0.486457  0.128259  0.500000  1
  Ru  Ru26  1  0.358198  0.871741  0.500000  1
  Ru  Ru27  1  0.513927  0.643302  0.500000  1
  Ru  Ru28  1  0.127972  0.485565  0.500000  1
  Rh  Rh29  1  0.807587  0.179984  0.000000  1
  Rh  Rh30  1  0.819332  0.628010  0.000000  1
  Rh  Rh31  1  0.371698  0.189641  0.000000  1
  Rh  Rh32  1  0.182056  0.810359  0.000000  1
  Rh  Rh33  1  0.627602  0.820016  0.000000  1
  Rh  Rh34  1  0.191321  0.371990  0.000000  1
  Rh  Rh35  1  0.999258  0.000000  0.000000  1
