# generated using pymatgen
data_Nb10Ga3Si3B2
_symmetry_space_group_name_H-M   'P 1'
_cell_length_a   7.74786100
_cell_length_b   7.74785999
_cell_length_c   5.33072600
_cell_angle_alpha   90.00000000
_cell_angle_beta   90.00000000
_cell_angle_gamma   120.00000857
_symmetry_Int_Tables_number   1
_chemical_formula_structural   Nb10Ga3Si3B2
_chemical_formula_sum   'Nb10 Ga3 Si3 B2'
_cell_volume   277.12808419
_cell_formula_units_Z   1
loop_
 _symmetry_equiv_pos_site_id
 _symmetry_equiv_pos_as_xyz
  1  'x, y, z'
loop_
 _atom_site_type_symbol
 _atom_site_label
 _atom_site_symmetry_multiplicity
 _atom_site_fract_x
 _atom_site_fract_y
 _atom_site_fract_z
 _atom_site_occupancy
  Nb  Nb0  1  0.666667  0.333333  0.501681  1
  Nb  Nb1  1  0.333333  0.666667  0.501681  1
  Nb  Nb2  1  0.333333  0.666667  0.998319  1
  Nb  Nb3  1  0.666667  0.333333  0.998319  1
  Nb  Nb4  1  0.754207  0.754207  0.250000  1
  Nb  Nb5  1  0.245793  0.000000  0.250000  1
  Nb  Nb6  1  0.000000  0.245793  0.250000  1
  Nb  Nb7  1  0.245327  0.245327  0.750000  1
  Nb  Nb8  1  0.754673  0.000000  0.750000  1
  Nb  Nb9  1  0.000000  0.754673  0.750000  1
  Ga  Ga10  1  0.400273  0.400273  0.250000  1
  Ga  Ga11  1  0.599727  0.000000  0.250000  1
  Ga  Ga12  1  0.000000  0.599727  0.250000  1
  Si  Si13  1  0.598900  0.598900  0.750000  1
  Si  Si14  1  0.401100  0.000000  0.750000  1
  Si  Si15  1  0.000000  0.401100  0.750000  1
  B  B16  1  0.000000  0.000000  0.499556  1
  B  B17  1  0.000000  0.000000  0.000444  1
