# generated using pymatgen
data_Nd14Th2Cd4Ir3Rh
_symmetry_space_group_name_H-M   'P 1'
_cell_length_a   9.96178980
_cell_length_b   9.96179022
_cell_length_c   9.98660060
_cell_angle_alpha   60.10306944
_cell_angle_beta   60.10306428
_cell_angle_gamma   60.14547355
_symmetry_Int_Tables_number   1
_chemical_formula_structural   Nd14Th2Cd4Ir3Rh
_chemical_formula_sum   'Nd14 Th2 Cd4 Ir3 Rh1'
_cell_volume   702.63365100
_cell_formula_units_Z   1
loop_
 _symmetry_equiv_pos_site_id
 _symmetry_equiv_pos_as_xyz
  1  'x, y, z'
loop_
 _atom_site_type_symbol
 _atom_site_label
 _atom_site_symmetry_multiplicity
 _atom_site_fract_x
 _atom_site_fract_y
 _atom_site_fract_z
 _atom_site_occupancy
  Nd  Nd0  1  0.349706  0.950623  0.350143  1
  Nd  Nd1  1  0.950623  0.349706  0.350143  1
  Nd  Nd2  1  0.810007  0.190807  0.189740  1
  Nd  Nd3  1  0.190012  0.810400  0.809169  1
  Nd  Nd4  1  0.190807  0.810007  0.189740  1
  Nd  Nd5  1  0.810400  0.190012  0.809169  1
  Nd  Nd6  1  0.190007  0.190007  0.810338  1
  Nd  Nd7  1  0.809261  0.809261  0.190221  1
  Nd  Nd8  1  0.941277  0.562050  0.562722  1
  Nd  Nd9  1  0.562018  0.939568  0.936448  1
  Nd  Nd10  1  0.562050  0.941277  0.562722  1
  Nd  Nd11  1  0.939568  0.562018  0.936448  1
  Nd  Nd12  1  0.562122  0.562122  0.939301  1
  Nd  Nd13  1  0.938258  0.938258  0.561554  1
  Th  Th14  1  0.344442  0.344442  0.346968  1
  Th  Th15  1  0.345641  0.345641  0.961223  1
  Cd  Cd16  1  0.579072  0.579072  0.581324  1
  Cd  Cd17  1  0.579314  0.579314  0.259321  1
  Cd  Cd18  1  0.578980  0.258161  0.581206  1
  Cd  Cd19  1  0.258161  0.578980  0.581206  1
  Ir  Ir20  1  0.145562  0.145562  0.570009  1
  Ir  Ir21  1  0.149679  0.566587  0.141573  1
  Ir  Ir22  1  0.566587  0.149679  0.141573  1
  Rh  Rh23  1  0.146444  0.146444  0.137739  1
