# generated using pymatgen
data_YbAu6
_symmetry_space_group_name_H-M   'P 1'
_cell_length_a   5.54747681
_cell_length_b   5.54747771
_cell_length_c   9.21817639
_cell_angle_alpha   82.52012108
_cell_angle_beta   82.52011546
_cell_angle_gamma   89.26912060
_symmetry_Int_Tables_number   1
_chemical_formula_structural   YbAu6
_chemical_formula_sum   'Yb2 Au12'
_cell_volume   278.87485660
_cell_formula_units_Z   2
loop_
 _symmetry_equiv_pos_site_id
 _symmetry_equiv_pos_as_xyz
  1  'x, y, z'
loop_
 _atom_site_type_symbol
 _atom_site_label
 _atom_site_symmetry_multiplicity
 _atom_site_fract_x
 _atom_site_fract_y
 _atom_site_fract_z
 _atom_site_occupancy
  Yb  Yb0  1  0.684900  0.315100  0.250000  1
  Yb  Yb1  1  0.315100  0.684900  0.750000  1
  Au  Au2  1  0.220583  0.384605  0.082050  1
  Au  Au3  1  0.615395  0.779417  0.417950  1
  Au  Au4  1  0.956243  0.842876  0.136895  1
  Au  Au5  1  0.842876  0.956243  0.636895  1
  Au  Au6  1  0.043757  0.157124  0.863105  1
  Au  Au7  1  0.165685  0.539666  0.371427  1
  Au  Au8  1  0.460334  0.834315  0.128573  1
  Au  Au9  1  0.157124  0.043757  0.363105  1
  Au  Au10  1  0.384605  0.220583  0.582050  1
  Au  Au11  1  0.539666  0.165685  0.871427  1
  Au  Au12  1  0.779417  0.615395  0.917950  1
  Au  Au13  1  0.834315  0.460334  0.628573  1
