# generated using pymatgen
data_Al8CrIr4Ru3
_symmetry_space_group_name_H-M   'P 1'
_cell_length_a   6.03952900
_cell_length_b   4.24055100
_cell_length_c   8.55312600
_cell_angle_alpha   90.00000000
_cell_angle_beta   89.99996763
_cell_angle_gamma   90.00000000
_symmetry_Int_Tables_number   1
_chemical_formula_structural   Al8CrIr4Ru3
_chemical_formula_sum   'Al8 Cr1 Ir4 Ru3'
_cell_volume   219.05351760
_cell_formula_units_Z   1
loop_
 _symmetry_equiv_pos_site_id
 _symmetry_equiv_pos_as_xyz
  1  'x, y, z'
loop_
 _atom_site_type_symbol
 _atom_site_label
 _atom_site_symmetry_multiplicity
 _atom_site_fract_x
 _atom_site_fract_y
 _atom_site_fract_z
 _atom_site_occupancy
  Al  Al0  1  0.989306  0.749999  0.125003  1
  Al  Al1  1  0.510679  0.749999  0.125004  1
  Al  Al2  1  0.995090  0.250001  0.380841  1
  Al  Al3  1  0.504884  0.250001  0.380853  1
  Al  Al4  1  0.498569  0.749999  0.625002  1
  Al  Al5  1  0.001406  0.749999  0.625004  1
  Al  Al6  1  0.504889  0.250001  0.869136  1
  Al  Al7  1  0.995093  0.250001  0.869153  1
  Cr  Cr8  1  0.250188  0.250001  0.124994  1
  Ir  Ir9  1  0.749990  0.250001  0.125001  1
  Ir  Ir10  1  0.249979  0.749999  0.365738  1
  Ir  Ir11  1  0.749988  0.250001  0.624998  1
  Ir  Ir12  1  0.249982  0.749999  0.884268  1
  Ru  Ru13  1  0.749985  0.749999  0.375069  1
  Ru  Ru14  1  0.249982  0.250001  0.624999  1
  Ru  Ru15  1  0.749989  0.749999  0.874935  1
