# generated using pymatgen
data_Cs2Nd5Gd(CBr6)2
_symmetry_space_group_name_H-M   'P 1'
_cell_length_a   9.02077126
_cell_length_b   9.05501400
_cell_length_c   9.71759347
_cell_angle_alpha   69.61076991
_cell_angle_beta   85.91615918
_cell_angle_gamma   89.32188552
_symmetry_Int_Tables_number   1
_chemical_formula_structural   Cs2Nd5Gd(CBr6)2
_chemical_formula_sum   'Cs2 Nd5 Gd1 C2 Br12'
_cell_volume   742.07226173
_cell_formula_units_Z   1
loop_
 _symmetry_equiv_pos_site_id
 _symmetry_equiv_pos_as_xyz
  1  'x, y, z'
loop_
 _atom_site_type_symbol
 _atom_site_label
 _atom_site_symmetry_multiplicity
 _atom_site_fract_x
 _atom_site_fract_y
 _atom_site_fract_z
 _atom_site_occupancy
  Cs  Cs0  1  0.474113  0.349551  0.334079  1
  Cs  Cs1  1  0.525890  0.650418  0.665913  1
  Nd  Nd2  1  0.086219  0.260629  0.996049  1
  Nd  Nd3  1  0.738875  0.088328  0.000963  1
  Nd  Nd4  1  0.261288  0.912357  0.999046  1
  Nd  Nd5  1  0.979032  0.875883  0.329561  1
  Nd  Nd6  1  0.021075  0.124265  0.670421  1
  Gd  Gd7  1  0.914613  0.742169  0.004347  1
  C  C8  1  0.004059  0.026521  0.921971  1
  C  C9  1  0.994393  0.968933  0.078058  1
  Br  Br10  1  0.086994  0.189496  0.325911  1
  Br  Br11  1  0.912933  0.809916  0.675744  1
  Br  Br12  1  0.203046  0.591098  0.001437  1
  Br  Br13  1  0.794870  0.410642  0.998610  1
  Br  Br14  1  0.406137  0.200044  0.005329  1
  Br  Br15  1  0.596126  0.798997  0.994711  1
  Br  Br16  1  0.671369  0.995410  0.327392  1
  Br  Br17  1  0.328655  0.004554  0.672643  1
  Br  Br18  1  0.286670  0.762437  0.324120  1
  Br  Br19  1  0.713332  0.237582  0.675833  1
  Br  Br20  1  0.848186  0.583434  0.324540  1
  Br  Br21  1  0.152123  0.417337  0.673323  1
