# generated using pymatgen
data_Tb6Th2Mg2RuRh
_symmetry_space_group_name_H-M   'P 1'
_cell_length_a   9.79638523
_cell_length_b   9.79638570
_cell_length_c   9.82037100
_cell_angle_alpha   59.91897844
_cell_angle_beta   59.91897685
_cell_angle_gamma   59.85111971
_symmetry_Int_Tables_number   1
_chemical_formula_structural   Tb6Th2Mg2RuRh
_chemical_formula_sum   'Tb12 Th4 Mg4 Ru2 Rh2'
_cell_volume   664.84719831
_cell_formula_units_Z   2
loop_
 _symmetry_equiv_pos_site_id
 _symmetry_equiv_pos_as_xyz
  1  'x, y, z'
loop_
 _atom_site_type_symbol
 _atom_site_label
 _atom_site_symmetry_multiplicity
 _atom_site_fract_x
 _atom_site_fract_y
 _atom_site_fract_z
 _atom_site_occupancy
  Tb  Tb0  1  0.813933  0.186990  0.187264  1
  Tb  Tb1  1  0.186990  0.813933  0.811813  1
  Tb  Tb2  1  0.186990  0.813933  0.187264  1
  Tb  Tb3  1  0.813933  0.186990  0.811813  1
  Tb  Tb4  1  0.186973  0.186973  0.813027  1
  Tb  Tb5  1  0.812604  0.812604  0.187396  1
  Tb  Tb6  1  0.934576  0.564427  0.566285  1
  Tb  Tb7  1  0.564427  0.934576  0.934712  1
  Tb  Tb8  1  0.564427  0.934576  0.566285  1
  Tb  Tb9  1  0.934576  0.564427  0.934712  1
  Tb  Tb10  1  0.565755  0.565755  0.934245  1
  Tb  Tb11  1  0.935017  0.935017  0.564983  1
  Th  Th12  1  0.346298  0.346298  0.349533  1
  Th  Th13  1  0.346298  0.346298  0.957872  1
  Th  Th14  1  0.344769  0.959519  0.347857  1
  Th  Th15  1  0.959519  0.344769  0.347857  1
  Mg  Mg16  1  0.579971  0.579971  0.580715  1
  Mg  Mg17  1  0.579971  0.579971  0.259343  1
  Mg  Mg18  1  0.579938  0.259054  0.580504  1
  Mg  Mg19  1  0.259054  0.579938  0.580504  1
  Ru  Ru20  1  0.145488  0.145488  0.143898  1
  Ru  Ru21  1  0.145488  0.145488  0.565124  1
  Rh  Rh22  1  0.144797  0.568208  0.143496  1
  Rh  Rh23  1  0.568208  0.144797  0.143496  1
