# generated using pymatgen
data_Sc4Co6IrOs
_symmetry_space_group_name_H-M   'P 1'
_cell_length_a   4.88981700
_cell_length_b   4.88981747
_cell_length_c   8.21497500
_cell_angle_alpha   90.00000000
_cell_angle_beta   90.00000000
_cell_angle_gamma   120.00000356
_symmetry_Int_Tables_number   1
_chemical_formula_structural   Sc4Co6IrOs
_chemical_formula_sum   'Sc4 Co6 Ir1 Os1'
_cell_volume   170.10697298
_cell_formula_units_Z   1
loop_
 _symmetry_equiv_pos_site_id
 _symmetry_equiv_pos_as_xyz
  1  'x, y, z'
loop_
 _atom_site_type_symbol
 _atom_site_label
 _atom_site_symmetry_multiplicity
 _atom_site_fract_x
 _atom_site_fract_y
 _atom_site_fract_z
 _atom_site_occupancy
  Sc  Sc0  1  0.666666  0.333332  0.067423  1
  Sc  Sc1  1  0.666666  0.333332  0.432846  1
  Sc  Sc2  1  0.333334  0.666667  0.567153  1
  Sc  Sc3  1  0.333334  0.666667  0.932576  1
  Co  Co4  1  0.170953  0.341908  0.251843  1
  Co  Co5  1  0.170954  0.829047  0.251843  1
  Co  Co6  1  0.658093  0.829047  0.251843  1
  Co  Co7  1  0.341908  0.170955  0.748157  1
  Co  Co8  1  0.829047  0.170955  0.748157  1
  Co  Co9  1  0.829046  0.658092  0.748157  1
  Ir  Ir10  1  0.000000  0.000000  0.000000  1
  Os  Os11  1  0.000000  0.000000  0.500000  1
