# generated using pymatgen
data_Ce3Nd(B4W)4
_symmetry_space_group_name_H-M   'P 1'
_cell_length_a   3.69788400
_cell_length_b   6.08800821
_cell_length_c   11.77841972
_cell_angle_alpha   89.95862368
_cell_angle_beta   90.00000000
_cell_angle_gamma   90.00000000
_symmetry_Int_Tables_number   1
_chemical_formula_structural   Ce3Nd(B4W)4
_chemical_formula_sum   'Ce3 Nd1 B16 W4'
_cell_volume   265.16452777
_cell_formula_units_Z   1
loop_
 _symmetry_equiv_pos_site_id
 _symmetry_equiv_pos_as_xyz
  1  'x, y, z'
loop_
 _atom_site_type_symbol
 _atom_site_label
 _atom_site_symmetry_multiplicity
 _atom_site_fract_x
 _atom_site_fract_y
 _atom_site_fract_z
 _atom_site_occupancy
  Ce  Ce0  1  0.000000  0.124459  0.150644  1
  Ce  Ce1  1  0.000000  0.875008  0.849416  1
  Ce  Ce2  1  0.000000  0.624701  0.349244  1
  Nd  Nd3  1  0.000000  0.375029  0.650873  1
  B  B4  1  0.500000  0.021931  0.691753  1
  B  B5  1  0.500000  0.974581  0.308023  1
  B  B6  1  0.500000  0.527459  0.809932  1
  B  B7  1  0.500000  0.474393  0.191634  1
  B  B8  1  0.500000  0.112405  0.545475  1
  B  B9  1  0.500000  0.885990  0.452847  1
  B  B10  1  0.500000  0.614026  0.953653  1
  B  B11  1  0.500000  0.386138  0.046814  1
  B  B12  1  0.500000  0.286640  0.314439  1
  B  B13  1  0.500000  0.717722  0.685920  1
  B  B14  1  0.500000  0.785517  0.185285  1
  B  B15  1  0.500000  0.213194  0.816191  1
  B  B16  1  0.500000  0.363790  0.466089  1
  B  B17  1  0.500000  0.637435  0.531220  1
  B  B18  1  0.500000  0.863951  0.032128  1
  B  B19  1  0.500000  0.135656  0.968334  1
  W  W20  1  0.000000  0.129328  0.413761  1
  W  W21  1  0.000000  0.870971  0.584416  1
  W  W22  1  0.000000  0.630570  0.085904  1
  W  W23  1  0.000000  0.369104  0.916003  1
