# generated using pymatgen
data_CeTm4Zr3(Ni4P3)4
_symmetry_space_group_name_H-M   'P 1'
_cell_length_a   12.31744400
_cell_length_b   12.31744464
_cell_length_c   3.79295000
_cell_angle_alpha   90.00000000
_cell_angle_beta   90.00000000
_cell_angle_gamma   120.00000902
_symmetry_Int_Tables_number   1
_chemical_formula_structural   CeTm4Zr3(Ni4P3)4
_chemical_formula_sum   'Ce1 Tm4 Zr3 Ni16 P12'
_cell_volume   498.36659639
_cell_formula_units_Z   1
loop_
 _symmetry_equiv_pos_site_id
 _symmetry_equiv_pos_as_xyz
  1  'x, y, z'
loop_
 _atom_site_type_symbol
 _atom_site_label
 _atom_site_symmetry_multiplicity
 _atom_site_fract_x
 _atom_site_fract_y
 _atom_site_fract_z
 _atom_site_occupancy
  Ce  Ce0  1  0.333333  0.666667  0.000000  1
  Tm  Tm1  1  0.183559  0.183805  0.500000  1
  Tm  Tm2  1  0.816195  0.999754  0.500000  1
  Tm  Tm3  1  0.000246  0.816441  0.500000  1
  Tm  Tm4  1  0.666667  0.333333  0.000000  1
  Zr  Zr5  1  0.561890  0.560415  0.000000  1
  Zr  Zr6  1  0.439585  0.001475  0.000000  1
  Zr  Zr7  1  0.998525  0.438110  0.000000  1
  Ni  Ni8  1  0.728481  0.727056  0.500000  1
  Ni  Ni9  1  0.272944  0.001425  0.500000  1
  Ni  Ni10  1  0.998575  0.271519  0.500000  1
  Ni  Ni11  1  0.182295  0.372149  0.000000  1
  Ni  Ni12  1  0.627851  0.810146  0.000000  1
  Ni  Ni13  1  0.189854  0.817705  0.000000  1
  Ni  Ni14  1  0.809955  0.624778  0.000000  1
  Ni  Ni15  1  0.814823  0.190045  0.000000  1
  Ni  Ni16  1  0.375222  0.185177  0.000000  1
  Ni  Ni17  1  0.359778  0.480642  0.500000  1
  Ni  Ni18  1  0.519358  0.879138  0.500000  1
  Ni  Ni19  1  0.120862  0.640222  0.500000  1
  Ni  Ni20  1  0.873657  0.513949  0.500000  1
  Ni  Ni21  1  0.640294  0.126343  0.500000  1
  Ni  Ni22  1  0.486051  0.359706  0.500000  1
  Ni  Ni23  1  0.000000  0.000000  0.000000  1
  P  P24  1  0.823718  0.822886  0.000000  1
  P  P25  1  0.177114  0.000832  0.000000  1
  P  P26  1  0.999168  0.176282  0.000000  1
  P  P27  1  0.169366  0.474651  0.500000  1
  P  P28  1  0.525349  0.694716  0.500000  1
  P  P29  1  0.305284  0.830634  0.500000  1
  P  P30  1  0.694681  0.522644  0.500000  1
  P  P31  1  0.827963  0.305319  0.500000  1
  P  P32  1  0.477356  0.172037  0.500000  1
  P  P33  1  0.354583  0.354947  0.000000  1
  P  P34  1  0.645053  0.999635  0.000000  1
  P  P35  1  0.000365  0.645417  0.000000  1
