# generated using pymatgen
data_Lu4TcRu7
_symmetry_space_group_name_H-M   'P 1'
_cell_length_a   5.17370293
_cell_length_b   5.31680854
_cell_length_c   8.86621400
_cell_angle_alpha   90.00000000
_cell_angle_beta   90.00000000
_cell_angle_gamma   120.91927832
_symmetry_Int_Tables_number   1
_chemical_formula_structural   Lu4TcRu7
_chemical_formula_sum   'Lu4 Tc1 Ru7'
_cell_volume   209.22971836
_cell_formula_units_Z   1
loop_
 _symmetry_equiv_pos_site_id
 _symmetry_equiv_pos_as_xyz
  1  'x, y, z'
loop_
 _atom_site_type_symbol
 _atom_site_label
 _atom_site_symmetry_multiplicity
 _atom_site_fract_x
 _atom_site_fract_y
 _atom_site_fract_z
 _atom_site_occupancy
  Lu  Lu0  1  0.334230  0.667116  0.432643  1
  Lu  Lu1  1  0.663211  0.331605  0.566325  1
  Lu  Lu2  1  0.663211  0.331605  0.933675  1
  Lu  Lu3  1  0.334230  0.667116  0.067357  1
  Tc  Tc4  1  0.664473  0.832236  0.750000  1
  Ru  Ru5  1  0.990463  0.995231  0.499241  1
  Ru  Ru6  1  0.990463  0.995231  0.000759  1
  Ru  Ru7  1  0.830514  0.170713  0.250000  1
  Ru  Ru8  1  0.830514  0.659801  0.250000  1
  Ru  Ru9  1  0.345233  0.172617  0.250000  1
  Ru  Ru10  1  0.176729  0.831615  0.750000  1
  Ru  Ru11  1  0.176729  0.345114  0.750000  1
