# generated using pymatgen
data_Pr16TcHg4Pd3
_symmetry_space_group_name_H-M   'P 1'
_cell_length_a   10.10765572
_cell_length_b   10.10765624
_cell_length_c   10.10765412
_cell_angle_alpha   59.41936234
_cell_angle_beta   59.41936280
_cell_angle_gamma   59.41936356
_symmetry_Int_Tables_number   1
_chemical_formula_structural   Pr16TcHg4Pd3
_chemical_formula_sum   'Pr16 Tc1 Hg4 Pd3'
_cell_volume   720.54361728
_cell_formula_units_Z   1
loop_
 _symmetry_equiv_pos_site_id
 _symmetry_equiv_pos_as_xyz
  1  'x, y, z'
loop_
 _atom_site_type_symbol
 _atom_site_label
 _atom_site_symmetry_multiplicity
 _atom_site_fract_x
 _atom_site_fract_y
 _atom_site_fract_z
 _atom_site_occupancy
  Pr  Pr0  1  0.354587  0.354587  0.354587  1
  Pr  Pr1  1  0.348646  0.348646  0.948196  1
  Pr  Pr2  1  0.348646  0.948196  0.348646  1
  Pr  Pr3  1  0.948196  0.348646  0.348646  1
  Pr  Pr4  1  0.817165  0.188745  0.188745  1
  Pr  Pr5  1  0.189327  0.806597  0.806597  1
  Pr  Pr6  1  0.188745  0.817165  0.188745  1
  Pr  Pr7  1  0.806597  0.189327  0.806597  1
  Pr  Pr8  1  0.188745  0.188745  0.817165  1
  Pr  Pr9  1  0.806597  0.806597  0.189327  1
  Pr  Pr10  1  0.935216  0.564306  0.564306  1
  Pr  Pr11  1  0.556086  0.938127  0.938127  1
  Pr  Pr12  1  0.564306  0.935216  0.564306  1
  Pr  Pr13  1  0.938127  0.556086  0.938127  1
  Pr  Pr14  1  0.564306  0.564306  0.935216  1
  Pr  Pr15  1  0.938127  0.938127  0.556086  1
  Tc  Tc16  1  0.142878  0.142878  0.142878  1
  Hg  Hg17  1  0.583381  0.583381  0.583381  1
  Hg  Hg18  1  0.584673  0.584673  0.245992  1
  Hg  Hg19  1  0.584673  0.245992  0.584673  1
  Hg  Hg20  1  0.245992  0.584673  0.584673  1
  Pd  Pd21  1  0.146841  0.146841  0.571305  1
  Pd  Pd22  1  0.146841  0.571305  0.146841  1
  Pd  Pd23  1  0.571305  0.146841  0.146841  1
