# generated using pymatgen
data_Zr8MnFeBi4
_symmetry_space_group_name_H-M   'P 1'
_cell_length_a   8.33203877
_cell_length_b   8.33203958
_cell_length_c   8.33368140
_cell_angle_alpha   95.88010835
_cell_angle_beta   95.87958845
_cell_angle_gamma   142.66230109
_symmetry_Int_Tables_number   1
_chemical_formula_structural   Zr8MnFeBi4
_chemical_formula_sum   'Zr8 Mn1 Fe1 Bi4'
_cell_volume   332.44101458
_cell_formula_units_Z   1
loop_
 _symmetry_equiv_pos_site_id
 _symmetry_equiv_pos_as_xyz
  1  'x, y, z'
loop_
 _atom_site_type_symbol
 _atom_site_label
 _atom_site_symmetry_multiplicity
 _atom_site_fract_x
 _atom_site_fract_y
 _atom_site_fract_z
 _atom_site_occupancy
  Zr  Zr0  1  0.696217  0.581942  0.277376  1
  Zr  Zr1  1  0.581910  0.304563  0.885693  1
  Zr  Zr2  1  0.081156  0.195438  0.277375  1
  Zr  Zr3  1  0.918057  0.803792  0.722630  1
  Zr  Zr4  1  0.195431  0.918080  0.114293  1
  Zr  Zr5  1  0.803787  0.081128  0.885694  1
  Zr  Zr6  1  0.304571  0.418845  0.722635  1
  Zr  Zr7  1  0.418860  0.696208  0.114289  1
  Mn  Mn8  1  0.750002  0.750000  0.000006  1
  Fe  Fe9  1  0.250011  0.250006  0.000012  1
  Bi  Bi10  1  0.139173  0.639171  0.778345  1
  Bi  Bi11  1  0.360827  0.139172  0.500001  1
  Bi  Bi12  1  0.639172  0.860831  0.500002  1
  Bi  Bi13  1  0.860827  0.360825  0.221650  1
