# generated using pymatgen
data_TmLu3Al18(PtRh2)2
_symmetry_space_group_name_H-M   'P 1'
_cell_length_a   7.54346287
_cell_length_b   7.54574248
_cell_length_c   9.41134428
_cell_angle_alpha   89.95846655
_cell_angle_beta   89.96113457
_cell_angle_gamma   119.61481198
_symmetry_Int_Tables_number   1
_chemical_formula_structural   TmLu3Al18(PtRh2)2
_chemical_formula_sum   'Tm1 Lu3 Al18 Pt2 Rh4'
_cell_volume   465.72250982
_cell_formula_units_Z   1
loop_
 _symmetry_equiv_pos_site_id
 _symmetry_equiv_pos_as_xyz
  1  'x, y, z'
loop_
 _atom_site_type_symbol
 _atom_site_label
 _atom_site_symmetry_multiplicity
 _atom_site_fract_x
 _atom_site_fract_y
 _atom_site_fract_z
 _atom_site_occupancy
  Tm  Tm0  1  0.994662  0.670363  0.250650  1
  Lu  Lu1  1  0.005233  0.329371  0.749284  1
  Lu  Lu2  1  0.670663  0.994714  0.250848  1
  Lu  Lu3  1  0.329605  0.005695  0.749267  1
  Al  Al4  1  0.125953  0.126076  0.250894  1
  Al  Al5  1  0.874278  0.874508  0.749100  1
  Al  Al6  1  0.000562  0.330983  0.077078  1
  Al  Al7  1  0.999281  0.668711  0.922026  1
  Al  Al8  1  0.001498  0.665269  0.575331  1
  Al  Al9  1  0.335160  0.999039  0.425608  1
  Al  Al10  1  0.998934  0.334417  0.425670  1
  Al  Al11  1  0.665324  0.001300  0.574912  1
  Al  Al12  1  0.668527  0.999417  0.922539  1
  Al  Al13  1  0.331584  0.000983  0.077092  1
  Al  Al14  1  0.331622  0.331589  0.553258  1
  Al  Al15  1  0.668241  0.668308  0.447752  1
  Al  Al16  1  0.669356  0.669691  0.059233  1
  Al  Al17  1  0.330124  0.330268  0.939900  1
  Al  Al18  1  0.340556  0.547883  0.253831  1
  Al  Al19  1  0.659784  0.452129  0.746147  1
  Al  Al20  1  0.547644  0.339931  0.254031  1
  Al  Al21  1  0.451963  0.660043  0.746047  1
  Pt  Pt22  1  0.672295  0.327172  0.999772  1
  Pt  Pt23  1  0.326844  0.672471  0.999728  1
  Rh  Rh24  1  0.328143  0.672250  0.499737  1
  Rh  Rh25  1  0.672406  0.327440  0.500366  1
  Rh  Rh26  1  0.999856  0.000277  0.999777  1
  Rh  Rh27  1  0.999903  0.999703  0.500122  1
