# generated using pymatgen
data_Nd16InAg3Ir4
_symmetry_space_group_name_H-M   'P 1'
_cell_length_a   9.88259088
_cell_length_b   9.92848051
_cell_length_c   9.92844770
_cell_angle_alpha   60.19612202
_cell_angle_beta   60.02162489
_cell_angle_gamma   60.02123830
_symmetry_Int_Tables_number   1
_chemical_formula_structural   Nd16InAg3Ir4
_chemical_formula_sum   'Nd16 In1 Ag3 Ir4'
_cell_volume   690.08178121
_cell_formula_units_Z   1
loop_
 _symmetry_equiv_pos_site_id
 _symmetry_equiv_pos_as_xyz
  1  'x, y, z'
loop_
 _atom_site_type_symbol
 _atom_site_label
 _atom_site_symmetry_multiplicity
 _atom_site_fract_x
 _atom_site_fract_y
 _atom_site_fract_z
 _atom_site_occupancy
  Nd  Nd0  1  0.809907  0.190691  0.808808  1
  Nd  Nd1  1  0.935064  0.561811  0.561803  1
  Nd  Nd2  1  0.559138  0.940433  0.563036  1
  Nd  Nd3  1  0.810200  0.189739  0.189732  1
  Nd  Nd4  1  0.190475  0.807592  0.193635  1
  Nd  Nd5  1  0.348829  0.951556  0.349018  1
  Nd  Nd6  1  0.934945  0.941229  0.562449  1
  Nd  Nd7  1  0.559489  0.939846  0.939839  1
  Nd  Nd8  1  0.192085  0.806091  0.806092  1
  Nd  Nd9  1  0.348829  0.349017  0.951563  1
  Nd  Nd10  1  0.559144  0.563041  0.940422  1
  Nd  Nd11  1  0.351218  0.348352  0.348345  1
  Nd  Nd12  1  0.190472  0.193633  0.807594  1
  Nd  Nd13  1  0.809906  0.808811  0.190685  1
  Nd  Nd14  1  0.934946  0.562450  0.941227  1
  Nd  Nd15  1  0.948372  0.350466  0.350465  1
  In  In16  1  0.269490  0.577476  0.577518  1
  Ag  Ag17  1  0.581589  0.581432  0.581434  1
  Ag  Ag18  1  0.581500  0.255017  0.581877  1
  Ag  Ag19  1  0.581500  0.581876  0.255019  1
  Ir  Ir20  1  0.142897  0.142506  0.574322  1
  Ir  Ir21  1  0.575559  0.141175  0.141176  1
  Ir  Ir22  1  0.142894  0.574326  0.142508  1
  Ir  Ir23  1  0.141554  0.141436  0.141437  1
