# generated using pymatgen
data_Tm4HgPbAu4
_symmetry_space_group_name_H-M   'P 1'
_cell_length_a   8.02042700
_cell_length_b   8.02042700
_cell_length_c   7.20875700
_cell_angle_alpha   90.00000000
_cell_angle_beta   90.00000000
_cell_angle_gamma   90.00000000
_symmetry_Int_Tables_number   1
_chemical_formula_structural   Tm4HgPbAu4
_chemical_formula_sum   'Tm8 Hg2 Pb2 Au8'
_cell_volume   463.71950841
_cell_formula_units_Z   2
loop_
 _symmetry_equiv_pos_site_id
 _symmetry_equiv_pos_as_xyz
  1  'x, y, z'
loop_
 _atom_site_type_symbol
 _atom_site_label
 _atom_site_symmetry_multiplicity
 _atom_site_fract_x
 _atom_site_fract_y
 _atom_site_fract_z
 _atom_site_occupancy
  Tm  Tm0  1  0.842969  0.157031  0.500000  1
  Tm  Tm1  1  0.157031  0.842969  0.500000  1
  Tm  Tm2  1  0.342969  0.342969  0.000000  1
  Tm  Tm3  1  0.657031  0.657031  0.000000  1
  Tm  Tm4  1  0.681161  0.681161  0.500000  1
  Tm  Tm5  1  0.318839  0.318839  0.500000  1
  Tm  Tm6  1  0.181161  0.818839  0.000000  1
  Tm  Tm7  1  0.818839  0.181161  0.000000  1
  Hg  Hg8  1  0.500000  0.000000  0.750000  1
  Hg  Hg9  1  0.000000  0.500000  0.250000  1
  Pb  Pb10  1  0.500000  0.000000  0.250000  1
  Pb  Pb11  1  0.000000  0.500000  0.750000  1
  Au  Au12  1  0.631584  0.375644  0.273920  1
  Au  Au13  1  0.368416  0.624356  0.273920  1
  Au  Au14  1  0.131584  0.124356  0.773920  1
  Au  Au15  1  0.868416  0.875644  0.773920  1
  Au  Au16  1  0.375644  0.631584  0.726080  1
  Au  Au17  1  0.624356  0.368416  0.726080  1
  Au  Au18  1  0.875644  0.868416  0.226080  1
  Au  Au19  1  0.124356  0.131584  0.226080  1
