# generated using pymatgen
data_K2Ce2CuAuSe6
_symmetry_space_group_name_H-M   'P 1'
_cell_length_a   7.70462372
_cell_length_b   7.70462415
_cell_length_c   10.84711800
_cell_angle_alpha   90.00000000
_cell_angle_beta   90.00000000
_cell_angle_gamma   148.16168106
_symmetry_Int_Tables_number   1
_chemical_formula_structural   K2Ce2CuAuSe6
_chemical_formula_sum   'K2 Ce2 Cu1 Au1 Se6'
_cell_volume   339.67183990
_cell_formula_units_Z   1
loop_
 _symmetry_equiv_pos_site_id
 _symmetry_equiv_pos_as_xyz
  1  'x, y, z'
loop_
 _atom_site_type_symbol
 _atom_site_label
 _atom_site_symmetry_multiplicity
 _atom_site_fract_x
 _atom_site_fract_y
 _atom_site_fract_z
 _atom_site_occupancy
  K  K0  1  0.751732  0.248270  0.250000  1
  K  K1  1  0.253433  0.746569  0.750000  1
  Ce  Ce2  1  0.000324  0.999676  0.001198  1
  Ce  Ce3  1  0.000324  0.999676  0.498802  1
  Cu  Cu4  1  0.529627  0.470374  0.750000  1
  Au  Au5  1  0.465321  0.534680  0.250000  1
  Se  Se6  1  0.370628  0.629374  0.049427  1
  Se  Se7  1  0.076146  0.923856  0.250000  1
  Se  Se8  1  0.370628  0.629374  0.450573  1
  Se  Se9  1  0.623002  0.377000  0.565883  1
  Se  Se10  1  0.935842  0.064160  0.750000  1
  Se  Se11  1  0.623002  0.377000  0.934117  1
