# generated using pymatgen
data_TiCrCo20ReB6
_symmetry_space_group_name_H-M   'P 1'
_cell_length_a   7.38172629
_cell_length_b   7.38172654
_cell_length_c   7.38172700
_cell_angle_alpha   59.99999346
_cell_angle_beta   59.99999235
_cell_angle_gamma   59.99999342
_symmetry_Int_Tables_number   1
_chemical_formula_structural   TiCrCo20ReB6
_chemical_formula_sum   'Ti1 Cr1 Co20 Re1 B6'
_cell_volume   284.41913021
_cell_formula_units_Z   1
loop_
 _symmetry_equiv_pos_site_id
 _symmetry_equiv_pos_as_xyz
  1  'x, y, z'
loop_
 _atom_site_type_symbol
 _atom_site_label
 _atom_site_symmetry_multiplicity
 _atom_site_fract_x
 _atom_site_fract_y
 _atom_site_fract_z
 _atom_site_occupancy
  Ti  Ti0  1  0.750000  0.750000  0.750000  1
  Cr  Cr1  1  0.000000  0.000000  0.000000  1
  Co  Co2  1  0.617251  0.617251  0.148248  1
  Co  Co3  1  0.617251  0.148248  0.617251  1
  Co  Co4  1  0.148248  0.617251  0.617251  1
  Co  Co5  1  0.617251  0.617251  0.617251  1
  Co  Co6  1  0.380816  0.380816  0.857551  1
  Co  Co7  1  0.380816  0.857551  0.380816  1
  Co  Co8  1  0.857551  0.380816  0.380816  1
  Co  Co9  1  0.380816  0.380816  0.380816  1
  Co  Co10  1  0.000704  0.000704  0.337967  1
  Co  Co11  1  0.660624  0.000704  0.337967  1
  Co  Co12  1  0.000704  0.660624  0.337967  1
  Co  Co13  1  0.660624  0.337967  0.000704  1
  Co  Co14  1  0.000704  0.337967  0.000704  1
  Co  Co15  1  0.000704  0.337967  0.660624  1
  Co  Co16  1  0.337967  0.660624  0.000704  1
  Co  Co17  1  0.337967  0.000704  0.660624  1
  Co  Co18  1  0.337967  0.000704  0.000704  1
  Co  Co19  1  0.000704  0.000704  0.660624  1
  Co  Co20  1  0.000704  0.660624  0.000704  1
  Co  Co21  1  0.660624  0.000704  0.000704  1
  Re  Re22  1  0.250000  0.250000  0.250000  1
  B  B23  1  0.725382  0.725382  0.274618  1
  B  B24  1  0.274618  0.725382  0.274618  1
  B  B25  1  0.725382  0.274618  0.274618  1
  B  B26  1  0.274618  0.274618  0.725382  1
  B  B27  1  0.725382  0.274618  0.725382  1
  B  B28  1  0.274618  0.725382  0.725382  1
