# generated using pymatgen
data_Th4Ga24CuNi
_symmetry_space_group_name_H-M   'P 1'
_cell_length_a   6.12847500
_cell_length_b   6.12847500
_cell_length_c   15.29186600
_cell_angle_alpha   90.00000000
_cell_angle_beta   90.00000000
_cell_angle_gamma   90.00000000
_symmetry_Int_Tables_number   1
_chemical_formula_structural   Th4Ga24CuNi
_chemical_formula_sum   'Th4 Ga24 Cu1 Ni1'
_cell_volume   574.33505069
_cell_formula_units_Z   1
loop_
 _symmetry_equiv_pos_site_id
 _symmetry_equiv_pos_as_xyz
  1  'x, y, z'
loop_
 _atom_site_type_symbol
 _atom_site_label
 _atom_site_symmetry_multiplicity
 _atom_site_fract_x
 _atom_site_fract_y
 _atom_site_fract_z
 _atom_site_occupancy
  Th  Th0  1  0.500000  0.000000  0.242820  1
  Th  Th1  1  0.500000  0.000000  0.757180  1
  Th  Th2  1  0.000000  0.500000  0.754247  1
  Th  Th3  1  0.000000  0.500000  0.245753  1
  Ga  Ga4  1  0.330329  0.830329  0.428849  1
  Ga  Ga5  1  0.669671  0.169671  0.428849  1
  Ga  Ga6  1  0.330329  0.169671  0.571151  1
  Ga  Ga7  1  0.669671  0.830329  0.571151  1
  Ga  Ga8  1  0.170533  0.670533  0.570731  1
  Ga  Ga9  1  0.829467  0.329467  0.570731  1
  Ga  Ga10  1  0.829467  0.670533  0.429269  1
  Ga  Ga11  1  0.170533  0.329467  0.429269  1
  Ga  Ga12  1  0.245937  0.745937  0.915084  1
  Ga  Ga13  1  0.754063  0.254063  0.915084  1
  Ga  Ga14  1  0.245937  0.254063  0.084916  1
  Ga  Ga15  1  0.754063  0.745937  0.084916  1
  Ga  Ga16  1  0.244893  0.744893  0.084981  1
  Ga  Ga17  1  0.755107  0.255107  0.084981  1
  Ga  Ga18  1  0.755107  0.744893  0.915019  1
  Ga  Ga19  1  0.244893  0.255107  0.915019  1
  Ga  Ga20  1  0.500000  0.500000  0.341702  1
  Ga  Ga21  1  0.500000  0.500000  0.658298  1
  Ga  Ga22  1  0.000000  0.000000  0.658298  1
  Ga  Ga23  1  0.000000  0.000000  0.341702  1
  Ga  Ga24  1  0.500000  0.500000  0.181867  1
  Ga  Ga25  1  0.500000  0.500000  0.818133  1
  Ga  Ga26  1  0.000000  0.000000  0.818133  1
  Ga  Ga27  1  0.000000  0.000000  0.181867  1
  Cu  Cu28  1  0.500000  0.000000  0.000000  1
  Ni  Ni29  1  0.000000  0.500000  0.000000  1
