# generated using pymatgen
data_Tb2Ho8In8Pt3Rh
_symmetry_space_group_name_H-M   'P 1'
_cell_length_a   3.61577800
_cell_length_b   8.12164080
_cell_length_c   18.25980278
_cell_angle_alpha   90.05073549
_cell_angle_beta   90.00000000
_cell_angle_gamma   90.00000000
_symmetry_Int_Tables_number   1
_chemical_formula_structural   Tb2Ho8In8Pt3Rh
_chemical_formula_sum   'Tb2 Ho8 In8 Pt3 Rh1'
_cell_volume   536.21807357
_cell_formula_units_Z   1
loop_
 _symmetry_equiv_pos_site_id
 _symmetry_equiv_pos_as_xyz
  1  'x, y, z'
loop_
 _atom_site_type_symbol
 _atom_site_label
 _atom_site_symmetry_multiplicity
 _atom_site_fract_x
 _atom_site_fract_y
 _atom_site_fract_z
 _atom_site_occupancy
  Tb  Tb0  1  0.000000  0.999620  0.000046  1
  Tb  Tb1  1  0.000000  0.500524  0.499772  1
  Ho  Ho2  1  0.000000  0.115404  0.412201  1
  Ho  Ho3  1  0.000000  0.882284  0.585199  1
  Ho  Ho4  1  0.000000  0.382576  0.914872  1
  Ho  Ho5  1  0.000000  0.617221  0.086055  1
  Ho  Ho6  1  0.000000  0.238965  0.221568  1
  Ho  Ho7  1  0.000000  0.757996  0.779825  1
  Ho  Ho8  1  0.000000  0.257490  0.720663  1
  Ho  Ho9  1  0.000000  0.749546  0.279364  1
  In  In10  1  0.500000  0.423114  0.350463  1
  In  In11  1  0.500000  0.575585  0.649492  1
  In  In12  1  0.500000  0.076300  0.850578  1
  In  In13  1  0.500000  0.926982  0.150414  1
  In  In14  1  0.500000  0.292773  0.067336  1
  In  In15  1  0.500000  0.705423  0.933499  1
  In  In16  1  0.500000  0.206862  0.566417  1
  In  In17  1  0.500000  0.794797  0.431034  1
  Pt  Pt18  1  0.500000  0.974911  0.696379  1
  Pt  Pt19  1  0.500000  0.475735  0.803585  1
  Pt  Pt20  1  0.500000  0.523092  0.196800  1
  Rh  Rh21  1  0.500000  0.022797  0.304439  1
