# generated using pymatgen
data_Yb7Th(Si4Mo3)4
_symmetry_space_group_name_H-M   'P 1'
_cell_length_a   6.75989632
_cell_length_b   6.95570642
_cell_length_c   13.05925037
_cell_angle_alpha   90.10200930
_cell_angle_beta   90.07792928
_cell_angle_gamma   89.92194171
_symmetry_Int_Tables_number   1
_chemical_formula_structural   Yb7Th(Si4Mo3)4
_chemical_formula_sum   'Yb7 Th1 Si16 Mo12'
_cell_volume   614.04193907
_cell_formula_units_Z   1
loop_
 _symmetry_equiv_pos_site_id
 _symmetry_equiv_pos_as_xyz
  1  'x, y, z'
loop_
 _atom_site_type_symbol
 _atom_site_label
 _atom_site_symmetry_multiplicity
 _atom_site_fract_x
 _atom_site_fract_y
 _atom_site_fract_z
 _atom_site_occupancy
  Yb  Yb0  1  0.498173  0.334764  0.090234  1
  Yb  Yb1  1  0.998016  0.165512  0.409791  1
  Yb  Yb2  1  0.501252  0.666388  0.590871  1
  Yb  Yb3  1  0.001711  0.832303  0.905884  1
  Yb  Yb4  1  0.502144  0.666296  0.906932  1
  Yb  Yb5  1  0.001237  0.832951  0.590964  1
  Yb  Yb6  1  0.498035  0.335800  0.412083  1
  Th  Th7  1  0.999963  0.166821  0.091956  1
  Si  Si8  1  0.657782  0.042737  0.546134  1
  Si  Si9  1  0.160025  0.462230  0.951643  1
  Si  Si10  1  0.347866  0.952197  0.044903  1
  Si  Si11  1  0.842764  0.542427  0.454066  1
  Si  Si12  1  0.342073  0.957535  0.454653  1
  Si  Si13  1  0.839437  0.551123  0.044363  1
  Si  Si14  1  0.656231  0.041746  0.951151  1
  Si  Si15  1  0.157600  0.456669  0.546208  1
  Si  Si16  1  0.534777  0.371363  0.749680  1
  Si  Si17  1  0.034932  0.126724  0.749132  1
  Si  Si18  1  0.465854  0.629849  0.249704  1
  Si  Si19  1  0.964001  0.865522  0.253475  1
  Si  Si20  1  0.800255  0.629957  0.748988  1
  Si  Si21  1  0.301628  0.869400  0.749318  1
  Si  Si22  1  0.202855  0.373277  0.253827  1
  Si  Si23  1  0.691311  0.130782  0.254019  1
  Mo  Mo24  1  0.835168  0.331181  0.627760  1
  Mo  Mo25  1  0.332655  0.167584  0.872679  1
  Mo  Mo26  1  0.165333  0.667270  0.127460  1
  Mo  Mo27  1  0.664708  0.830526  0.372828  1
  Mo  Mo28  1  0.166903  0.668037  0.373164  1
  Mo  Mo29  1  0.669106  0.835922  0.127863  1
  Mo  Mo30  1  0.835972  0.331258  0.872575  1
  Mo  Mo31  1  0.333981  0.167967  0.627922  1
  Mo  Mo32  1  0.661224  0.008754  0.749314  1
  Mo  Mo33  1  0.161590  0.491159  0.749832  1
  Mo  Mo34  1  0.336686  0.992380  0.250345  1
  Mo  Mo35  1  0.836750  0.503588  0.248281  1
