# generated using pymatgen
data_Dy2Y(Co3P2)3
_symmetry_space_group_name_H-M   'P 1'
_cell_length_a   3.69302400
_cell_length_b   10.49316800
_cell_length_c   12.16092400
_cell_angle_alpha   90.00000000
_cell_angle_beta   90.00000000
_cell_angle_gamma   90.00000000
_symmetry_Int_Tables_number   1
_chemical_formula_structural   Dy2Y(Co3P2)3
_chemical_formula_sum   'Dy4 Y2 Co18 P12'
_cell_volume   471.25430493
_cell_formula_units_Z   2
loop_
 _symmetry_equiv_pos_site_id
 _symmetry_equiv_pos_as_xyz
  1  'x, y, z'
loop_
 _atom_site_type_symbol
 _atom_site_label
 _atom_site_symmetry_multiplicity
 _atom_site_fract_x
 _atom_site_fract_y
 _atom_site_fract_z
 _atom_site_occupancy
  Dy  Dy0  1  0.500000  0.817071  0.205720  1
  Dy  Dy1  1  0.500000  0.182929  0.205720  1
  Dy  Dy2  1  0.000000  0.682929  0.794280  1
  Dy  Dy3  1  0.000000  0.317071  0.794280  1
  Y  Y4  1  0.000000  0.500000  0.522043  1
  Y  Y5  1  0.500000  0.000000  0.477957  1
  Co  Co6  1  0.500000  0.500000  0.158693  1
  Co  Co7  1  0.000000  0.000000  0.841307  1
  Co  Co8  1  0.500000  0.500000  0.703594  1
  Co  Co9  1  0.000000  0.000000  0.296406  1
  Co  Co10  1  0.000000  0.500000  0.985903  1
  Co  Co11  1  0.500000  0.000000  0.014097  1
  Co  Co12  1  0.500000  0.333330  0.994675  1
  Co  Co13  1  0.500000  0.666670  0.994675  1
  Co  Co14  1  0.000000  0.166670  0.005325  1
  Co  Co15  1  0.000000  0.833330  0.005325  1
  Co  Co16  1  0.500000  0.297318  0.430537  1
  Co  Co17  1  0.500000  0.702682  0.430537  1
  Co  Co18  1  0.000000  0.202682  0.569463  1
  Co  Co19  1  0.000000  0.797318  0.569463  1
  Co  Co20  1  0.500000  0.879452  0.709796  1
  Co  Co21  1  0.500000  0.120548  0.709796  1
  Co  Co22  1  0.000000  0.620548  0.290204  1
  Co  Co23  1  0.000000  0.379452  0.290204  1
  P  P24  1  0.500000  0.500000  0.882589  1
  P  P25  1  0.000000  0.000000  0.117411  1
  P  P26  1  0.500000  0.500000  0.343553  1
  P  P27  1  0.000000  0.000000  0.656447  1
  P  P28  1  0.500000  0.310161  0.616136  1
  P  P29  1  0.500000  0.689839  0.616136  1
  P  P30  1  0.000000  0.189839  0.383864  1
  P  P31  1  0.000000  0.810161  0.383864  1
  P  P32  1  0.500000  0.847528  0.893269  1
  P  P33  1  0.500000  0.152472  0.893269  1
  P  P34  1  0.000000  0.652472  0.106731  1
  P  P35  1  0.000000  0.347528  0.106731  1
