# generated using pymatgen
data_Dy7Ho3Sn5Sb
_symmetry_space_group_name_H-M   'P 1'
_cell_length_a   8.96955400
_cell_length_b   8.96093337
_cell_length_c   6.49122100
_cell_angle_alpha   90.00161528
_cell_angle_beta   89.99899863
_cell_angle_gamma   120.03198550
_symmetry_Int_Tables_number   1
_chemical_formula_structural   Dy7Ho3Sn5Sb
_chemical_formula_sum   'Dy7 Ho3 Sn5 Sb1'
_cell_volume   451.69060494
_cell_formula_units_Z   1
loop_
 _symmetry_equiv_pos_site_id
 _symmetry_equiv_pos_as_xyz
  1  'x, y, z'
loop_
 _atom_site_type_symbol
 _atom_site_label
 _atom_site_symmetry_multiplicity
 _atom_site_fract_x
 _atom_site_fract_y
 _atom_site_fract_z
 _atom_site_occupancy
  Dy  Dy0  1  0.998027  0.760068  0.750016  1
  Dy  Dy1  1  0.000659  0.238959  0.249989  1
  Dy  Dy2  1  0.761721  0.761026  0.249982  1
  Dy  Dy3  1  0.761914  0.000016  0.750011  1
  Dy  Dy4  1  0.237973  0.239922  0.750014  1
  Dy  Dy5  1  0.239017  0.000012  0.249989  1
  Dy  Dy6  1  0.333148  0.665706  0.499829  1
  Ho  Ho7  1  0.667450  0.334303  0.000184  1
  Ho  Ho8  1  0.667454  0.334306  0.499815  1
  Ho  Ho9  1  0.333146  0.665698  0.000179  1
  Sn  Sn10  1  0.395692  0.394853  0.249943  1
  Sn  Sn11  1  0.000695  0.605073  0.249942  1
  Sn  Sn12  1  0.999758  0.395538  0.750055  1
  Sn  Sn13  1  0.604294  0.604384  0.750056  1
  Sn  Sn14  1  0.605329  0.000072  0.249946  1
  Sb  Sb15  1  0.393723  0.000064  0.750049  1
