# generated using pymatgen
data_Nd10Al3GaRu6
_symmetry_space_group_name_H-M   'P 1'
_cell_length_a   8.55359490
_cell_length_b   8.55359675
_cell_length_c   8.53215200
_cell_angle_alpha   109.42044426
_cell_angle_beta   109.42044864
_cell_angle_gamma   109.52194718
_symmetry_Int_Tables_number   1
_chemical_formula_structural   Nd10Al3GaRu6
_chemical_formula_sum   'Nd10 Al3 Ga1 Ru6'
_cell_volume   480.84587786
_cell_formula_units_Z   1
loop_
 _symmetry_equiv_pos_site_id
 _symmetry_equiv_pos_as_xyz
  1  'x, y, z'
loop_
 _atom_site_type_symbol
 _atom_site_label
 _atom_site_symmetry_multiplicity
 _atom_site_fract_x
 _atom_site_fract_y
 _atom_site_fract_z
 _atom_site_occupancy
  Nd  Nd0  1  0.250214  0.684931  0.435208  1
  Nd  Nd1  1  0.749417  0.815672  0.064976  1
  Nd  Nd2  1  0.434719  0.249786  0.684994  1
  Nd  Nd3  1  0.684328  0.433746  0.249304  1
  Nd  Nd4  1  0.066255  0.750583  0.815559  1
  Nd  Nd5  1  0.815069  0.065282  0.750276  1
  Nd  Nd6  1  0.213686  0.214222  0.213961  1
  Nd  Nd7  1  0.500001  0.000000  0.284773  1
  Nd  Nd8  1  0.285778  0.499465  0.999739  1
  Nd  Nd9  1  0.000536  0.286314  0.500276  1
  Al  Al10  1  0.588421  0.588056  0.588288  1
  Al  Al11  1  0.911944  0.500366  0.000232  1
  Al  Al12  1  0.999635  0.911579  0.499868  1
  Ga  Ga13  1  0.500001  0.000000  0.912688  1
  Ru  Ru14  1  0.248418  0.118468  0.867852  1
  Ru  Ru15  1  0.749823  0.381443  0.631484  1
  Ru  Ru16  1  0.870050  0.251584  0.119435  1
  Ru  Ru17  1  0.118556  0.868379  0.250042  1
  Ru  Ru18  1  0.631620  0.750177  0.381661  1
  Ru  Ru19  1  0.381531  0.629949  0.749385  1
