# generated using pymatgen
data_LuU7(SnIr2)4
_symmetry_space_group_name_H-M   'P 1'
_cell_length_a   7.60755489
_cell_length_b   7.60755517
_cell_length_c   7.16385000
_cell_angle_alpha   90.00000000
_cell_angle_beta   90.00000000
_cell_angle_gamma   90.68981725
_symmetry_Int_Tables_number   1
_chemical_formula_structural   LuU7(SnIr2)4
_chemical_formula_sum   'Lu1 U7 Sn4 Ir8'
_cell_volume   414.57700732
_cell_formula_units_Z   1
loop_
 _symmetry_equiv_pos_site_id
 _symmetry_equiv_pos_as_xyz
  1  'x, y, z'
loop_
 _atom_site_type_symbol
 _atom_site_label
 _atom_site_symmetry_multiplicity
 _atom_site_fract_x
 _atom_site_fract_y
 _atom_site_fract_z
 _atom_site_occupancy
  Lu  Lu0  1  0.679393  0.320607  0.500000  1
  U  U1  1  0.322347  0.677653  0.500000  1
  U  U2  1  0.182796  0.178698  0.000000  1
  U  U3  1  0.821302  0.817204  0.000000  1
  U  U4  1  0.848652  0.852844  0.500000  1
  U  U5  1  0.147156  0.151348  0.500000  1
  U  U6  1  0.350712  0.649288  0.000000  1
  U  U7  1  0.652974  0.347026  0.000000  1
  Sn  Sn8  1  0.502473  0.004568  0.254416  1
  Sn  Sn9  1  0.995432  0.497527  0.745584  1
  Sn  Sn10  1  0.502473  0.004568  0.745584  1
  Sn  Sn11  1  0.995432  0.497527  0.254416  1
  Ir  Ir12  1  0.870174  0.129826  0.213933  1
  Ir  Ir13  1  0.139292  0.860708  0.222586  1
  Ir  Ir14  1  0.356360  0.366398  0.726802  1
  Ir  Ir15  1  0.633602  0.643640  0.726802  1
  Ir  Ir16  1  0.139292  0.860708  0.777414  1
  Ir  Ir17  1  0.870174  0.129826  0.786067  1
  Ir  Ir18  1  0.633602  0.643640  0.273198  1
  Ir  Ir19  1  0.356360  0.366398  0.273198  1
