# generated using pymatgen
data_Lu7(AsSe3)2
_symmetry_space_group_name_H-M   'P 1'
_cell_length_a   7.99710900
_cell_length_b   7.99710850
_cell_length_c   7.99710900
_cell_angle_alpha   119.99999794
_cell_angle_beta   90.00000000
_cell_angle_gamma   119.99999794
_symmetry_Int_Tables_number   1
_chemical_formula_structural   Lu7(AsSe3)2
_chemical_formula_sum   'Lu7 As2 Se6'
_cell_volume   361.64631837
_cell_formula_units_Z   1
loop_
 _symmetry_equiv_pos_site_id
 _symmetry_equiv_pos_as_xyz
  1  'x, y, z'
loop_
 _atom_site_type_symbol
 _atom_site_label
 _atom_site_symmetry_multiplicity
 _atom_site_fract_x
 _atom_site_fract_y
 _atom_site_fract_z
 _atom_site_occupancy
  Lu  Lu0  1  0.250020  0.000000  0.250020  1
  Lu  Lu1  1  0.250020  0.500040  0.250020  1
  Lu  Lu2  1  0.749980  0.000000  0.250021  1
  Lu  Lu3  1  0.250001  0.500001  0.750002  1
  Lu  Lu4  1  0.250021  0.000000  0.749980  1
  Lu  Lu5  1  0.749980  0.000000  0.749980  1
  Lu  Lu6  1  0.749980  0.499959  0.749980  1
  As  As7  1  0.000000  0.000000  0.000000  1
  As  As8  1  0.500000  0.000000  0.500000  1
  Se  Se9  1  0.999965  0.999931  0.499967  1
  Se  Se10  1  0.999965  0.500001  0.499967  1
  Se  Se11  1  0.500036  0.500001  0.499967  1
  Se  Se12  1  0.999967  0.500001  0.000035  1
  Se  Se13  1  0.500034  0.500001  0.000035  1
  Se  Se14  1  0.500034  0.000068  0.000035  1
