# generated using pymatgen
data_Nd4CdRu
_symmetry_space_group_name_H-M   'P 1'
_cell_length_a   9.92828609
_cell_length_b   9.92828626
_cell_length_c   9.92828600
_cell_angle_alpha   60.00000087
_cell_angle_beta   60.00000031
_cell_angle_gamma   60.00000269
_symmetry_Int_Tables_number   1
_chemical_formula_structural   Nd4CdRu
_chemical_formula_sum   'Nd16 Cd4 Ru4'
_cell_volume   692.00282612
_cell_formula_units_Z   4
loop_
 _symmetry_equiv_pos_site_id
 _symmetry_equiv_pos_as_xyz
  1  'x, y, z'
loop_
 _atom_site_type_symbol
 _atom_site_label
 _atom_site_symmetry_multiplicity
 _atom_site_fract_x
 _atom_site_fract_y
 _atom_site_fract_z
 _atom_site_occupancy
  Nd  Nd0  1  0.596065  0.596065  0.596065  1
  Nd  Nd1  1  0.596065  0.596065  0.211806  1
  Nd  Nd2  1  0.596065  0.211806  0.596065  1
  Nd  Nd3  1  0.211806  0.596065  0.596065  1
  Nd  Nd4  1  0.060096  0.439904  0.439904  1
  Nd  Nd5  1  0.439904  0.060096  0.060096  1
  Nd  Nd6  1  0.439904  0.060096  0.439904  1
  Nd  Nd7  1  0.060096  0.439904  0.060096  1
  Nd  Nd8  1  0.439904  0.439904  0.060096  1
  Nd  Nd9  1  0.060096  0.060096  0.439904  1
  Nd  Nd10  1  0.188706  0.811294  0.811294  1
  Nd  Nd11  1  0.811294  0.188706  0.188706  1
  Nd  Nd12  1  0.811294  0.188706  0.811294  1
  Nd  Nd13  1  0.188706  0.811294  0.188706  1
  Nd  Nd14  1  0.811294  0.811294  0.188706  1
  Nd  Nd15  1  0.188706  0.188706  0.811294  1
  Cd  Cd16  1  0.829431  0.829431  0.829431  1
  Cd  Cd17  1  0.829431  0.829431  0.511707  1
  Cd  Cd18  1  0.829431  0.511707  0.829431  1
  Cd  Cd19  1  0.511707  0.829431  0.829431  1
  Ru  Ru20  1  0.388124  0.388124  0.388124  1
  Ru  Ru21  1  0.388124  0.388124  0.835627  1
  Ru  Ru22  1  0.388124  0.835627  0.388124  1
  Ru  Ru23  1  0.835627  0.388124  0.388124  1
