# generated using pymatgen
data_YHo11(TcPd)2
_symmetry_space_group_name_H-M   'P 1'
_cell_length_a   6.36182439
_cell_length_b   7.35911710
_cell_length_c   9.19853800
_cell_angle_alpha   90.00000000
_cell_angle_beta   90.00000000
_cell_angle_gamma   90.05618852
_symmetry_Int_Tables_number   1
_chemical_formula_structural   YHo11(TcPd)2
_chemical_formula_sum   'Y1 Ho11 Tc2 Pd2'
_cell_volume   430.65152435
_cell_formula_units_Z   1
loop_
 _symmetry_equiv_pos_site_id
 _symmetry_equiv_pos_as_xyz
  1  'x, y, z'
loop_
 _atom_site_type_symbol
 _atom_site_label
 _atom_site_symmetry_multiplicity
 _atom_site_fract_x
 _atom_site_fract_y
 _atom_site_fract_z
 _atom_site_occupancy
  Y  Y0  1  0.876918  0.529905  0.250000  1
  Ho  Ho1  1  0.628496  0.038884  0.250000  1
  Ho  Ho2  1  0.371622  0.961112  0.750000  1
  Ho  Ho3  1  0.123772  0.469423  0.750000  1
  Ho  Ho4  1  0.177320  0.185767  0.064147  1
  Ho  Ho5  1  0.822698  0.814100  0.935230  1
  Ho  Ho6  1  0.661290  0.326218  0.940287  1
  Ho  Ho7  1  0.822698  0.814100  0.564770  1
  Ho  Ho8  1  0.338690  0.673805  0.059252  1
  Ho  Ho9  1  0.177320  0.185767  0.435853  1
  Ho  Ho10  1  0.338690  0.673805  0.440748  1
  Ho  Ho11  1  0.661290  0.326218  0.559713  1
  Tc  Tc12  1  0.463486  0.382313  0.250000  1
  Tc  Tc13  1  0.534476  0.617206  0.750000  1
  Pd  Pd14  1  0.949164  0.112855  0.750000  1
  Pd  Pd15  1  0.052072  0.888519  0.250000  1
