# generated using pymatgen
data_Ba8AgBi5
_symmetry_space_group_name_H-M   'P 1'
_cell_length_a   9.31036089
_cell_length_b   9.31036008
_cell_length_c   9.31036038
_cell_angle_alpha   109.45478513
_cell_angle_beta   109.50409033
_cell_angle_gamma   109.45478862
_symmetry_Int_Tables_number   1
_chemical_formula_structural   Ba8AgBi5
_chemical_formula_sum   'Ba8 Ag1 Bi5'
_cell_volume   621.26587964
_cell_formula_units_Z   1
loop_
 _symmetry_equiv_pos_site_id
 _symmetry_equiv_pos_as_xyz
  1  'x, y, z'
loop_
 _atom_site_type_symbol
 _atom_site_label
 _atom_site_symmetry_multiplicity
 _atom_site_fract_x
 _atom_site_fract_y
 _atom_site_fract_z
 _atom_site_occupancy
  Ba  Ba0  1  0.490250  0.993371  0.627688  1
  Ba  Ba1  1  0.151075  0.505308  0.997024  1
  Ba  Ba2  1  0.372312  0.362562  0.365683  1
  Ba  Ba3  1  0.003121  0.137438  0.509750  1
  Ba  Ba4  1  0.854233  0.845949  0.848925  1
  Ba  Ba5  1  0.002976  0.654051  0.508284  1
  Ba  Ba6  1  0.491716  0.994692  0.145767  1
  Ba  Ba7  1  0.634317  0.506629  0.996879  1
  Ag  Ag8  1  0.875000  0.250000  0.125000  1
  Bi  Bi9  1  0.117307  0.869822  0.244450  1
  Bi  Bi10  1  0.374628  0.630178  0.747485  1
  Bi  Bi11  1  0.252515  0.127143  0.882693  1
  Bi  Bi12  1  0.755550  0.372857  0.625372  1
  Bi  Bi13  1  0.625000  0.750000  0.375000  1
