# generated using pymatgen
data_Hf6Ti3NbSi6
_symmetry_space_group_name_H-M   'P 1'
_cell_length_a   7.76114100
_cell_length_b   7.76114102
_cell_length_c   5.28022000
_cell_angle_alpha   90.00000000
_cell_angle_beta   90.00000000
_cell_angle_gamma   120.00000419
_symmetry_Int_Tables_number   1
_chemical_formula_structural   Hf6Ti3NbSi6
_chemical_formula_sum   'Hf6 Ti3 Nb1 Si6'
_cell_volume   275.44429339
_cell_formula_units_Z   1
loop_
 _symmetry_equiv_pos_site_id
 _symmetry_equiv_pos_as_xyz
  1  'x, y, z'
loop_
 _atom_site_type_symbol
 _atom_site_label
 _atom_site_symmetry_multiplicity
 _atom_site_fract_x
 _atom_site_fract_y
 _atom_site_fract_z
 _atom_site_occupancy
  Hf  Hf0  1  0.748866  0.749383  0.248888  1
  Hf  Hf1  1  0.748866  0.999482  0.751112  1
  Hf  Hf2  1  0.000518  0.251134  0.248888  1
  Hf  Hf3  1  0.250617  0.251134  0.751112  1
  Hf  Hf4  1  0.250617  0.999482  0.248888  1
  Hf  Hf5  1  0.000518  0.749383  0.751112  1
  Ti  Ti6  1  0.666667  0.333333  0.000000  1
  Ti  Ti7  1  0.666667  0.333333  0.500000  1
  Ti  Ti8  1  0.333333  0.666667  0.500000  1
  Nb  Nb9  1  0.333333  0.666667  0.000000  1
  Si  Si10  1  0.603873  0.001926  0.252748  1
  Si  Si11  1  0.603873  0.601947  0.747252  1
  Si  Si12  1  0.998074  0.396127  0.747252  1
  Si  Si13  1  0.998074  0.601947  0.252748  1
  Si  Si14  1  0.398053  0.396127  0.252748  1
  Si  Si15  1  0.398053  0.001926  0.747252  1
