# generated using pymatgen
data_Yb3Ho(IrRu3)2
_symmetry_space_group_name_H-M   'P 1'
_cell_length_a   5.20485210
_cell_length_b   5.20504091
_cell_length_c   9.00137400
_cell_angle_alpha   90.00133712
_cell_angle_beta   89.99795313
_cell_angle_gamma   119.99265666
_symmetry_Int_Tables_number   1
_chemical_formula_structural   Yb3Ho(IrRu3)2
_chemical_formula_sum   'Yb3 Ho1 Ir2 Ru6'
_cell_volume   211.20495853
_cell_formula_units_Z   1
loop_
 _symmetry_equiv_pos_site_id
 _symmetry_equiv_pos_as_xyz
  1  'x, y, z'
loop_
 _atom_site_type_symbol
 _atom_site_label
 _atom_site_symmetry_multiplicity
 _atom_site_fract_x
 _atom_site_fract_y
 _atom_site_fract_z
 _atom_site_occupancy
  Yb  Yb0  1  0.333345  0.666663  0.428982  1
  Yb  Yb1  1  0.333348  0.666658  0.065256  1
  Yb  Yb2  1  0.666660  0.333344  0.938438  1
  Ho  Ho3  1  0.666660  0.333350  0.568336  1
  Ir  Ir4  1  0.000035  0.999993  0.499326  1
  Ir  Ir5  1  0.000035  0.999992  0.999377  1
  Ru  Ru6  1  0.170646  0.341368  0.749495  1
  Ru  Ru7  1  0.170707  0.829280  0.749508  1
  Ru  Ru8  1  0.658625  0.829343  0.749493  1
  Ru  Ru9  1  0.829586  0.659171  0.250600  1
  Ru  Ru10  1  0.829537  0.170441  0.250588  1
  Ru  Ru11  1  0.340816  0.170398  0.250600  1
