# generated using pymatgen
data_YLu5TcOs
_symmetry_space_group_name_H-M   'P 1'
_cell_length_a   7.38018400
_cell_length_b   8.84603600
_cell_length_c   6.17596100
_cell_angle_alpha   90.00000000
_cell_angle_beta   90.00000000
_cell_angle_gamma   90.00000000
_symmetry_Int_Tables_number   1
_chemical_formula_structural   YLu5TcOs
_chemical_formula_sum   'Y2 Lu10 Tc2 Os2'
_cell_volume   403.19991968
_cell_formula_units_Z   2
loop_
 _symmetry_equiv_pos_site_id
 _symmetry_equiv_pos_as_xyz
  1  'x, y, z'
loop_
 _atom_site_type_symbol
 _atom_site_label
 _atom_site_symmetry_multiplicity
 _atom_site_fract_x
 _atom_site_fract_y
 _atom_site_fract_z
 _atom_site_occupancy
  Y  Y0  1  0.538032  0.250000  0.878896  1
  Y  Y1  1  0.038032  0.250000  0.621104  1
  Lu  Lu2  1  0.674630  0.059864  0.341171  1
  Lu  Lu3  1  0.174630  0.440136  0.158829  1
  Lu  Lu4  1  0.325064  0.564175  0.660945  1
  Lu  Lu5  1  0.825064  0.935825  0.839055  1
  Lu  Lu6  1  0.325064  0.935825  0.660945  1
  Lu  Lu7  1  0.825064  0.564175  0.839055  1
  Lu  Lu8  1  0.674630  0.440136  0.341171  1
  Lu  Lu9  1  0.174630  0.059864  0.158829  1
  Lu  Lu10  1  0.459677  0.750000  0.128667  1
  Lu  Lu11  1  0.959677  0.750000  0.371333  1
  Tc  Tc12  1  0.883235  0.250000  0.047174  1
  Tc  Tc13  1  0.383235  0.250000  0.452826  1
  Os  Os14  1  0.119666  0.750000  0.960782  1
  Os  Os15  1  0.619666  0.750000  0.539218  1
