# generated using pymatgen
data_Tb3(In2Pd)2
_symmetry_space_group_name_H-M   'P 1'
_cell_length_a   7.87988300
_cell_length_b   7.87988337
_cell_length_c   3.90909500
_cell_angle_alpha   90.00000000
_cell_angle_beta   90.00000000
_cell_angle_gamma   120.00000263
_symmetry_Int_Tables_number   1
_chemical_formula_structural   Tb3(In2Pd)2
_chemical_formula_sum   'Tb3 In4 Pd2'
_cell_volume   210.20662725
_cell_formula_units_Z   1
loop_
 _symmetry_equiv_pos_site_id
 _symmetry_equiv_pos_as_xyz
  1  'x, y, z'
loop_
 _atom_site_type_symbol
 _atom_site_label
 _atom_site_symmetry_multiplicity
 _atom_site_fract_x
 _atom_site_fract_y
 _atom_site_fract_z
 _atom_site_occupancy
  Tb  Tb0  1  0.388234  0.413266  0.500000  1
  Tb  Tb1  1  0.025032  0.611767  0.500000  1
  Tb  Tb2  1  0.586734  0.974968  0.500000  1
  In  In3  1  0.000149  0.255601  0.000000  1
  In  In4  1  0.666667  0.333334  0.000000  1
  In  In5  1  0.744398  0.744548  0.000000  1
  In  In6  1  0.255453  0.999851  0.000000  1
  Pd  Pd7  1  0.333334  0.666667  0.000000  1
  Pd  Pd8  1  0.000000  0.000000  0.500000  1
