# generated using pymatgen
data_Nd20AgIr7Ru4
_symmetry_space_group_name_H-M   'P 1'
_cell_length_a   11.26725359
_cell_length_b   11.26725348
_cell_length_c   6.64233157
_cell_angle_alpha   89.91577748
_cell_angle_beta   89.91577595
_cell_angle_gamma   89.95402378
_symmetry_Int_Tables_number   1
_chemical_formula_structural   Nd20AgIr7Ru4
_chemical_formula_sum   'Nd20 Ag1 Ir7 Ru4'
_cell_volume   843.24855772
_cell_formula_units_Z   1
loop_
 _symmetry_equiv_pos_site_id
 _symmetry_equiv_pos_as_xyz
  1  'x, y, z'
loop_
 _atom_site_type_symbol
 _atom_site_label
 _atom_site_symmetry_multiplicity
 _atom_site_fract_x
 _atom_site_fract_y
 _atom_site_fract_z
 _atom_site_occupancy
  Nd  Nd0  1  0.087023  0.291407  0.116369  1
  Nd  Nd1  1  0.793166  0.409867  0.115722  1
  Nd  Nd2  1  0.207796  0.577032  0.115899  1
  Nd  Nd3  1  0.903383  0.703751  0.114407  1
  Nd  Nd4  1  0.422968  0.792204  0.384101  1
  Nd  Nd5  1  0.590133  0.206834  0.384278  1
  Nd  Nd6  1  0.296249  0.096617  0.385593  1
  Nd  Nd7  1  0.708593  0.912977  0.383631  1
  Nd  Nd8  1  0.412109  0.207846  0.885685  1
  Nd  Nd9  1  0.704550  0.089026  0.882928  1
  Nd  Nd10  1  0.299970  0.915484  0.864848  1
  Nd  Nd11  1  0.589875  0.793597  0.885145  1
  Nd  Nd12  1  0.084516  0.700030  0.635152  1
  Nd  Nd13  1  0.910974  0.295450  0.617072  1
  Nd  Nd14  1  0.206403  0.410125  0.614855  1
  Nd  Nd15  1  0.792154  0.587891  0.614315  1
  Nd  Nd16  1  0.995357  0.004341  0.997260  1
  Nd  Nd17  1  0.501110  0.499925  0.999035  1
  Nd  Nd18  1  0.500075  0.498890  0.500965  1
  Nd  Nd19  1  0.995659  0.004643  0.502740  1
  Ag  Ag20  1  0.156604  0.843396  0.250000  1
  Ir  Ir21  1  0.347337  0.348083  0.249690  1
  Ir  Ir22  1  0.651917  0.652663  0.250310  1
  Ir  Ir23  1  0.845801  0.154199  0.250000  1
  Ir  Ir24  1  0.346458  0.653542  0.750000  1
  Ir  Ir25  1  0.150945  0.151924  0.748820  1
  Ir  Ir26  1  0.848076  0.849055  0.751180  1
  Ir  Ir27  1  0.652900  0.347100  0.750000  1
  Ru  Ru28  1  0.000385  0.502245  0.376514  1
  Ru  Ru29  1  0.497755  0.999615  0.123486  1
  Ru  Ru30  1  0.499314  0.999554  0.620755  1
  Ru  Ru31  1  0.000446  0.500686  0.879245  1
