# generated using pymatgen
data_Zr6Zn21CoSiPd
_symmetry_space_group_name_H-M   'P 1'
_cell_length_a   8.70294832
_cell_length_b   8.75891674
_cell_length_c   8.75891752
_cell_angle_alpha   60.35379282
_cell_angle_beta   60.21115880
_cell_angle_gamma   60.21115164
_symmetry_Int_Tables_number   1
_chemical_formula_structural   Zr6Zn21CoSiPd
_chemical_formula_sum   'Zr6 Zn21 Co1 Si1 Pd1'
_cell_volume   474.88250019
_cell_formula_units_Z   1
loop_
 _symmetry_equiv_pos_site_id
 _symmetry_equiv_pos_as_xyz
  1  'x, y, z'
loop_
 _atom_site_type_symbol
 _atom_site_label
 _atom_site_symmetry_multiplicity
 _atom_site_fract_x
 _atom_site_fract_y
 _atom_site_fract_z
 _atom_site_occupancy
  Zr  Zr0  1  0.712466  0.287534  0.287534  1
  Zr  Zr1  1  0.287534  0.712466  0.712466  1
  Zr  Zr2  1  0.293981  0.713871  0.286129  1
  Zr  Zr3  1  0.706019  0.286129  0.713871  1
  Zr  Zr4  1  0.293981  0.286129  0.713871  1
  Zr  Zr5  1  0.706019  0.713871  0.286129  1
  Zn  Zn6  1  0.133079  0.118711  0.118711  1
  Zn  Zn7  1  0.866921  0.881289  0.881289  1
  Zn  Zn8  1  0.122425  0.121539  0.633610  1
  Zn  Zn9  1  0.122425  0.633610  0.121539  1
  Zn  Zn10  1  0.877575  0.878461  0.366390  1
  Zn  Zn11  1  0.877575  0.366390  0.878461  1
  Zn  Zn12  1  0.629498  0.118711  0.118711  1
  Zn  Zn13  1  0.370502  0.881289  0.881289  1
  Zn  Zn14  1  0.000000  0.500000  0.500000  1
  Zn  Zn15  1  0.000000  0.500000  0.000000  1
  Zn  Zn16  1  0.500000  0.000000  0.500000  1
  Zn  Zn17  1  0.000000  0.000000  0.500000  1
  Zn  Zn18  1  0.500000  0.500000  0.000000  1
  Zn  Zn19  1  0.336755  0.337261  0.337261  1
  Zn  Zn20  1  0.663245  0.662739  0.662739  1
  Zn  Zn21  1  0.340780  0.326895  0.991545  1
  Zn  Zn22  1  0.340780  0.991545  0.326895  1
  Zn  Zn23  1  0.659220  0.673105  0.008455  1
  Zn  Zn24  1  0.659220  0.008455  0.673105  1
  Zn  Zn25  1  0.988724  0.337261  0.337261  1
  Zn  Zn26  1  0.011276  0.662739  0.662739  1
  Co  Co27  1  0.500000  0.000000  0.000000  1
  Si  Si28  1  0.500000  0.500000  0.500000  1
  Pd  Pd29  1  0.000000  0.000000  0.000000  1
