# generated using pymatgen
data_Y8LuSc10Si16Ag
_symmetry_space_group_name_H-M   'P 1'
_cell_length_a   7.05880471
_cell_length_b   7.41867954
_cell_length_c   14.08590100
_cell_angle_alpha   89.98732627
_cell_angle_beta   89.97421253
_cell_angle_gamma   89.98217693
_symmetry_Int_Tables_number   1
_chemical_formula_structural   Y8LuSc10Si16Ag
_chemical_formula_sum   'Y8 Lu1 Sc10 Si16 Ag1'
_cell_volume   737.63639175
_cell_formula_units_Z   1
loop_
 _symmetry_equiv_pos_site_id
 _symmetry_equiv_pos_as_xyz
  1  'x, y, z'
loop_
 _atom_site_type_symbol
 _atom_site_label
 _atom_site_symmetry_multiplicity
 _atom_site_fract_x
 _atom_site_fract_y
 _atom_site_fract_z
 _atom_site_occupancy
  Y  Y0  1  0.011210  0.175298  0.096690  1
  Y  Y1  1  0.989702  0.814728  0.902012  1
  Y  Y2  1  0.483746  0.673782  0.902174  1
  Y  Y3  1  0.989458  0.814105  0.599077  1
  Y  Y4  1  0.511167  0.323618  0.096789  1
  Y  Y5  1  0.011278  0.175175  0.403162  1
  Y  Y6  1  0.511438  0.323777  0.402305  1
  Y  Y7  1  0.484169  0.674617  0.598540  1
  Lu  Lu8  1  0.324970  0.184102  0.625591  1
  Sc  Sc9  1  0.838711  0.497519  0.249820  1
  Sc  Sc10  1  0.340332  0.002634  0.249639  1
  Sc  Sc11  1  0.657606  0.996867  0.750749  1
  Sc  Sc12  1  0.671639  0.822903  0.374130  1
  Sc  Sc13  1  0.170529  0.678942  0.372560  1
  Sc  Sc14  1  0.671620  0.823596  0.124974  1
  Sc  Sc15  1  0.835313  0.327305  0.626753  1
  Sc  Sc16  1  0.325480  0.182952  0.874099  1
  Sc  Sc17  1  0.837056  0.327101  0.874197  1
  Sc  Sc18  1  0.170758  0.678449  0.126098  1
  Si  Si19  1  0.025090  0.097908  0.752682  1
  Si  Si20  1  0.969058  0.886912  0.249542  1
  Si  Si21  1  0.467908  0.617070  0.249560  1
  Si  Si22  1  0.540230  0.386648  0.751997  1
  Si  Si23  1  0.287181  0.881382  0.751502  1
  Si  Si24  1  0.713919  0.126698  0.249846  1
  Si  Si25  1  0.212719  0.372833  0.249631  1
  Si  Si26  1  0.776804  0.629089  0.750645  1
  Si  Si27  1  0.156662  0.464764  0.529306  1
  Si  Si28  1  0.842269  0.536072  0.461121  1
  Si  Si29  1  0.346246  0.962748  0.459957  1
  Si  Si30  1  0.843595  0.535460  0.038572  1
  Si  Si31  1  0.662045  0.033030  0.538767  1
  Si  Si32  1  0.161112  0.459925  0.968974  1
  Si  Si33  1  0.656318  0.033939  0.959882  1
  Si  Si34  1  0.345303  0.965114  0.037542  1
  Ag  Ag35  1  0.157358  0.512937  0.751119  1
