# generated using pymatgen
data_DyHo7Tc2(B12Rh)2
_symmetry_space_group_name_H-M   'P 1'
_cell_length_a   3.67258500
_cell_length_b   9.13167257
_cell_length_c   11.51901130
_cell_angle_alpha   90.35799208
_cell_angle_beta   90.00000000
_cell_angle_gamma   90.00000000
_symmetry_Int_Tables_number   1
_chemical_formula_structural   DyHo7Tc2(B12Rh)2
_chemical_formula_sum   'Dy1 Ho7 Tc2 B24 Rh2'
_cell_volume   386.30374120
_cell_formula_units_Z   1
loop_
 _symmetry_equiv_pos_site_id
 _symmetry_equiv_pos_as_xyz
  1  'x, y, z'
loop_
 _atom_site_type_symbol
 _atom_site_label
 _atom_site_symmetry_multiplicity
 _atom_site_fract_x
 _atom_site_fract_y
 _atom_site_fract_z
 _atom_site_occupancy
  Dy  Dy0  1  0.500000  0.318942  0.410757  1
  Ho  Ho1  1  0.500000  0.681330  0.589319  1
  Ho  Ho2  1  0.500000  0.173361  0.917439  1
  Ho  Ho3  1  0.500000  0.826619  0.082520  1
  Ho  Ho4  1  0.500000  0.442137  0.126725  1
  Ho  Ho5  1  0.500000  0.557913  0.873210  1
  Ho  Ho6  1  0.500000  0.053837  0.628544  1
  Ho  Ho7  1  0.500000  0.945997  0.371516  1
  Tc  Tc8  1  0.500000  0.139074  0.180231  1
  Tc  Tc9  1  0.500000  0.860810  0.819661  1
  B  B10  1  0.000000  0.108290  0.470800  1
  B  B11  1  0.000000  0.891424  0.529285  1
  B  B12  1  0.000000  0.392438  0.970128  1
  B  B13  1  0.000000  0.607570  0.029853  1
  B  B14  1  0.000000  0.132245  0.314758  1
  B  B15  1  0.000000  0.867587  0.685132  1
  B  B16  1  0.000000  0.367398  0.816672  1
  B  B17  1  0.000000  0.632610  0.183332  1
  B  B18  1  0.000000  0.053274  0.067326  1
  B  B19  1  0.000000  0.946705  0.932656  1
  B  B20  1  0.000000  0.445728  0.566271  1
  B  B21  1  0.000000  0.554513  0.433859  1
  B  B22  1  0.000000  0.483873  0.287458  1
  B  B23  1  0.000000  0.516340  0.712457  1
  B  B24  1  0.000000  0.016528  0.787151  1
  B  B25  1  0.000000  0.983427  0.212837  1
  B  B26  1  0.000000  0.247927  0.080814  1
  B  B27  1  0.000000  0.752075  0.919157  1
  B  B28  1  0.000000  0.250775  0.579029  1
  B  B29  1  0.000000  0.749178  0.421192  1
  B  B30  1  0.000000  0.292622  0.234357  1
  B  B31  1  0.000000  0.707283  0.765474  1
  B  B32  1  0.000000  0.208678  0.734542  1
  B  B33  1  0.000000  0.791329  0.265481  1
  Rh  Rh34  1  0.500000  0.361977  0.678469  1
  Rh  Rh35  1  0.500000  0.638188  0.321586  1
