# generated using pymatgen
data_Er3CoI3
_symmetry_space_group_name_H-M   'P 1'
_cell_length_a   4.07114400
_cell_length_b   8.80541339
_cell_length_c   12.06997536
_cell_angle_alpha   94.53167084
_cell_angle_beta   90.00000000
_cell_angle_gamma   90.00000000
_symmetry_Int_Tables_number   1
_chemical_formula_structural   Er3CoI3
_chemical_formula_sum   'Er6 Co2 I6'
_cell_volume   431.33309814
_cell_formula_units_Z   2
loop_
 _symmetry_equiv_pos_site_id
 _symmetry_equiv_pos_as_xyz
  1  'x, y, z'
loop_
 _atom_site_type_symbol
 _atom_site_label
 _atom_site_symmetry_multiplicity
 _atom_site_fract_x
 _atom_site_fract_y
 _atom_site_fract_z
 _atom_site_occupancy
  Er  Er0  1  0.750000  0.265715  0.603960  1
  Er  Er1  1  0.250000  0.734285  0.396040  1
  Er  Er2  1  0.750000  0.878483  0.622001  1
  Er  Er3  1  0.250000  0.121517  0.377999  1
  Er  Er4  1  0.750000  0.893019  0.186428  1
  Er  Er5  1  0.250000  0.106981  0.813572  1
  Co  Co6  1  0.750000  0.934477  0.404871  1
  Co  Co7  1  0.250000  0.065523  0.595129  1
  I  I8  1  0.750000  0.414320  0.365087  1
  I  I9  1  0.250000  0.585680  0.634913  1
  I  I10  1  0.750000  0.863856  0.888667  1
  I  I11  1  0.250000  0.136144  0.111333  1
  I  I12  1  0.750000  0.364752  0.870562  1
  I  I13  1  0.250000  0.635248  0.129438  1
