# generated using pymatgen
data_La6Zn(SiSe7)2
_symmetry_space_group_name_H-M   'P 1'
_cell_length_a   10.81667200
_cell_length_b   10.81667186
_cell_length_c   6.08557400
_cell_angle_alpha   90.00000000
_cell_angle_beta   90.00000000
_cell_angle_gamma   120.00000654
_symmetry_Int_Tables_number   1
_chemical_formula_structural   La6Zn(SiSe7)2
_chemical_formula_sum   'La6 Zn1 Si2 Se14'
_cell_volume   616.62264019
_cell_formula_units_Z   1
loop_
 _symmetry_equiv_pos_site_id
 _symmetry_equiv_pos_as_xyz
  1  'x, y, z'
loop_
 _atom_site_type_symbol
 _atom_site_label
 _atom_site_symmetry_multiplicity
 _atom_site_fract_x
 _atom_site_fract_y
 _atom_site_fract_z
 _atom_site_occupancy
  La  La0  1  0.312152  0.102246  0.750076  1
  La  La1  1  0.790094  0.687848  0.750076  1
  La  La2  1  0.897754  0.209906  0.750076  1
  La  La3  1  0.021979  0.563949  0.249871  1
  La  La4  1  0.541970  0.978021  0.249871  1
  La  La5  1  0.436051  0.458030  0.249871  1
  Zn  Zn6  1  0.666667  0.333333  0.508144  1
  Si  Si7  1  0.000000  0.000000  0.164028  1
  Si  Si8  1  0.333333  0.666667  0.659357  1
  Se  Se9  1  0.000000  0.000000  0.536021  1
  Se  Se10  1  0.333333  0.666667  0.031759  1
  Se  Se11  1  0.421451  0.174258  0.276254  1
  Se  Se12  1  0.752807  0.578549  0.276254  1
  Se  Se13  1  0.825742  0.247193  0.276254  1
  Se  Se14  1  0.913142  0.495717  0.753980  1
  Se  Se15  1  0.582575  0.086858  0.753980  1
  Se  Se16  1  0.504283  0.417425  0.753980  1
  Se  Se17  1  0.145665  0.223999  0.017413  1
  Se  Se18  1  0.078333  0.854335  0.017413  1
  Se  Se19  1  0.776001  0.921667  0.017413  1
  Se  Se20  1  0.188314  0.442495  0.513978  1
  Se  Se21  1  0.254181  0.811686  0.513978  1
  Se  Se22  1  0.557505  0.745819  0.513978  1
