# generated using pymatgen
data_Ho8Si16RuW11
_symmetry_space_group_name_H-M   'P 1'
_cell_length_a   6.87245339
_cell_length_b   6.87245253
_cell_length_c   12.71619408
_cell_angle_alpha   89.97644544
_cell_angle_beta   90.02355656
_cell_angle_gamma   89.85214919
_symmetry_Int_Tables_number   1
_chemical_formula_structural   Ho8Si16RuW11
_chemical_formula_sum   'Ho8 Si16 Ru1 W11'
_cell_volume   600.59149745
_cell_formula_units_Z   1
loop_
 _symmetry_equiv_pos_site_id
 _symmetry_equiv_pos_as_xyz
  1  'x, y, z'
loop_
 _atom_site_type_symbol
 _atom_site_label
 _atom_site_symmetry_multiplicity
 _atom_site_fract_x
 _atom_site_fract_y
 _atom_site_fract_z
 _atom_site_occupancy
  Ho  Ho0  1  0.338167  0.999593  0.468825  1
  Ho  Ho1  1  0.500034  0.839401  0.719679  1
  Ho  Ho2  1  0.500433  0.160549  0.218196  1
  Ho  Ho3  1  0.839401  0.500034  0.280321  1
  Ho  Ho4  1  0.160549  0.500433  0.781804  1
  Ho  Ho5  1  0.660581  0.002678  0.968439  1
  Ho  Ho6  1  0.999593  0.338167  0.531175  1
  Ho  Ho7  1  0.002678  0.660581  0.031561  1
  Si  Si8  1  0.202439  0.128643  0.685314  1
  Si  Si9  1  0.376772  0.698769  0.935075  1
  Si  Si10  1  0.627759  0.299681  0.433360  1
  Si  Si11  1  0.698769  0.376772  0.064925  1
  Si  Si12  1  0.299681  0.627759  0.566640  1
  Si  Si13  1  0.799473  0.871560  0.182934  1
  Si  Si14  1  0.128643  0.202439  0.314686  1
  Si  Si15  1  0.871560  0.799473  0.817066  1
  Si  Si16  1  0.284908  0.962758  0.062947  1
  Si  Si17  1  0.538259  0.789747  0.314478  1
  Si  Si18  1  0.459656  0.212674  0.817044  1
  Si  Si19  1  0.789747  0.538259  0.685522  1
  Si  Si20  1  0.212674  0.459656  0.182956  1
  Si  Si21  1  0.711112  0.037367  0.564004  1
  Si  Si22  1  0.962758  0.284908  0.937053  1
  Si  Si23  1  0.037367  0.711112  0.435996  1
  Ru  Ru24  1  0.329684  0.329684  0.000000  1
  W  W25  1  0.167298  0.831258  0.250171  1
  W  W26  1  0.831258  0.167298  0.749829  1
  W  W27  1  0.669057  0.669057  0.500000  1
  W  W28  1  0.163760  0.992048  0.873856  1
  W  W29  1  0.501719  0.665238  0.124928  1
  W  W30  1  0.500053  0.336245  0.625213  1
  W  W31  1  0.665238  0.501719  0.875072  1
  W  W32  1  0.336245  0.500053  0.374787  1
  W  W33  1  0.839006  0.001619  0.373252  1
  W  W34  1  0.992048  0.163760  0.126144  1
  W  W35  1  0.001619  0.839006  0.626748  1
