# generated using pymatgen
data_PrPa3(GeIr)4
_symmetry_space_group_name_H-M   'P 1'
_cell_length_a   4.35092000
_cell_length_b   7.67863741
_cell_length_c   7.10262547
_cell_angle_alpha   90.25119682
_cell_angle_beta   90.00000000
_cell_angle_gamma   90.00000000
_symmetry_Int_Tables_number   1
_chemical_formula_structural   PrPa3(GeIr)4
_chemical_formula_sum   'Pr1 Pa3 Ge4 Ir4'
_cell_volume   237.29030734
_cell_formula_units_Z   1
loop_
 _symmetry_equiv_pos_site_id
 _symmetry_equiv_pos_as_xyz
  1  'x, y, z'
loop_
 _atom_site_type_symbol
 _atom_site_label
 _atom_site_symmetry_multiplicity
 _atom_site_fract_x
 _atom_site_fract_y
 _atom_site_fract_z
 _atom_site_occupancy
  Pr  Pr0  1  0.750000  0.296561  0.010316  1
  Pa  Pa1  1  0.250000  0.795151  0.493308  1
  Pa  Pa2  1  0.250000  0.710538  0.993586  1
  Pa  Pa3  1  0.750000  0.198778  0.507422  1
  Ge  Ge4  1  0.250000  0.089390  0.806784  1
  Ge  Ge5  1  0.250000  0.416109  0.317889  1
  Ge  Ge6  1  0.750000  0.915836  0.180045  1
  Ge  Ge7  1  0.750000  0.581215  0.692578  1
  Ir  Ir8  1  0.250000  0.075915  0.245062  1
  Ir  Ir9  1  0.250000  0.413931  0.699037  1
  Ir  Ir10  1  0.750000  0.908696  0.768698  1
  Ir  Ir11  1  0.750000  0.597881  0.285274  1
