# generated using pymatgen
data_Np2AlTcB8
_symmetry_space_group_name_H-M   'P 1'
_cell_length_a   5.93213065
_cell_length_b   5.93213038
_cell_length_c   3.56339000
_cell_angle_alpha   90.00000000
_cell_angle_beta   90.00000000
_cell_angle_gamma   104.07516136
_symmetry_Int_Tables_number   1
_chemical_formula_structural   Np2AlTcB8
_chemical_formula_sum   'Np2 Al1 Tc1 B8'
_cell_volume   121.63160229
_cell_formula_units_Z   1
loop_
 _symmetry_equiv_pos_site_id
 _symmetry_equiv_pos_as_xyz
  1  'x, y, z'
loop_
 _atom_site_type_symbol
 _atom_site_label
 _atom_site_symmetry_multiplicity
 _atom_site_fract_x
 _atom_site_fract_y
 _atom_site_fract_z
 _atom_site_occupancy
  Np  Np0  1  0.198360  0.802708  0.000000  1
  Np  Np1  1  0.802708  0.198360  0.000000  1
  Al  Al2  1  0.318598  0.318598  0.000000  1
  Tc  Tc3  1  0.671654  0.671654  0.000000  1
  B  B4  1  0.883587  0.566799  0.500000  1
  B  B5  1  0.409577  0.596817  0.500000  1
  B  B6  1  0.876702  0.876702  0.500000  1
  B  B7  1  0.566799  0.883587  0.500000  1
  B  B8  1  0.437806  0.117626  0.500000  1
  B  B9  1  0.119767  0.119767  0.500000  1
  B  B10  1  0.596817  0.409577  0.500000  1
  B  B11  1  0.117626  0.437806  0.500000  1
