# generated using pymatgen
data_Pa4TiAlRh10
_symmetry_space_group_name_H-M   'P 1'
_cell_length_a   4.18369600
_cell_length_b   5.79512606
_cell_length_c   11.41932494
_cell_angle_alpha   90.12611518
_cell_angle_beta   90.00000000
_cell_angle_gamma   90.00000000
_symmetry_Int_Tables_number   1
_chemical_formula_structural   Pa4TiAlRh10
_chemical_formula_sum   'Pa4 Ti1 Al1 Rh10'
_cell_volume   276.86138454
_cell_formula_units_Z   1
loop_
 _symmetry_equiv_pos_site_id
 _symmetry_equiv_pos_as_xyz
  1  'x, y, z'
loop_
 _atom_site_type_symbol
 _atom_site_label
 _atom_site_symmetry_multiplicity
 _atom_site_fract_x
 _atom_site_fract_y
 _atom_site_fract_z
 _atom_site_occupancy
  Pa  Pa0  1  0.500000  0.322712  0.140379  1
  Pa  Pa1  1  0.500000  0.677288  0.859621  1
  Pa  Pa2  1  0.500000  0.828079  0.356855  1
  Pa  Pa3  1  0.500000  0.171921  0.643145  1
  Ti  Ti4  1  0.000000  0.500000  0.500000  1
  Al  Al5  1  0.000000  0.000000  0.000000  1
  Rh  Rh6  1  0.000000  0.000000  0.500000  1
  Rh  Rh7  1  0.000000  0.500000  0.000000  1
  Rh  Rh8  1  0.000000  0.073791  0.240985  1
  Rh  Rh9  1  0.000000  0.926209  0.759015  1
  Rh  Rh10  1  0.000000  0.575189  0.252978  1
  Rh  Rh11  1  0.000000  0.424811  0.747022  1
  Rh  Rh12  1  0.500000  0.320369  0.396963  1
  Rh  Rh13  1  0.500000  0.679631  0.603037  1
  Rh  Rh14  1  0.500000  0.812716  0.106440  1
  Rh  Rh15  1  0.500000  0.187284  0.893560  1
