# generated using pymatgen
data_YTh2Mg2AlIr3
_symmetry_space_group_name_H-M   'P 1'
_cell_length_a   7.32253323
_cell_length_b   7.46581977
_cell_length_c   4.05757800
_cell_angle_alpha   90.00000000
_cell_angle_beta   90.00000000
_cell_angle_gamma   119.70591259
_symmetry_Int_Tables_number   1
_chemical_formula_structural   YTh2Mg2AlIr3
_chemical_formula_sum   'Y1 Th2 Mg2 Al1 Ir3'
_cell_volume   192.67073136
_cell_formula_units_Z   1
loop_
 _symmetry_equiv_pos_site_id
 _symmetry_equiv_pos_as_xyz
  1  'x, y, z'
loop_
 _atom_site_type_symbol
 _atom_site_label
 _atom_site_symmetry_multiplicity
 _atom_site_fract_x
 _atom_site_fract_y
 _atom_site_fract_z
 _atom_site_occupancy
  Y  Y0  1  0.409058  0.008001  0.500000  1
  Th  Th1  1  0.004357  0.416078  0.500000  1
  Th  Th2  1  0.574056  0.571351  0.500000  1
  Mg  Mg3  1  0.748392  0.998446  0.000000  1
  Mg  Mg4  1  0.008663  0.769078  0.000000  1
  Al  Al5  1  0.236503  0.229815  0.000000  1
  Ir  Ir6  1  0.329069  0.635429  0.000000  1
  Ir  Ir7  1  0.670370  0.346511  0.000000  1
  Ir  Ir8  1  0.019533  0.025290  0.500000  1
