# generated using pymatgen
data_Lu3Hf5Pt4
_symmetry_space_group_name_H-M   'P 1'
_cell_length_a   4.61060600
_cell_length_b   6.86374581
_cell_length_c   8.14921502
_cell_angle_alpha   89.66129116
_cell_angle_beta   90.00000000
_cell_angle_gamma   90.00000000
_symmetry_Int_Tables_number   1
_chemical_formula_structural   Lu3Hf5Pt4
_chemical_formula_sum   'Lu3 Hf5 Pt4'
_cell_volume   257.88577732
_cell_formula_units_Z   1
loop_
 _symmetry_equiv_pos_site_id
 _symmetry_equiv_pos_as_xyz
  1  'x, y, z'
loop_
 _atom_site_type_symbol
 _atom_site_label
 _atom_site_symmetry_multiplicity
 _atom_site_fract_x
 _atom_site_fract_y
 _atom_site_fract_z
 _atom_site_occupancy
  Lu  Lu0  1  0.250000  0.483147  0.181103  1
  Lu  Lu1  1  0.750000  0.014147  0.676129  1
  Lu  Lu2  1  0.750000  0.515337  0.819211  1
  Hf  Hf3  1  0.250000  0.850216  0.924544  1
  Hf  Hf4  1  0.250000  0.348287  0.579146  1
  Hf  Hf5  1  0.750000  0.144986  0.081012  1
  Hf  Hf6  1  0.750000  0.654062  0.419481  1
  Hf  Hf7  1  0.250000  0.987982  0.328567  1
  Pt  Pt8  1  0.250000  0.235901  0.905331  1
  Pt  Pt9  1  0.250000  0.741399  0.591281  1
  Pt  Pt10  1  0.750000  0.761946  0.094017  1
  Pt  Pt11  1  0.750000  0.262589  0.400177  1
