# generated using pymatgen
data_Pr2Dy3Er3(WO6)4
_symmetry_space_group_name_H-M   'P 1'
_cell_length_a   5.45147526
_cell_length_b   7.77565510
_cell_length_c   11.52825847
_cell_angle_alpha   75.63882530
_cell_angle_beta   89.99585819
_cell_angle_gamma   89.96522636
_symmetry_Int_Tables_number   1
_chemical_formula_structural   Pr2Dy3Er3(WO6)4
_chemical_formula_sum   'Pr2 Dy3 Er3 W4 O24'
_cell_volume   473.39866234
_cell_formula_units_Z   1
loop_
 _symmetry_equiv_pos_site_id
 _symmetry_equiv_pos_as_xyz
  1  'x, y, z'
loop_
 _atom_site_type_symbol
 _atom_site_label
 _atom_site_symmetry_multiplicity
 _atom_site_fract_x
 _atom_site_fract_y
 _atom_site_fract_z
 _atom_site_occupancy
  Pr  Pr0  1  0.685734  0.500458  0.249567  1
  Pr  Pr1  1  0.314470  0.500122  0.750080  1
  Dy  Dy2  1  0.185480  0.202688  0.423409  1
  Dy  Dy3  1  0.743085  0.999750  0.249534  1
  Dy  Dy4  1  0.257016  0.999774  0.750406  1
  Er  Er5  1  0.185033  0.796856  0.077047  1
  Er  Er6  1  0.814717  0.796524  0.577189  1
  Er  Er7  1  0.814944  0.203086  0.923046  1
  W  W8  1  0.254336  0.271727  0.115424  1
  W  W9  1  0.254089  0.728576  0.384196  1
  W  W10  1  0.745910  0.728381  0.884212  1
  W  W11  1  0.746027  0.271823  0.616273  1
  O  O12  1  0.455207  0.204502  0.272701  1
  O  O13  1  0.453571  0.796145  0.226106  1
  O  O14  1  0.546281  0.795824  0.726256  1
  O  O15  1  0.546416  0.204400  0.774153  1
  O  O16  1  0.045120  0.057867  0.103127  1
  O  O17  1  0.042884  0.940476  0.396720  1
  O  O18  1  0.955122  0.941994  0.896854  1
  O  O19  1  0.954683  0.057631  0.603744  1
  O  O20  1  0.986117  0.279099  0.230129  1
  O  O21  1  0.986927  0.720795  0.268654  1
  O  O22  1  0.013330  0.721179  0.768964  1
  O  O23  1  0.013806  0.278823  0.731148  1
  O  O24  1  0.853367  0.358587  0.454729  1
  O  O25  1  0.855960  0.642454  0.045404  1
  O  O26  1  0.144285  0.642222  0.545525  1
  O  O27  1  0.144107  0.357721  0.954361  1
  O  O28  1  0.653680  0.506962  0.613035  1
  O  O29  1  0.654117  0.493436  0.887343  1
  O  O30  1  0.347322  0.494200  0.387234  1
  O  O31  1  0.345839  0.506725  0.112646  1
  O  O32  1  0.465200  0.155397  0.570197  1
  O  O33  1  0.463526  0.843448  0.931104  1
  O  O34  1  0.535883  0.844075  0.431092  1
  O  O35  1  0.536408  0.156271  0.068390  1
