# generated using pymatgen
data_Sm8Hf11Si16W
_symmetry_space_group_name_H-M   'P 1'
_cell_length_a   7.31203230
_cell_length_b   7.31203244
_cell_length_c   13.43320805
_cell_angle_alpha   89.89825150
_cell_angle_beta   90.10174645
_cell_angle_gamma   90.09233737
_symmetry_Int_Tables_number   1
_chemical_formula_structural   Sm8Hf11Si16W
_chemical_formula_sum   'Sm8 Hf11 Si16 W1'
_cell_volume   718.21425483
_cell_formula_units_Z   1
loop_
 _symmetry_equiv_pos_site_id
 _symmetry_equiv_pos_as_xyz
  1  'x, y, z'
loop_
 _atom_site_type_symbol
 _atom_site_label
 _atom_site_symmetry_multiplicity
 _atom_site_fract_x
 _atom_site_fract_y
 _atom_site_fract_z
 _atom_site_occupancy
  Sm  Sm0  1  0.998010  0.342657  0.212408  1
  Sm  Sm1  1  0.005095  0.657168  0.716687  1
  Sm  Sm2  1  0.157714  0.494412  0.465556  1
  Sm  Sm3  1  0.502527  0.844585  0.034025  1
  Sm  Sm4  1  0.844585  0.502527  0.965975  1
  Sm  Sm5  1  0.494412  0.157714  0.534444  1
  Sm  Sm6  1  0.342657  0.998010  0.787592  1
  Sm  Sm7  1  0.657168  0.005095  0.283313  1
  Hf  Hf8  1  0.825800  0.825800  0.500000  1
  Hf  Hf9  1  0.323929  0.674682  0.248802  1
  Hf  Hf10  1  0.674682  0.323929  0.751198  1
  Hf  Hf11  1  0.148493  0.995887  0.373152  1
  Hf  Hf12  1  0.852902  0.005963  0.877482  1
  Hf  Hf13  1  0.505416  0.649448  0.624557  1
  Hf  Hf14  1  0.347637  0.491411  0.878054  1
  Hf  Hf15  1  0.491411  0.347637  0.121946  1
  Hf  Hf16  1  0.649448  0.505416  0.375443  1
  Hf  Hf17  1  0.995887  0.148493  0.626848  1
  Hf  Hf18  1  0.005963  0.852902  0.122518  1
  Si  Si19  1  0.364305  0.296304  0.314717  1
  Si  Si20  1  0.635380  0.704074  0.816498  1
  Si  Si21  1  0.204291  0.864351  0.565803  1
  Si  Si22  1  0.136071  0.798029  0.934432  1
  Si  Si23  1  0.798029  0.136071  0.065568  1
  Si  Si24  1  0.864351  0.204291  0.434197  1
  Si  Si25  1  0.296304  0.364305  0.685283  1
  Si  Si26  1  0.704074  0.635380  0.183502  1
  Si  Si27  1  0.291944  0.051734  0.182257  1
  Si  Si28  1  0.706021  0.951221  0.686456  1
  Si  Si29  1  0.450079  0.793290  0.435081  1
  Si  Si30  1  0.205933  0.546984  0.063942  1
  Si  Si31  1  0.546984  0.205933  0.936058  1
  Si  Si32  1  0.793290  0.450079  0.564919  1
  Si  Si33  1  0.051734  0.291944  0.817743  1
  Si  Si34  1  0.951221  0.706021  0.313544  1
  W  W35  1  0.176257  0.176257  0.000000  1
