# generated using pymatgen
data_Ba6Sc2TiFe2PdO18
_symmetry_space_group_name_H-M   'P 1'
_cell_length_a   5.82898900
_cell_length_b   5.82898877
_cell_length_c   14.27558300
_cell_angle_alpha   90.00000000
_cell_angle_beta   90.00000000
_cell_angle_gamma   120.00000697
_symmetry_Int_Tables_number   1
_chemical_formula_structural   Ba6Sc2TiFe2PdO18
_chemical_formula_sum   'Ba6 Sc2 Ti1 Fe2 Pd1 O18'
_cell_volume   420.05959479
_cell_formula_units_Z   1
loop_
 _symmetry_equiv_pos_site_id
 _symmetry_equiv_pos_as_xyz
  1  'x, y, z'
loop_
 _atom_site_type_symbol
 _atom_site_label
 _atom_site_symmetry_multiplicity
 _atom_site_fract_x
 _atom_site_fract_y
 _atom_site_fract_z
 _atom_site_occupancy
  Ba  Ba0  1  0.666667  0.333333  0.416269  1
  Ba  Ba1  1  0.333333  0.666667  0.595315  1
  Ba  Ba2  1  0.333333  0.666667  0.915179  1
  Ba  Ba3  1  0.666667  0.333333  0.093940  1
  Ba  Ba4  1  0.000000  0.000000  0.248051  1
  Ba  Ba5  1  0.000000  0.000000  0.751821  1
  Sc  Sc6  1  0.000000  0.000000  0.500664  1
  Sc  Sc7  1  0.000000  0.000000  0.003541  1
  Ti  Ti8  1  0.333333  0.666667  0.348895  1
  Fe  Fe9  1  0.333333  0.666667  0.156831  1
  Fe  Fe10  1  0.666667  0.333333  0.848230  1
  Pd  Pd11  1  0.666667  0.333333  0.661054  1
  O  O12  1  0.659099  0.829549  0.411231  1
  O  O13  1  0.170451  0.829549  0.411231  1
  O  O14  1  0.170451  0.340901  0.411231  1
  O  O15  1  0.339554  0.169778  0.580713  1
  O  O16  1  0.830222  0.169778  0.580713  1
  O  O17  1  0.830222  0.660446  0.580713  1
  O  O18  1  0.347298  0.173649  0.915404  1
  O  O19  1  0.826351  0.173649  0.915404  1
  O  O20  1  0.826351  0.652702  0.915404  1
  O  O21  1  0.652057  0.826028  0.082449  1
  O  O22  1  0.173972  0.826028  0.082449  1
  O  O23  1  0.173972  0.347943  0.082449  1
  O  O24  1  0.041716  0.520858  0.241653  1
  O  O25  1  0.479142  0.520858  0.241653  1
  O  O26  1  0.479142  0.958284  0.241653  1
  O  O27  1  0.965469  0.482734  0.755286  1
  O  O28  1  0.517266  0.482734  0.755286  1
  O  O29  1  0.517266  0.034531  0.755286  1
