# generated using pymatgen
data_Y2Ga9Ir2Pd
_symmetry_space_group_name_H-M   'P 1'
_cell_length_a   7.62627172
_cell_length_b   7.62627211
_cell_length_c   9.51519700
_cell_angle_alpha   90.00000000
_cell_angle_beta   90.00000000
_cell_angle_gamma   119.80869052
_symmetry_Int_Tables_number   1
_chemical_formula_structural   Y2Ga9Ir2Pd
_chemical_formula_sum   'Y4 Ga18 Ir4 Pd2'
_cell_volume   480.18322101
_cell_formula_units_Z   2
loop_
 _symmetry_equiv_pos_site_id
 _symmetry_equiv_pos_as_xyz
  1  'x, y, z'
loop_
 _atom_site_type_symbol
 _atom_site_label
 _atom_site_symmetry_multiplicity
 _atom_site_fract_x
 _atom_site_fract_y
 _atom_site_fract_z
 _atom_site_occupancy
  Y  Y0  1  0.996620  0.669322  0.250000  1
  Y  Y1  1  0.003380  0.330678  0.750000  1
  Y  Y2  1  0.669322  0.996620  0.250000  1
  Y  Y3  1  0.330678  0.003380  0.750000  1
  Ga  Ga4  1  0.128640  0.128640  0.250000  1
  Ga  Ga5  1  0.871360  0.871360  0.750000  1
  Ga  Ga6  1  0.999204  0.337343  0.081005  1
  Ga  Ga7  1  0.000796  0.662657  0.918995  1
  Ga  Ga8  1  0.000796  0.662657  0.581005  1
  Ga  Ga9  1  0.337343  0.999204  0.418995  1
  Ga  Ga10  1  0.999204  0.337343  0.418995  1
  Ga  Ga11  1  0.662657  0.000796  0.581005  1
  Ga  Ga12  1  0.662657  0.000796  0.918995  1
  Ga  Ga13  1  0.337343  0.999204  0.081005  1
  Ga  Ga14  1  0.335351  0.335351  0.566916  1
  Ga  Ga15  1  0.664649  0.664649  0.433084  1
  Ga  Ga16  1  0.664649  0.664649  0.066916  1
  Ga  Ga17  1  0.335351  0.335351  0.933084  1
  Ga  Ga18  1  0.337760  0.546004  0.250000  1
  Ga  Ga19  1  0.662240  0.453996  0.750000  1
  Ga  Ga20  1  0.546004  0.337760  0.250000  1
  Ga  Ga21  1  0.453996  0.662240  0.750000  1
  Ir  Ir22  1  0.671411  0.328589  0.000000  1
  Ir  Ir23  1  0.328589  0.671411  0.000000  1
  Ir  Ir24  1  0.328589  0.671411  0.500000  1
  Ir  Ir25  1  0.671411  0.328589  0.500000  1
  Pd  Pd26  1  0.000000  0.000000  0.000000  1
  Pd  Pd27  1  0.000000  0.000000  0.500000  1
