# generated using pymatgen
data_Cs2VFeSe4
_symmetry_space_group_name_H-M   'P 1'
_cell_length_a   7.63334575
_cell_length_b   7.63334642
_cell_length_c   5.70973742
_cell_angle_alpha   79.34769633
_cell_angle_beta   79.34769562
_cell_angle_gamma   117.90721498
_symmetry_Int_Tables_number   1
_chemical_formula_structural   Cs2VFeSe4
_chemical_formula_sum   'Cs2 V1 Fe1 Se4'
_cell_volume   274.47112197
_cell_formula_units_Z   1
loop_
 _symmetry_equiv_pos_site_id
 _symmetry_equiv_pos_as_xyz
  1  'x, y, z'
loop_
 _atom_site_type_symbol
 _atom_site_label
 _atom_site_symmetry_multiplicity
 _atom_site_fract_x
 _atom_site_fract_y
 _atom_site_fract_z
 _atom_site_occupancy
  Cs  Cs0  1  0.145699  0.854301  0.000000  1
  Cs  Cs1  1  0.854445  0.145555  0.500000  1
  V  V2  1  0.501438  0.498562  0.000000  1
  Fe  Fe3  1  0.498233  0.501767  0.500000  1
  Se  Se4  1  0.214842  0.417928  0.852680  1
  Se  Se5  1  0.582072  0.785158  0.147320  1
  Se  Se6  1  0.785036  0.581766  0.663800  1
  Se  Se7  1  0.418234  0.214964  0.336200  1
