# generated using pymatgen
data_Bi4PbBr3
_symmetry_space_group_name_H-M   'P 1'
_cell_length_a   23.69323212
_cell_length_b   23.69323210
_cell_length_c   6.66750400
_cell_angle_alpha   80.05412682
_cell_angle_beta   80.05412683
_cell_angle_gamma   14.04688054
_symmetry_Int_Tables_number   1
_chemical_formula_structural   Bi4PbBr3
_chemical_formula_sum   'Bi12 Pb3 Br9'
_cell_volume   894.60651873
_cell_formula_units_Z   3
loop_
 _symmetry_equiv_pos_site_id
 _symmetry_equiv_pos_as_xyz
  1  'x, y, z'
loop_
 _atom_site_type_symbol
 _atom_site_label
 _atom_site_symmetry_multiplicity
 _atom_site_fract_x
 _atom_site_fract_y
 _atom_site_fract_z
 _atom_site_occupancy
  Bi  Bi0  1  0.092367  0.092367  0.023912  1
  Bi  Bi1  1  0.738626  0.738626  0.012016  1
  Bi  Bi2  1  0.244968  0.244968  0.516374  1
  Bi  Bi3  1  0.235784  0.235784  0.026712  1
  Bi  Bi4  1  0.744235  0.744235  0.515909  1
  Bi  Bi5  1  0.875806  0.875806  0.948878  1
  Bi  Bi6  1  0.302495  0.302495  0.149799  1
  Bi  Bi7  1  0.171330  0.171330  0.294728  1
  Bi  Bi8  1  0.677283  0.677283  0.789995  1
  Bi  Bi9  1  0.803597  0.803597  0.152837  1
  Bi  Bi10  1  0.175743  0.175743  0.789781  1
  Bi  Bi11  1  0.670497  0.670497  0.300146  1
  Pb  Pb12  1  0.934280  0.934280  0.157419  1
  Pb  Pb13  1  0.472573  0.472573  0.642386  1
  Pb  Pb14  1  0.599492  0.599492  0.504074  1
  Br  Br15  1  0.095867  0.095867  0.511008  1
  Br  Br16  1  0.593978  0.593978  0.035900  1
  Br  Br17  1  0.884023  0.884023  0.472981  1
  Br  Br18  1  0.374327  0.374327  0.948566  1
  Br  Br19  1  0.439819  0.439819  0.152014  1
  Br  Br20  1  0.970305  0.970305  0.637446  1
  Br  Br21  1  0.529985  0.529985  0.661190  1
  Br  Br22  1  0.035183  0.035183  0.100119  1
  Br  Br23  1  0.305522  0.305522  0.655816  1
