# generated using pymatgen
data_Tb3Sm(ScSb5)4
_symmetry_space_group_name_H-M   'P 1'
_cell_length_a   4.20149700
_cell_length_b   13.07487328
_cell_length_c   14.24259500
_cell_angle_alpha   78.64461783
_cell_angle_beta   90.00000000
_cell_angle_gamma   90.00000000
_symmetry_Int_Tables_number   1
_chemical_formula_structural   Tb3Sm(ScSb5)4
_chemical_formula_sum   'Tb3 Sm1 Sc4 Sb20'
_cell_volume   767.08759348
_cell_formula_units_Z   1
loop_
 _symmetry_equiv_pos_site_id
 _symmetry_equiv_pos_as_xyz
  1  'x, y, z'
loop_
 _atom_site_type_symbol
 _atom_site_label
 _atom_site_symmetry_multiplicity
 _atom_site_fract_x
 _atom_site_fract_y
 _atom_site_fract_z
 _atom_site_occupancy
  Tb  Tb0  1  0.250000  0.668952  0.575590  1
  Tb  Tb1  1  0.750000  0.331114  0.423495  1
  Tb  Tb2  1  0.250000  0.952997  0.353893  1
  Sm  Sm3  1  0.750000  0.046897  0.646696  1
  Sc  Sc4  1  0.250000  0.398142  0.773098  1
  Sc  Sc5  1  0.750000  0.602351  0.227078  1
  Sc  Sc6  1  0.250000  0.656756  0.859244  1
  Sc  Sc7  1  0.750000  0.342662  0.141136  1
  Sb  Sb8  1  0.250000  0.150979  0.783009  1
  Sb  Sb9  1  0.750000  0.851028  0.218476  1
  Sb  Sb10  1  0.250000  0.143089  0.480237  1
  Sb  Sb11  1  0.750000  0.856589  0.517276  1
  Sb  Sb12  1  0.250000  0.163531  0.158997  1
  Sb  Sb13  1  0.750000  0.835652  0.841349  1
  Sb  Sb14  1  0.250000  0.422303  0.975091  1
  Sb  Sb15  1  0.750000  0.577573  0.025279  1
  Sb  Sb16  1  0.750000  0.028627  0.913478  1
  Sb  Sb17  1  0.250000  0.971378  0.086922  1
  Sb  Sb18  1  0.750000  0.143461  0.313286  1
  Sb  Sb19  1  0.250000  0.854470  0.686601  1
  Sb  Sb20  1  0.750000  0.280929  0.936694  1
  Sb  Sb21  1  0.250000  0.719107  0.063561  1
  Sb  Sb22  1  0.750000  0.290966  0.659957  1
  Sb  Sb23  1  0.250000  0.709819  0.340393  1
  Sb  Sb24  1  0.750000  0.573560  0.742299  1
  Sb  Sb25  1  0.250000  0.426475  0.257528  1
  Sb  Sb26  1  0.750000  0.570545  0.443189  1
  Sb  Sb27  1  0.250000  0.430052  0.556145  1
