# generated using pymatgen
data_Lu5(AlBi)2
_symmetry_space_group_name_H-M   'P 1'
_cell_length_a   8.66753804
_cell_length_b   8.66753955
_cell_length_c   7.87910800
_cell_angle_alpha   90.00000000
_cell_angle_beta   90.00000000
_cell_angle_gamma   125.99233269
_symmetry_Int_Tables_number   1
_chemical_formula_structural   Lu5(AlBi)2
_chemical_formula_sum   'Lu10 Al4 Bi4'
_cell_volume   478.92609974
_cell_formula_units_Z   2
loop_
 _symmetry_equiv_pos_site_id
 _symmetry_equiv_pos_as_xyz
  1  'x, y, z'
loop_
 _atom_site_type_symbol
 _atom_site_label
 _atom_site_symmetry_multiplicity
 _atom_site_fract_x
 _atom_site_fract_y
 _atom_site_fract_z
 _atom_site_occupancy
  Lu  Lu0  1  0.000000  0.000000  0.000000  1
  Lu  Lu1  1  0.500000  0.500000  0.500000  1
  Lu  Lu2  1  0.794778  0.540230  0.167379  1
  Lu  Lu3  1  0.459770  0.205222  0.832621  1
  Lu  Lu4  1  0.959770  0.705222  0.667379  1
  Lu  Lu5  1  0.294778  0.040230  0.332621  1
  Lu  Lu6  1  0.205222  0.459770  0.832621  1
  Lu  Lu7  1  0.540230  0.794778  0.167379  1
  Lu  Lu8  1  0.040230  0.294778  0.332621  1
  Lu  Lu9  1  0.705222  0.959770  0.667379  1
  Al  Al10  1  0.874987  0.874987  0.375451  1
  Al  Al11  1  0.125013  0.125013  0.624549  1
  Al  Al12  1  0.625013  0.625013  0.875451  1
  Al  Al13  1  0.374987  0.374987  0.124549  1
  Bi  Bi14  1  0.207380  0.792620  0.000000  1
  Bi  Bi15  1  0.707380  0.292620  0.500000  1
  Bi  Bi16  1  0.792620  0.207380  0.000000  1
  Bi  Bi17  1  0.292620  0.707380  0.500000  1
