# generated using pymatgen
data_PrEr2Tm2(In2Pt)2
_symmetry_space_group_name_H-M   'P 1'
_cell_length_a   3.60872000
_cell_length_b   8.18315500
_cell_length_c   18.31546800
_cell_angle_alpha   90.00000000
_cell_angle_beta   90.00000000
_cell_angle_gamma   90.00000000
_symmetry_Int_Tables_number   1
_chemical_formula_structural   PrEr2Tm2(In2Pt)2
_chemical_formula_sum   'Pr2 Er4 Tm4 In8 Pt4'
_cell_volume   540.86886764
_cell_formula_units_Z   2
loop_
 _symmetry_equiv_pos_site_id
 _symmetry_equiv_pos_as_xyz
  1  'x, y, z'
loop_
 _atom_site_type_symbol
 _atom_site_label
 _atom_site_symmetry_multiplicity
 _atom_site_fract_x
 _atom_site_fract_y
 _atom_site_fract_z
 _atom_site_occupancy
  Pr  Pr0  1  0.000000  0.000000  0.000000  1
  Pr  Pr1  1  0.000000  0.500000  0.500000  1
  Er  Er2  1  0.000000  0.241810  0.219118  1
  Er  Er3  1  0.000000  0.758190  0.780882  1
  Er  Er4  1  0.000000  0.258190  0.719118  1
  Er  Er5  1  0.000000  0.741810  0.280882  1
  Tm  Tm6  1  0.000000  0.120370  0.413190  1
  Tm  Tm7  1  0.000000  0.879630  0.586810  1
  Tm  Tm8  1  0.000000  0.379630  0.913190  1
  Tm  Tm9  1  0.000000  0.620370  0.086810  1
  In  In10  1  0.500000  0.420155  0.347438  1
  In  In11  1  0.500000  0.579845  0.652562  1
  In  In12  1  0.500000  0.079845  0.847438  1
  In  In13  1  0.500000  0.920155  0.152562  1
  In  In14  1  0.500000  0.302745  0.067177  1
  In  In15  1  0.500000  0.697255  0.932823  1
  In  In16  1  0.500000  0.197255  0.567177  1
  In  In17  1  0.500000  0.802745  0.432823  1
  Pt  Pt18  1  0.500000  0.025422  0.303900  1
  Pt  Pt19  1  0.500000  0.974578  0.696100  1
  Pt  Pt20  1  0.500000  0.474578  0.803900  1
  Pt  Pt21  1  0.500000  0.525422  0.196100  1
