# generated using pymatgen
data_Pr2YEr3(RuO7)2
_symmetry_space_group_name_H-M   'P 1'
_cell_length_a   6.43827888
_cell_length_b   6.44404958
_cell_length_c   7.51982900
_cell_angle_alpha   90.00000000
_cell_angle_beta   90.00000000
_cell_angle_gamma   109.90372936
_symmetry_Int_Tables_number   1
_chemical_formula_structural   Pr2YEr3(RuO7)2
_chemical_formula_sum   'Pr2 Y1 Er3 Ru2 O14'
_cell_volume   293.35084334
_cell_formula_units_Z   1
loop_
 _symmetry_equiv_pos_site_id
 _symmetry_equiv_pos_as_xyz
  1  'x, y, z'
loop_
 _atom_site_type_symbol
 _atom_site_label
 _atom_site_symmetry_multiplicity
 _atom_site_fract_x
 _atom_site_fract_y
 _atom_site_fract_z
 _atom_site_occupancy
  Pr  Pr0  1  0.999913  0.000396  0.499443  1
  Pr  Pr1  1  0.999913  0.000396  0.000557  1
  Y  Y2  1  0.482872  0.931751  0.750000  1
  Er  Er3  1  0.516082  0.065893  0.250000  1
  Er  Er4  1  0.933389  0.483921  0.750000  1
  Er  Er5  1  0.066334  0.516205  0.250000  1
  Ru  Ru6  1  0.500305  0.500029  0.499279  1
  Ru  Ru7  1  0.500305  0.500029  0.000721  1
  O  O8  1  0.590314  0.587390  0.750000  1
  O  O9  1  0.409595  0.410846  0.250000  1
  O  O10  1  0.838841  0.122596  0.750000  1
  O  O11  1  0.163408  0.878445  0.250000  1
  O  O12  1  0.117406  0.836235  0.750000  1
  O  O13  1  0.878996  0.164448  0.250000  1
  O  O14  1  0.439356  0.180545  0.966436  1
  O  O15  1  0.561115  0.818916  0.461926  1
  O  O16  1  0.181217  0.442654  0.964085  1
  O  O17  1  0.819477  0.558597  0.463977  1
  O  O18  1  0.439356  0.180545  0.533564  1
  O  O19  1  0.561115  0.818916  0.038074  1
  O  O20  1  0.819477  0.558597  0.036023  1
  O  O21  1  0.181217  0.442654  0.535915  1
