# generated using pymatgen
data_Mn5NiAs2P
_symmetry_space_group_name_H-M   'P 1'
_cell_length_a   6.28024765
_cell_length_b   6.28024602
_cell_length_c   3.37217000
_cell_angle_alpha   90.00000000
_cell_angle_beta   90.00000000
_cell_angle_gamma   120.40725931
_symmetry_Int_Tables_number   1
_chemical_formula_structural   Mn5NiAs2P
_chemical_formula_sum   'Mn5 Ni1 As2 P1'
_cell_volume   114.70876035
_cell_formula_units_Z   1
loop_
 _symmetry_equiv_pos_site_id
 _symmetry_equiv_pos_as_xyz
  1  'x, y, z'
loop_
 _atom_site_type_symbol
 _atom_site_label
 _atom_site_symmetry_multiplicity
 _atom_site_fract_x
 _atom_site_fract_y
 _atom_site_fract_z
 _atom_site_occupancy
  Mn  Mn0  1  0.753501  0.001811  0.000000  1
  Mn  Mn1  1  0.607450  0.607450  0.500000  1
  Mn  Mn2  1  0.001811  0.753501  0.000000  1
  Mn  Mn3  1  0.393148  0.996147  0.500000  1
  Mn  Mn4  1  0.996147  0.393148  0.500000  1
  Ni  Ni5  1  0.247748  0.247748  0.000000  1
  As  As6  1  0.333099  0.665200  0.000000  1
  As  As7  1  0.665200  0.333099  0.000000  1
  P  P8  1  0.001896  0.001896  0.500000  1
