# generated using pymatgen
data_Tb6Y2Nb12Si15Ge
_symmetry_space_group_name_H-M   'P 1'
_cell_length_a   6.90163175
_cell_length_b   7.10046778
_cell_length_c   13.48312202
_cell_angle_alpha   90.03964106
_cell_angle_beta   89.92664733
_cell_angle_gamma   90.02683579
_symmetry_Int_Tables_number   1
_chemical_formula_structural   Tb6Y2Nb12Si15Ge
_chemical_formula_sum   'Tb6 Y2 Nb12 Si15 Ge1'
_cell_volume   660.73711319
_cell_formula_units_Z   1
loop_
 _symmetry_equiv_pos_site_id
 _symmetry_equiv_pos_as_xyz
  1  'x, y, z'
loop_
 _atom_site_type_symbol
 _atom_site_label
 _atom_site_symmetry_multiplicity
 _atom_site_fract_x
 _atom_site_fract_y
 _atom_site_fract_z
 _atom_site_occupancy
  Tb  Tb0  1  0.503459  0.328961  0.095952  1
  Tb  Tb1  1  0.002352  0.170670  0.403637  1
  Tb  Tb2  1  0.499793  0.673177  0.596691  1
  Tb  Tb3  1  0.996462  0.828699  0.904507  1
  Tb  Tb4  1  0.496400  0.670974  0.904353  1
  Tb  Tb5  1  0.996488  0.829615  0.596148  1
  Y  Y6  1  0.503929  0.327502  0.403129  1
  Y  Y7  1  0.003363  0.171521  0.095726  1
  Nb  Nb8  1  0.664176  0.008880  0.750209  1
  Nb  Nb9  1  0.164169  0.490300  0.751902  1
  Nb  Nb10  1  0.335449  0.991179  0.249723  1
  Nb  Nb11  1  0.835754  0.509154  0.249865  1
  Nb  Nb12  1  0.836120  0.324079  0.625899  1
  Nb  Nb13  1  0.337704  0.175359  0.874804  1
  Nb  Nb14  1  0.162217  0.675609  0.125268  1
  Nb  Nb15  1  0.661794  0.824947  0.374081  1
  Nb  Nb16  1  0.160526  0.678036  0.372890  1
  Nb  Nb17  1  0.661325  0.824241  0.125240  1
  Nb  Nb18  1  0.837709  0.324277  0.874795  1
  Nb  Nb19  1  0.340417  0.171839  0.626729  1
  Si  Si20  1  0.797147  0.624488  0.750258  1
  Si  Si21  1  0.295918  0.874350  0.750633  1
  Si  Si22  1  0.203354  0.375451  0.249707  1
  Si  Si23  1  0.703526  0.124577  0.249493  1
  Si  Si24  1  0.542798  0.375666  0.750410  1
  Si  Si25  1  0.042732  0.124579  0.750110  1
  Si  Si26  1  0.456825  0.624441  0.249897  1
  Si  Si27  1  0.956220  0.876080  0.248980  1
  Si  Si28  1  0.663109  0.037696  0.540112  1
  Si  Si29  1  0.162196  0.462816  0.959541  1
  Si  Si30  1  0.337244  0.963104  0.040593  1
  Si  Si31  1  0.833599  0.537982  0.458644  1
  Si  Si32  1  0.337085  0.962470  0.459547  1
  Si  Si33  1  0.837784  0.537074  0.040779  1
  Si  Si34  1  0.662358  0.037087  0.959495  1
  Ge  Ge35  1  0.168498  0.463119  0.540251  1
