# generated using pymatgen
data_Yb2UFe2Si7
_symmetry_space_group_name_H-M   'P 1'
_cell_length_a   12.34538009
_cell_length_b   12.34538084
_cell_length_c   4.10573100
_cell_angle_alpha   90.00000000
_cell_angle_beta   90.00000000
_cell_angle_gamma   161.31161301
_symmetry_Int_Tables_number   1
_chemical_formula_structural   Yb2UFe2Si7
_chemical_formula_sum   'Yb2 U1 Fe2 Si7'
_cell_volume   200.50278932
_cell_formula_units_Z   1
loop_
 _symmetry_equiv_pos_site_id
 _symmetry_equiv_pos_as_xyz
  1  'x, y, z'
loop_
 _atom_site_type_symbol
 _atom_site_label
 _atom_site_symmetry_multiplicity
 _atom_site_fract_x
 _atom_site_fract_y
 _atom_site_fract_z
 _atom_site_occupancy
  Yb  Yb0  1  0.318148  0.681852  0.000000  1
  Yb  Yb1  1  0.681852  0.318148  0.000000  1
  U  U2  1  0.000000  0.000000  0.500000  1
  Fe  Fe3  1  0.124701  0.875299  0.500000  1
  Fe  Fe4  1  0.875299  0.124701  0.500000  1
  Si  Si5  1  0.220115  0.779885  0.500000  1
  Si  Si6  1  0.779885  0.220115  0.500000  1
  Si  Si7  1  0.084461  0.915539  0.000000  1
  Si  Si8  1  0.915539  0.084461  0.000000  1
  Si  Si9  1  0.415176  0.584824  0.500000  1
  Si  Si10  1  0.500000  0.500000  0.000000  1
  Si  Si11  1  0.584824  0.415176  0.500000  1
