# generated using pymatgen
data_ZrBi2PtF14
_symmetry_space_group_name_H-M   'P 1'
_cell_length_a   5.76511469
_cell_length_b   9.30644522
_cell_length_c   12.34885712
_cell_angle_alpha   61.76013370
_cell_angle_beta   89.99120561
_cell_angle_gamma   90.22323756
_symmetry_Int_Tables_number   1
_chemical_formula_structural   ZrBi2PtF14
_chemical_formula_sum   'Zr2 Bi4 Pt2 F28'
_cell_volume   583.68352828
_cell_formula_units_Z   2
loop_
 _symmetry_equiv_pos_site_id
 _symmetry_equiv_pos_as_xyz
  1  'x, y, z'
loop_
 _atom_site_type_symbol
 _atom_site_label
 _atom_site_symmetry_multiplicity
 _atom_site_fract_x
 _atom_site_fract_y
 _atom_site_fract_z
 _atom_site_occupancy
  Zr  Zr0  1  0.755395  0.725960  0.042723  1
  Zr  Zr1  1  0.244605  0.274040  0.957277  1
  Bi  Bi2  1  0.257630  0.812933  0.269743  1
  Bi  Bi3  1  0.742370  0.187067  0.730257  1
  Bi  Bi4  1  0.761037  0.178605  0.244342  1
  Bi  Bi5  1  0.238963  0.821395  0.755658  1
  Pt  Pt6  1  0.258743  0.273221  0.455753  1
  Pt  Pt7  1  0.741257  0.726779  0.544247  1
  F  F8  1  0.926815  0.707882  0.417240  1
  F  F9  1  0.073185  0.292118  0.582760  1
  F  F10  1  0.460249  0.287318  0.082014  1
  F  F11  1  0.539751  0.712682  0.917986  1
  F  F12  1  0.482224  0.735213  0.143646  1
  F  F13  1  0.517776  0.264787  0.856354  1
  F  F14  1  0.972372  0.269935  0.369408  1
  F  F15  1  0.027628  0.730065  0.630592  1
  F  F16  1  0.958093  0.754046  0.168233  1
  F  F17  1  0.041907  0.245954  0.831767  1
  F  F18  1  0.440567  0.260908  0.324336  1
  F  F19  1  0.559433  0.739092  0.675664  1
  F  F20  1  0.781508  0.481479  0.138393  1
  F  F21  1  0.218492  0.518521  0.861607  1
  F  F22  1  0.263644  0.512486  0.360269  1
  F  F23  1  0.736356  0.487514  0.639731  1
  F  F24  1  0.949158  0.269073  0.053130  1
  F  F25  1  0.050842  0.730927  0.946870  1
  F  F26  1  0.449536  0.716256  0.463847  1
  F  F27  1  0.550464  0.283744  0.536153  1
  F  F28  1  0.739617  0.968832  0.453475  1
  F  F29  1  0.260383  0.031168  0.546525  1
  F  F30  1  0.242833  0.023758  0.064207  1
  F  F31  1  0.757167  0.976242  0.935793  1
  F  F32  1  0.585515  0.969846  0.235167  1
  F  F33  1  0.414485  0.030154  0.764833  1
  F  F34  1  0.087083  0.026985  0.274393  1
  F  F35  1  0.912917  0.973015  0.725607  1
