# generated using pymatgen
data_Tb4Ho3Er(Si3Rh)4
_symmetry_space_group_name_H-M   'P 1'
_cell_length_a   8.19330300
_cell_length_b   8.19560903
_cell_length_c   7.91340000
_cell_angle_alpha   90.00000000
_cell_angle_beta   90.00000000
_cell_angle_gamma   120.08121474
_symmetry_Int_Tables_number   1
_chemical_formula_structural   Tb4Ho3Er(Si3Rh)4
_chemical_formula_sum   'Tb4 Ho3 Er1 Si12 Rh4'
_cell_volume   459.80956530
_cell_formula_units_Z   1
loop_
 _symmetry_equiv_pos_site_id
 _symmetry_equiv_pos_as_xyz
  1  'x, y, z'
loop_
 _atom_site_type_symbol
 _atom_site_label
 _atom_site_symmetry_multiplicity
 _atom_site_fract_x
 _atom_site_fract_y
 _atom_site_fract_z
 _atom_site_occupancy
  Tb  Tb0  1  0.509197  0.490843  0.250000  1
  Tb  Tb1  1  0.490374  0.509481  0.750000  1
  Tb  Tb2  1  0.999873  0.000176  0.250000  1
  Tb  Tb3  1  0.000279  0.999958  0.750000  1
  Ho  Ho4  1  0.508306  0.016333  0.250000  1
  Ho  Ho5  1  0.491304  0.982982  0.750000  1
  Ho  Ho6  1  0.983588  0.491703  0.250000  1
  Er  Er7  1  0.016684  0.508387  0.750000  1
  Si  Si8  1  0.166674  0.334071  0.999364  1
  Si  Si9  1  0.833182  0.665756  0.999825  1
  Si  Si10  1  0.665922  0.833241  0.999860  1
  Si  Si11  1  0.833182  0.665756  0.500175  1
  Si  Si12  1  0.334399  0.166892  0.999960  1
  Si  Si13  1  0.166674  0.334071  0.500636  1
  Si  Si14  1  0.166986  0.832833  0.998626  1
  Si  Si15  1  0.334399  0.166892  0.500040  1
  Si  Si16  1  0.832847  0.167160  0.000594  1
  Si  Si17  1  0.665922  0.833241  0.500140  1
  Si  Si18  1  0.832847  0.167160  0.499406  1
  Si  Si19  1  0.166986  0.832833  0.501374  1
  Rh  Rh20  1  0.332505  0.667099  0.031060  1
  Rh  Rh21  1  0.667684  0.333015  0.967101  1
  Rh  Rh22  1  0.667684  0.333015  0.532899  1
  Rh  Rh23  1  0.332505  0.667099  0.468940  1
