# generated using pymatgen
data_Lu2Sc6V9Si16W3
_symmetry_space_group_name_H-M   'P 1'
_cell_length_a   6.67977805
_cell_length_b   6.68009255
_cell_length_c   12.38363389
_cell_angle_alpha   89.89769303
_cell_angle_beta   90.09849328
_cell_angle_gamma   90.05637199
_symmetry_Int_Tables_number   1
_chemical_formula_structural   Lu2Sc6V9Si16W3
_chemical_formula_sum   'Lu2 Sc6 V9 Si16 W3'
_cell_volume   552.57479683
_cell_formula_units_Z   1
loop_
 _symmetry_equiv_pos_site_id
 _symmetry_equiv_pos_as_xyz
  1  'x, y, z'
loop_
 _atom_site_type_symbol
 _atom_site_label
 _atom_site_symmetry_multiplicity
 _atom_site_fract_x
 _atom_site_fract_y
 _atom_site_fract_z
 _atom_site_occupancy
  Lu  Lu0  1  0.000340  0.665058  0.029359  1
  Lu  Lu1  1  0.835577  0.499563  0.280055  1
  Sc  Sc2  1  0.162065  0.496787  0.778725  1
  Sc  Sc3  1  0.502028  0.837652  0.719888  1
  Sc  Sc4  1  0.495649  0.160875  0.221281  1
  Sc  Sc5  1  0.996946  0.336646  0.530315  1
  Sc  Sc6  1  0.661826  0.003910  0.969305  1
  Sc  Sc7  1  0.336556  0.996640  0.470838  1
  V  V8  1  0.666591  0.667389  0.500707  1
  V  V9  1  0.007431  0.157176  0.126429  1
  V  V10  1  0.343858  0.506760  0.377714  1
  V  V11  1  0.657717  0.492229  0.874949  1
  V  V12  1  0.505726  0.343518  0.623352  1
  V  V13  1  0.494875  0.659010  0.123389  1
  V  V14  1  0.993278  0.842773  0.625967  1
  V  V15  1  0.158214  0.005102  0.872244  1
  V  V16  1  0.842264  0.994533  0.374844  1
  Si  Si17  1  0.297419  0.961389  0.063538  1
  Si  Si18  1  0.540474  0.795496  0.316919  1
  Si  Si19  1  0.458884  0.205179  0.812729  1
  Si  Si20  1  0.793185  0.542378  0.683715  1
  Si  Si21  1  0.211259  0.457729  0.187298  1
  Si  Si22  1  0.704231  0.037236  0.563329  1
  Si  Si23  1  0.960004  0.291285  0.935261  1
  Si  Si24  1  0.039244  0.706456  0.438670  1
  Si  Si25  1  0.703361  0.368648  0.069930  1
  Si  Si26  1  0.130608  0.204078  0.322417  1
  Si  Si27  1  0.870674  0.794473  0.818937  1
  Si  Si28  1  0.206056  0.128175  0.677963  1
  Si  Si29  1  0.790812  0.877884  0.180673  1
  Si  Si30  1  0.296356  0.629022  0.570758  1
  Si  Si31  1  0.375221  0.706695  0.927245  1
  Si  Si32  1  0.625730  0.293717  0.432106  1
  W  W33  1  0.333737  0.332507  0.999171  1
  W  W34  1  0.169400  0.833646  0.250569  1
  W  W35  1  0.832405  0.168381  0.749415  1
