# generated using pymatgen
data_La17Y3Sn9Sb7
_symmetry_space_group_name_H-M   'P 1'
_cell_length_a   8.52583295
_cell_length_b   8.59903363
_cell_length_c   16.30662200
_cell_angle_alpha   89.95582398
_cell_angle_beta   90.20192395
_cell_angle_gamma   90.05591174
_symmetry_Int_Tables_number   1
_chemical_formula_structural   La17Y3Sn9Sb7
_chemical_formula_sum   'La17 Y3 Sn9 Sb7'
_cell_volume   1195.49410380
_cell_formula_units_Z   1
loop_
 _symmetry_equiv_pos_site_id
 _symmetry_equiv_pos_as_xyz
  1  'x, y, z'
loop_
 _atom_site_type_symbol
 _atom_site_label
 _atom_site_symmetry_multiplicity
 _atom_site_fract_x
 _atom_site_fract_y
 _atom_site_fract_z
 _atom_site_occupancy
  La  La0  1  0.070397  0.167012  0.391141  1
  La  La1  1  0.405885  0.837009  0.114200  1
  La  La2  1  0.091947  0.335904  0.613961  1
  La  La3  1  0.437446  0.672797  0.892268  1
  La  La4  1  0.906556  0.665022  0.115277  1
  La  La5  1  0.090675  0.334169  0.886317  1
  La  La6  1  0.430333  0.668240  0.609757  1
  La  La7  1  0.590250  0.164940  0.612647  1
  La  La8  1  0.762970  0.502900  0.750393  1
  La  La9  1  0.908083  0.663836  0.385330  1
  La  La10  1  0.066455  0.167829  0.108812  1
  La  La11  1  0.932008  0.830870  0.891043  1
  La  La12  1  0.592996  0.163985  0.886304  1
  La  La13  1  0.568168  0.330254  0.110852  1
  La  La14  1  0.407443  0.835792  0.386859  1
  La  La15  1  0.930114  0.831698  0.609173  1
  La  La16  1  0.570937  0.333074  0.388789  1
  Y  Y17  1  0.238323  0.497349  0.249749  1
  Y  Y18  1  0.738267  0.001841  0.248275  1
  Y  Y19  1  0.261658  0.998012  0.750043  1
  Sn  Sn20  1  0.626255  0.869473  0.749282  1
  Sn  Sn21  1  0.874485  0.361156  0.250590  1
  Sn  Sn22  1  0.604364  0.632629  0.250514  1
  Sn  Sn23  1  0.389738  0.369233  0.750279  1
  Sn  Sn24  1  0.133574  0.638028  0.750397  1
  Sn  Sn25  1  0.895487  0.126189  0.749158  1
  Sn  Sn26  1  0.741150  0.990638  0.050104  1
  Sn  Sn27  1  0.371192  0.136110  0.250636  1
  Sn  Sn28  1  0.105822  0.870314  0.250865  1
  Sb  Sb29  1  0.755745  0.493123  0.548369  1
  Sb  Sb30  1  0.743311  0.993732  0.446758  1
  Sb  Sb31  1  0.244238  0.505422  0.447023  1
  Sb  Sb32  1  0.257253  0.008002  0.947021  1
  Sb  Sb33  1  0.758119  0.490065  0.952568  1
  Sb  Sb34  1  0.242892  0.507724  0.051738  1
  Sb  Sb35  1  0.255466  0.005633  0.553505  1
