# generated using pymatgen
data_Y8MgSi4B16Mo
_symmetry_space_group_name_H-M   'P 1'
_cell_length_a   7.15557300
_cell_length_b   7.15557300
_cell_length_c   7.75746600
_cell_angle_alpha   90.00000000
_cell_angle_beta   90.00000000
_cell_angle_gamma   90.00000000
_symmetry_Int_Tables_number   1
_chemical_formula_structural   Y8MgSi4B16Mo
_chemical_formula_sum   'Y8 Mg1 Si4 B16 Mo1'
_cell_volume   397.19951924
_cell_formula_units_Z   1
loop_
 _symmetry_equiv_pos_site_id
 _symmetry_equiv_pos_as_xyz
  1  'x, y, z'
loop_
 _atom_site_type_symbol
 _atom_site_label
 _atom_site_symmetry_multiplicity
 _atom_site_fract_x
 _atom_site_fract_y
 _atom_site_fract_z
 _atom_site_occupancy
  Y  Y0  1  0.681424  0.181694  0.235675  1
  Y  Y1  1  0.318576  0.818306  0.764325  1
  Y  Y2  1  0.318576  0.818306  0.235675  1
  Y  Y3  1  0.818306  0.681424  0.235675  1
  Y  Y4  1  0.818306  0.681424  0.764325  1
  Y  Y5  1  0.681424  0.181694  0.764325  1
  Y  Y6  1  0.181694  0.318576  0.764325  1
  Y  Y7  1  0.181694  0.318576  0.235675  1
  Mg  Mg8  1  0.500000  0.500000  0.500000  1
  Si  Si9  1  0.106075  0.631602  0.500000  1
  Si  Si10  1  0.893925  0.368398  0.500000  1
  Si  Si11  1  0.368398  0.106075  0.500000  1
  Si  Si12  1  0.631602  0.893925  0.500000  1
  B  B13  1  0.171806  0.039909  0.000000  1
  B  B14  1  0.828194  0.960091  0.000000  1
  B  B15  1  0.960091  0.171806  0.000000  1
  B  B16  1  0.326985  0.539336  0.000000  1
  B  B17  1  0.039909  0.828194  0.000000  1
  B  B18  1  0.673015  0.460664  0.000000  1
  B  B19  1  0.539336  0.673015  0.000000  1
  B  B20  1  0.460664  0.326985  0.000000  1
  B  B21  1  0.089887  0.589696  0.000000  1
  B  B22  1  0.910113  0.410304  0.000000  1
  B  B23  1  0.410304  0.089887  0.000000  1
  B  B24  1  0.589696  0.910113  0.000000  1
  B  B25  1  0.000000  0.000000  0.171987  1
  B  B26  1  0.000000  0.000000  0.828013  1
  B  B27  1  0.500000  0.500000  0.835821  1
  B  B28  1  0.500000  0.500000  0.164179  1
  Mo  Mo29  1  0.000000  0.000000  0.500000  1
