# generated using pymatgen
data_Nd5Sm(RuBr3)2
_symmetry_space_group_name_H-M   'P 1'
_cell_length_a   4.20853700
_cell_length_b   8.99806936
_cell_length_c   12.19817803
_cell_angle_alpha   87.59957933
_cell_angle_beta   90.00000000
_cell_angle_gamma   90.00000000
_symmetry_Int_Tables_number   1
_chemical_formula_structural   Nd5Sm(RuBr3)2
_chemical_formula_sum   'Nd5 Sm1 Ru2 Br6'
_cell_volume   461.52390714
_cell_formula_units_Z   1
loop_
 _symmetry_equiv_pos_site_id
 _symmetry_equiv_pos_as_xyz
  1  'x, y, z'
loop_
 _atom_site_type_symbol
 _atom_site_label
 _atom_site_symmetry_multiplicity
 _atom_site_fract_x
 _atom_site_fract_y
 _atom_site_fract_z
 _atom_site_occupancy
  Nd  Nd0  1  0.250000  0.314395  0.381956  1
  Nd  Nd1  1  0.750000  0.684349  0.617481  1
  Nd  Nd2  1  0.250000  0.892057  0.382686  1
  Nd  Nd3  1  0.750000  0.107910  0.616045  1
  Nd  Nd4  1  0.250000  0.881292  0.836540  1
  Sm  Sm5  1  0.750000  0.120129  0.164910  1
  Ru  Ru6  1  0.250000  0.894629  0.618499  1
  Ru  Ru7  1  0.750000  0.104770  0.380654  1
  Br  Br8  1  0.250000  0.400900  0.628394  1
  Br  Br9  1  0.750000  0.597746  0.372027  1
  Br  Br10  1  0.250000  0.889378  0.113759  1
  Br  Br11  1  0.750000  0.116560  0.887470  1
  Br  Br12  1  0.250000  0.350649  0.130493  1
  Br  Br13  1  0.750000  0.645236  0.869088  1
