# generated using pymatgen
data_Cs3K2BaTaAs4
_symmetry_space_group_name_H-M   'P 1'
_cell_length_a   11.08412637
_cell_length_b   11.08412644
_cell_length_c   8.12355335
_cell_angle_alpha   88.75561414
_cell_angle_beta   88.75561455
_cell_angle_gamma   120.40431672
_symmetry_Int_Tables_number   1
_chemical_formula_structural   Cs3K2BaTaAs4
_chemical_formula_sum   'Cs6 K4 Ba2 Ta2 As8'
_cell_volume   859.96477408
_cell_formula_units_Z   2
loop_
 _symmetry_equiv_pos_site_id
 _symmetry_equiv_pos_as_xyz
  1  'x, y, z'
loop_
 _atom_site_type_symbol
 _atom_site_label
 _atom_site_symmetry_multiplicity
 _atom_site_fract_x
 _atom_site_fract_y
 _atom_site_fract_z
 _atom_site_occupancy
  Cs  Cs0  1  0.866057  0.138181  0.684308  1
  Cs  Cs1  1  0.293903  0.152946  0.726723  1
  Cs  Cs2  1  0.855674  0.718834  0.663786  1
  Cs  Cs3  1  0.138181  0.866057  0.184308  1
  Cs  Cs4  1  0.718834  0.855674  0.163786  1
  Cs  Cs5  1  0.152946  0.293903  0.226723  1
  K  K6  1  0.465793  0.527660  0.501642  1
  K  K7  1  0.059713  0.529221  0.501169  1
  K  K8  1  0.527660  0.465793  0.001642  1
  K  K9  1  0.529221  0.059713  0.001169  1
  Ba  Ba10  1  0.463752  0.934742  0.490452  1
  Ba  Ba11  1  0.934742  0.463752  0.990452  1
  Ta  Ta12  1  0.668575  0.331002  0.388266  1
  Ta  Ta13  1  0.331002  0.668575  0.888266  1
  As  As14  1  0.683689  0.335840  0.697725  1
  As  As15  1  0.335840  0.683689  0.197725  1
  As  As16  1  0.787230  0.203583  0.281113  1
  As  As17  1  0.416518  0.199743  0.312687  1
  As  As18  1  0.792066  0.575276  0.266417  1
  As  As19  1  0.203583  0.787230  0.781113  1
  As  As20  1  0.575276  0.792066  0.766417  1
  As  As21  1  0.199743  0.416518  0.812687  1
