# generated using pymatgen
data_CsMgAlAs2
_symmetry_space_group_name_H-M   'P 1'
_cell_length_a   8.27990813
_cell_length_b   8.27990799
_cell_length_c   8.27990776
_cell_angle_alpha   149.75825386
_cell_angle_beta   149.75825193
_cell_angle_gamma   43.29638027
_symmetry_Int_Tables_number   1
_chemical_formula_structural   CsMgAlAs2
_chemical_formula_sum   'Cs1 Mg1 Al1 As2'
_cell_volume   143.60603344
_cell_formula_units_Z   1
loop_
 _symmetry_equiv_pos_site_id
 _symmetry_equiv_pos_as_xyz
  1  'x, y, z'
loop_
 _atom_site_type_symbol
 _atom_site_label
 _atom_site_symmetry_multiplicity
 _atom_site_fract_x
 _atom_site_fract_y
 _atom_site_fract_z
 _atom_site_occupancy
  Cs  Cs0  1  0.000000  0.000000  0.000000  1
  Mg  Mg1  1  0.750000  0.250000  0.500000  1
  Al  Al2  1  0.250000  0.750000  0.500000  1
  As  As3  1  0.653486  0.653486  0.000000  1
  As  As4  1  0.346514  0.346514  0.000000  1
