# generated using pymatgen
data_Lu12InCo3SiAu
_symmetry_space_group_name_H-M   'P 1'
_cell_length_a   8.19940482
_cell_length_b   8.19940407
_cell_length_c   8.19940550
_cell_angle_alpha   113.07360722
_cell_angle_beta   110.33754989
_cell_angle_gamma   105.10189098
_symmetry_Int_Tables_number   1
_chemical_formula_structural   Lu12InCo3SiAu
_chemical_formula_sum   'Lu12 In1 Co3 Si1 Au1'
_cell_volume   422.25680265
_cell_formula_units_Z   1
loop_
 _symmetry_equiv_pos_site_id
 _symmetry_equiv_pos_as_xyz
  1  'x, y, z'
loop_
 _atom_site_type_symbol
 _atom_site_label
 _atom_site_symmetry_multiplicity
 _atom_site_fract_x
 _atom_site_fract_y
 _atom_site_fract_z
 _atom_site_occupancy
  Lu  Lu0  1  0.426327  0.230893  0.195435  1
  Lu  Lu1  1  0.566793  0.769610  0.797182  1
  Lu  Lu2  1  0.027572  0.230390  0.797182  1
  Lu  Lu3  1  0.964542  0.769107  0.195435  1
  Lu  Lu4  1  0.184993  0.288158  0.473151  1
  Lu  Lu5  1  0.812475  0.715495  0.527971  1
  Lu  Lu6  1  0.184993  0.711842  0.896836  1
  Lu  Lu7  1  0.812475  0.284505  0.096979  1
  Lu  Lu8  1  0.314792  0.623316  0.312859  1
  Lu  Lu9  1  0.689544  0.376684  0.691476  1
  Lu  Lu10  1  0.314792  0.001931  0.691476  1
  Lu  Lu11  1  0.689544  0.998069  0.312859  1
  In  In12  1  0.497875  0.500000  0.997875  1
  Co  Co13  1  0.642369  0.000000  0.642369  1
  Co  Co14  1  0.116007  0.611132  0.504875  1
  Co  Co15  1  0.893744  0.388868  0.504875  1
  Si  Si16  1  0.370970  0.000000  0.370970  1
  Au  Au17  1  0.990194  0.000000  0.990194  1
