# generated using pymatgen
data_CeLu15Cd4CoNi3
_symmetry_space_group_name_H-M   'P 1'
_cell_length_a   9.38388359
_cell_length_b   9.38388412
_cell_length_c   9.38388371
_cell_angle_alpha   59.53411378
_cell_angle_beta   59.53410958
_cell_angle_gamma   59.53412458
_symmetry_Int_Tables_number   1
_chemical_formula_structural   CeLu15Cd4CoNi3
_chemical_formula_sum   'Ce1 Lu15 Cd4 Co1 Ni3'
_cell_volume   578.10634134
_cell_formula_units_Z   1
loop_
 _symmetry_equiv_pos_site_id
 _symmetry_equiv_pos_as_xyz
  1  'x, y, z'
loop_
 _atom_site_type_symbol
 _atom_site_label
 _atom_site_symmetry_multiplicity
 _atom_site_fract_x
 _atom_site_fract_y
 _atom_site_fract_z
 _atom_site_occupancy
  Ce  Ce0  1  0.345811  0.345811  0.345811  1
  Lu  Lu1  1  0.345844  0.345844  0.955775  1
  Lu  Lu2  1  0.345844  0.955775  0.345844  1
  Lu  Lu3  1  0.955775  0.345844  0.345844  1
  Lu  Lu4  1  0.816832  0.187062  0.187062  1
  Lu  Lu5  1  0.189388  0.812216  0.812216  1
  Lu  Lu6  1  0.187062  0.816832  0.187062  1
  Lu  Lu7  1  0.812216  0.189388  0.812216  1
  Lu  Lu8  1  0.187062  0.187062  0.816832  1
  Lu  Lu9  1  0.812216  0.812216  0.189388  1
  Lu  Lu10  1  0.936761  0.563667  0.563667  1
  Lu  Lu11  1  0.562207  0.936327  0.936327  1
  Lu  Lu12  1  0.563667  0.936761  0.563667  1
  Lu  Lu13  1  0.936327  0.562207  0.936327  1
  Lu  Lu14  1  0.563667  0.563667  0.936761  1
  Lu  Lu15  1  0.936327  0.936327  0.562207  1
  Cd  Cd16  1  0.580777  0.580777  0.580777  1
  Cd  Cd17  1  0.582350  0.582350  0.253762  1
  Cd  Cd18  1  0.582350  0.253762  0.582350  1
  Cd  Cd19  1  0.253762  0.582350  0.582350  1
  Co  Co20  1  0.142074  0.142074  0.142074  1
  Ni  Ni21  1  0.144012  0.144012  0.573648  1
  Ni  Ni22  1  0.144012  0.573648  0.144012  1
  Ni  Ni23  1  0.573648  0.144012  0.144012  1
