# generated using pymatgen
data_ErSc(NbS2)8
_symmetry_space_group_name_H-M   'P 1'
_cell_length_a   6.67961600
_cell_length_b   6.67961724
_cell_length_c   13.22738300
_cell_angle_alpha   90.00000000
_cell_angle_beta   90.00000000
_cell_angle_gamma   120.00000376
_symmetry_Int_Tables_number   1
_chemical_formula_structural   ErSc(NbS2)8
_chemical_formula_sum   'Er1 Sc1 Nb8 S16'
_cell_volume   511.10204356
_cell_formula_units_Z   1
loop_
 _symmetry_equiv_pos_site_id
 _symmetry_equiv_pos_as_xyz
  1  'x, y, z'
loop_
 _atom_site_type_symbol
 _atom_site_label
 _atom_site_symmetry_multiplicity
 _atom_site_fract_x
 _atom_site_fract_y
 _atom_site_fract_z
 _atom_site_occupancy
  Er  Er0  1  0.000000  0.000000  0.000000  1
  Sc  Sc1  1  0.000000  0.000000  0.500000  1
  Nb  Nb2  1  0.000000  0.000000  0.257693  1
  Nb  Nb3  1  0.000000  0.000000  0.742307  1
  Nb  Nb4  1  0.504900  0.009798  0.257519  1
  Nb  Nb5  1  0.495100  0.990202  0.742481  1
  Nb  Nb6  1  0.990202  0.495100  0.257519  1
  Nb  Nb7  1  0.009798  0.504900  0.742481  1
  Nb  Nb8  1  0.504900  0.495100  0.257519  1
  Nb  Nb9  1  0.495100  0.504900  0.742481  1
  S  S10  1  0.333333  0.666667  0.621296  1
  S  S11  1  0.666667  0.333333  0.378704  1
  S  S12  1  0.666667  0.333333  0.135560  1
  S  S13  1  0.333333  0.666667  0.864440  1
  S  S14  1  0.168663  0.337325  0.138735  1
  S  S15  1  0.831337  0.662675  0.861265  1
  S  S16  1  0.662675  0.831337  0.138735  1
  S  S17  1  0.831089  0.662178  0.623638  1
  S  S18  1  0.337325  0.168663  0.861265  1
  S  S19  1  0.168911  0.337822  0.376362  1
  S  S20  1  0.168663  0.831337  0.138735  1
  S  S21  1  0.337822  0.168911  0.623638  1
  S  S22  1  0.831337  0.168663  0.861265  1
  S  S23  1  0.662178  0.831089  0.376362  1
  S  S24  1  0.831089  0.168911  0.623638  1
  S  S25  1  0.168911  0.831089  0.376362  1
