# generated using pymatgen
data_La6Al24TcOs7
_symmetry_space_group_name_H-M   'P 1'
_cell_length_a   8.97204400
_cell_length_b   8.97204534
_cell_length_c   9.73840700
_cell_angle_alpha   90.00000000
_cell_angle_beta   90.00000000
_cell_angle_gamma   120.00000243
_symmetry_Int_Tables_number   1
_chemical_formula_structural   La6Al24TcOs7
_chemical_formula_sum   'La6 Al24 Tc1 Os7'
_cell_volume   678.89310314
_cell_formula_units_Z   1
loop_
 _symmetry_equiv_pos_site_id
 _symmetry_equiv_pos_as_xyz
  1  'x, y, z'
loop_
 _atom_site_type_symbol
 _atom_site_label
 _atom_site_symmetry_multiplicity
 _atom_site_fract_x
 _atom_site_fract_y
 _atom_site_fract_z
 _atom_site_occupancy
  La  La0  1  0.192061  0.384122  0.250047  1
  La  La1  1  0.807939  0.615878  0.749953  1
  La  La2  1  0.615878  0.807939  0.250047  1
  La  La3  1  0.384122  0.192061  0.749953  1
  La  La4  1  0.192061  0.807939  0.250047  1
  La  La5  1  0.807939  0.192061  0.749953  1
  Al  Al6  1  0.333333  0.666667  0.002127  1
  Al  Al7  1  0.666667  0.333333  0.997873  1
  Al  Al8  1  0.666667  0.333333  0.502510  1
  Al  Al9  1  0.333333  0.666667  0.497490  1
  Al  Al10  1  0.162700  0.325400  0.575055  1
  Al  Al11  1  0.837300  0.674600  0.424945  1
  Al  Al12  1  0.674600  0.837300  0.575055  1
  Al  Al13  1  0.837530  0.675060  0.076954  1
  Al  Al14  1  0.325400  0.162700  0.424945  1
  Al  Al15  1  0.162470  0.324940  0.923046  1
  Al  Al16  1  0.162700  0.837300  0.575055  1
  Al  Al17  1  0.324940  0.162470  0.076954  1
  Al  Al18  1  0.837300  0.162700  0.424945  1
  Al  Al19  1  0.675060  0.837530  0.923046  1
  Al  Al20  1  0.837530  0.162470  0.076954  1
  Al  Al21  1  0.162470  0.837530  0.923046  1
  Al  Al22  1  0.562960  0.125920  0.250237  1
  Al  Al23  1  0.437040  0.874080  0.749763  1
  Al  Al24  1  0.874080  0.437040  0.250237  1
  Al  Al25  1  0.125920  0.562960  0.749763  1
  Al  Al26  1  0.562960  0.437040  0.250237  1
  Al  Al27  1  0.437040  0.562960  0.749763  1
  Al  Al28  1  0.000000  0.000000  0.249755  1
  Al  Al29  1  0.000000  0.000000  0.750245  1
  Tc  Tc30  1  0.000000  0.000000  0.000000  1
  Os  Os31  1  0.500000  0.000000  0.000000  1
  Os  Os32  1  0.000000  0.500000  0.000000  1
  Os  Os33  1  0.500000  0.000000  0.500000  1
  Os  Os34  1  0.500000  0.500000  0.000000  1
  Os  Os35  1  0.000000  0.500000  0.500000  1
  Os  Os36  1  0.500000  0.500000  0.500000  1
  Os  Os37  1  0.000000  0.000000  0.500000  1
