# generated using pymatgen
data_Nd20Si12Cl
_symmetry_space_group_name_H-M   'P 1'
_cell_length_a   15.36097600
_cell_length_b   6.66734117
_cell_length_c   8.81123913
_cell_angle_alpha   89.97723208
_cell_angle_beta   90.00000000
_cell_angle_gamma   90.00000000
_symmetry_Int_Tables_number   1
_chemical_formula_structural   Nd20Si12Cl
_chemical_formula_sum   'Nd20 Si12 Cl1'
_cell_volume   902.41944108
_cell_formula_units_Z   1
loop_
 _symmetry_equiv_pos_site_id
 _symmetry_equiv_pos_as_xyz
  1  'x, y, z'
loop_
 _atom_site_type_symbol
 _atom_site_label
 _atom_site_symmetry_multiplicity
 _atom_site_fract_x
 _atom_site_fract_y
 _atom_site_fract_z
 _atom_site_occupancy
  Nd  Nd0  1  0.670495  0.500000  0.500000  1
  Nd  Nd1  1  0.167196  0.500000  0.000000  1
  Nd  Nd2  1  0.832804  0.500000  0.000000  1
  Nd  Nd3  1  0.329505  0.500000  0.500000  1
  Nd  Nd4  1  0.827929  0.000000  0.000000  1
  Nd  Nd5  1  0.339254  0.000000  0.500000  1
  Nd  Nd6  1  0.660746  0.000000  0.500000  1
  Nd  Nd7  1  0.172071  0.000000  0.000000  1
  Nd  Nd8  1  0.500000  0.258592  0.751232  1
  Nd  Nd9  1  0.000000  0.237144  0.240510  1
  Nd  Nd10  1  0.622999  0.251747  0.126477  1
  Nd  Nd11  1  0.128986  0.236732  0.630291  1
  Nd  Nd12  1  0.871014  0.236732  0.630291  1
  Nd  Nd13  1  0.377001  0.251747  0.126477  1
  Nd  Nd14  1  0.000000  0.762856  0.759490  1
  Nd  Nd15  1  0.500000  0.741408  0.248768  1
  Nd  Nd16  1  0.871014  0.763268  0.369709  1
  Nd  Nd17  1  0.377001  0.748253  0.873523  1
  Nd  Nd18  1  0.622999  0.748253  0.873523  1
  Nd  Nd19  1  0.128986  0.763268  0.369709  1
  Si  Si20  1  0.000000  0.239022  0.889385  1
  Si  Si21  1  0.500000  0.262743  0.391737  1
  Si  Si22  1  0.803282  0.240873  0.305242  1
  Si  Si23  1  0.305552  0.251269  0.805895  1
  Si  Si24  1  0.694448  0.251269  0.805895  1
  Si  Si25  1  0.196718  0.240873  0.305242  1
  Si  Si26  1  0.500000  0.737257  0.608263  1
  Si  Si27  1  0.000000  0.760978  0.110615  1
  Si  Si28  1  0.694448  0.748731  0.194105  1
  Si  Si29  1  0.196718  0.759127  0.694758  1
  Si  Si30  1  0.803282  0.759127  0.694758  1
  Si  Si31  1  0.305552  0.748731  0.194105  1
  Cl  Cl32  1  0.000000  0.500000  0.500000  1
