# generated using pymatgen
data_Sm6HoBI12
_symmetry_space_group_name_H-M   'P 1'
_cell_length_a   9.76330496
_cell_length_b   9.77069184
_cell_length_c   9.79183238
_cell_angle_alpha   107.97566718
_cell_angle_beta   107.64820857
_cell_angle_gamma   107.87028286
_symmetry_Int_Tables_number   1
_chemical_formula_structural   Sm6HoBI12
_chemical_formula_sum   'Sm6 Ho1 B1 I12'
_cell_volume   759.57666634
_cell_formula_units_Z   1
loop_
 _symmetry_equiv_pos_site_id
 _symmetry_equiv_pos_as_xyz
  1  'x, y, z'
loop_
 _atom_site_type_symbol
 _atom_site_label
 _atom_site_symmetry_multiplicity
 _atom_site_fract_x
 _atom_site_fract_y
 _atom_site_fract_z
 _atom_site_occupancy
  Sm  Sm0  1  0.798346  0.541324  0.607331  1
  Sm  Sm1  1  0.401892  0.203868  0.471117  1
  Sm  Sm2  1  0.472731  0.402453  0.204865  1
  Sm  Sm3  1  0.607724  0.799037  0.541169  1
  Sm  Sm4  1  0.975374  0.976163  0.975518  1
  Sm  Sm5  1  0.541258  0.608027  0.798721  1
  Ho  Ho6  1  0.210638  0.470770  0.404275  1
  B  B7  1  0.491562  0.493704  0.493507  1
  I  I8  1  0.645155  0.977289  0.892430  1
  I  I9  1  0.728002  0.188760  0.576583  1
  I  I10  1  0.893192  0.646294  0.976893  1
  I  I11  1  0.273948  0.806314  0.422153  1
  I  I12  1  0.187924  0.573118  0.720241  1
  I  I13  1  0.031613  0.115957  0.339100  1
  I  I14  1  0.575794  0.728570  0.188859  1
  I  I15  1  0.110066  0.342890  0.039065  1
  I  I16  1  0.817139  0.424806  0.279061  1
  I  I17  1  0.421980  0.276751  0.813571  1
  I  I18  1  0.977445  0.894182  0.646282  1
  I  I19  1  0.338216  0.029725  0.109260  1
