# generated using pymatgen
data_Zr3SbN
_symmetry_space_group_name_H-M   'P 1'
_cell_length_a   6.07691348
_cell_length_b   6.07691342
_cell_length_c   8.88474300
_cell_angle_alpha   90.00000000
_cell_angle_beta   90.00000000
_cell_angle_gamma   145.80270787
_symmetry_Int_Tables_number   1
_chemical_formula_structural   Zr3SbN
_chemical_formula_sum   'Zr6 Sb2 N2'
_cell_volume   184.40874453
_cell_formula_units_Z   2
loop_
 _symmetry_equiv_pos_site_id
 _symmetry_equiv_pos_as_xyz
  1  'x, y, z'
loop_
 _atom_site_type_symbol
 _atom_site_label
 _atom_site_symmetry_multiplicity
 _atom_site_fract_x
 _atom_site_fract_y
 _atom_site_fract_z
 _atom_site_occupancy
  Zr  Zr0  1  0.953403  0.046597  0.750000  1
  Zr  Zr1  1  0.046597  0.953403  0.250000  1
  Zr  Zr2  1  0.624897  0.375103  0.546078  1
  Zr  Zr3  1  0.375103  0.624897  0.453922  1
  Zr  Zr4  1  0.375103  0.624897  0.046078  1
  Zr  Zr5  1  0.624897  0.375103  0.953922  1
  Sb  Sb6  1  0.746587  0.253413  0.250000  1
  Sb  Sb7  1  0.253413  0.746587  0.750000  1
  N  N8  1  0.000000  0.000000  0.500000  1
  N  N9  1  0.000000  0.000000  0.000000  1
