# generated using pymatgen
data_Tm4HfIr3
_symmetry_space_group_name_H-M   'P 1'
_cell_length_a   10.71140800
_cell_length_b   10.71140800
_cell_length_c   6.18812400
_cell_angle_alpha   90.00000000
_cell_angle_beta   90.00000000
_cell_angle_gamma   90.00000000
_symmetry_Int_Tables_number   1
_chemical_formula_structural   Tm4HfIr3
_chemical_formula_sum   'Tm16 Hf4 Ir12'
_cell_volume   709.98983624
_cell_formula_units_Z   4
loop_
 _symmetry_equiv_pos_site_id
 _symmetry_equiv_pos_as_xyz
  1  'x, y, z'
loop_
 _atom_site_type_symbol
 _atom_site_label
 _atom_site_symmetry_multiplicity
 _atom_site_fract_x
 _atom_site_fract_y
 _atom_site_fract_z
 _atom_site_occupancy
  Tm  Tm0  1  0.289809  0.086275  0.374286  1
  Tm  Tm1  1  0.289809  0.913725  0.874286  1
  Tm  Tm2  1  0.710191  0.086275  0.874286  1
  Tm  Tm3  1  0.710191  0.913725  0.374286  1
  Tm  Tm4  1  0.586275  0.789809  0.874286  1
  Tm  Tm5  1  0.586275  0.210191  0.374286  1
  Tm  Tm6  1  0.413725  0.789809  0.374286  1
  Tm  Tm7  1  0.413725  0.210191  0.874286  1
  Tm  Tm8  1  0.210191  0.413725  0.625714  1
  Tm  Tm9  1  0.210191  0.586275  0.125714  1
  Tm  Tm10  1  0.789809  0.413725  0.125714  1
  Tm  Tm11  1  0.789809  0.586275  0.625714  1
  Tm  Tm12  1  0.913725  0.710191  0.125714  1
  Tm  Tm13  1  0.913725  0.289809  0.625714  1
  Tm  Tm14  1  0.086275  0.710191  0.625714  1
  Tm  Tm15  1  0.086275  0.289809  0.125714  1
  Hf  Hf16  1  0.000000  0.000000  0.500000  1
  Hf  Hf17  1  0.000000  0.000000  0.000000  1
  Hf  Hf18  1  0.500000  0.500000  0.000000  1
  Hf  Hf19  1  0.500000  0.500000  0.500000  1
  Ir  Ir20  1  0.854986  0.145014  0.250000  1
  Ir  Ir21  1  0.854986  0.854986  0.750000  1
  Ir  Ir22  1  0.145014  0.145014  0.750000  1
  Ir  Ir23  1  0.145014  0.854986  0.250000  1
  Ir  Ir24  1  0.645014  0.354986  0.750000  1
  Ir  Ir25  1  0.645014  0.645014  0.250000  1
  Ir  Ir26  1  0.354986  0.354986  0.250000  1
  Ir  Ir27  1  0.354986  0.645014  0.750000  1
  Ir  Ir28  1  0.500000  0.000000  0.123202  1
  Ir  Ir29  1  0.500000  0.000000  0.623202  1
  Ir  Ir30  1  0.000000  0.500000  0.876798  1
  Ir  Ir31  1  0.000000  0.500000  0.376798  1
