# generated using pymatgen
data_HoTm15(HfIr3)4
_symmetry_space_group_name_H-M   'P 1'
_cell_length_a   10.72831804
_cell_length_b   10.72565301
_cell_length_c   6.20202202
_cell_angle_alpha   90.00057469
_cell_angle_beta   90.00861488
_cell_angle_gamma   90.00431573
_symmetry_Int_Tables_number   1
_chemical_formula_structural   HoTm15(HfIr3)4
_chemical_formula_sum   'Ho1 Tm15 Hf4 Ir12'
_cell_volume   713.65560295
_cell_formula_units_Z   1
loop_
 _symmetry_equiv_pos_site_id
 _symmetry_equiv_pos_as_xyz
  1  'x, y, z'
loop_
 _atom_site_type_symbol
 _atom_site_label
 _atom_site_symmetry_multiplicity
 _atom_site_fract_x
 _atom_site_fract_y
 _atom_site_fract_z
 _atom_site_occupancy
  Ho  Ho0  1  0.289590  0.086340  0.373694  1
  Tm  Tm1  1  0.289862  0.913759  0.873984  1
  Tm  Tm2  1  0.710130  0.086107  0.874040  1
  Tm  Tm3  1  0.710176  0.913894  0.374019  1
  Tm  Tm4  1  0.586094  0.789835  0.874022  1
  Tm  Tm5  1  0.586300  0.210209  0.374013  1
  Tm  Tm6  1  0.413974  0.789677  0.374049  1
  Tm  Tm7  1  0.414016  0.210240  0.874009  1
  Tm  Tm8  1  0.210127  0.413954  0.626056  1
  Tm  Tm9  1  0.210159  0.586088  0.125960  1
  Tm  Tm10  1  0.789856  0.413911  0.125974  1
  Tm  Tm11  1  0.789865  0.586093  0.625957  1
  Tm  Tm12  1  0.913915  0.710140  0.125974  1
  Tm  Tm13  1  0.913904  0.289866  0.625953  1
  Tm  Tm14  1  0.086089  0.710143  0.626001  1
  Tm  Tm15  1  0.085939  0.289967  0.125824  1
  Hf  Hf16  1  0.999706  0.999861  0.500172  1
  Hf  Hf17  1  0.999938  0.999952  0.999988  1
  Hf  Hf18  1  0.500036  0.500006  0.999994  1
  Hf  Hf19  1  0.500013  0.500011  0.500065  1
  Ir  Ir20  1  0.855059  0.144976  0.250001  1
  Ir  Ir21  1  0.855018  0.855054  0.749975  1
  Ir  Ir22  1  0.144704  0.145098  0.750577  1
  Ir  Ir23  1  0.144778  0.854751  0.249839  1
  Ir  Ir24  1  0.644972  0.355055  0.749991  1
  Ir  Ir25  1  0.644947  0.644972  0.250008  1
  Ir  Ir26  1  0.355132  0.355365  0.249846  1
  Ir  Ir27  1  0.355050  0.644958  0.749983  1
  Ir  Ir28  1  0.500318  0.999860  0.122187  1
  Ir  Ir29  1  0.500333  0.999848  0.622855  1
  Ir  Ir30  1  0.000004  0.499983  0.877498  1
  Ir  Ir31  1  0.999996  0.500025  0.377492  1
