# generated using pymatgen
data_Ce3Dy(WN3)4
_symmetry_space_group_name_H-M   'P 1'
_cell_length_a   5.51774322
_cell_length_b   5.63955197
_cell_length_c   7.88886600
_cell_angle_alpha   90.00000000
_cell_angle_beta   90.00000000
_cell_angle_gamma   89.79996356
_symmetry_Int_Tables_number   1
_chemical_formula_structural   Ce3Dy(WN3)4
_chemical_formula_sum   'Ce3 Dy1 W4 N12'
_cell_volume   245.48107789
_cell_formula_units_Z   1
loop_
 _symmetry_equiv_pos_site_id
 _symmetry_equiv_pos_as_xyz
  1  'x, y, z'
loop_
 _atom_site_type_symbol
 _atom_site_label
 _atom_site_symmetry_multiplicity
 _atom_site_fract_x
 _atom_site_fract_y
 _atom_site_fract_z
 _atom_site_occupancy
  Ce  Ce0  1  0.491737  0.446601  0.250000  1
  Ce  Ce1  1  0.006655  0.950731  0.250000  1
  Ce  Ce2  1  0.500042  0.552760  0.750000  1
  Dy  Dy3  1  0.994396  0.056235  0.750000  1
  W  W4  1  0.501993  0.999820  0.501800  1
  W  W5  1  0.997832  0.500743  0.998831  1
  W  W6  1  0.997832  0.500743  0.501169  1
  W  W7  1  0.501993  0.999820  0.998200  1
  N  N8  1  0.700698  0.297795  0.540463  1
  N  N9  1  0.303492  0.698103  0.040051  1
  N  N10  1  0.200662  0.201328  0.043267  1
  N  N11  1  0.415045  0.983579  0.750000  1
  N  N12  1  0.919212  0.522402  0.250000  1
  N  N13  1  0.303492  0.698103  0.459949  1
  N  N14  1  0.802712  0.799796  0.956023  1
  N  N15  1  0.700698  0.297795  0.959537  1
  N  N16  1  0.802712  0.799796  0.543977  1
  N  N17  1  0.077980  0.475913  0.750000  1
  N  N18  1  0.200662  0.201328  0.456733  1
  N  N19  1  0.580154  0.016606  0.250000  1
