# generated using pymatgen
data_TlSb12RuRh3
_symmetry_space_group_name_H-M   'P 1'
_cell_length_a   8.16487834
_cell_length_b   8.16387481
_cell_length_c   8.16487809
_cell_angle_alpha   109.46873084
_cell_angle_beta   109.47370877
_cell_angle_gamma   109.46873687
_symmetry_Int_Tables_number   1
_chemical_formula_structural   TlSb12RuRh3
_chemical_formula_sum   'Tl1 Sb12 Ru1 Rh3'
_cell_volume   418.97411116
_cell_formula_units_Z   1
loop_
 _symmetry_equiv_pos_site_id
 _symmetry_equiv_pos_as_xyz
  1  'x, y, z'
loop_
 _atom_site_type_symbol
 _atom_site_label
 _atom_site_symmetry_multiplicity
 _atom_site_fract_x
 _atom_site_fract_y
 _atom_site_fract_z
 _atom_site_occupancy
  Tl  Tl0  1  0.000000  0.000000  0.000000  1
  Sb  Sb1  1  0.844144  0.657426  0.501761  1
  Sb  Sb2  1  0.155856  0.342574  0.498239  1
  Sb  Sb3  1  0.155624  0.659412  0.817638  1
  Sb  Sb4  1  0.844376  0.340588  0.182362  1
  Sb  Sb5  1  0.662013  0.503787  0.844376  1
  Sb  Sb6  1  0.337987  0.496213  0.155624  1
  Sb  Sb7  1  0.657617  0.813282  0.155856  1
  Sb  Sb8  1  0.342383  0.186718  0.844144  1
  Sb  Sb9  1  0.501761  0.844336  0.657617  1
  Sb  Sb10  1  0.498239  0.155664  0.342383  1
  Sb  Sb11  1  0.182362  0.841774  0.337987  1
  Sb  Sb12  1  0.817638  0.158226  0.662013  1
  Ru  Ru13  1  0.000000  0.500000  0.000000  1
  Rh  Rh14  1  0.500000  0.500000  0.500000  1
  Rh  Rh15  1  0.500000  0.000000  0.000000  1
  Rh  Rh16  1  0.000000  0.000000  0.500000  1
