# generated using pymatgen
data_CaTb5(Si3Os)8
_symmetry_space_group_name_H-M   'P 1'
_cell_length_a   10.15698454
_cell_length_b   10.15698523
_cell_length_c   8.19403800
_cell_angle_alpha   89.87815365
_cell_angle_beta   90.12184817
_cell_angle_gamma   132.43909307
_symmetry_Int_Tables_number   1
_chemical_formula_structural   CaTb5(Si3Os)8
_chemical_formula_sum   'Ca1 Tb5 Si24 Os8'
_cell_volume   623.84957812
_cell_formula_units_Z   1
loop_
 _symmetry_equiv_pos_site_id
 _symmetry_equiv_pos_as_xyz
  1  'x, y, z'
loop_
 _atom_site_type_symbol
 _atom_site_label
 _atom_site_symmetry_multiplicity
 _atom_site_fract_x
 _atom_site_fract_y
 _atom_site_fract_z
 _atom_site_occupancy
  Ca  Ca0  1  0.501056  0.001056  0.750000  1
  Tb  Tb1  1  0.500211  0.500293  0.500660  1
  Tb  Tb2  1  0.000293  0.000211  0.999340  1
  Tb  Tb3  1  0.999814  0.499814  0.250000  1
  Tb  Tb4  1  0.498221  0.998221  0.250000  1
  Tb  Tb5  1  0.001716  0.501716  0.750000  1
  Si  Si6  1  0.794102  0.203561  0.500672  1
  Si  Si7  1  0.295874  0.705791  0.998460  1
  Si  Si8  1  0.205791  0.795874  0.501540  1
  Si  Si9  1  0.703561  0.294102  0.999328  1
  Si  Si10  1  0.332276  0.334224  0.833238  1
  Si  Si11  1  0.666912  0.668757  0.166736  1
  Si  Si12  1  0.168757  0.166912  0.333264  1
  Si  Si13  1  0.834224  0.832276  0.666762  1
  Si  Si14  1  0.120074  0.885022  0.728042  1
  Si  Si15  1  0.112264  0.877891  0.272795  1
  Si  Si16  1  0.612307  0.378225  0.228101  1
  Si  Si17  1  0.624653  0.389950  0.771747  1
  Si  Si18  1  0.878225  0.112307  0.271899  1
  Si  Si19  1  0.889950  0.124653  0.728253  1
  Si  Si20  1  0.385022  0.620074  0.771958  1
  Si  Si21  1  0.377891  0.612264  0.227205  1
  Si  Si22  1  0.344585  0.110838  0.502015  1
  Si  Si23  1  0.888868  0.655040  0.495492  1
  Si  Si24  1  0.388329  0.154267  0.006493  1
  Si  Si25  1  0.844523  0.611193  0.995212  1
  Si  Si26  1  0.654267  0.888329  0.493507  1
  Si  Si27  1  0.111193  0.344523  0.504788  1
  Si  Si28  1  0.610838  0.844585  0.997985  1
  Si  Si29  1  0.155040  0.388868  0.004508  1
  Os  Os30  1  0.669622  0.330818  0.499277  1
  Os  Os31  1  0.167610  0.829640  0.001815  1
  Os  Os32  1  0.329640  0.667610  0.498185  1
  Os  Os33  1  0.830818  0.169622  0.000723  1
  Os  Os34  1  0.127232  0.126934  0.627646  1
  Os  Os35  1  0.873412  0.873891  0.372658  1
  Os  Os36  1  0.373891  0.373412  0.127342  1
  Os  Os37  1  0.626934  0.627232  0.872354  1
