# generated using pymatgen
data_Sr12Si3GeI8
_symmetry_space_group_name_H-M   'P 1'
_cell_length_a   15.79766776
_cell_length_b   15.06337776
_cell_length_c   8.36068056
_cell_angle_alpha   79.19019218
_cell_angle_beta   69.48803220
_cell_angle_gamma   31.31725778
_symmetry_Int_Tables_number   1
_chemical_formula_structural   Sr12Si3GeI8
_chemical_formula_sum   'Sr12 Si3 Ge1 I8'
_cell_volume   942.67426982
_cell_formula_units_Z   1
loop_
 _symmetry_equiv_pos_site_id
 _symmetry_equiv_pos_as_xyz
  1  'x, y, z'
loop_
 _atom_site_type_symbol
 _atom_site_label
 _atom_site_symmetry_multiplicity
 _atom_site_fract_x
 _atom_site_fract_y
 _atom_site_fract_z
 _atom_site_occupancy
  Sr  Sr0  1  0.364760  0.950971  0.588259  1
  Sr  Sr1  1  0.589463  0.095378  0.363752  1
  Sr  Sr2  1  0.299596  0.885042  0.155418  1
  Sr  Sr3  1  0.950971  0.364760  0.096011  1
  Sr  Sr4  1  0.450572  0.049146  0.048997  1
  Sr  Sr5  1  0.885042  0.299596  0.659942  1
  Sr  Sr6  1  0.095378  0.589463  0.951408  1
  Sr  Sr7  1  0.660749  0.154603  0.886058  1
  Sr  Sr8  1  0.798452  0.201356  0.201539  1
  Sr  Sr9  1  0.201356  0.798452  0.798652  1
  Sr  Sr10  1  0.154603  0.660749  0.298590  1
  Sr  Sr11  1  0.049146  0.450572  0.451285  1
  Si  Si12  1  0.915864  0.915864  0.084136  1
  Si  Si13  1  0.166077  0.166077  0.333923  1
  Si  Si14  1  0.334050  0.334050  0.165950  1
  Ge  Ge15  1  0.084079  0.084079  0.915921  1
  I  I16  1  0.672507  0.672507  0.827493  1
  I  I17  1  0.745092  0.745092  0.254908  1
  I  I18  1  0.254657  0.254657  0.745343  1
  I  I19  1  0.577365  0.577365  0.422635  1
  I  I20  1  0.995208  0.995208  0.504792  1
  I  I21  1  0.827064  0.827064  0.672936  1
  I  I22  1  0.422950  0.422950  0.577050  1
  I  I23  1  0.504999  0.504999  0.995001  1
