# generated using pymatgen
data_Sr(TiS2)4
_symmetry_space_group_name_H-M   'P 1'
_cell_length_a   8.22370454
_cell_length_b   8.22370494
_cell_length_c   8.22370546
_cell_angle_alpha   49.29452335
_cell_angle_beta   49.29452163
_cell_angle_gamma   49.29451927
_symmetry_Int_Tables_number   1
_chemical_formula_structural   Sr(TiS2)4
_chemical_formula_sum   'Sr1 Ti4 S8'
_cell_volume   293.65806651
_cell_formula_units_Z   1
loop_
 _symmetry_equiv_pos_site_id
 _symmetry_equiv_pos_as_xyz
  1  'x, y, z'
loop_
 _atom_site_type_symbol
 _atom_site_label
 _atom_site_symmetry_multiplicity
 _atom_site_fract_x
 _atom_site_fract_y
 _atom_site_fract_z
 _atom_site_occupancy
  Sr  Sr0  1  0.500000  0.500000  0.500000  1
  Ti  Ti1  1  0.000000  0.500000  0.500000  1
  Ti  Ti2  1  0.500000  0.000000  0.500000  1
  Ti  Ti3  1  0.500000  0.500000  0.000000  1
  Ti  Ti4  1  0.000000  0.000000  0.000000  1
  S  S5  1  0.262104  0.768588  0.768588  1
  S  S6  1  0.231412  0.231412  0.737896  1
  S  S7  1  0.737896  0.231412  0.231412  1
  S  S8  1  0.231412  0.737896  0.231412  1
  S  S9  1  0.267466  0.267466  0.267466  1
  S  S10  1  0.732534  0.732534  0.732534  1
  S  S11  1  0.768588  0.262104  0.768588  1
  S  S12  1  0.768588  0.768588  0.262104  1
