# generated using pymatgen
data_Tb4InPd5Pt6
_symmetry_space_group_name_H-M   'P 1'
_cell_length_a   4.22448300
_cell_length_b   5.86250616
_cell_length_c   11.69603525
_cell_angle_alpha   87.18292842
_cell_angle_beta   90.00000000
_cell_angle_gamma   90.00000000
_symmetry_Int_Tables_number   1
_chemical_formula_structural   Tb4InPd5Pt6
_chemical_formula_sum   'Tb4 In1 Pd5 Pt6'
_cell_volume   289.31463391
_cell_formula_units_Z   1
loop_
 _symmetry_equiv_pos_site_id
 _symmetry_equiv_pos_as_xyz
  1  'x, y, z'
loop_
 _atom_site_type_symbol
 _atom_site_label
 _atom_site_symmetry_multiplicity
 _atom_site_fract_x
 _atom_site_fract_y
 _atom_site_fract_z
 _atom_site_occupancy
  Tb  Tb0  1  0.500000  0.756568  0.375872  1
  Tb  Tb1  1  0.500000  0.714604  0.860823  1
  Tb  Tb2  1  0.500000  0.285157  0.139728  1
  Tb  Tb3  1  0.500000  0.243666  0.624238  1
  In  In4  1  0.000000  0.000200  0.999858  1
  Pd  Pd5  1  0.000000  0.500801  0.499959  1
  Pd  Pd6  1  0.500000  0.255488  0.377857  1
  Pd  Pd7  1  0.500000  0.223557  0.882021  1
  Pd  Pd8  1  0.500000  0.776181  0.117789  1
  Pd  Pd9  1  0.000000  0.999397  0.499971  1
  Pt  Pt10  1  0.000000  0.015245  0.250621  1
  Pt  Pt11  1  0.000000  0.984398  0.749302  1
  Pt  Pt12  1  0.000000  0.499693  0.000134  1
  Pt  Pt13  1  0.000000  0.520096  0.250509  1
  Pt  Pt14  1  0.000000  0.480254  0.749520  1
  Pt  Pt15  1  0.500000  0.744695  0.621797  1
