# generated using pymatgen
data_TbTm3CdPt
_symmetry_space_group_name_H-M   'P 1'
_cell_length_a   9.61760863
_cell_length_b   9.60765244
_cell_length_c   9.60765316
_cell_angle_alpha   60.06857479
_cell_angle_beta   59.96571073
_cell_angle_gamma   59.96571054
_symmetry_Int_Tables_number   1
_chemical_formula_structural   TbTm3CdPt
_chemical_formula_sum   'Tb4 Tm12 Cd4 Pt4'
_cell_volume   627.74860460
_cell_formula_units_Z   4
loop_
 _symmetry_equiv_pos_site_id
 _symmetry_equiv_pos_as_xyz
  1  'x, y, z'
loop_
 _atom_site_type_symbol
 _atom_site_label
 _atom_site_symmetry_multiplicity
 _atom_site_fract_x
 _atom_site_fract_y
 _atom_site_fract_z
 _atom_site_occupancy
  Tb  Tb0  1  0.564567  0.935433  0.564567  1
  Tb  Tb1  1  0.935433  0.564567  0.935433  1
  Tb  Tb2  1  0.564567  0.564567  0.935433  1
  Tb  Tb3  1  0.935433  0.935433  0.564567  1
  Tm  Tm4  1  0.351206  0.352165  0.352165  1
  Tm  Tm5  1  0.352165  0.351206  0.944464  1
  Tm  Tm6  1  0.352165  0.944464  0.351206  1
  Tm  Tm7  1  0.944464  0.352165  0.352165  1
  Tm  Tm8  1  0.810497  0.189503  0.189503  1
  Tm  Tm9  1  0.189503  0.810497  0.810497  1
  Tm  Tm10  1  0.189493  0.810507  0.189493  1
  Tm  Tm11  1  0.810507  0.189493  0.810507  1
  Tm  Tm12  1  0.189493  0.189493  0.810507  1
  Tm  Tm13  1  0.810507  0.810507  0.189493  1
  Tm  Tm14  1  0.936884  0.563116  0.563116  1
  Tm  Tm15  1  0.563116  0.936884  0.936884  1
  Cd  Cd16  1  0.582200  0.581170  0.581170  1
  Cd  Cd17  1  0.581170  0.582200  0.255459  1
  Cd  Cd18  1  0.581170  0.255459  0.582200  1
  Cd  Cd19  1  0.255459  0.581170  0.581170  1
  Pt  Pt20  1  0.143576  0.142628  0.142628  1
  Pt  Pt21  1  0.142628  0.143576  0.571168  1
  Pt  Pt22  1  0.142628  0.571168  0.143576  1
  Pt  Pt23  1  0.571168  0.142628  0.142628  1
