# generated using pymatgen
data_Dy20Ir5Ru4Rh3
_symmetry_space_group_name_H-M   'P 1'
_cell_length_a   10.84662036
_cell_length_b   10.84662036
_cell_length_c   6.43504816
_cell_angle_alpha   90.01826655
_cell_angle_beta   90.01826655
_cell_angle_gamma   90.02333602
_symmetry_Int_Tables_number   1
_chemical_formula_structural   Dy20Ir5Ru4Rh3
_chemical_formula_sum   'Dy20 Ir5 Ru4 Rh3'
_cell_volume   757.07795677
_cell_formula_units_Z   1
loop_
 _symmetry_equiv_pos_site_id
 _symmetry_equiv_pos_as_xyz
  1  'x, y, z'
loop_
 _atom_site_type_symbol
 _atom_site_label
 _atom_site_symmetry_multiplicity
 _atom_site_fract_x
 _atom_site_fract_y
 _atom_site_fract_z
 _atom_site_occupancy
  Dy  Dy0  1  0.293793  0.086381  0.377551  1
  Dy  Dy1  1  0.293570  0.911937  0.878953  1
  Dy  Dy2  1  0.705651  0.087673  0.878011  1
  Dy  Dy3  1  0.705603  0.912475  0.377862  1
  Dy  Dy4  1  0.586072  0.793323  0.879041  1
  Dy  Dy5  1  0.586200  0.206661  0.378649  1
  Dy  Dy6  1  0.412819  0.793347  0.378370  1
  Dy  Dy7  1  0.414014  0.206677  0.878793  1
  Dy  Dy8  1  0.206677  0.413928  0.620959  1
  Dy  Dy9  1  0.206653  0.587181  0.121630  1
  Dy  Dy10  1  0.793339  0.413800  0.121351  1
  Dy  Dy11  1  0.793323  0.585986  0.621207  1
  Dy  Dy12  1  0.913619  0.706207  0.122449  1
  Dy  Dy13  1  0.912327  0.294349  0.621989  1
  Dy  Dy14  1  0.088063  0.706430  0.621047  1
  Dy  Dy15  1  0.087525  0.294397  0.122138  1
  Dy  Dy16  1  0.000292  0.999806  0.499456  1
  Dy  Dy17  1  0.000194  0.999708  0.000544  1
  Dy  Dy18  1  0.500044  0.500042  0.999793  1
  Dy  Dy19  1  0.499958  0.499956  0.500207  1
  Ir  Ir20  1  0.151777  0.848223  0.250000  1
  Ir  Ir21  1  0.652746  0.347254  0.750000  1
  Ir  Ir22  1  0.652507  0.652516  0.250108  1
  Ir  Ir23  1  0.347484  0.347493  0.249892  1
  Ir  Ir24  1  0.347579  0.652421  0.750000  1
  Ru  Ru25  1  0.500431  0.000244  0.123351  1
  Ru  Ru26  1  0.500409  0.000239  0.623808  1
  Ru  Ru27  1  0.999761  0.499591  0.876192  1
  Ru  Ru28  1  0.999756  0.499569  0.376649  1
  Rh  Rh29  1  0.848160  0.151840  0.250000  1
  Rh  Rh30  1  0.847744  0.848091  0.749908  1
  Rh  Rh31  1  0.151909  0.152256  0.750092  1
