# generated using pymatgen
data_NdErTm3(In2Pt)2
_symmetry_space_group_name_H-M   'P 1'
_cell_length_a   3.59826400
_cell_length_b   8.16797693
_cell_length_c   18.29537830
_cell_angle_alpha   89.92137525
_cell_angle_beta   90.00000000
_cell_angle_gamma   90.00000000
_symmetry_Int_Tables_number   1
_chemical_formula_structural   NdErTm3(In2Pt)2
_chemical_formula_sum   'Nd2 Er2 Tm6 In8 Pt4'
_cell_volume   537.71049250
_cell_formula_units_Z   2
loop_
 _symmetry_equiv_pos_site_id
 _symmetry_equiv_pos_as_xyz
  1  'x, y, z'
loop_
 _atom_site_type_symbol
 _atom_site_label
 _atom_site_symmetry_multiplicity
 _atom_site_fract_x
 _atom_site_fract_y
 _atom_site_fract_z
 _atom_site_occupancy
  Nd  Nd0  1  0.000000  0.000000  0.000000  1
  Nd  Nd1  1  0.000000  0.500000  0.500000  1
  Er  Er2  1  0.000000  0.257697  0.719406  1
  Er  Er3  1  0.000000  0.742303  0.280594  1
  Tm  Tm4  1  0.000000  0.120521  0.413506  1
  Tm  Tm5  1  0.000000  0.879479  0.586494  1
  Tm  Tm6  1  0.000000  0.379571  0.913517  1
  Tm  Tm7  1  0.000000  0.620429  0.086483  1
  Tm  Tm8  1  0.000000  0.242447  0.219534  1
  Tm  Tm9  1  0.000000  0.757553  0.780466  1
  In  In10  1  0.500000  0.421291  0.348025  1
  In  In11  1  0.500000  0.578709  0.651975  1
  In  In12  1  0.500000  0.078398  0.848074  1
  In  In13  1  0.500000  0.921602  0.151926  1
  In  In14  1  0.500000  0.301203  0.067441  1
  In  In15  1  0.500000  0.698797  0.932559  1
  In  In16  1  0.500000  0.198658  0.567323  1
  In  In17  1  0.500000  0.801342  0.432677  1
  Pt  Pt18  1  0.500000  0.026587  0.303609  1
  Pt  Pt19  1  0.500000  0.973413  0.696391  1
  Pt  Pt20  1  0.500000  0.474586  0.803757  1
  Pt  Pt21  1  0.500000  0.525414  0.196243  1
