# generated using pymatgen
data_Er3Fe8Co3B4
_symmetry_space_group_name_H-M   'P 1'
_cell_length_a   5.03690100
_cell_length_b   5.03690106
_cell_length_c   9.96066700
_cell_angle_alpha   90.00000000
_cell_angle_beta   90.00000000
_cell_angle_gamma   120.00000619
_symmetry_Int_Tables_number   1
_chemical_formula_structural   Er3Fe8Co3B4
_chemical_formula_sum   'Er3 Fe8 Co3 B4'
_cell_volume   218.84965212
_cell_formula_units_Z   1
loop_
 _symmetry_equiv_pos_site_id
 _symmetry_equiv_pos_as_xyz
  1  'x, y, z'
loop_
 _atom_site_type_symbol
 _atom_site_label
 _atom_site_symmetry_multiplicity
 _atom_site_fract_x
 _atom_site_fract_y
 _atom_site_fract_z
 _atom_site_occupancy
  Er  Er0  1  0.000000  0.000000  0.000000  1
  Er  Er1  1  0.000000  0.000000  0.652189  1
  Er  Er2  1  0.000000  0.000000  0.347811  1
  Fe  Fe3  1  0.666667  0.333333  0.000000  1
  Fe  Fe4  1  0.333333  0.666667  0.000000  1
  Fe  Fe5  1  0.500000  0.500000  0.798161  1
  Fe  Fe6  1  0.500000  0.000000  0.798161  1
  Fe  Fe7  1  0.000000  0.500000  0.798161  1
  Fe  Fe8  1  0.500000  0.500000  0.201839  1
  Fe  Fe9  1  0.500000  0.000000  0.201839  1
  Fe  Fe10  1  0.000000  0.500000  0.201839  1
  Co  Co11  1  0.500000  0.500000  0.500000  1
  Co  Co12  1  0.500000  0.000000  0.500000  1
  Co  Co13  1  0.000000  0.500000  0.500000  1
  B  B14  1  0.666667  0.333333  0.647067  1
  B  B15  1  0.333333  0.666667  0.647067  1
  B  B16  1  0.333333  0.666667  0.352933  1
  B  B17  1  0.666667  0.333333  0.352933  1
