# generated using pymatgen
data_Li2TbErSi3
_symmetry_space_group_name_H-M   'P 1'
_cell_length_a   9.26799463
_cell_length_b   9.26799479
_cell_length_c   6.71129900
_cell_angle_alpha   90.00000000
_cell_angle_beta   90.00000000
_cell_angle_gamma   153.60608841
_symmetry_Int_Tables_number   1
_chemical_formula_structural   Li2TbErSi3
_chemical_formula_sum   'Li4 Tb2 Er2 Si6'
_cell_volume   256.26481578
_cell_formula_units_Z   2
loop_
 _symmetry_equiv_pos_site_id
 _symmetry_equiv_pos_as_xyz
  1  'x, y, z'
loop_
 _atom_site_type_symbol
 _atom_site_label
 _atom_site_symmetry_multiplicity
 _atom_site_fract_x
 _atom_site_fract_y
 _atom_site_fract_z
 _atom_site_occupancy
  Li  Li0  1  0.190486  0.809514  0.060015  1
  Li  Li1  1  0.190486  0.809514  0.439985  1
  Li  Li2  1  0.809514  0.190486  0.939985  1
  Li  Li3  1  0.809514  0.190486  0.560015  1
  Tb  Tb4  1  0.553180  0.446820  0.250000  1
  Tb  Tb5  1  0.446820  0.553180  0.750000  1
  Er  Er6  1  0.344981  0.655019  0.250000  1
  Er  Er7  1  0.655019  0.344981  0.750000  1
  Si  Si8  1  0.721893  0.278107  0.250000  1
  Si  Si9  1  0.278107  0.721893  0.750000  1
  Si  Si10  1  0.059486  0.940514  0.927144  1
  Si  Si11  1  0.940514  0.059486  0.072856  1
  Si  Si12  1  0.940514  0.059486  0.427144  1
  Si  Si13  1  0.059486  0.940514  0.572856  1
