# generated using pymatgen
data_DyEr15CdHg3Ir4
_symmetry_space_group_name_H-M   'P 1'
_cell_length_a   9.54111646
_cell_length_b   9.53968861
_cell_length_c   9.54064200
_cell_angle_alpha   59.99669399
_cell_angle_beta   60.00164499
_cell_angle_gamma   59.97062964
_symmetry_Int_Tables_number   1
_chemical_formula_structural   DyEr15CdHg3Ir4
_chemical_formula_sum   'Dy1 Er15 Cd1 Hg3 Ir4'
_cell_volume   613.89494254
_cell_formula_units_Z   1
loop_
 _symmetry_equiv_pos_site_id
 _symmetry_equiv_pos_as_xyz
  1  'x, y, z'
loop_
 _atom_site_type_symbol
 _atom_site_label
 _atom_site_symmetry_multiplicity
 _atom_site_fract_x
 _atom_site_fract_y
 _atom_site_fract_z
 _atom_site_occupancy
  Dy  Dy0  1  0.187060  0.189089  0.811926  1
  Er  Er1  1  0.600375  0.599852  0.599214  1
  Er  Er2  1  0.600375  0.599852  0.200560  1
  Er  Er3  1  0.601008  0.199804  0.599595  1
  Er  Er4  1  0.197452  0.601358  0.600594  1
  Er  Er5  1  0.058960  0.440189  0.440831  1
  Er  Er6  1  0.439223  0.059663  0.060671  1
  Er  Er7  1  0.439223  0.059663  0.440442  1
  Er  Er8  1  0.058960  0.440189  0.060019  1
  Er  Er9  1  0.439571  0.440176  0.060126  1
  Er  Er10  1  0.059411  0.059514  0.440537  1
  Er  Er11  1  0.187291  0.811514  0.811895  1
  Er  Er12  1  0.811058  0.188568  0.188415  1
  Er  Er13  1  0.811058  0.188568  0.811960  1
  Er  Er14  1  0.187291  0.811514  0.189301  1
  Er  Er15  1  0.811339  0.811861  0.188401  1
  Cd  Cd16  1  0.507914  0.830443  0.830821  1
  Hg  Hg17  1  0.833916  0.835804  0.835786  1
  Hg  Hg18  1  0.833916  0.835804  0.494494  1
  Hg  Hg19  1  0.833972  0.494887  0.835571  1
  Ir  Ir20  1  0.391905  0.392418  0.391268  1
  Ir  Ir21  1  0.391905  0.392418  0.824409  1
  Ir  Ir22  1  0.392144  0.824449  0.391704  1
  Ir  Ir23  1  0.824672  0.392406  0.391461  1
