# generated using pymatgen
data_CeCl16
_symmetry_space_group_name_H-M   'P 1'
_cell_length_a   7.46489074
_cell_length_b   10.56527664
_cell_length_c   10.92487280
_cell_angle_alpha   111.46660253
_cell_angle_beta   115.30066719
_cell_angle_gamma   73.84579411
_symmetry_Int_Tables_number   1
_chemical_formula_structural   CeCl16
_chemical_formula_sum   'Ce1 Cl16'
_cell_volume   717.30356700
_cell_formula_units_Z   1
loop_
 _symmetry_equiv_pos_site_id
 _symmetry_equiv_pos_as_xyz
  1  'x, y, z'
loop_
 _atom_site_type_symbol
 _atom_site_label
 _atom_site_symmetry_multiplicity
 _atom_site_fract_x
 _atom_site_fract_y
 _atom_site_fract_z
 _atom_site_occupancy
  Ce  Ce0  1  0.000000  0.000000  0.000000  1
  Cl  Cl1  1  0.822081  0.163770  0.786660  1
  Cl  Cl2  1  0.177919  0.836230  0.213340  1
  Cl  Cl3  1  0.079812  0.831516  0.787864  1
  Cl  Cl4  1  0.920188  0.168484  0.212136  1
  Cl  Cl5  1  0.290547  0.205516  0.117059  1
  Cl  Cl6  1  0.709453  0.794484  0.882941  1
  Cl  Cl7  1  0.011719  0.221445  0.732963  1
  Cl  Cl8  1  0.988281  0.778555  0.267037  1
  Cl  Cl9  1  0.606052  0.059614  0.864366  1
  Cl  Cl10  1  0.393948  0.940386  0.135634  1
  Cl  Cl11  1  0.254904  0.527401  0.656843  1
  Cl  Cl12  1  0.745096  0.472599  0.343157  1
  Cl  Cl13  1  0.170757  0.401621  0.106909  1
  Cl  Cl14  1  0.829243  0.598379  0.893091  1
  Cl  Cl15  1  0.649097  0.655935  0.455793  1
  Cl  Cl16  1  0.350903  0.344065  0.544207  1
