# generated using pymatgen
data_Cs8Zr6MnI20
_symmetry_space_group_name_H-M   'P 1'
_cell_length_a   13.33452052
_cell_length_b   13.33489274
_cell_length_c   13.33441501
_cell_angle_alpha   60.00132019
_cell_angle_beta   60.00414634
_cell_angle_gamma   60.00067362
_symmetry_Int_Tables_number   1
_chemical_formula_structural   Cs8Zr6MnI20
_chemical_formula_sum   'Cs8 Zr6 Mn1 I20'
_cell_volume   1676.66404850
_cell_formula_units_Z   1
loop_
 _symmetry_equiv_pos_site_id
 _symmetry_equiv_pos_as_xyz
  1  'x, y, z'
loop_
 _atom_site_type_symbol
 _atom_site_label
 _atom_site_symmetry_multiplicity
 _atom_site_fract_x
 _atom_site_fract_y
 _atom_site_fract_z
 _atom_site_occupancy
  Cs  Cs0  1  0.361133  0.361132  0.361132  1
  Cs  Cs1  1  0.638867  0.638868  0.638868  1
  Cs  Cs2  1  0.361131  0.361131  0.916609  1
  Cs  Cs3  1  0.361132  0.916607  0.361132  1
  Cs  Cs4  1  0.638869  0.638869  0.083391  1
  Cs  Cs5  1  0.638868  0.083393  0.638868  1
  Cs  Cs6  1  0.916609  0.361131  0.361131  1
  Cs  Cs7  1  0.083391  0.638869  0.638869  1
  Zr  Zr8  1  0.868261  0.131743  0.131743  1
  Zr  Zr9  1  0.131739  0.868257  0.868257  1
  Zr  Zr10  1  0.131740  0.868265  0.131739  1
  Zr  Zr11  1  0.868260  0.131735  0.868261  1
  Zr  Zr12  1  0.131744  0.131741  0.868262  1
  Zr  Zr13  1  0.868256  0.868259  0.131738  1
  Mn  Mn14  1  0.000000  0.000000  0.000000  1
  I  I15  1  0.312710  0.000000  0.000000  1
  I  I16  1  0.687290  0.000000  0.000000  1
  I  I17  1  0.000001  0.312707  0.687293  1
  I  I18  1  0.999999  0.687293  0.312707  1
  I  I19  1  0.999999  0.312717  0.000001  1
  I  I20  1  0.687285  0.000001  0.312715  1
  I  I21  1  0.000001  0.687283  0.999999  1
  I  I22  1  0.312715  0.999999  0.687285  1
  I  I23  1  0.999998  0.000002  0.312711  1
  I  I24  1  0.000002  0.999998  0.687289  1
  I  I25  1  0.687292  0.312708  0.000002  1
  I  I26  1  0.312708  0.687292  0.999998  1
  I  I27  1  0.695996  0.304005  0.304004  1
  I  I28  1  0.304004  0.695995  0.695996  1
  I  I29  1  0.304001  0.695999  0.304002  1
  I  I30  1  0.695999  0.304001  0.695998  1
  I  I31  1  0.304004  0.304005  0.695996  1
  I  I32  1  0.695996  0.695995  0.304004  1
  I  I33  1  0.250000  0.250000  0.250000  1
  I  I34  1  0.750000  0.750000  0.750000  1
