# generated using pymatgen
data_Ta9Ga3Si3W
_symmetry_space_group_name_H-M   'P 1'
_cell_length_a   7.62077198
_cell_length_b   7.62077163
_cell_length_c   7.62126678
_cell_angle_alpha   128.75058356
_cell_angle_beta   128.69240418
_cell_angle_gamma   75.45431404
_symmetry_Int_Tables_number   1
_chemical_formula_structural   Ta9Ga3Si3W
_chemical_formula_sum   'Ta9 Ga3 Si3 W1'
_cell_volume   262.18372625
_cell_formula_units_Z   1
loop_
 _symmetry_equiv_pos_site_id
 _symmetry_equiv_pos_as_xyz
  1  'x, y, z'
loop_
 _atom_site_type_symbol
 _atom_site_label
 _atom_site_symmetry_multiplicity
 _atom_site_fract_x
 _atom_site_fract_y
 _atom_site_fract_z
 _atom_site_occupancy
  Ta  Ta0  1  0.009115  0.187738  0.499213  1
  Ta  Ta1  1  0.687938  0.514796  0.500853  1
  Ta  Ta2  1  0.516556  0.011870  0.829474  1
  Ta  Ta3  1  0.186241  0.683741  0.171064  1
  Ta  Ta4  1  0.986056  0.812914  0.500853  1
  Ta  Ta5  1  0.311476  0.490099  0.499213  1
  Ta  Ta6  1  0.487323  0.984824  0.171064  1
  Ta  Ta7  1  0.817604  0.312918  0.829474  1
  Ta  Ta8  1  0.501659  0.503390  0.005050  1
  Ga  Ga9  1  0.750651  0.748250  0.000010  1
  Ga  Ga10  1  0.251760  0.249360  0.000010  1
  Ga  Ga11  1  0.365230  0.132260  0.497490  1
  Si  Si12  1  0.631454  0.870754  0.502208  1
  Si  Si13  1  0.869704  0.366553  0.236257  1
  Si  Si14  1  0.131408  0.632503  0.763910  1
  W  W15  1  0.995826  0.998032  0.993857  1
