# generated using pymatgen
data_CePr15(MgPt)4
_symmetry_space_group_name_H-M   'P 1'
_cell_length_a   10.17898019
_cell_length_b   10.17067922
_cell_length_c   10.17487078
_cell_angle_alpha   59.78355432
_cell_angle_beta   59.80804281
_cell_angle_gamma   59.80080239
_symmetry_Int_Tables_number   1
_chemical_formula_structural   CePr15(MgPt)4
_chemical_formula_sum   'Ce1 Pr15 Mg4 Pt4'
_cell_volume   741.42410967
_cell_formula_units_Z   1
loop_
 _symmetry_equiv_pos_site_id
 _symmetry_equiv_pos_as_xyz
  1  'x, y, z'
loop_
 _atom_site_type_symbol
 _atom_site_label
 _atom_site_symmetry_multiplicity
 _atom_site_fract_x
 _atom_site_fract_y
 _atom_site_fract_z
 _atom_site_occupancy
  Ce  Ce0  1  0.345325  0.345477  0.345321  1
  Pr  Pr1  1  0.348854  0.349111  0.953064  1
  Pr  Pr2  1  0.348730  0.953356  0.348885  1
  Pr  Pr3  1  0.952770  0.349240  0.349129  1
  Pr  Pr4  1  0.809911  0.190802  0.191214  1
  Pr  Pr5  1  0.188784  0.809934  0.809857  1
  Pr  Pr6  1  0.191585  0.809769  0.191020  1
  Pr  Pr7  1  0.809898  0.188856  0.809958  1
  Pr  Pr8  1  0.191680  0.190669  0.809795  1
  Pr  Pr9  1  0.809892  0.809918  0.188959  1
  Pr  Pr10  1  0.941735  0.562837  0.563163  1
  Pr  Pr11  1  0.562408  0.934729  0.934405  1
  Pr  Pr12  1  0.563124  0.940984  0.562927  1
  Pr  Pr13  1  0.934620  0.561733  0.934969  1
  Pr  Pr14  1  0.563253  0.562831  0.941343  1
  Pr  Pr15  1  0.934302  0.934959  0.562012  1
  Mg  Mg16  1  0.579840  0.579486  0.579700  1
  Mg  Mg17  1  0.578069  0.577974  0.263497  1
  Mg  Mg18  1  0.578058  0.263457  0.578021  1
  Mg  Mg19  1  0.263502  0.577968  0.578046  1
  Pt  Pt20  1  0.142788  0.143990  0.143382  1
  Pt  Pt21  1  0.145650  0.146111  0.569663  1
  Pt  Pt22  1  0.145670  0.569797  0.145838  1
  Pt  Pt23  1  0.569553  0.146014  0.145833  1
