# generated using pymatgen
data_Y6VCo16P12Os
_symmetry_space_group_name_H-M   'P 1'
_cell_length_a   3.71099700
_cell_length_b   10.52882900
_cell_length_c   12.23807700
_cell_angle_alpha   90.00000000
_cell_angle_beta   90.00000000
_cell_angle_gamma   90.00000000
_symmetry_Int_Tables_number   1
_chemical_formula_structural   Y6VCo16P12Os
_chemical_formula_sum   'Y6 V1 Co16 P12 Os1'
_cell_volume   478.17168634
_cell_formula_units_Z   1
loop_
 _symmetry_equiv_pos_site_id
 _symmetry_equiv_pos_as_xyz
  1  'x, y, z'
loop_
 _atom_site_type_symbol
 _atom_site_label
 _atom_site_symmetry_multiplicity
 _atom_site_fract_x
 _atom_site_fract_y
 _atom_site_fract_z
 _atom_site_occupancy
  Y  Y0  1  0.000000  0.500000  0.524830  1
  Y  Y1  1  0.500000  0.000000  0.477672  1
  Y  Y2  1  0.500000  0.818095  0.204760  1
  Y  Y3  1  0.500000  0.181905  0.204760  1
  Y  Y4  1  0.000000  0.682317  0.794033  1
  Y  Y5  1  0.000000  0.317683  0.794033  1
  V  V6  1  0.000000  0.000000  0.845710  1
  Co  Co7  1  0.500000  0.500000  0.702701  1
  Co  Co8  1  0.000000  0.000000  0.297600  1
  Co  Co9  1  0.000000  0.500000  0.987034  1
  Co  Co10  1  0.500000  0.000000  0.013237  1
  Co  Co11  1  0.500000  0.333265  0.990205  1
  Co  Co12  1  0.500000  0.666735  0.990205  1
  Co  Co13  1  0.000000  0.168123  0.008336  1
  Co  Co14  1  0.000000  0.831877  0.008336  1
  Co  Co15  1  0.500000  0.297507  0.430311  1
  Co  Co16  1  0.500000  0.702493  0.430311  1
  Co  Co17  1  0.000000  0.204192  0.568022  1
  Co  Co18  1  0.000000  0.795808  0.568022  1
  Co  Co19  1  0.500000  0.878534  0.708068  1
  Co  Co20  1  0.500000  0.121466  0.708068  1
  Co  Co21  1  0.000000  0.620256  0.291656  1
  Co  Co22  1  0.000000  0.379744  0.291656  1
  P  P23  1  0.500000  0.500000  0.881046  1
  P  P24  1  0.000000  0.000000  0.117818  1
  P  P25  1  0.500000  0.500000  0.349534  1
  P  P26  1  0.000000  0.000000  0.654459  1
  P  P27  1  0.500000  0.310712  0.615554  1
  P  P28  1  0.500000  0.689288  0.615554  1
  P  P29  1  0.000000  0.188720  0.383822  1
  P  P30  1  0.000000  0.811280  0.383822  1
  P  P31  1  0.500000  0.846747  0.892967  1
  P  P32  1  0.500000  0.153253  0.892967  1
  P  P33  1  0.000000  0.653287  0.106891  1
  P  P34  1  0.000000  0.346713  0.106891  1
  Os  Os35  1  0.500000  0.500000  0.159107  1
