# generated using pymatgen
data_SmCu4AgO8
_symmetry_space_group_name_H-M   'P 1'
_cell_length_a   6.28418344
_cell_length_b   6.28418453
_cell_length_c   6.28418365
_cell_angle_alpha   124.72838878
_cell_angle_beta   124.72839146
_cell_angle_gamma   81.98840715
_symmetry_Int_Tables_number   1
_chemical_formula_structural   SmCu4AgO8
_chemical_formula_sum   'Sm1 Cu4 Ag1 O8'
_cell_volume   161.20530907
_cell_formula_units_Z   1
loop_
 _symmetry_equiv_pos_site_id
 _symmetry_equiv_pos_as_xyz
  1  'x, y, z'
loop_
 _atom_site_type_symbol
 _atom_site_label
 _atom_site_symmetry_multiplicity
 _atom_site_fract_x
 _atom_site_fract_y
 _atom_site_fract_z
 _atom_site_occupancy
  Sm  Sm0  1  0.750000  0.250000  0.500000  1
  Cu  Cu1  1  0.875225  0.617726  0.244061  1
  Cu  Cu2  1  0.373665  0.631165  0.755939  1
  Cu  Cu3  1  0.368835  0.124775  0.742501  1
  Cu  Cu4  1  0.382274  0.626335  0.257499  1
  Ag  Ag5  1  0.000000  0.000000  0.000000  1
  O  O6  1  0.419505  0.830251  0.145284  1
  O  O7  1  0.684966  0.274220  0.854716  1
  O  O8  1  0.345593  0.426428  0.374121  1
  O  O9  1  0.052307  0.971472  0.625879  1
  O  O10  1  0.028528  0.654407  0.080836  1
  O  O11  1  0.573572  0.947693  0.919164  1
  O  O12  1  0.169749  0.315034  0.589255  1
  O  O13  1  0.725780  0.580495  0.410745  1
