# generated using pymatgen
data_Ta9Nb3Co8(OsN)4
_symmetry_space_group_name_H-M   'P 1'
_cell_length_a   8.07280190
_cell_length_b   8.07471714
_cell_length_c   8.07487215
_cell_angle_alpha   59.98367178
_cell_angle_beta   60.00083008
_cell_angle_gamma   60.00912384
_symmetry_Int_Tables_number   1
_chemical_formula_structural   Ta9Nb3Co8(OsN)4
_chemical_formula_sum   'Ta9 Nb3 Co8 Os4 N4'
_cell_volume   372.17851865
_cell_formula_units_Z   1
loop_
 _symmetry_equiv_pos_site_id
 _symmetry_equiv_pos_as_xyz
  1  'x, y, z'
loop_
 _atom_site_type_symbol
 _atom_site_label
 _atom_site_symmetry_multiplicity
 _atom_site_fract_x
 _atom_site_fract_y
 _atom_site_fract_z
 _atom_site_occupancy
  Ta  Ta0  1  0.194268  0.805732  0.194268  1
  Ta  Ta1  1  0.194311  0.805630  0.805587  1
  Ta  Ta2  1  0.805587  0.194472  0.194311  1
  Ta  Ta3  1  0.445402  0.444301  0.054719  1
  Ta  Ta4  1  0.054719  0.055579  0.445402  1
  Ta  Ta5  1  0.444810  0.055190  0.444810  1
  Ta  Ta6  1  0.055912  0.444088  0.055912  1
  Ta  Ta7  1  0.055524  0.443457  0.444612  1
  Ta  Ta8  1  0.444612  0.056407  0.055524  1
  Nb  Nb9  1  0.806663  0.806722  0.193131  1
  Nb  Nb10  1  0.193131  0.193484  0.806663  1
  Nb  Nb11  1  0.806553  0.193447  0.806553  1
  Co  Co12  1  0.742242  0.419326  0.418715  1
  Co  Co13  1  0.418672  0.742821  0.418987  1
  Co  Co14  1  0.418715  0.419717  0.742242  1
  Co  Co15  1  0.418987  0.419521  0.418672  1
  Co  Co16  1  0.509570  0.829595  0.830472  1
  Co  Co17  1  0.829442  0.510899  0.830286  1
  Co  Co18  1  0.830472  0.830362  0.509570  1
  Co  Co19  1  0.830286  0.829371  0.829442  1
  Os  Os20  1  0.125046  0.626114  0.624140  1
  Os  Os21  1  0.625260  0.125226  0.623761  1
  Os  Os22  1  0.624140  0.624700  0.125046  1
  Os  Os23  1  0.623761  0.625753  0.625260  1
  N  N24  1  0.622170  0.126913  0.127295  1
  N  N25  1  0.127816  0.623303  0.124636  1
  N  N26  1  0.127295  0.123622  0.622170  1
  N  N27  1  0.124636  0.124245  0.127816  1
