# generated using pymatgen
data_Ho9Zn(Ni2Bi)2
_symmetry_space_group_name_H-M   'P 1'
_cell_length_a   8.86371570
_cell_length_b   8.86371647
_cell_length_c   8.86371488
_cell_angle_alpha   130.90345705
_cell_angle_beta   130.90345297
_cell_angle_gamma   71.96651313
_symmetry_Int_Tables_number   1
_chemical_formula_structural   Ho9Zn(Ni2Bi)2
_chemical_formula_sum   'Ho9 Zn1 Ni4 Bi2'
_cell_volume   389.05874201
_cell_formula_units_Z   1
loop_
 _symmetry_equiv_pos_site_id
 _symmetry_equiv_pos_as_xyz
  1  'x, y, z'
loop_
 _atom_site_type_symbol
 _atom_site_label
 _atom_site_symmetry_multiplicity
 _atom_site_fract_x
 _atom_site_fract_y
 _atom_site_fract_z
 _atom_site_occupancy
  Ho  Ho0  1  0.000000  0.000000  0.000000  1
  Ho  Ho1  1  0.775511  0.307018  0.833433  1
  Ho  Ho2  1  0.224489  0.692982  0.166567  1
  Ho  Ho3  1  0.473584  0.942077  0.166567  1
  Ho  Ho4  1  0.307018  0.473584  0.531506  1
  Ho  Ho5  1  0.057923  0.224489  0.531506  1
  Ho  Ho6  1  0.526416  0.057923  0.833433  1
  Ho  Ho7  1  0.692982  0.526416  0.468494  1
  Ho  Ho8  1  0.942077  0.775511  0.468494  1
  Zn  Zn9  1  0.500000  0.500000  0.000000  1
  Ni  Ni10  1  0.123836  0.629939  0.753775  1
  Ni  Ni11  1  0.876164  0.370061  0.246225  1
  Ni  Ni12  1  0.629939  0.876164  0.506103  1
  Ni  Ni13  1  0.370061  0.123836  0.493897  1
  Bi  Bi14  1  0.232530  0.232530  0.000000  1
  Bi  Bi15  1  0.767470  0.767470  0.000000  1
