# generated using pymatgen
data_Pr12OsRu3
_symmetry_space_group_name_H-M   'P 1'
_cell_length_a   6.57398600
_cell_length_b   7.50567600
_cell_length_c   9.86283900
_cell_angle_alpha   90.00000000
_cell_angle_beta   90.00000000
_cell_angle_gamma   89.99785056
_symmetry_Int_Tables_number   1
_chemical_formula_structural   Pr12OsRu3
_chemical_formula_sum   'Pr12 Os1 Ru3'
_cell_volume   486.65426255
_cell_formula_units_Z   1
loop_
 _symmetry_equiv_pos_site_id
 _symmetry_equiv_pos_as_xyz
  1  'x, y, z'
loop_
 _atom_site_type_symbol
 _atom_site_label
 _atom_site_symmetry_multiplicity
 _atom_site_fract_x
 _atom_site_fract_y
 _atom_site_fract_z
 _atom_site_occupancy
  Pr  Pr0  1  0.325979  0.675308  0.068611  1
  Pr  Pr1  1  0.173638  0.175003  0.431716  1
  Pr  Pr2  1  0.673428  0.324882  0.568555  1
  Pr  Pr3  1  0.827085  0.825171  0.932323  1
  Pr  Pr4  1  0.673428  0.324882  0.931445  1
  Pr  Pr5  1  0.827085  0.825171  0.567677  1
  Pr  Pr6  1  0.325979  0.675308  0.431389  1
  Pr  Pr7  1  0.173638  0.175003  0.068284  1
  Pr  Pr8  1  0.853709  0.540709  0.250000  1
  Pr  Pr9  1  0.645568  0.040802  0.250000  1
  Pr  Pr10  1  0.146452  0.458721  0.750000  1
  Pr  Pr11  1  0.353869  0.958833  0.750000  1
  Os  Os12  1  0.052724  0.884662  0.250000  1
  Ru  Ru13  1  0.447948  0.385005  0.250000  1
  Ru  Ru14  1  0.947927  0.115511  0.750000  1
  Ru  Ru15  1  0.551543  0.615029  0.750000  1
