# generated using pymatgen
data_Ho8ZnHgRh2
_symmetry_space_group_name_H-M   'P 1'
_cell_length_a   9.51259722
_cell_length_b   9.51259720
_cell_length_c   9.52711100
_cell_angle_alpha   59.94951938
_cell_angle_beta   59.94951944
_cell_angle_gamma   59.93470913
_symmetry_Int_Tables_number   1
_chemical_formula_structural   Ho8ZnHgRh2
_chemical_formula_sum   'Ho16 Zn2 Hg2 Rh4'
_cell_volume   608.83305188
_cell_formula_units_Z   2
loop_
 _symmetry_equiv_pos_site_id
 _symmetry_equiv_pos_as_xyz
  1  'x, y, z'
loop_
 _atom_site_type_symbol
 _atom_site_label
 _atom_site_symmetry_multiplicity
 _atom_site_fract_x
 _atom_site_fract_y
 _atom_site_fract_z
 _atom_site_occupancy
  Ho  Ho0  1  0.185710  0.185710  0.814290  1
  Ho  Ho1  1  0.602489  0.602489  0.192176  1
  Ho  Ho2  1  0.438729  0.059702  0.441034  1
  Ho  Ho3  1  0.440397  0.440397  0.059603  1
  Ho  Ho4  1  0.813740  0.189172  0.814172  1
  Ho  Ho5  1  0.189172  0.813740  0.182916  1
  Ho  Ho6  1  0.438729  0.059702  0.060536  1
  Ho  Ho7  1  0.189172  0.813740  0.814172  1
  Ho  Ho8  1  0.059702  0.438729  0.060536  1
  Ho  Ho9  1  0.813514  0.813514  0.186486  1
  Ho  Ho10  1  0.191643  0.602675  0.602841  1
  Ho  Ho11  1  0.059702  0.438729  0.441034  1
  Ho  Ho12  1  0.060538  0.060538  0.439462  1
  Ho  Ho13  1  0.813740  0.189172  0.182916  1
  Ho  Ho14  1  0.602675  0.191643  0.602841  1
  Ho  Ho15  1  0.602489  0.602489  0.602846  1
  Zn  Zn16  1  0.506474  0.829184  0.832171  1
  Zn  Zn17  1  0.829184  0.506474  0.832171  1
  Hg  Hg18  1  0.831035  0.831035  0.835614  1
  Hg  Hg19  1  0.831035  0.831035  0.502317  1
  Rh  Rh20  1  0.393924  0.819574  0.393251  1
  Rh  Rh21  1  0.393316  0.393316  0.392804  1
  Rh  Rh22  1  0.819574  0.393924  0.393251  1
  Rh  Rh23  1  0.393316  0.393316  0.820564  1
