# generated using pymatgen
data_Hf5AlSb2
_symmetry_space_group_name_H-M   'P 1'
_cell_length_a   5.52076626
_cell_length_b   8.26944999
_cell_length_c   8.26945060
_cell_angle_alpha   83.60249102
_cell_angle_beta   70.50011764
_cell_angle_gamma   70.50011068
_symmetry_Int_Tables_number   1
_chemical_formula_structural   Hf5AlSb2
_chemical_formula_sum   'Hf10 Al2 Sb4'
_cell_volume   335.46433779
_cell_formula_units_Z   2
loop_
 _symmetry_equiv_pos_site_id
 _symmetry_equiv_pos_as_xyz
  1  'x, y, z'
loop_
 _atom_site_type_symbol
 _atom_site_label
 _atom_site_symmetry_multiplicity
 _atom_site_fract_x
 _atom_site_fract_y
 _atom_site_fract_z
 _atom_site_occupancy
  Hf  Hf0  1  0.076004  0.138688  0.709305  1
  Hf  Hf1  1  0.923996  0.861312  0.290695  1
  Hf  Hf2  1  0.785309  0.290695  0.138688  1
  Hf  Hf3  1  0.423996  0.290695  0.861312  1
  Hf  Hf4  1  0.214691  0.709305  0.861312  1
  Hf  Hf5  1  0.576004  0.709305  0.138688  1
  Hf  Hf6  1  0.714691  0.861312  0.709305  1
  Hf  Hf7  1  0.285309  0.138688  0.290695  1
  Hf  Hf8  1  0.250000  0.500000  0.500000  1
  Hf  Hf9  1  0.750000  0.500000  0.500000  1
  Al  Al10  1  0.250000  0.000000  0.000000  1
  Al  Al11  1  0.750000  0.000000  0.000000  1
  Sb  Sb12  1  0.163765  0.500000  0.172470  1
  Sb  Sb13  1  0.836235  0.500000  0.827530  1
  Sb  Sb14  1  0.336235  0.827530  0.500000  1
  Sb  Sb15  1  0.663765  0.172470  0.500000  1
