# generated using pymatgen
data_Li4Nd4Si5Hg
_symmetry_space_group_name_H-M   'P 1'
_cell_length_a   9.59410797
_cell_length_b   9.59410794
_cell_length_c   6.85260900
_cell_angle_alpha   90.00000000
_cell_angle_beta   90.00000000
_cell_angle_gamma   153.05723748
_symmetry_Int_Tables_number   1
_chemical_formula_structural   Li4Nd4Si5Hg
_chemical_formula_sum   'Li4 Nd4 Si5 Hg1'
_cell_volume   285.79812993
_cell_formula_units_Z   1
loop_
 _symmetry_equiv_pos_site_id
 _symmetry_equiv_pos_as_xyz
  1  'x, y, z'
loop_
 _atom_site_type_symbol
 _atom_site_label
 _atom_site_symmetry_multiplicity
 _atom_site_fract_x
 _atom_site_fract_y
 _atom_site_fract_z
 _atom_site_occupancy
  Li  Li0  1  0.187429  0.812571  0.048089  1
  Li  Li1  1  0.187429  0.812571  0.451911  1
  Li  Li2  1  0.814237  0.185763  0.930738  1
  Li  Li3  1  0.814237  0.185763  0.569262  1
  Nd  Nd4  1  0.347369  0.652631  0.250000  1
  Nd  Nd5  1  0.654794  0.345206  0.750000  1
  Nd  Nd6  1  0.547240  0.452760  0.250000  1
  Nd  Nd7  1  0.448438  0.551562  0.750000  1
  Si  Si8  1  0.280123  0.719877  0.750000  1
  Si  Si9  1  0.057722  0.942278  0.924786  1
  Si  Si10  1  0.941892  0.058108  0.075272  1
  Si  Si11  1  0.941892  0.058108  0.424728  1
  Si  Si12  1  0.057722  0.942278  0.575214  1
  Hg  Hg13  1  0.719476  0.280524  0.250000  1
