# generated using pymatgen
data_Ho8AlPd23Au
_symmetry_space_group_name_H-M   'P 1'
_cell_length_a   8.31369900
_cell_length_b   8.35990500
_cell_length_c   8.35831800
_cell_angle_alpha   90.00000000
_cell_angle_beta   90.00000000
_cell_angle_gamma   90.00000000
_symmetry_Int_Tables_number   1
_chemical_formula_structural   Ho8AlPd23Au
_chemical_formula_sum   'Ho8 Al1 Pd23 Au1'
_cell_volume   580.91759297
_cell_formula_units_Z   1
loop_
 _symmetry_equiv_pos_site_id
 _symmetry_equiv_pos_as_xyz
  1  'x, y, z'
loop_
 _atom_site_type_symbol
 _atom_site_label
 _atom_site_symmetry_multiplicity
 _atom_site_fract_x
 _atom_site_fract_y
 _atom_site_fract_z
 _atom_site_occupancy
  Ho  Ho0  1  0.251908  0.248660  0.255909  1
  Ho  Ho1  1  0.747868  0.748035  0.747452  1
  Ho  Ho2  1  0.747868  0.748035  0.252548  1
  Ho  Ho3  1  0.747868  0.251965  0.747452  1
  Ho  Ho4  1  0.251908  0.248660  0.744091  1
  Ho  Ho5  1  0.251908  0.751340  0.255909  1
  Ho  Ho6  1  0.251908  0.751340  0.744091  1
  Ho  Ho7  1  0.747868  0.251965  0.252548  1
  Al  Al8  1  0.000249  0.000000  0.000000  1
  Pd  Pd9  1  0.740440  0.500000  0.000000  1
  Pd  Pd10  1  0.999920  0.259393  0.500000  1
  Pd  Pd11  1  0.499939  0.258492  0.000000  1
  Pd  Pd12  1  0.999920  0.740607  0.500000  1
  Pd  Pd13  1  0.499939  0.741508  0.000000  1
  Pd  Pd14  1  0.500219  0.000000  0.259587  1
  Pd  Pd15  1  0.259571  0.000000  0.500000  1
  Pd  Pd16  1  0.500219  0.000000  0.740413  1
  Pd  Pd17  1  0.740333  0.000000  0.500000  1
  Pd  Pd18  1  0.000222  0.500000  0.260144  1
  Pd  Pd19  1  0.000222  0.500000  0.739856  1
  Pd  Pd20  1  0.252853  0.500000  0.500000  1
  Pd  Pd21  1  0.747058  0.500000  0.500000  1
  Pd  Pd22  1  0.500113  0.252918  0.500000  1
  Pd  Pd23  1  0.500113  0.747082  0.500000  1
  Pd  Pd24  1  0.499906  0.500000  0.254130  1
  Pd  Pd25  1  0.499906  0.500000  0.745870  1
  Pd  Pd26  1  0.288688  0.000000  0.000000  1
  Pd  Pd27  1  0.711139  0.000000  0.000000  1
  Pd  Pd28  1  0.999875  0.287488  0.000000  1
  Pd  Pd29  1  0.999875  0.712512  0.000000  1
  Pd  Pd30  1  0.999572  0.000000  0.288400  1
  Pd  Pd31  1  0.999572  0.000000  0.711600  1
  Au  Au32  1  0.261033  0.500000  0.000000  1
