# generated using pymatgen
data_Ca4ThSi12Ir19
_symmetry_space_group_name_H-M   'P 1'
_cell_length_a   12.85288800
_cell_length_b   12.85288942
_cell_length_c   4.02704900
_cell_angle_alpha   90.00000000
_cell_angle_beta   90.00000000
_cell_angle_gamma   120.00000665
_symmetry_Int_Tables_number   1
_chemical_formula_structural   Ca4ThSi12Ir19
_chemical_formula_sum   'Ca4 Th1 Si12 Ir19'
_cell_volume   576.12803726
_cell_formula_units_Z   1
loop_
 _symmetry_equiv_pos_site_id
 _symmetry_equiv_pos_as_xyz
  1  'x, y, z'
loop_
 _atom_site_type_symbol
 _atom_site_label
 _atom_site_symmetry_multiplicity
 _atom_site_fract_x
 _atom_site_fract_y
 _atom_site_fract_z
 _atom_site_occupancy
  Ca  Ca0  1  0.999619  0.181582  0.500000  1
  Ca  Ca1  1  0.818418  0.818037  0.500000  1
  Ca  Ca2  1  0.181963  0.000381  0.500000  1
  Ca  Ca3  1  0.333333  0.666667  0.000000  1
  Th  Th4  1  0.666667  0.333333  0.000000  1
  Si  Si5  1  0.475148  0.311219  0.500000  1
  Si  Si6  1  0.816777  0.998296  0.000000  1
  Si  Si7  1  0.181519  0.183223  0.000000  1
  Si  Si8  1  0.001704  0.818481  0.000000  1
  Si  Si9  1  0.366583  0.998117  0.000000  1
  Si  Si10  1  0.688781  0.163930  0.500000  1
  Si  Si11  1  0.836070  0.524852  0.500000  1
  Si  Si12  1  0.518917  0.831224  0.500000  1
  Si  Si13  1  0.168776  0.687692  0.500000  1
  Si  Si14  1  0.312308  0.481083  0.500000  1
  Si  Si15  1  0.001883  0.368466  0.000000  1
  Si  Si16  1  0.631534  0.633417  0.000000  1
  Ir  Ir17  1  0.806188  0.183588  0.000000  1
  Ir  Ir18  1  0.377399  0.193812  0.000000  1
  Ir  Ir19  1  0.638663  0.510240  0.500000  1
  Ir  Ir20  1  0.871578  0.361337  0.500000  1
  Ir  Ir21  1  0.361632  0.876111  0.500000  1
  Ir  Ir22  1  0.514479  0.638368  0.500000  1
  Ir  Ir23  1  0.123889  0.485521  0.500000  1
  Ir  Ir24  1  0.816412  0.622601  0.000000  1
  Ir  Ir25  1  0.620264  0.816646  0.000000  1
  Ir  Ir26  1  0.183354  0.803617  0.000000  1
  Ir  Ir27  1  0.196383  0.379736  0.000000  1
  Ir  Ir28  1  0.001547  0.718176  0.500000  1
  Ir  Ir29  1  0.281824  0.283371  0.500000  1
  Ir  Ir30  1  0.716629  0.998453  0.500000  1
  Ir  Ir31  1  0.997290  0.550137  0.000000  1
  Ir  Ir32  1  0.449863  0.447154  0.000000  1
  Ir  Ir33  1  0.552846  0.002710  0.000000  1
  Ir  Ir34  1  0.000000  0.000000  0.000000  1
  Ir  Ir35  1  0.489760  0.128422  0.500000  1
