# generated using pymatgen
data_Yb3Pr5(Mo2C3)4
_symmetry_space_group_name_H-M   'P 1'
_cell_length_a   6.66734615
_cell_length_b   5.97626221
_cell_length_c   12.03101764
_cell_angle_alpha   67.33433196
_cell_angle_beta   89.96017519
_cell_angle_gamma   90.14711115
_symmetry_Int_Tables_number   1
_chemical_formula_structural   Yb3Pr5(Mo2C3)4
_chemical_formula_sum   'Yb3 Pr5 Mo8 C12'
_cell_volume   442.36007950
_cell_formula_units_Z   1
loop_
 _symmetry_equiv_pos_site_id
 _symmetry_equiv_pos_as_xyz
  1  'x, y, z'
loop_
 _atom_site_type_symbol
 _atom_site_label
 _atom_site_symmetry_multiplicity
 _atom_site_fract_x
 _atom_site_fract_y
 _atom_site_fract_z
 _atom_site_occupancy
  Yb  Yb0  1  0.797199  0.691029  0.910550  1
  Yb  Yb1  1  0.293277  0.305061  0.591489  1
  Yb  Yb2  1  0.201807  0.309778  0.089520  1
  Pr  Pr3  1  0.710896  0.682821  0.408971  1
  Pr  Pr4  1  0.999689  0.724118  0.638448  1
  Pr  Pr5  1  0.495651  0.277309  0.863718  1
  Pr  Pr6  1  0.007628  0.273904  0.362724  1
  Pr  Pr7  1  0.499944  0.725036  0.132741  1
  Mo  Mo8  1  0.992308  0.821577  0.121740  1
  Mo  Mo9  1  0.494499  0.179730  0.378881  1
  Mo  Mo10  1  0.004681  0.179478  0.878516  1
  Mo  Mo11  1  0.505899  0.820106  0.621711  1
  Mo  Mo12  1  0.758574  0.176572  0.659302  1
  Mo  Mo13  1  0.241505  0.820474  0.342403  1
  Mo  Mo14  1  0.740582  0.181708  0.156760  1
  Mo  Mo15  1  0.257706  0.820679  0.842712  1
  C  C16  1  0.630664  0.503156  0.643267  1
  C  C17  1  0.130110  0.494390  0.857120  1
  C  C18  1  0.371483  0.495562  0.357574  1
  C  C19  1  0.866612  0.506925  0.143864  1
  C  C20  1  0.211656  0.930131  0.987765  1
  C  C21  1  0.715764  0.070000  0.511948  1
  C  C22  1  0.784435  0.071600  0.011528  1
  C  C23  1  0.285658  0.932558  0.488712  1
  C  C24  1  0.477241  0.038752  0.242720  1
  C  C25  1  0.021234  0.035597  0.744690  1
  C  C26  1  0.982026  0.970821  0.253350  1
  C  C27  1  0.521270  0.961127  0.757276  1
