# generated using pymatgen
data_CdBi3(OsO6)2
_symmetry_space_group_name_H-M   'P 1'
_cell_length_a   8.48470020
_cell_length_b   8.48469862
_cell_length_c   8.27992442
_cell_angle_alpha   77.62205729
_cell_angle_beta   77.62205976
_cell_angle_gamma   25.64600782
_symmetry_Int_Tables_number   1
_chemical_formula_structural   CdBi3(OsO6)2
_chemical_formula_sum   'Cd1 Bi3 Os2 O12'
_cell_volume   251.67461685
_cell_formula_units_Z   1
loop_
 _symmetry_equiv_pos_site_id
 _symmetry_equiv_pos_as_xyz
  1  'x, y, z'
loop_
 _atom_site_type_symbol
 _atom_site_label
 _atom_site_symmetry_multiplicity
 _atom_site_fract_x
 _atom_site_fract_y
 _atom_site_fract_z
 _atom_site_occupancy
  Cd  Cd0  1  0.321723  0.321723  0.590151  1
  Bi  Bi1  1  0.684748  0.684748  0.398342  1
  Bi  Bi2  1  0.675900  0.675900  0.899918  1
  Bi  Bi3  1  0.333578  0.333578  0.074561  1
  Os  Os4  1  0.996235  0.996235  0.706152  1
  Os  Os5  1  0.999141  0.999141  0.305954  1
  O  O6  1  0.257401  0.257401  0.871296  1
  O  O7  1  0.265559  0.265559  0.353879  1
  O  O8  1  0.072636  0.072636  0.477858  1
  O  O9  1  0.733796  0.733796  0.627614  1
  O  O10  1  0.911766  0.911766  0.205754  1
  O  O11  1  0.094314  0.094314  0.147420  1
  O  O12  1  0.918790  0.918790  0.538319  1
  O  O13  1  0.903401  0.903401  0.872810  1
  O  O14  1  0.750414  0.750414  0.115436  1
  O  O15  1  0.085799  0.085799  0.801004  1
  O  O16  1  0.495985  0.495985  0.702525  1
  O  O17  1  0.498813  0.498813  0.311005  1
