# generated using pymatgen
data_BaIr2PbCl12
_symmetry_space_group_name_H-M   'P 1'
_cell_length_a   6.48745982
_cell_length_b   6.48746208
_cell_length_c   11.22652560
_cell_angle_alpha   83.82966928
_cell_angle_beta   83.82965565
_cell_angle_gamma   79.38056328
_symmetry_Int_Tables_number   1
_chemical_formula_structural   BaIr2PbCl12
_chemical_formula_sum   'Ba1 Ir2 Pb1 Cl12'
_cell_volume   459.84739443
_cell_formula_units_Z   1
loop_
 _symmetry_equiv_pos_site_id
 _symmetry_equiv_pos_as_xyz
  1  'x, y, z'
loop_
 _atom_site_type_symbol
 _atom_site_label
 _atom_site_symmetry_multiplicity
 _atom_site_fract_x
 _atom_site_fract_y
 _atom_site_fract_z
 _atom_site_occupancy
  Ba  Ba0  1  0.979553  0.020447  0.250000  1
  Ir  Ir1  1  0.479746  0.984929  0.498792  1
  Ir  Ir2  1  0.015071  0.520254  0.001208  1
  Pb  Pb3  1  0.066393  0.933607  0.750000  1
  Cl  Cl4  1  0.332780  0.691304  0.580452  1
  Cl  Cl5  1  0.618946  0.279867  0.420063  1
  Cl  Cl6  1  0.308696  0.667220  0.919548  1
  Cl  Cl7  1  0.720133  0.381054  0.079937  1
  Cl  Cl8  1  0.474715  0.078514  0.695855  1
  Cl  Cl9  1  0.481589  0.887497  0.301499  1
  Cl  Cl10  1  0.921486  0.525285  0.804145  1
  Cl  Cl11  1  0.112503  0.518411  0.198501  1
  Cl  Cl12  1  0.819731  0.862379  0.008651  1
  Cl  Cl13  1  0.213708  0.182671  0.990392  1
  Cl  Cl14  1  0.137621  0.180269  0.491349  1
  Cl  Cl15  1  0.817329  0.786292  0.509608  1
