# generated using pymatgen
data_Sr3TmCrO6
_symmetry_space_group_name_H-M   'P 1'
_cell_length_a   6.84361498
_cell_length_b   6.84355534
_cell_length_c   6.84365035
_cell_angle_alpha   92.63321099
_cell_angle_beta   92.63313305
_cell_angle_gamma   92.63374153
_symmetry_Int_Tables_number   1
_chemical_formula_structural   Sr3TmCrO6
_chemical_formula_sum   'Sr6 Tm2 Cr2 O12'
_cell_volume   319.47234064
_cell_formula_units_Z   2
loop_
 _symmetry_equiv_pos_site_id
 _symmetry_equiv_pos_as_xyz
  1  'x, y, z'
loop_
 _atom_site_type_symbol
 _atom_site_label
 _atom_site_symmetry_multiplicity
 _atom_site_fract_x
 _atom_site_fract_y
 _atom_site_fract_z
 _atom_site_occupancy
  Sr  Sr0  1  0.615126  0.884854  0.250000  1
  Sr  Sr1  1  0.884865  0.250005  0.615142  1
  Sr  Sr2  1  0.249991  0.615125  0.884863  1
  Sr  Sr3  1  0.115136  0.749992  0.384870  1
  Sr  Sr4  1  0.749994  0.384859  0.115135  1
  Sr  Sr5  1  0.384874  0.115124  0.749991  1
  Tm  Tm6  1  0.250006  0.250007  0.250010  1
  Tm  Tm7  1  0.750003  0.750014  0.749996  1
  Cr  Cr8  1  0.500045  0.500067  0.499965  1
  Cr  Cr9  1  0.999975  0.000008  0.999997  1
  O  O10  1  0.540053  0.214232  0.408995  1
  O  O11  1  0.214223  0.408993  0.540057  1
  O  O12  1  0.408987  0.540062  0.214240  1
  O  O13  1  0.040066  0.908991  0.714242  1
  O  O14  1  0.908993  0.714232  0.040067  1
  O  O15  1  0.714250  0.040056  0.908998  1
  O  O16  1  0.459944  0.785752  0.591012  1
  O  O17  1  0.785754  0.590996  0.459937  1
  O  O18  1  0.591009  0.459923  0.785759  1
  O  O19  1  0.959936  0.091010  0.285772  1
  O  O20  1  0.091008  0.285758  0.959940  1
  O  O21  1  0.285762  0.959941  0.091008  1
