# generated using pymatgen
data_Hf12Ta4MnFe7N4
_symmetry_space_group_name_H-M   'P 1'
_cell_length_a   8.43292550
_cell_length_b   8.42690973
_cell_length_c   8.42691100
_cell_angle_alpha   59.99999892
_cell_angle_beta   60.02359413
_cell_angle_gamma   60.02359319
_symmetry_Int_Tables_number   1
_chemical_formula_structural   Hf12Ta4MnFe7N4
_chemical_formula_sum   'Hf12 Ta4 Mn1 Fe7 N4'
_cell_volume   423.59887322
_cell_formula_units_Z   1
loop_
 _symmetry_equiv_pos_site_id
 _symmetry_equiv_pos_as_xyz
  1  'x, y, z'
loop_
 _atom_site_type_symbol
 _atom_site_label
 _atom_site_symmetry_multiplicity
 _atom_site_fract_x
 _atom_site_fract_y
 _atom_site_fract_z
 _atom_site_occupancy
  Hf  Hf0  1  0.812443  0.811730  0.187914  1
  Hf  Hf1  1  0.187380  0.188258  0.812181  1
  Hf  Hf2  1  0.812443  0.187914  0.811730  1
  Hf  Hf3  1  0.187380  0.812181  0.188258  1
  Hf  Hf4  1  0.187380  0.812181  0.812181  1
  Hf  Hf5  1  0.812443  0.187914  0.187914  1
  Hf  Hf6  1  0.437705  0.437340  0.062478  1
  Hf  Hf7  1  0.061468  0.063149  0.437691  1
  Hf  Hf8  1  0.437705  0.062478  0.437340  1
  Hf  Hf9  1  0.061468  0.437691  0.063149  1
  Hf  Hf10  1  0.061468  0.437691  0.437691  1
  Hf  Hf11  1  0.437705  0.062478  0.062478  1
  Ta  Ta12  1  0.126477  0.624508  0.624508  1
  Ta  Ta13  1  0.624451  0.124805  0.625372  1
  Ta  Ta14  1  0.624451  0.625372  0.124805  1
  Ta  Ta15  1  0.624451  0.625372  0.625372  1
  Mn  Mn16  1  0.743517  0.418828  0.418828  1
  Fe  Fe17  1  0.418469  0.744935  0.418299  1
  Fe  Fe18  1  0.418469  0.418299  0.744935  1
  Fe  Fe19  1  0.418469  0.418299  0.418299  1
  Fe  Fe20  1  0.507114  0.830962  0.830962  1
  Fe  Fe21  1  0.831750  0.505943  0.831153  1
  Fe  Fe22  1  0.831750  0.831153  0.505943  1
  Fe  Fe23  1  0.831750  0.831153  0.831153  1
  N  N24  1  0.624780  0.125073  0.125073  1
  N  N25  1  0.125706  0.625071  0.124611  1
  N  N26  1  0.125706  0.124611  0.625071  1
  N  N27  1  0.125706  0.124611  0.124611  1
