# generated using pymatgen
data_TbDy(BeB14)2
_symmetry_space_group_name_H-M   'P 1'
_cell_length_a   7.20874245
_cell_length_b   7.20874292
_cell_length_c   7.20874236
_cell_angle_alpha   132.77380432
_cell_angle_beta   110.33005102
_cell_angle_gamma   88.47958714
_symmetry_Int_Tables_number   1
_chemical_formula_structural   TbDy(BeB14)2
_chemical_formula_sum   'Tb1 Dy1 Be2 B28'
_cell_volume   245.62657858
_cell_formula_units_Z   1
loop_
 _symmetry_equiv_pos_site_id
 _symmetry_equiv_pos_as_xyz
  1  'x, y, z'
loop_
 _atom_site_type_symbol
 _atom_site_label
 _atom_site_symmetry_multiplicity
 _atom_site_fract_x
 _atom_site_fract_y
 _atom_site_fract_z
 _atom_site_occupancy
  Tb  Tb0  1  0.607721  0.250000  0.357721  1
  Dy  Dy1  1  0.391877  0.750000  0.641877  1
  Be  Be2  1  0.999993  0.000023  0.500016  1
  Be  Be3  1  0.999993  0.499977  0.999970  1
  B  B4  1  0.631519  0.666230  0.965290  1
  B  B5  1  0.368342  0.333787  0.034554  1
  B  B6  1  0.200767  0.166213  0.034554  1
  B  B7  1  0.799061  0.833770  0.965290  1
  B  B8  1  0.791127  0.155789  0.635338  1
  B  B9  1  0.209116  0.844114  0.365003  1
  B  B10  1  0.020888  0.655886  0.365003  1
  B  B11  1  0.979550  0.344211  0.635338  1
  B  B12  1  0.925079  0.092282  0.832797  1
  B  B13  1  0.075023  0.907695  0.167327  1
  B  B14  1  0.759631  0.592305  0.167327  1
  B  B15  1  0.240516  0.407718  0.832797  1
  B  B16  1  0.398144  0.395939  0.676630  1
  B  B17  1  0.601692  0.278188  0.997360  1
  B  B18  1  0.219172  0.895668  0.997360  1
  B  B19  1  0.780691  0.778486  0.676630  1
  B  B20  1  0.601692  0.604332  0.323504  1
  B  B21  1  0.398144  0.721514  0.002205  1
  B  B22  1  0.780691  0.104061  0.002205  1
  B  B23  1  0.219172  0.221812  0.323504  1
  B  B24  1  0.032896  0.827922  0.698634  1
  B  B25  1  0.967243  0.665851  0.795200  1
  B  B26  1  0.629348  0.327957  0.795200  1
  B  B27  1  0.370713  0.165739  0.698634  1
  B  B28  1  0.967243  0.172043  0.301392  1
  B  B29  1  0.032896  0.334261  0.204974  1
  B  B30  1  0.370713  0.672078  0.204974  1
  B  B31  1  0.629348  0.834149  0.301392  1
