# generated using pymatgen
data_PuInCu4
_symmetry_space_group_name_H-M   'P 1'
_cell_length_a   5.15170713
_cell_length_b   5.13509271
_cell_length_c   5.13317763
_cell_angle_alpha   60.38132188
_cell_angle_beta   59.73511938
_cell_angle_gamma   59.99729109
_symmetry_Int_Tables_number   1
_chemical_formula_structural   PuInCu4
_chemical_formula_sum   'Pu1 In1 Cu4'
_cell_volume   96.09832937
_cell_formula_units_Z   1
loop_
 _symmetry_equiv_pos_site_id
 _symmetry_equiv_pos_as_xyz
  1  'x, y, z'
loop_
 _atom_site_type_symbol
 _atom_site_label
 _atom_site_symmetry_multiplicity
 _atom_site_fract_x
 _atom_site_fract_y
 _atom_site_fract_z
 _atom_site_occupancy
  Pu  Pu0  1  0.250583  0.249151  0.250107  1
  In  In1  1  0.498869  0.501472  0.499907  1
  Cu  Cu2  1  0.874256  0.875030  0.376290  1
  Cu  Cu3  1  0.875784  0.873562  0.874389  1
  Cu  Cu4  1  0.874405  0.376661  0.875236  1
  Cu  Cu5  1  0.376105  0.874125  0.874073  1
