# generated using pymatgen
data_UAsRuN
_symmetry_space_group_name_H-M   'P 1'
_cell_length_a   4.01378200
_cell_length_b   4.01378200
_cell_length_c   7.77278600
_cell_angle_alpha   90.00000000
_cell_angle_beta   90.00000000
_cell_angle_gamma   90.00000000
_symmetry_Int_Tables_number   1
_chemical_formula_structural   UAsRuN
_chemical_formula_sum   'U2 As2 Ru2 N2'
_cell_volume   125.22304868
_cell_formula_units_Z   2
loop_
 _symmetry_equiv_pos_site_id
 _symmetry_equiv_pos_as_xyz
  1  'x, y, z'
loop_
 _atom_site_type_symbol
 _atom_site_label
 _atom_site_symmetry_multiplicity
 _atom_site_fract_x
 _atom_site_fract_y
 _atom_site_fract_z
 _atom_site_occupancy
  U  U0  1  0.250001  0.250001  0.142350  1
  U  U1  1  0.750001  0.750001  0.857651  1
  As  As2  1  0.750001  0.750001  0.324595  1
  As  As3  1  0.250001  0.250001  0.675404  1
  Ru  Ru4  1  0.750001  0.250001  0.499999  1
  Ru  Ru5  1  0.250001  0.750001  0.499999  1
  N  N6  1  0.750001  0.250001  0.000000  1
  N  N7  1  0.250001  0.750001  0.000000  1
