# generated using pymatgen
data_Ho3Tm(SiPt2)4
_symmetry_space_group_name_H-M   'P 1'
_cell_length_a   5.51314910
_cell_length_b   6.96799400
_cell_length_c   7.30708613
_cell_angle_alpha   90.00000000
_cell_angle_beta   89.97807395
_cell_angle_gamma   90.00000000
_symmetry_Int_Tables_number   1
_chemical_formula_structural   Ho3Tm(SiPt2)4
_chemical_formula_sum   'Ho3 Tm1 Si4 Pt8'
_cell_volume   280.70600341
_cell_formula_units_Z   1
loop_
 _symmetry_equiv_pos_site_id
 _symmetry_equiv_pos_as_xyz
  1  'x, y, z'
loop_
 _atom_site_type_symbol
 _atom_site_label
 _atom_site_symmetry_multiplicity
 _atom_site_fract_x
 _atom_site_fract_y
 _atom_site_fract_z
 _atom_site_occupancy
  Ho  Ho0  1  0.363201  0.750000  0.027803  1
  Ho  Ho1  1  0.136323  0.750000  0.527697  1
  Ho  Ho2  1  0.636545  0.250000  0.972094  1
  Tm  Tm3  1  0.862556  0.250000  0.472306  1
  Si  Si4  1  0.636942  0.750000  0.381246  1
  Si  Si5  1  0.862898  0.750000  0.881284  1
  Si  Si6  1  0.362630  0.250000  0.618259  1
  Si  Si7  1  0.136885  0.250000  0.119296  1
  Pt  Pt8  1  0.907769  0.549900  0.182936  1
  Pt  Pt9  1  0.593008  0.950041  0.681532  1
  Pt  Pt10  1  0.091840  0.050778  0.817293  1
  Pt  Pt11  1  0.408393  0.449172  0.318247  1
  Pt  Pt12  1  0.091840  0.449222  0.817293  1
  Pt  Pt13  1  0.408393  0.050828  0.318247  1
  Pt  Pt14  1  0.907769  0.950100  0.182936  1
  Pt  Pt15  1  0.593008  0.549959  0.681532  1
