# generated using pymatgen
data_Li4ErU3Ir8
_symmetry_space_group_name_H-M   'P 1'
_cell_length_a   5.87971200
_cell_length_b   5.87949100
_cell_length_c   7.39887800
_cell_angle_alpha   90.00000000
_cell_angle_beta   89.99992204
_cell_angle_gamma   90.00000000
_symmetry_Int_Tables_number   1
_chemical_formula_structural   Li4ErU3Ir8
_chemical_formula_sum   'Li4 Er1 U3 Ir8'
_cell_volume   255.77709480
_cell_formula_units_Z   1
loop_
 _symmetry_equiv_pos_site_id
 _symmetry_equiv_pos_as_xyz
  1  'x, y, z'
loop_
 _atom_site_type_symbol
 _atom_site_label
 _atom_site_symmetry_multiplicity
 _atom_site_fract_x
 _atom_site_fract_y
 _atom_site_fract_z
 _atom_site_occupancy
  Li  Li0  1  0.750075  0.249999  0.000005  1
  Li  Li1  1  0.249916  0.750002  0.000009  1
  Li  Li2  1  0.250069  0.749997  0.499986  1
  Li  Li3  1  0.749901  0.249999  0.500008  1
  Er  Er4  1  0.750162  0.750035  0.499983  1
  U  U5  1  0.250219  0.249989  0.999976  1
  U  U6  1  0.749874  0.749996  0.999974  1
  U  U7  1  0.249819  0.249978  0.500030  1
  Ir  Ir8  1  0.002559  0.002582  0.244824  1
  Ir  Ir9  1  0.002567  0.497418  0.244820  1
  Ir  Ir10  1  0.497438  0.002559  0.244928  1
  Ir  Ir11  1  0.497434  0.497443  0.244920  1
  Ir  Ir12  1  0.497443  0.002545  0.755079  1
  Ir  Ir13  1  0.497442  0.497458  0.755075  1
  Ir  Ir14  1  0.002538  0.002561  0.755200  1
  Ir  Ir15  1  0.002545  0.497431  0.755185  1
