# generated using pymatgen
data_ScTi2Be9
_symmetry_space_group_name_H-M   'P 1'
_cell_length_a   7.62830238
_cell_length_b   7.62830281
_cell_length_c   7.62830237
_cell_angle_alpha   34.70450540
_cell_angle_beta   34.70450278
_cell_angle_gamma   34.70450187
_symmetry_Int_Tables_number   1
_chemical_formula_structural   ScTi2Be9
_chemical_formula_sum   'Sc1 Ti2 Be9'
_cell_volume   128.41283347
_cell_formula_units_Z   1
loop_
 _symmetry_equiv_pos_site_id
 _symmetry_equiv_pos_as_xyz
  1  'x, y, z'
loop_
 _atom_site_type_symbol
 _atom_site_label
 _atom_site_symmetry_multiplicity
 _atom_site_fract_x
 _atom_site_fract_y
 _atom_site_fract_z
 _atom_site_occupancy
  Sc  Sc0  1  0.000000  0.000000  0.000000  1
  Ti  Ti1  1  0.855160  0.855160  0.855160  1
  Ti  Ti2  1  0.144840  0.144840  0.144840  1
  Be  Be3  1  0.416309  0.919883  0.416309  1
  Be  Be4  1  0.416309  0.416309  0.919883  1
  Be  Be5  1  0.919883  0.416309  0.416309  1
  Be  Be6  1  0.583691  0.080117  0.583691  1
  Be  Be7  1  0.583691  0.583691  0.080117  1
  Be  Be8  1  0.080117  0.583691  0.583691  1
  Be  Be9  1  0.665648  0.665648  0.665648  1
  Be  Be10  1  0.334352  0.334352  0.334352  1
  Be  Be11  1  0.500000  0.500000  0.500000  1
