# generated using pymatgen
data_TiAl(WC)2
_symmetry_space_group_name_H-M   'P 1'
_cell_length_a   2.99487200
_cell_length_b   2.99487230
_cell_length_c   18.93603300
_cell_angle_alpha   90.00000000
_cell_angle_beta   90.00000000
_cell_angle_gamma   120.00001880
_symmetry_Int_Tables_number   1
_chemical_formula_structural   TiAl(WC)2
_chemical_formula_sum   'Ti2 Al2 W4 C4'
_cell_volume   147.08762158
_cell_formula_units_Z   2
loop_
 _symmetry_equiv_pos_site_id
 _symmetry_equiv_pos_as_xyz
  1  'x, y, z'
loop_
 _atom_site_type_symbol
 _atom_site_label
 _atom_site_symmetry_multiplicity
 _atom_site_fract_x
 _atom_site_fract_y
 _atom_site_fract_z
 _atom_site_occupancy
  Ti  Ti0  1  0.000000  0.000000  0.500000  1
  Ti  Ti1  1  0.000000  0.000000  0.000000  1
  Al  Al2  1  0.000000  0.000000  0.750000  1
  Al  Al3  1  0.000000  0.000000  0.250000  1
  W  W4  1  0.666667  0.333333  0.366375  1
  W  W5  1  0.333333  0.666667  0.866375  1
  W  W6  1  0.333333  0.666667  0.633625  1
  W  W7  1  0.666667  0.333333  0.133625  1
  C  C8  1  0.333333  0.666667  0.432080  1
  C  C9  1  0.666667  0.333333  0.932080  1
  C  C10  1  0.333333  0.666667  0.067920  1
  C  C11  1  0.666667  0.333333  0.567920  1
