# generated using pymatgen
data_LiCrPtO4
_symmetry_space_group_name_H-M   'P 1'
_cell_length_a   5.97699100
_cell_length_b   6.17447400
_cell_length_c   8.55169100
_cell_angle_alpha   90.00000928
_cell_angle_beta   90.00000000
_cell_angle_gamma   90.00000000
_symmetry_Int_Tables_number   1
_chemical_formula_structural   LiCrPtO4
_chemical_formula_sum   'Li4 Cr4 Pt4 O16'
_cell_volume   315.59823674
_cell_formula_units_Z   4
loop_
 _symmetry_equiv_pos_site_id
 _symmetry_equiv_pos_as_xyz
  1  'x, y, z'
loop_
 _atom_site_type_symbol
 _atom_site_label
 _atom_site_symmetry_multiplicity
 _atom_site_fract_x
 _atom_site_fract_y
 _atom_site_fract_z
 _atom_site_occupancy
  Li  Li0  1  0.000000  0.250000  0.136831  1
  Li  Li1  1  0.500000  0.750000  0.636831  1
  Li  Li2  1  0.000000  0.750000  0.863169  1
  Li  Li3  1  0.500000  0.250000  0.363169  1
  Cr  Cr4  1  0.750000  0.250000  0.750000  1
  Cr  Cr5  1  0.250000  0.250000  0.750000  1
  Cr  Cr6  1  0.250000  0.750000  0.250000  1
  Cr  Cr7  1  0.750000  0.750000  0.250000  1
  Pt  Pt8  1  0.000000  0.500000  0.500000  1
  Pt  Pt9  1  0.500000  0.000000  0.000000  1
  Pt  Pt10  1  0.000000  0.000000  0.500000  1
  Pt  Pt11  1  0.500000  0.500000  0.000000  1
  O  O12  1  0.000000  0.529189  0.260015  1
  O  O13  1  0.500000  0.029189  0.760015  1
  O  O14  1  0.000000  0.970812  0.260015  1
  O  O15  1  0.500000  0.470812  0.760015  1
  O  O16  1  0.000000  0.029188  0.739985  1
  O  O17  1  0.500000  0.529188  0.239985  1
  O  O18  1  0.000000  0.470811  0.739985  1
  O  O19  1  0.500000  0.970811  0.239985  1
  O  O20  1  0.226189  0.750000  0.488546  1
  O  O21  1  0.726189  0.250000  0.988546  1
  O  O22  1  0.773811  0.750000  0.488546  1
  O  O23  1  0.273811  0.250000  0.988546  1
  O  O24  1  0.773811  0.250000  0.511454  1
  O  O25  1  0.273811  0.750000  0.011454  1
  O  O26  1  0.226189  0.250000  0.511454  1
  O  O27  1  0.726189  0.750000  0.011454  1
