# generated using pymatgen
data_Lu8Hf12Si15Ge
_symmetry_space_group_name_H-M   'P 1'
_cell_length_a   7.22465112
_cell_length_b   7.23182956
_cell_length_c   13.25550501
_cell_angle_alpha   89.92292718
_cell_angle_beta   89.99638493
_cell_angle_gamma   89.95881745
_symmetry_Int_Tables_number   1
_chemical_formula_structural   Lu8Hf12Si15Ge
_chemical_formula_sum   'Lu8 Hf12 Si15 Ge1'
_cell_volume   692.56546864
_cell_formula_units_Z   1
loop_
 _symmetry_equiv_pos_site_id
 _symmetry_equiv_pos_as_xyz
  1  'x, y, z'
loop_
 _atom_site_type_symbol
 _atom_site_label
 _atom_site_symmetry_multiplicity
 _atom_site_fract_x
 _atom_site_fract_y
 _atom_site_fract_z
 _atom_site_occupancy
  Lu  Lu0  1  0.994965  0.344710  0.214533  1
  Lu  Lu1  1  0.003822  0.655534  0.715413  1
  Lu  Lu2  1  0.153995  0.498391  0.466392  1
  Lu  Lu3  1  0.504205  0.843932  0.034277  1
  Lu  Lu4  1  0.844615  0.503761  0.965055  1
  Lu  Lu5  1  0.496973  0.154788  0.535824  1
  Lu  Lu6  1  0.344356  0.996285  0.784810  1
  Lu  Lu7  1  0.656696  0.002343  0.284405  1
  Hf  Hf8  1  0.174310  0.174631  0.999891  1
  Hf  Hf9  1  0.825733  0.825739  0.500235  1
  Hf  Hf10  1  0.325709  0.676991  0.249383  1
  Hf  Hf11  1  0.674510  0.325549  0.749994  1
  Hf  Hf12  1  0.147000  0.995355  0.374017  1
  Hf  Hf13  1  0.851783  0.002778  0.874416  1
  Hf  Hf14  1  0.502662  0.648594  0.624444  1
  Hf  Hf15  1  0.351487  0.497136  0.875582  1
  Hf  Hf16  1  0.496852  0.351437  0.123308  1
  Hf  Hf17  1  0.651070  0.505271  0.376430  1
  Hf  Hf18  1  0.996900  0.148420  0.625868  1
  Hf  Hf19  1  0.002250  0.851136  0.125227  1
  Si  Si20  1  0.640161  0.705113  0.818121  1
  Si  Si21  1  0.204703  0.860229  0.568119  1
  Si  Si22  1  0.140239  0.795041  0.931617  1
  Si  Si23  1  0.794976  0.140302  0.067842  1
  Si  Si24  1  0.859612  0.204408  0.431970  1
  Si  Si25  1  0.295281  0.359758  0.681884  1
  Si  Si26  1  0.704360  0.639657  0.181773  1
  Si  Si27  1  0.298142  0.045092  0.183458  1
  Si  Si28  1  0.702103  0.951467  0.685643  1
  Si  Si29  1  0.451732  0.798440  0.435429  1
  Si  Si30  1  0.201747  0.547897  0.064646  1
  Si  Si31  1  0.548074  0.201714  0.935144  1
  Si  Si32  1  0.797757  0.451829  0.565011  1
  Si  Si33  1  0.048164  0.298118  0.814519  1
  Si  Si34  1  0.952179  0.701447  0.314277  1
  Ge  Ge35  1  0.360879  0.296708  0.321040  1
