# generated using pymatgen
data_DyPa3(CoGe)4
_symmetry_space_group_name_H-M   'P 1'
_cell_length_a   4.26530500
_cell_length_b   6.94960534
_cell_length_c   7.30825700
_cell_angle_alpha   93.10245430
_cell_angle_beta   90.00000000
_cell_angle_gamma   90.00000000
_symmetry_Int_Tables_number   1
_chemical_formula_structural   DyPa3(CoGe)4
_chemical_formula_sum   'Dy1 Pa3 Co4 Ge4'
_cell_volume   216.31520925
_cell_formula_units_Z   1
loop_
 _symmetry_equiv_pos_site_id
 _symmetry_equiv_pos_as_xyz
  1  'x, y, z'
loop_
 _atom_site_type_symbol
 _atom_site_label
 _atom_site_symmetry_multiplicity
 _atom_site_fract_x
 _atom_site_fract_y
 _atom_site_fract_z
 _atom_site_occupancy
  Dy  Dy0  1  0.250000  0.775564  0.479809  1
  Pa  Pa1  1  0.250000  0.696958  0.991243  1
  Pa  Pa2  1  0.750000  0.302789  0.009565  1
  Pa  Pa3  1  0.750000  0.231961  0.522401  1
  Co  Co4  1  0.250000  0.041006  0.122199  1
  Co  Co5  1  0.750000  0.958120  0.875854  1
  Co  Co6  1  0.750000  0.550197  0.249453  1
  Co  Co7  1  0.250000  0.442291  0.746321  1
  Ge  Ge8  1  0.250000  0.385286  0.298556  1
  Ge  Ge9  1  0.750000  0.619677  0.705474  1
  Ge  Ge10  1  0.750000  0.907870  0.225086  1
  Ge  Ge11  1  0.250000  0.088282  0.774039  1
