# generated using pymatgen
data_Zr3Ni8Rh
_symmetry_space_group_name_H-M   'P 1'
_cell_length_a   7.18797455
_cell_length_b   7.21411269
_cell_length_c   7.18797436
_cell_angle_alpha   43.93349692
_cell_angle_beta   43.87373635
_cell_angle_gamma   43.93349861
_symmetry_Int_Tables_number   1
_chemical_formula_structural   Zr3Ni8Rh
_chemical_formula_sum   'Zr3 Ni8 Rh1'
_cell_volume   162.82341497
_cell_formula_units_Z   1
loop_
 _symmetry_equiv_pos_site_id
 _symmetry_equiv_pos_as_xyz
  1  'x, y, z'
loop_
 _atom_site_type_symbol
 _atom_site_label
 _atom_site_symmetry_multiplicity
 _atom_site_fract_x
 _atom_site_fract_y
 _atom_site_fract_z
 _atom_site_occupancy
  Zr  Zr0  1  0.781194  0.782524  0.781194  1
  Zr  Zr1  1  0.218806  0.217476  0.218806  1
  Zr  Zr2  1  0.000000  0.000000  0.000000  1
  Ni  Ni3  1  0.248120  0.704258  0.713247  1
  Ni  Ni4  1  0.710723  0.247865  0.710723  1
  Ni  Ni5  1  0.713247  0.704258  0.248120  1
  Ni  Ni6  1  0.500000  0.500000  0.000000  1
  Ni  Ni7  1  0.000000  0.500000  0.500000  1
  Ni  Ni8  1  0.286753  0.295742  0.751880  1
  Ni  Ni9  1  0.289277  0.752135  0.289277  1
  Ni  Ni10  1  0.751880  0.295742  0.286753  1
  Rh  Rh11  1  0.500000  0.000000  0.500000  1
