# generated using pymatgen
data_Ca6Y2Zn3Si12Pd
_symmetry_space_group_name_H-M   'P 1'
_cell_length_a   8.20698100
_cell_length_b   8.20698072
_cell_length_c   8.40922700
_cell_angle_alpha   90.00000000
_cell_angle_beta   90.00000000
_cell_angle_gamma   119.99999710
_symmetry_Int_Tables_number   1
_chemical_formula_structural   Ca6Y2Zn3Si12Pd
_chemical_formula_sum   'Ca6 Y2 Zn3 Si12 Pd1'
_cell_volume   490.51643320
_cell_formula_units_Z   1
loop_
 _symmetry_equiv_pos_site_id
 _symmetry_equiv_pos_as_xyz
  1  'x, y, z'
loop_
 _atom_site_type_symbol
 _atom_site_label
 _atom_site_symmetry_multiplicity
 _atom_site_fract_x
 _atom_site_fract_y
 _atom_site_fract_z
 _atom_site_occupancy
  Ca  Ca0  1  0.499432  0.998866  0.253261  1
  Ca  Ca1  1  0.498526  0.997052  0.746702  1
  Ca  Ca2  1  0.001134  0.500568  0.253261  1
  Ca  Ca3  1  0.002948  0.501474  0.746702  1
  Ca  Ca4  1  0.499432  0.500568  0.253261  1
  Ca  Ca5  1  0.498526  0.501474  0.746702  1
  Y  Y6  1  0.000000  0.000000  0.251782  1
  Y  Y7  1  0.000000  0.000000  0.748251  1
  Zn  Zn8  1  0.333333  0.666667  0.004888  1
  Zn  Zn9  1  0.666667  0.333333  0.996687  1
  Zn  Zn10  1  0.666667  0.333333  0.500358  1
  Si  Si11  1  0.164652  0.329306  0.997812  1
  Si  Si12  1  0.836086  0.672173  0.001946  1
  Si  Si13  1  0.670694  0.835348  0.997812  1
  Si  Si14  1  0.838745  0.677490  0.501283  1
  Si  Si15  1  0.327827  0.163914  0.001946  1
  Si  Si16  1  0.166533  0.333066  0.498624  1
  Si  Si17  1  0.164652  0.835348  0.997812  1
  Si  Si18  1  0.322510  0.161255  0.501283  1
  Si  Si19  1  0.836086  0.163914  0.001946  1
  Si  Si20  1  0.666934  0.833467  0.498624  1
  Si  Si21  1  0.838745  0.161255  0.501283  1
  Si  Si22  1  0.166533  0.833467  0.498624  1
  Pd  Pd23  1  0.333333  0.666667  0.499150  1
