# generated using pymatgen
data_Y2Zr2MnTc7
_symmetry_space_group_name_H-M   'P 1'
_cell_length_a   5.27691000
_cell_length_b   5.27691177
_cell_length_c   8.84379300
_cell_angle_alpha   90.00000000
_cell_angle_beta   90.00000000
_cell_angle_gamma   120.00001399
_symmetry_Int_Tables_number   1
_chemical_formula_structural   Y2Zr2MnTc7
_chemical_formula_sum   'Y2 Zr2 Mn1 Tc7'
_cell_volume   213.26945498
_cell_formula_units_Z   1
loop_
 _symmetry_equiv_pos_site_id
 _symmetry_equiv_pos_as_xyz
  1  'x, y, z'
loop_
 _atom_site_type_symbol
 _atom_site_label
 _atom_site_symmetry_multiplicity
 _atom_site_fract_x
 _atom_site_fract_y
 _atom_site_fract_z
 _atom_site_occupancy
  Y  Y0  1  0.666667  0.333333  0.936721  1
  Y  Y1  1  0.333333  0.666667  0.063279  1
  Zr  Zr2  1  0.333333  0.666667  0.436233  1
  Zr  Zr3  1  0.666667  0.333333  0.563767  1
  Mn  Mn4  1  0.000000  0.000000  0.500000  1
  Tc  Tc5  1  0.000000  0.000000  0.000000  1
  Tc  Tc6  1  0.830471  0.169529  0.261172  1
  Tc  Tc7  1  0.830471  0.660942  0.261172  1
  Tc  Tc8  1  0.339058  0.169529  0.261172  1
  Tc  Tc9  1  0.169529  0.830471  0.738828  1
  Tc  Tc10  1  0.169529  0.339058  0.738828  1
  Tc  Tc11  1  0.660942  0.830471  0.738828  1
