# generated using pymatgen
data_Li3Co2Ni7P7Ru2
_symmetry_space_group_name_H-M   'P 1'
_cell_length_a   9.02817161
_cell_length_b   8.97697470
_cell_length_c   3.59365700
_cell_angle_alpha   90.00000000
_cell_angle_beta   90.00000000
_cell_angle_gamma   119.34107828
_symmetry_Int_Tables_number   1
_chemical_formula_structural   Li3Co2Ni7P7Ru2
_chemical_formula_sum   'Li3 Co2 Ni7 P7 Ru2'
_cell_volume   253.88821142
_cell_formula_units_Z   1
loop_
 _symmetry_equiv_pos_site_id
 _symmetry_equiv_pos_as_xyz
  1  'x, y, z'
loop_
 _atom_site_type_symbol
 _atom_site_label
 _atom_site_symmetry_multiplicity
 _atom_site_fract_x
 _atom_site_fract_y
 _atom_site_fract_z
 _atom_site_occupancy
  Li  Li0  1  0.221165  0.101759  0.500000  1
  Li  Li1  1  0.331969  0.663093  0.000000  1
  Li  Li2  1  0.663528  0.334659  0.500000  1
  Co  Co3  1  0.709338  0.876734  0.000000  1
  Co  Co4  1  0.164106  0.280831  0.000000  1
  Ni  Ni5  1  0.124926  0.844943  0.000000  1
  Ni  Ni6  1  0.628371  0.564625  0.000000  1
  Ni  Ni7  1  0.934925  0.371859  0.000000  1
  Ni  Ni8  1  0.434492  0.058072  0.000000  1
  Ni  Ni9  1  0.558548  0.946462  0.500000  1
  Ni  Ni10  1  0.389868  0.436339  0.500000  1
  Ni  Ni11  1  0.058853  0.610986  0.500000  1
  P  P12  1  0.588967  0.710516  0.500000  1
  P  P13  1  0.125435  0.406830  0.500000  1
  P  P14  1  0.289202  0.871237  0.500000  1
  P  P15  1  0.991498  0.000259  0.000000  1
  P  P16  1  0.882831  0.588330  0.000000  1
  P  P17  1  0.701806  0.120619  0.000000  1
  P  P18  1  0.420199  0.299051  0.000000  1
  Ru  Ru19  1  0.878851  0.788813  0.500000  1
  Ru  Ru20  1  0.901121  0.123983  0.500000  1
