# generated using pymatgen
data_SrCdPb(ClO)2
_symmetry_space_group_name_H-M   'P 1'
_cell_length_a   6.51877783
_cell_length_b   6.51877750
_cell_length_c   7.59009376
_cell_angle_alpha   59.85633068
_cell_angle_beta   120.14366764
_cell_angle_gamma   144.64327929
_symmetry_Int_Tables_number   1
_chemical_formula_structural   SrCdPb(ClO)2
_chemical_formula_sum   'Sr1 Cd1 Pb1 Cl2 O2'
_cell_volume   158.61274239
_cell_formula_units_Z   1
loop_
 _symmetry_equiv_pos_site_id
 _symmetry_equiv_pos_as_xyz
  1  'x, y, z'
loop_
 _atom_site_type_symbol
 _atom_site_label
 _atom_site_symmetry_multiplicity
 _atom_site_fract_x
 _atom_site_fract_y
 _atom_site_fract_z
 _atom_site_occupancy
  Sr  Sr0  1  0.183842  0.816159  0.736740  1
  Cd  Cd1  1  0.996788  0.003212  0.996448  1
  Pb  Pb2  1  0.802303  0.197698  0.219677  1
  Cl  Cl3  1  0.445250  0.554751  0.694770  1
  Cl  Cl4  1  0.578360  0.421641  0.360838  1
  O  O5  1  0.184819  0.815183  0.067465  1
  O  O6  1  0.808642  0.191359  0.924065  1
