# generated using pymatgen
data_La10In(SnRu2)3
_symmetry_space_group_name_H-M   'P 1'
_cell_length_a   8.80314321
_cell_length_b   8.81585537
_cell_length_c   8.80314415
_cell_angle_alpha   109.50046741
_cell_angle_beta   109.44195398
_cell_angle_gamma   109.50047743
_symmetry_Int_Tables_number   1
_chemical_formula_structural   La10In(SnRu2)3
_chemical_formula_sum   'La10 In1 Sn3 Ru6'
_cell_volume   525.72814871
_cell_formula_units_Z   1
loop_
 _symmetry_equiv_pos_site_id
 _symmetry_equiv_pos_as_xyz
  1  'x, y, z'
loop_
 _atom_site_type_symbol
 _atom_site_label
 _atom_site_symmetry_multiplicity
 _atom_site_fract_x
 _atom_site_fract_y
 _atom_site_fract_z
 _atom_site_occupancy
  La  La0  1  0.252029  0.690186  0.437397  1
  La  La1  1  0.752057  0.810452  0.061693  1
  La  La2  1  0.438308  0.248759  0.690364  1
  La  La3  1  0.685368  0.438159  0.247971  1
  La  La4  1  0.062604  0.752790  0.814632  1
  La  La5  1  0.809636  0.058395  0.747943  1
  La  La6  1  0.205333  0.208032  0.205780  1
  La  La7  1  0.500449  0.002700  0.294667  1
  La  La8  1  0.294220  0.502253  0.999552  1
  La  La9  1  0.000000  0.298654  0.500001  1
  In  In10  1  0.000000  0.912046  0.500001  1
  Sn  Sn11  1  0.500653  0.998322  0.906138  1
  Sn  Sn12  1  0.593862  0.592184  0.594514  1
  Sn  Sn13  1  0.905486  0.497671  0.999348  1
  Ru  Ru14  1  0.254016  0.131721  0.889298  1
  Ru  Ru15  1  0.751844  0.370127  0.620994  1
  Ru  Ru16  1  0.879005  0.249135  0.130850  1
  Ru  Ru17  1  0.135284  0.877706  0.245986  1
  Ru  Ru18  1  0.610701  0.742423  0.364715  1
  Ru  Ru19  1  0.369149  0.618284  0.748156  1
