# generated using pymatgen
data_Dy3LuAl2(B2Rh5)2
_symmetry_space_group_name_H-M   'P 1'
_cell_length_a   9.49481828
_cell_length_b   9.49481828
_cell_length_c   3.17932000
_cell_angle_alpha   90.00000000
_cell_angle_beta   90.00000000
_cell_angle_gamma   90.21220675
_symmetry_Int_Tables_number   1
_chemical_formula_structural   Dy3LuAl2(B2Rh5)2
_chemical_formula_sum   'Dy3 Lu1 Al2 B4 Rh10'
_cell_volume   286.61873698
_cell_formula_units_Z   1
loop_
 _symmetry_equiv_pos_site_id
 _symmetry_equiv_pos_as_xyz
  1  'x, y, z'
loop_
 _atom_site_type_symbol
 _atom_site_label
 _atom_site_symmetry_multiplicity
 _atom_site_fract_x
 _atom_site_fract_y
 _atom_site_fract_z
 _atom_site_occupancy
  Dy  Dy0  1  0.825514  0.325514  0.000000  1
  Dy  Dy1  1  0.324450  0.175012  0.000000  1
  Dy  Dy2  1  0.675012  0.824450  0.000000  1
  Lu  Lu3  1  0.174791  0.674791  0.000000  1
  Al  Al4  1  0.000047  0.000261  0.000000  1
  Al  Al5  1  0.500261  0.500047  0.000000  1
  B  B6  1  0.621730  0.121730  0.000000  1
  B  B7  1  0.122566  0.379932  0.000000  1
  B  B8  1  0.879932  0.622566  0.000000  1
  B  B9  1  0.376198  0.876198  0.000000  1
  Rh  Rh10  1  0.070406  0.219300  0.500000  1
  Rh  Rh11  1  0.217223  0.927264  0.500000  1
  Rh  Rh12  1  0.781138  0.070094  0.500000  1
  Rh  Rh13  1  0.931852  0.781538  0.500000  1
  Rh  Rh14  1  0.427264  0.717223  0.500000  1
  Rh  Rh15  1  0.570094  0.281138  0.500000  1
  Rh  Rh16  1  0.719300  0.570406  0.500000  1
  Rh  Rh17  1  0.281538  0.431852  0.500000  1
  Rh  Rh18  1  0.499163  0.999163  0.500000  1
  Rh  Rh19  1  0.001522  0.501522  0.500000  1
