# generated using pymatgen
data_Tb13Lu3InHg3Rh4
_symmetry_space_group_name_H-M   'P 1'
_cell_length_a   9.61329045
_cell_length_b   9.61148950
_cell_length_c   9.60706495
_cell_angle_alpha   60.02567311
_cell_angle_beta   59.92741083
_cell_angle_gamma   59.80327007
_symmetry_Int_Tables_number   1
_chemical_formula_structural   Tb13Lu3InHg3Rh4
_chemical_formula_sum   'Tb13 Lu3 In1 Hg3 Rh4'
_cell_volume   626.51916357
_cell_formula_units_Z   1
loop_
 _symmetry_equiv_pos_site_id
 _symmetry_equiv_pos_as_xyz
  1  'x, y, z'
loop_
 _atom_site_type_symbol
 _atom_site_label
 _atom_site_symmetry_multiplicity
 _atom_site_fract_x
 _atom_site_fract_y
 _atom_site_fract_z
 _atom_site_occupancy
  Tb  Tb0  1  0.647481  0.054469  0.649119  1
  Tb  Tb1  1  0.064318  0.060919  0.438513  1
  Tb  Tb2  1  0.439684  0.436307  0.060261  1
  Tb  Tb3  1  0.651109  0.647996  0.648329  1
  Tb  Tb4  1  0.813054  0.188800  0.188004  1
  Tb  Tb5  1  0.186947  0.813790  0.811914  1
  Tb  Tb6  1  0.054208  0.646069  0.648661  1
  Tb  Tb7  1  0.440199  0.062302  0.061117  1
  Tb  Tb8  1  0.438628  0.061049  0.437447  1
  Tb  Tb9  1  0.064972  0.437358  0.060721  1
  Tb  Tb10  1  0.649405  0.648714  0.053364  1
  Tb  Tb11  1  0.188180  0.813632  0.188273  1
  Tb  Tb12  1  0.064378  0.435546  0.436967  1
  Lu  Lu13  1  0.811041  0.810065  0.189683  1
  Lu  Lu14  1  0.812471  0.189306  0.810096  1
  Lu  Lu15  1  0.187512  0.188844  0.812879  1
  In  In16  1  0.742638  0.420117  0.420119  1
  Hg  Hg17  1  0.414840  0.415760  0.416122  1
  Hg  Hg18  1  0.414951  0.414738  0.755139  1
  Hg  Hg19  1  0.415423  0.754948  0.414700  1
  Rh  Rh20  1  0.858845  0.424652  0.856375  1
  Rh  Rh21  1  0.856367  0.858959  0.859131  1
  Rh  Rh22  1  0.856315  0.856537  0.426389  1
  Rh  Rh23  1  0.427035  0.859125  0.856678  1
