# generated using pymatgen
data_Tb2Ni12As6P
_symmetry_space_group_name_H-M   'P 1'
_cell_length_a   9.31242900
_cell_length_b   9.31243004
_cell_length_c   3.82708400
_cell_angle_alpha   90.00000000
_cell_angle_beta   90.00000000
_cell_angle_gamma   119.99999985
_symmetry_Int_Tables_number   1
_chemical_formula_structural   Tb2Ni12As6P
_chemical_formula_sum   'Tb2 Ni12 As6 P1'
_cell_volume   287.42505609
_cell_formula_units_Z   1
loop_
 _symmetry_equiv_pos_site_id
 _symmetry_equiv_pos_as_xyz
  1  'x, y, z'
loop_
 _atom_site_type_symbol
 _atom_site_label
 _atom_site_symmetry_multiplicity
 _atom_site_fract_x
 _atom_site_fract_y
 _atom_site_fract_z
 _atom_site_occupancy
  Tb  Tb0  1  0.666667  0.333333  0.000000  1
  Tb  Tb1  1  0.000000  0.000000  0.500000  1
  Ni  Ni2  1  0.708305  0.090033  0.500000  1
  Ni  Ni3  1  0.909967  0.618271  0.500000  1
  Ni  Ni4  1  0.381729  0.291695  0.500000  1
  Ni  Ni5  1  0.770682  0.722077  0.000000  1
  Ni  Ni6  1  0.277923  0.048604  0.000000  1
  Ni  Ni7  1  0.951396  0.229318  0.000000  1
  Ni  Ni8  1  0.525033  0.754353  0.500000  1
  Ni  Ni9  1  0.245647  0.770679  0.500000  1
  Ni  Ni10  1  0.229321  0.474967  0.500000  1
  Ni  Ni11  1  0.475279  0.933102  0.000000  1
  Ni  Ni12  1  0.066898  0.542177  0.000000  1
  Ni  Ni13  1  0.457823  0.524721  0.000000  1
  As  As14  1  0.440796  0.071332  0.500000  1
  As  As15  1  0.928668  0.369463  0.500000  1
  As  As16  1  0.630537  0.559204  0.500000  1
  As  As17  1  0.735226  0.952668  0.000000  1
  As  As18  1  0.047332  0.782559  0.000000  1
  As  As19  1  0.217441  0.264774  0.000000  1
  P  P20  1  0.333333  0.666667  0.000000  1
