# generated using pymatgen
data_Pu2B6MoW
_symmetry_space_group_name_H-M   'P 1'
_cell_length_a   3.10547900
_cell_length_b   5.52873968
_cell_length_c   6.85757110
_cell_angle_alpha   76.86938250
_cell_angle_beta   90.00000000
_cell_angle_gamma   90.00000000
_symmetry_Int_Tables_number   1
_chemical_formula_structural   Pu2B6MoW
_chemical_formula_sum   'Pu2 B6 Mo1 W1'
_cell_volume   114.66192461
_cell_formula_units_Z   1
loop_
 _symmetry_equiv_pos_site_id
 _symmetry_equiv_pos_as_xyz
  1  'x, y, z'
loop_
 _atom_site_type_symbol
 _atom_site_label
 _atom_site_symmetry_multiplicity
 _atom_site_fract_x
 _atom_site_fract_y
 _atom_site_fract_z
 _atom_site_occupancy
  Pu  Pu0  1  0.750000  0.834757  0.697544  1
  Pu  Pu1  1  0.250000  0.165117  0.302129  1
  B  B2  1  0.250000  0.575849  0.471354  1
  B  B3  1  0.750000  0.424372  0.527885  1
  B  B4  1  0.250000  0.587515  0.992305  1
  B  B5  1  0.750000  0.412651  0.007938  1
  B  B6  1  0.250000  0.917674  0.991945  1
  B  B7  1  0.750000  0.082145  0.008421  1
  Mo  Mo8  1  0.250000  0.311793  0.783618  1
  W  W9  1  0.750000  0.688128  0.216860  1
