# generated using pymatgen
data_Ti6V4Ga2Si3Ge
_symmetry_space_group_name_H-M   'P 1'
_cell_length_a   7.42137595
_cell_length_b   7.42788770
_cell_length_c   4.99424000
_cell_angle_alpha   90.00000000
_cell_angle_beta   90.00000000
_cell_angle_gamma   120.07868802
_symmetry_Int_Tables_number   1
_chemical_formula_structural   Ti6V4Ga2Si3Ge
_chemical_formula_sum   'Ti6 V4 Ga2 Si3 Ge1'
_cell_volume   238.23463376
_cell_formula_units_Z   1
loop_
 _symmetry_equiv_pos_site_id
 _symmetry_equiv_pos_as_xyz
  1  'x, y, z'
loop_
 _atom_site_type_symbol
 _atom_site_label
 _atom_site_symmetry_multiplicity
 _atom_site_fract_x
 _atom_site_fract_y
 _atom_site_fract_z
 _atom_site_occupancy
  Ti  Ti0  1  0.759771  0.754658  0.750000  1
  Ti  Ti1  1  0.242351  0.994937  0.750000  1
  Ti  Ti2  1  0.999669  0.250418  0.750000  1
  Ti  Ti3  1  0.241963  0.242134  0.250000  1
  Ti  Ti4  1  0.756164  0.004219  0.250000  1
  Ti  Ti5  1  0.003673  0.751088  0.250000  1
  V  V6  1  0.672673  0.335372  0.002414  1
  V  V7  1  0.325698  0.665870  0.002340  1
  V  V8  1  0.325698  0.665870  0.497660  1
  V  V9  1  0.672673  0.335372  0.497586  1
  Ga  Ga10  1  0.399000  0.397845  0.750000  1
  Ga  Ga11  1  0.599667  0.997905  0.750000  1
  Si  Si12  1  0.999083  0.600869  0.750000  1
  Si  Si13  1  0.400445  0.003063  0.250000  1
  Si  Si14  1  0.000514  0.396486  0.250000  1
  Ge  Ge15  1  0.600957  0.603895  0.250000  1
