# generated using pymatgen
data_Zr10In3Bi3Se2
_symmetry_space_group_name_H-M   'P 1'
_cell_length_a   8.73594100
_cell_length_b   8.73594090
_cell_length_c   6.12886100
_cell_angle_alpha   90.00000000
_cell_angle_beta   90.00000000
_cell_angle_gamma   119.99999661
_symmetry_Int_Tables_number   1
_chemical_formula_structural   Zr10In3Bi3Se2
_chemical_formula_sum   'Zr10 In3 Bi3 Se2'
_cell_volume   405.06973675
_cell_formula_units_Z   1
loop_
 _symmetry_equiv_pos_site_id
 _symmetry_equiv_pos_as_xyz
  1  'x, y, z'
loop_
 _atom_site_type_symbol
 _atom_site_label
 _atom_site_symmetry_multiplicity
 _atom_site_fract_x
 _atom_site_fract_y
 _atom_site_fract_z
 _atom_site_occupancy
  Zr  Zr0  1  0.666667  0.333333  0.992984  1
  Zr  Zr1  1  0.333333  0.666667  0.992984  1
  Zr  Zr2  1  0.333333  0.666667  0.507016  1
  Zr  Zr3  1  0.666667  0.333333  0.507016  1
  Zr  Zr4  1  0.738135  0.738135  0.750000  1
  Zr  Zr5  1  0.261865  0.000000  0.750000  1
  Zr  Zr6  1  0.000000  0.261865  0.750000  1
  Zr  Zr7  1  0.256198  0.256198  0.250000  1
  Zr  Zr8  1  0.743802  0.000000  0.250000  1
  Zr  Zr9  1  0.000000  0.743802  0.250000  1
  In  In10  1  0.393344  0.393344  0.750000  1
  In  In11  1  0.606656  0.000000  0.750000  1
  In  In12  1  0.000000  0.606656  0.750000  1
  Bi  Bi13  1  0.599341  0.599341  0.250000  1
  Bi  Bi14  1  0.400659  0.000000  0.250000  1
  Bi  Bi15  1  0.000000  0.400659  0.250000  1
  Se  Se16  1  0.000000  0.000000  0.998354  1
  Se  Se17  1  0.000000  0.000000  0.501646  1
