# generated using pymatgen
data_YbPr3HfIr3
_symmetry_space_group_name_H-M   'P 1'
_cell_length_a   6.35788700
_cell_length_b   11.14344700
_cell_length_c   11.22333100
_cell_angle_alpha   90.00000000
_cell_angle_beta   90.00000000
_cell_angle_gamma   90.00000000
_symmetry_Int_Tables_number   1
_chemical_formula_structural   YbPr3HfIr3
_chemical_formula_sum   'Yb4 Pr12 Hf4 Ir12'
_cell_volume   795.15927316
_cell_formula_units_Z   4
loop_
 _symmetry_equiv_pos_site_id
 _symmetry_equiv_pos_as_xyz
  1  'x, y, z'
loop_
 _atom_site_type_symbol
 _atom_site_label
 _atom_site_symmetry_multiplicity
 _atom_site_fract_x
 _atom_site_fract_y
 _atom_site_fract_z
 _atom_site_occupancy
  Yb  Yb0  1  0.124838  0.462101  0.171809  1
  Yb  Yb1  1  0.624838  0.037900  0.171809  1
  Yb  Yb2  1  0.624838  0.462101  0.328191  1
  Yb  Yb3  1  0.124838  0.037900  0.328191  1
  Pr  Pr4  1  0.363302  0.839395  0.532237  1
  Pr  Pr5  1  0.863302  0.660605  0.532237  1
  Pr  Pr6  1  0.863302  0.839395  0.967763  1
  Pr  Pr7  1  0.363302  0.660605  0.967763  1
  Pr  Pr8  1  0.867181  0.535678  0.836275  1
  Pr  Pr9  1  0.367181  0.964322  0.836275  1
  Pr  Pr10  1  0.367181  0.535678  0.663725  1
  Pr  Pr11  1  0.867181  0.964322  0.663725  1
  Pr  Pr12  1  0.630795  0.164996  0.457043  1
  Pr  Pr13  1  0.130795  0.335004  0.457043  1
  Pr  Pr14  1  0.130795  0.164996  0.042958  1
  Pr  Pr15  1  0.630795  0.335004  0.042958  1
  Hf  Hf16  1  0.508766  0.750000  0.250000  1
  Hf  Hf17  1  0.008766  0.750000  0.250000  1
  Hf  Hf18  1  0.010204  0.250000  0.750000  1
  Hf  Hf19  1  0.510204  0.250000  0.750000  1
  Ir  Ir20  1  0.253838  0.883639  0.110871  1
  Ir  Ir21  1  0.753838  0.616361  0.110871  1
  Ir  Ir22  1  0.753838  0.883639  0.389129  1
  Ir  Ir23  1  0.253838  0.616361  0.389129  1
  Ir  Ir24  1  0.757176  0.114351  0.886021  1
  Ir  Ir25  1  0.257176  0.385649  0.886021  1
  Ir  Ir26  1  0.257176  0.114351  0.613979  1
  Ir  Ir27  1  0.757176  0.385649  0.613979  1
  Ir  Ir28  1  0.103182  0.750000  0.750000  1
  Ir  Ir29  1  0.603182  0.750000  0.750000  1
  Ir  Ir30  1  0.883591  0.250000  0.250000  1
  Ir  Ir31  1  0.383591  0.250000  0.250000  1
