# generated using pymatgen
data_La3PrSm2RuBr10
_symmetry_space_group_name_H-M   'P 1'
_cell_length_a   7.76010526
_cell_length_b   9.69888644
_cell_length_c   9.50360766
_cell_angle_alpha   108.24515021
_cell_angle_beta   95.68669844
_cell_angle_gamma   107.34355202
_symmetry_Int_Tables_number   1
_chemical_formula_structural   La3PrSm2RuBr10
_chemical_formula_sum   'La3 Pr1 Sm2 Ru1 Br10'
_cell_volume   633.66185734
_cell_formula_units_Z   1
loop_
 _symmetry_equiv_pos_site_id
 _symmetry_equiv_pos_as_xyz
  1  'x, y, z'
loop_
 _atom_site_type_symbol
 _atom_site_label
 _atom_site_symmetry_multiplicity
 _atom_site_fract_x
 _atom_site_fract_y
 _atom_site_fract_z
 _atom_site_occupancy
  La  La0  1  0.128996  0.052635  0.768824  1
  La  La1  1  0.625160  0.848638  0.805342  1
  La  La2  1  0.873555  0.950281  0.231850  1
  Pr  Pr3  1  0.974092  0.308923  0.102976  1
  Sm  Sm4  1  0.029069  0.697188  0.902390  1
  Sm  Sm5  1  0.365779  0.142296  0.186308  1
  Ru  Ru6  1  0.999396  0.999834  0.998892  1
  Br  Br7  1  0.198702  0.740610  0.650436  1
  Br  Br8  1  0.654854  0.538273  0.728915  1
  Br  Br9  1  0.253066  0.084621  0.450456  1
  Br  Br10  1  0.784367  0.253971  0.349074  1
  Br  Br11  1  0.550244  0.174660  0.926093  1
  Br  Br12  1  0.755118  0.919699  0.543776  1
  Br  Br13  1  0.911274  0.629666  0.164090  1
  Br  Br14  1  0.360294  0.453236  0.275528  1
  Br  Br15  1  0.091752  0.377072  0.834039  1
  Br  Br16  1  0.444278  0.828397  0.081010  1
