# generated using pymatgen
data_Pr2YAl12Ir3Os
_symmetry_space_group_name_H-M   'P 1'
_cell_length_a   8.85012500
_cell_length_b   8.90999931
_cell_length_c   9.65389000
_cell_angle_alpha   90.00000000
_cell_angle_beta   90.00000000
_cell_angle_gamma   119.77795163
_symmetry_Int_Tables_number   1
_chemical_formula_structural   Pr2YAl12Ir3Os
_chemical_formula_sum   'Pr4 Y2 Al24 Ir6 Os2'
_cell_volume   660.73520532
_cell_formula_units_Z   2
loop_
 _symmetry_equiv_pos_site_id
 _symmetry_equiv_pos_as_xyz
  1  'x, y, z'
loop_
 _atom_site_type_symbol
 _atom_site_label
 _atom_site_symmetry_multiplicity
 _atom_site_fract_x
 _atom_site_fract_y
 _atom_site_fract_z
 _atom_site_occupancy
  Pr  Pr0  1  0.621770  0.811394  0.250000  1
  Pr  Pr1  1  0.378230  0.188606  0.750000  1
  Pr  Pr2  1  0.189624  0.811394  0.250000  1
  Pr  Pr3  1  0.810376  0.188606  0.750000  1
  Y  Y4  1  0.194032  0.388063  0.250000  1
  Y  Y5  1  0.805968  0.611937  0.750000  1
  Al  Al6  1  0.333485  0.666971  0.025691  1
  Al  Al7  1  0.666515  0.333029  0.974309  1
  Al  Al8  1  0.666515  0.333029  0.525691  1
  Al  Al9  1  0.333485  0.666971  0.474309  1
  Al  Al10  1  0.164227  0.328452  0.572384  1
  Al  Al11  1  0.835773  0.671548  0.427616  1
  Al  Al12  1  0.672215  0.833957  0.576187  1
  Al  Al13  1  0.835773  0.671548  0.072384  1
  Al  Al14  1  0.327785  0.166043  0.423813  1
  Al  Al15  1  0.164227  0.328452  0.927616  1
  Al  Al16  1  0.161743  0.833957  0.576187  1
  Al  Al17  1  0.327785  0.166043  0.076187  1
  Al  Al18  1  0.838257  0.166043  0.423813  1
  Al  Al19  1  0.672215  0.833957  0.923813  1
  Al  Al20  1  0.838257  0.166043  0.076187  1
  Al  Al21  1  0.161743  0.833957  0.923813  1
  Al  Al22  1  0.563933  0.127867  0.250000  1
  Al  Al23  1  0.436067  0.872133  0.750000  1
  Al  Al24  1  0.874897  0.438014  0.250000  1
  Al  Al25  1  0.125103  0.561986  0.750000  1
  Al  Al26  1  0.563117  0.438014  0.250000  1
  Al  Al27  1  0.436883  0.561986  0.750000  1
  Al  Al28  1  0.004568  0.009135  0.250000  1
  Al  Al29  1  0.995432  0.990865  0.750000  1
  Ir  Ir30  1  0.500000  0.000000  0.000000  1
  Ir  Ir31  1  0.000000  0.500000  0.000000  1
  Ir  Ir32  1  0.500000  0.000000  0.500000  1
  Ir  Ir33  1  0.500000  0.500000  0.000000  1
  Ir  Ir34  1  0.000000  0.500000  0.500000  1
  Ir  Ir35  1  0.500000  0.500000  0.500000  1
  Os  Os36  1  0.000000  0.000000  0.000000  1
  Os  Os37  1  0.000000  0.000000  0.500000  1
