# generated using pymatgen
data_Dy5Tm5In8(PtRh)2
_symmetry_space_group_name_H-M   'P 1'
_cell_length_a   3.60399400
_cell_length_b   8.10477553
_cell_length_c   18.16939238
_cell_angle_alpha   89.99738974
_cell_angle_beta   90.00000000
_cell_angle_gamma   90.00000000
_symmetry_Int_Tables_number   1
_chemical_formula_structural   Dy5Tm5In8(PtRh)2
_chemical_formula_sum   'Dy5 Tm5 In8 Pt2 Rh2'
_cell_volume   530.71999957
_cell_formula_units_Z   1
loop_
 _symmetry_equiv_pos_site_id
 _symmetry_equiv_pos_as_xyz
  1  'x, y, z'
loop_
 _atom_site_type_symbol
 _atom_site_label
 _atom_site_symmetry_multiplicity
 _atom_site_fract_x
 _atom_site_fract_y
 _atom_site_fract_z
 _atom_site_occupancy
  Dy  Dy0  1  0.000000  0.762293  0.778656  1
  Dy  Dy1  1  0.000000  0.250908  0.720008  1
  Dy  Dy2  1  0.000000  0.749706  0.279655  1
  Dy  Dy3  1  0.000000  0.999515  0.999992  1
  Dy  Dy4  1  0.000000  0.499801  0.499860  1
  Tm  Tm5  1  0.000000  0.116011  0.411641  1
  Tm  Tm6  1  0.000000  0.884223  0.587673  1
  Tm  Tm7  1  0.000000  0.382834  0.913831  1
  Tm  Tm8  1  0.000000  0.616863  0.087064  1
  Tm  Tm9  1  0.000000  0.238064  0.221835  1
  In  In10  1  0.500000  0.421525  0.350931  1
  In  In11  1  0.500000  0.577985  0.648814  1
  In  In12  1  0.500000  0.074612  0.850206  1
  In  In13  1  0.500000  0.928013  0.149785  1
  In  In14  1  0.500000  0.294137  0.066087  1
  In  In15  1  0.500000  0.705438  0.934762  1
  In  In16  1  0.500000  0.203789  0.566730  1
  In  In17  1  0.500000  0.796222  0.432996  1
  Pt  Pt18  1  0.500000  0.476593  0.804400  1
  Pt  Pt19  1  0.500000  0.518989  0.196221  1
  Rh  Rh20  1  0.500000  0.025104  0.304698  1
  Rh  Rh21  1  0.500000  0.977373  0.694155  1
