# generated using pymatgen
data_LiTi8Mo3Ir4
_symmetry_space_group_name_H-M   'P 1'
_cell_length_a   6.23548500
_cell_length_b   4.40584100
_cell_length_c   8.85841900
_cell_angle_alpha   90.00005835
_cell_angle_beta   90.00001566
_cell_angle_gamma   90.00018292
_symmetry_Int_Tables_number   1
_chemical_formula_structural   LiTi8Mo3Ir4
_chemical_formula_sum   'Li1 Ti8 Mo3 Ir4'
_cell_volume   243.36340733
_cell_formula_units_Z   1
loop_
 _symmetry_equiv_pos_site_id
 _symmetry_equiv_pos_as_xyz
  1  'x, y, z'
loop_
 _atom_site_type_symbol
 _atom_site_label
 _atom_site_symmetry_multiplicity
 _atom_site_fract_x
 _atom_site_fract_y
 _atom_site_fract_z
 _atom_site_occupancy
  Li  Li0  1  0.749990  0.250000  0.124991  1
  Ti  Ti1  1  0.004509  0.749998  0.124999  1
  Ti  Ti2  1  0.495467  0.749999  0.125001  1
  Ti  Ti3  1  0.001764  0.249999  0.377403  1
  Ti  Ti4  1  0.498239  0.249999  0.377403  1
  Ti  Ti5  1  0.500441  0.750000  0.625000  1
  Ti  Ti6  1  0.999554  0.749999  0.625002  1
  Ti  Ti7  1  0.498265  0.249999  0.872589  1
  Ti  Ti8  1  0.001759  0.250000  0.872591  1
  Mo  Mo9  1  0.249994  0.749998  0.373638  1
  Mo  Mo10  1  0.750005  0.250001  0.624999  1
  Mo  Mo11  1  0.250007  0.749999  0.876381  1
  Ir  Ir12  1  0.249997  0.250000  0.125007  1
  Ir  Ir13  1  0.750001  0.749997  0.369633  1
  Ir  Ir14  1  0.250001  0.249998  0.625006  1
  Ir  Ir15  1  0.750008  0.749999  0.880356  1
