# generated using pymatgen
data_Hf6Tc2Os3Rh
_symmetry_space_group_name_H-M   'P 1'
_cell_length_a   4.60310700
_cell_length_b   6.53634900
_cell_length_c   13.83516500
_cell_angle_alpha   90.00000000
_cell_angle_beta   90.00012850
_cell_angle_gamma   90.00000000
_symmetry_Int_Tables_number   1
_chemical_formula_structural   Hf6Tc2Os3Rh
_chemical_formula_sum   'Hf12 Tc4 Os6 Rh2'
_cell_volume   416.26571837
_cell_formula_units_Z   2
loop_
 _symmetry_equiv_pos_site_id
 _symmetry_equiv_pos_as_xyz
  1  'x, y, z'
loop_
 _atom_site_type_symbol
 _atom_site_label
 _atom_site_symmetry_multiplicity
 _atom_site_fract_x
 _atom_site_fract_y
 _atom_site_fract_z
 _atom_site_occupancy
  Hf  Hf0  1  0.500002  0.251921  0.997643  1
  Hf  Hf1  1  0.500002  0.748080  0.997643  1
  Hf  Hf2  1  0.999999  0.248173  0.169013  1
  Hf  Hf3  1  0.999999  0.751828  0.169013  1
  Hf  Hf4  1  0.500001  0.248125  0.335899  1
  Hf  Hf5  1  0.500001  0.751875  0.335899  1
  Hf  Hf6  1  0.000002  0.250120  0.500388  1
  Hf  Hf7  1  0.000002  0.749880  0.500388  1
  Hf  Hf8  1  0.500000  0.249902  0.666230  1
  Hf  Hf9  1  0.500000  0.750098  0.666230  1
  Hf  Hf10  1  0.999998  0.251926  0.830793  1
  Hf  Hf11  1  0.999998  0.748075  0.830793  1
  Tc  Tc12  1  0.000003  0.000000  0.331491  1
  Tc  Tc13  1  0.500003  0.500000  0.499052  1
  Tc  Tc14  1  0.000001  0.000000  0.667617  1
  Tc  Tc15  1  0.499979  0.500000  0.835148  1
  Os  Os16  1  0.999996  0.500000  0.002341  1
  Os  Os17  1  0.499998  0.000000  0.164382  1
  Os  Os18  1  0.000000  0.500000  0.331032  1
  Os  Os19  1  0.500000  0.000000  0.499623  1
  Os  Os20  1  0.999999  0.500000  0.666994  1
  Os  Os21  1  0.500012  0.000000  0.835593  1
  Rh  Rh22  1  0.000000  0.000000  0.000579  1
  Rh  Rh23  1  0.500006  0.500000  0.166213  1
