# generated using pymatgen
data_Pm4As3Br
_symmetry_space_group_name_H-M   'P 1'
_cell_length_a   5.98000323
_cell_length_b   5.97968953
_cell_length_c   7.32180900
_cell_angle_alpha   65.83694535
_cell_angle_beta   65.82967205
_cell_angle_gamma   90.13475834
_symmetry_Int_Tables_number   1
_chemical_formula_structural   Pm4As3Br
_chemical_formula_sum   'Pm4 As3 Br1'
_cell_volume   213.34521775
_cell_formula_units_Z   1
loop_
 _symmetry_equiv_pos_site_id
 _symmetry_equiv_pos_as_xyz
  1  'x, y, z'
loop_
 _atom_site_type_symbol
 _atom_site_label
 _atom_site_symmetry_multiplicity
 _atom_site_fract_x
 _atom_site_fract_y
 _atom_site_fract_z
 _atom_site_occupancy
  Pm  Pm0  1  0.686982  0.882539  0.182828  1
  Pm  Pm1  1  0.420537  0.121347  0.706678  1
  Pm  Pm2  1  0.185196  0.382235  0.182841  1
  Pm  Pm3  1  0.946477  0.645357  0.658304  1
  As  As4  1  0.932769  0.133092  0.682705  1
  As  As5  1  0.434394  0.633187  0.682743  1
  As  As6  1  0.186955  0.882469  0.182452  1
  Br  Br7  1  0.685644  0.382754  0.182385  1
