# generated using pymatgen
data_YPa(Al3Ir)3
_symmetry_space_group_name_H-M   'P 1'
_cell_length_a   7.60244703
_cell_length_b   7.60406541
_cell_length_c   9.38630500
_cell_angle_alpha   90.00000000
_cell_angle_beta   90.00000000
_cell_angle_gamma   119.68019419
_symmetry_Int_Tables_number   1
_chemical_formula_structural   YPa(Al3Ir)3
_chemical_formula_sum   'Y2 Pa2 Al18 Ir6'
_cell_volume   471.42768847
_cell_formula_units_Z   2
loop_
 _symmetry_equiv_pos_site_id
 _symmetry_equiv_pos_as_xyz
  1  'x, y, z'
loop_
 _atom_site_type_symbol
 _atom_site_label
 _atom_site_symmetry_multiplicity
 _atom_site_fract_x
 _atom_site_fract_y
 _atom_site_fract_z
 _atom_site_occupancy
  Y  Y0  1  0.669410  0.993770  0.250000  1
  Y  Y1  1  0.330590  0.006230  0.750000  1
  Pa  Pa2  1  0.996918  0.670968  0.250000  1
  Pa  Pa3  1  0.003082  0.329032  0.750000  1
  Al  Al4  1  0.129911  0.127750  0.250000  1
  Al  Al5  1  0.870089  0.872250  0.750000  1
  Al  Al6  1  0.000518  0.331978  0.076903  1
  Al  Al7  1  0.999482  0.668022  0.923097  1
  Al  Al8  1  0.999482  0.668022  0.576903  1
  Al  Al9  1  0.337594  0.002925  0.425581  1
  Al  Al10  1  0.000518  0.331978  0.423097  1
  Al  Al11  1  0.662406  0.997075  0.574419  1
  Al  Al12  1  0.662406  0.997075  0.925581  1
  Al  Al13  1  0.337594  0.002925  0.074419  1
  Al  Al14  1  0.335391  0.333392  0.553365  1
  Al  Al15  1  0.664609  0.666608  0.446635  1
  Al  Al16  1  0.664609  0.666608  0.053365  1
  Al  Al17  1  0.335391  0.333392  0.946635  1
  Al  Al18  1  0.340180  0.547741  0.250000  1
  Al  Al19  1  0.659820  0.452259  0.750000  1
  Al  Al20  1  0.547631  0.340470  0.250000  1
  Al  Al21  1  0.452369  0.659530  0.750000  1
  Ir  Ir22  1  0.675926  0.330053  0.999825  1
  Ir  Ir23  1  0.324074  0.669947  0.000175  1
  Ir  Ir24  1  0.324074  0.669947  0.499825  1
  Ir  Ir25  1  0.675926  0.330053  0.500175  1
  Ir  Ir26  1  0.000000  0.000000  0.000000  1
  Ir  Ir27  1  0.000000  0.000000  0.500000  1
