# generated using pymatgen
data_Lu6ReSnSb
_symmetry_space_group_name_H-M   'P 1'
_cell_length_a   7.94133800
_cell_length_b   7.94133711
_cell_length_c   4.30743300
_cell_angle_alpha   90.00000000
_cell_angle_beta   90.00000000
_cell_angle_gamma   119.99999537
_symmetry_Int_Tables_number   1
_chemical_formula_structural   Lu6ReSnSb
_chemical_formula_sum   'Lu6 Re1 Sn1 Sb1'
_cell_volume   235.25371816
_cell_formula_units_Z   1
loop_
 _symmetry_equiv_pos_site_id
 _symmetry_equiv_pos_as_xyz
  1  'x, y, z'
loop_
 _atom_site_type_symbol
 _atom_site_label
 _atom_site_symmetry_multiplicity
 _atom_site_fract_x
 _atom_site_fract_y
 _atom_site_fract_z
 _atom_site_occupancy
  Lu  Lu0  1  0.612632  0.002174  0.500000  1
  Lu  Lu1  1  0.389541  0.387368  0.500000  1
  Lu  Lu2  1  0.997826  0.610459  0.500000  1
  Lu  Lu3  1  0.998218  0.238724  0.000000  1
  Lu  Lu4  1  0.761276  0.759494  0.000000  1
  Lu  Lu5  1  0.240506  0.001782  0.000000  1
  Re  Re6  1  0.000000  0.000000  0.500000  1
  Sn  Sn7  1  0.666667  0.333333  0.000000  1
  Sb  Sb8  1  0.333333  0.666667  0.000000  1
