# generated using pymatgen
data_Ca3LaNdIr2
_symmetry_space_group_name_H-M   'P 1'
_cell_length_a   8.83034461
_cell_length_b   8.83034499
_cell_length_c   7.52909510
_cell_angle_alpha   82.98776102
_cell_angle_beta   82.98776222
_cell_angle_gamma   44.68474740
_symmetry_Int_Tables_number   1
_chemical_formula_structural   Ca3LaNdIr2
_chemical_formula_sum   'Ca6 La2 Nd2 Ir4'
_cell_volume   409.22673532
_cell_formula_units_Z   2
loop_
 _symmetry_equiv_pos_site_id
 _symmetry_equiv_pos_as_xyz
  1  'x, y, z'
loop_
 _atom_site_type_symbol
 _atom_site_label
 _atom_site_symmetry_multiplicity
 _atom_site_fract_x
 _atom_site_fract_y
 _atom_site_fract_z
 _atom_site_occupancy
  Ca  Ca0  1  0.983971  0.197052  0.084061  1
  Ca  Ca1  1  0.802948  0.016029  0.415939  1
  Ca  Ca2  1  0.362340  0.204606  0.821111  1
  Ca  Ca3  1  0.795394  0.637660  0.678889  1
  Ca  Ca4  1  0.635300  0.795260  0.182617  1
  Ca  Ca5  1  0.204740  0.364700  0.317383  1
  La  La6  1  0.011699  0.807793  0.913751  1
  La  La7  1  0.192207  0.988301  0.586249  1
  Nd  Nd8  1  0.572905  0.427095  0.750000  1
  Nd  Nd9  1  0.434836  0.565164  0.250000  1
  Ir  Ir10  1  0.181878  0.613976  0.587142  1
  Ir  Ir11  1  0.386024  0.818122  0.912858  1
  Ir  Ir12  1  0.824579  0.388818  0.427412  1
  Ir  Ir13  1  0.611182  0.175421  0.072588  1
