# generated using pymatgen
data_Dy2Ho3Tm3(OsC2)4
_symmetry_space_group_name_H-M   'P 1'
_cell_length_a   5.09292700
_cell_length_b   6.42692189
_cell_length_c   9.72839427
_cell_angle_alpha   90.02949617
_cell_angle_beta   90.00000000
_cell_angle_gamma   90.00000000
_symmetry_Int_Tables_number   1
_chemical_formula_structural   Dy2Ho3Tm3(OsC2)4
_chemical_formula_sum   'Dy2 Ho3 Tm3 Os4 C8'
_cell_volume   318.42824143
_cell_formula_units_Z   1
loop_
 _symmetry_equiv_pos_site_id
 _symmetry_equiv_pos_as_xyz
  1  'x, y, z'
loop_
 _atom_site_type_symbol
 _atom_site_label
 _atom_site_symmetry_multiplicity
 _atom_site_fract_x
 _atom_site_fract_y
 _atom_site_fract_z
 _atom_site_occupancy
  Dy  Dy0  1  0.750000  0.973607  0.717990  1
  Dy  Dy1  1  0.250000  0.025906  0.282652  1
  Ho  Ho2  1  0.250000  0.183097  0.947372  1
  Ho  Ho3  1  0.250000  0.526508  0.219300  1
  Ho  Ho4  1  0.750000  0.473846  0.780810  1
  Tm  Tm5  1  0.250000  0.680659  0.553335  1
  Tm  Tm6  1  0.750000  0.319520  0.446333  1
  Tm  Tm7  1  0.750000  0.818791  0.053724  1
  Os  Os8  1  0.250000  0.725212  0.865825  1
  Os  Os9  1  0.750000  0.274643  0.134519  1
  Os  Os10  1  0.750000  0.774397  0.366460  1
  Os  Os11  1  0.250000  0.225426  0.633196  1
  C  C12  1  0.250000  0.461368  0.757467  1
  C  C13  1  0.750000  0.539354  0.241344  1
  C  C14  1  0.750000  0.038937  0.258609  1
  C  C15  1  0.250000  0.960541  0.740889  1
  C  C16  1  0.250000  0.825530  0.054367  1
  C  C17  1  0.750000  0.172705  0.946046  1
  C  C18  1  0.750000  0.670342  0.554420  1
  C  C19  1  0.250000  0.329612  0.445344  1
