# generated using pymatgen
data_Sc4Tc5Mo3
_symmetry_space_group_name_H-M   'P 1'
_cell_length_a   5.33903000
_cell_length_b   5.33903102
_cell_length_c   8.50102600
_cell_angle_alpha   90.00000000
_cell_angle_beta   90.00000000
_cell_angle_gamma   120.00327297
_symmetry_Int_Tables_number   1
_chemical_formula_structural   Sc4Tc5Mo3
_chemical_formula_sum   'Sc4 Tc5 Mo3'
_cell_volume   209.85168341
_cell_formula_units_Z   1
loop_
 _symmetry_equiv_pos_site_id
 _symmetry_equiv_pos_as_xyz
  1  'x, y, z'
loop_
 _atom_site_type_symbol
 _atom_site_label
 _atom_site_symmetry_multiplicity
 _atom_site_fract_x
 _atom_site_fract_y
 _atom_site_fract_z
 _atom_site_occupancy
  Sc  Sc0  1  0.333556  0.666444  0.439544  1
  Sc  Sc1  1  0.666431  0.333569  0.563535  1
  Sc  Sc2  1  0.666431  0.333569  0.936465  1
  Sc  Sc3  1  0.333556  0.666444  0.060456  1
  Tc  Tc4  1  0.826313  0.655387  0.250000  1
  Tc  Tc5  1  0.344613  0.173687  0.250000  1
  Tc  Tc6  1  0.172002  0.827998  0.750000  1
  Tc  Tc7  1  0.172736  0.346164  0.750000  1
  Tc  Tc8  1  0.653836  0.827264  0.750000  1
  Mo  Mo9  1  0.001304  0.998696  0.502272  1
  Mo  Mo10  1  0.001304  0.998696  0.997728  1
  Mo  Mo11  1  0.827920  0.172080  0.250000  1
