# generated using pymatgen
data_Hf6Zn22PdSe
_symmetry_space_group_name_H-M   'P 1'
_cell_length_a   8.73826607
_cell_length_b   8.73826550
_cell_length_c   8.73826700
_cell_angle_alpha   60.00000568
_cell_angle_beta   60.00000784
_cell_angle_gamma   59.99999870
_symmetry_Int_Tables_number   1
_chemical_formula_structural   Hf6Zn22PdSe
_chemical_formula_sum   'Hf6 Zn22 Pd1 Se1'
_cell_volume   471.80316859
_cell_formula_units_Z   1
loop_
 _symmetry_equiv_pos_site_id
 _symmetry_equiv_pos_as_xyz
  1  'x, y, z'
loop_
 _atom_site_type_symbol
 _atom_site_label
 _atom_site_symmetry_multiplicity
 _atom_site_fract_x
 _atom_site_fract_y
 _atom_site_fract_z
 _atom_site_occupancy
  Hf  Hf0  1  0.712433  0.287567  0.287567  1
  Hf  Hf1  1  0.287567  0.712433  0.712433  1
  Hf  Hf2  1  0.287567  0.712433  0.287567  1
  Hf  Hf3  1  0.712433  0.287567  0.712433  1
  Hf  Hf4  1  0.287567  0.287567  0.712433  1
  Hf  Hf5  1  0.712433  0.712433  0.287567  1
  Zn  Zn6  1  0.122103  0.122103  0.122103  1
  Zn  Zn7  1  0.877897  0.877897  0.877897  1
  Zn  Zn8  1  0.122103  0.122103  0.633689  1
  Zn  Zn9  1  0.122103  0.633689  0.122103  1
  Zn  Zn10  1  0.877897  0.877897  0.366311  1
  Zn  Zn11  1  0.877897  0.366311  0.877897  1
  Zn  Zn12  1  0.633689  0.122103  0.122103  1
  Zn  Zn13  1  0.366311  0.877897  0.877897  1
  Zn  Zn14  1  0.500000  0.000000  0.000000  1
  Zn  Zn15  1  0.000000  0.500000  0.500000  1
  Zn  Zn16  1  0.000000  0.500000  0.000000  1
  Zn  Zn17  1  0.500000  0.000000  0.500000  1
  Zn  Zn18  1  0.000000  0.000000  0.500000  1
  Zn  Zn19  1  0.500000  0.500000  0.000000  1
  Zn  Zn20  1  0.334527  0.334527  0.334527  1
  Zn  Zn21  1  0.665473  0.665473  0.665473  1
  Zn  Zn22  1  0.334527  0.334527  0.996419  1
  Zn  Zn23  1  0.334527  0.996419  0.334527  1
  Zn  Zn24  1  0.665473  0.665473  0.003581  1
  Zn  Zn25  1  0.665473  0.003581  0.665473  1
  Zn  Zn26  1  0.996419  0.334527  0.334527  1
  Zn  Zn27  1  0.003581  0.665473  0.665473  1
  Pd  Pd28  1  0.000000  0.000000  0.000000  1
  Se  Se29  1  0.500000  0.500000  0.500000  1
