# generated using pymatgen
data_Sc4TiGaB4Ir9Os
_symmetry_space_group_name_H-M   'P 1'
_cell_length_a   3.03201600
_cell_length_b   9.46447925
_cell_length_c   9.46448000
_cell_angle_alpha   90.40739793
_cell_angle_beta   90.00000000
_cell_angle_gamma   90.00000000
_symmetry_Int_Tables_number   1
_chemical_formula_structural   Sc4TiGaB4Ir9Os
_chemical_formula_sum   'Sc4 Ti1 Ga1 B4 Ir9 Os1'
_cell_volume   271.59013530
_cell_formula_units_Z   1
loop_
 _symmetry_equiv_pos_site_id
 _symmetry_equiv_pos_as_xyz
  1  'x, y, z'
loop_
 _atom_site_type_symbol
 _atom_site_label
 _atom_site_symmetry_multiplicity
 _atom_site_fract_x
 _atom_site_fract_y
 _atom_site_fract_z
 _atom_site_occupancy
  Sc  Sc0  1  0.000000  0.174614  0.673264  1
  Sc  Sc1  1  0.000000  0.825386  0.326736  1
  Sc  Sc2  1  0.000000  0.324276  0.177658  1
  Sc  Sc3  1  0.000000  0.675724  0.822342  1
  Ti  Ti4  1  0.000000  0.000000  0.000000  1
  Ga  Ga5  1  0.000000  0.500000  0.500000  1
  B  B6  1  0.000000  0.620961  0.127563  1
  B  B7  1  0.000000  0.379039  0.872437  1
  B  B8  1  0.000000  0.875756  0.617739  1
  B  B9  1  0.000000  0.124244  0.382261  1
  Ir  Ir10  1  0.500000  0.071068  0.215327  1
  Ir  Ir11  1  0.500000  0.928932  0.784673  1
  Ir  Ir12  1  0.500000  0.783109  0.069866  1
  Ir  Ir13  1  0.500000  0.428804  0.716598  1
  Ir  Ir14  1  0.500000  0.216891  0.930134  1
  Ir  Ir15  1  0.500000  0.571196  0.283402  1
  Ir  Ir16  1  0.500000  0.714929  0.571763  1
  Ir  Ir17  1  0.500000  0.285071  0.428237  1
  Ir  Ir18  1  0.500000  0.500000  0.000000  1
  Os  Os19  1  0.500000  0.000000  0.500000  1
