# generated using pymatgen
data_Ac6CoRuI6
_symmetry_space_group_name_H-M   'P 1'
_cell_length_a   4.47660900
_cell_length_b   10.00686951
_cell_length_c   12.82922103
_cell_angle_alpha   86.15689930
_cell_angle_beta   90.00000000
_cell_angle_gamma   90.00000000
_symmetry_Int_Tables_number   1
_chemical_formula_structural   Ac6CoRuI6
_chemical_formula_sum   'Ac6 Co1 Ru1 I6'
_cell_volume   573.41625999
_cell_formula_units_Z   1
loop_
 _symmetry_equiv_pos_site_id
 _symmetry_equiv_pos_as_xyz
  1  'x, y, z'
loop_
 _atom_site_type_symbol
 _atom_site_label
 _atom_site_symmetry_multiplicity
 _atom_site_fract_x
 _atom_site_fract_y
 _atom_site_fract_z
 _atom_site_occupancy
  Ac  Ac0  1  0.250000  0.307835  0.880698  1
  Ac  Ac1  1  0.750000  0.683829  0.119756  1
  Ac  Ac2  1  0.750000  0.117695  0.668545  1
  Ac  Ac3  1  0.250000  0.882527  0.336713  1
  Ac  Ac4  1  0.750000  0.094031  0.100728  1
  Ac  Ac5  1  0.250000  0.908165  0.894394  1
  Co  Co6  1  0.750000  0.115410  0.876629  1
  Ru  Ru7  1  0.250000  0.888232  0.121037  1
  I  I8  1  0.750000  0.133954  0.381078  1
  I  I9  1  0.250000  0.867604  0.619308  1
  I  I10  1  0.250000  0.367960  0.616010  1
  I  I11  1  0.750000  0.631583  0.384188  1
  I  I12  1  0.750000  0.607288  0.863166  1
  I  I13  1  0.250000  0.393886  0.137751  1
