# generated using pymatgen
data_ErZr7H30
_symmetry_space_group_name_H-M   'P 1'
_cell_length_a   7.06788299
_cell_length_b   7.06788259
_cell_length_c   7.06788246
_cell_angle_alpha   109.42811490
_cell_angle_beta   109.42811768
_cell_angle_gamma   109.42812199
_symmetry_Int_Tables_number   1
_chemical_formula_structural   ErZr7H30
_chemical_formula_sum   'Er1 Zr7 H30'
_cell_volume   272.23078384
_cell_formula_units_Z   1
loop_
 _symmetry_equiv_pos_site_id
 _symmetry_equiv_pos_as_xyz
  1  'x, y, z'
loop_
 _atom_site_type_symbol
 _atom_site_label
 _atom_site_symmetry_multiplicity
 _atom_site_fract_x
 _atom_site_fract_y
 _atom_site_fract_z
 _atom_site_occupancy
  Er  Er0  1  0.909223  0.909223  0.909223  1
  Zr  Zr1  1  0.500949  0.001388  0.097898  1
  Zr  Zr2  1  0.001388  0.097898  0.500949  1
  Zr  Zr3  1  0.097898  0.500949  0.001388  1
  Zr  Zr4  1  0.999671  0.597460  0.497939  1
  Zr  Zr5  1  0.597460  0.497939  0.999671  1
  Zr  Zr6  1  0.497939  0.999671  0.597460  1
  Zr  Zr7  1  0.408689  0.408689  0.408689  1
  H  H8  1  0.655083  0.971543  0.384897  1
  H  H9  1  0.226240  0.311517  0.845419  1
  H  H10  1  0.187740  0.418696  0.531935  1
  H  H11  1  0.095464  0.284600  0.124456  1
  H  H12  1  0.284600  0.124456  0.095464  1
  H  H13  1  0.124456  0.095464  0.284600  1
  H  H14  1  0.463938  0.153188  0.884159  1
  H  H15  1  0.727263  0.343644  0.814037  1
  H  H16  1  0.628485  0.372369  0.248917  1
  H  H17  1  0.248917  0.628485  0.372369  1
  H  H18  1  0.745602  0.869568  0.129212  1
  H  H19  1  0.129212  0.745602  0.869568  1
  H  H20  1  0.372369  0.248917  0.628485  1
  H  H21  1  0.869568  0.129212  0.745602  1
  H  H22  1  0.767389  0.576672  0.604698  1
  H  H23  1  0.311517  0.845419  0.226240  1
  H  H24  1  0.384897  0.655083  0.971543  1
  H  H25  1  0.971543  0.384897  0.655083  1
  H  H26  1  0.531935  0.187740  0.418696  1
  H  H27  1  0.418696  0.531935  0.187740  1
  H  H28  1  0.845419  0.226240  0.311517  1
  H  H29  1  0.911939  0.675614  0.032499  1
  H  H30  1  0.814037  0.727263  0.343644  1
  H  H31  1  0.153188  0.884159  0.463938  1
  H  H32  1  0.675614  0.032499  0.911939  1
  H  H33  1  0.343644  0.814037  0.727263  1
  H  H34  1  0.884159  0.463938  0.153188  1
  H  H35  1  0.604698  0.767389  0.576672  1
  H  H36  1  0.576672  0.604698  0.767389  1
  H  H37  1  0.032499  0.911939  0.675614  1
