# generated using pymatgen
data_ThZn2Cu3
_symmetry_space_group_name_H-M   'P 1'
_cell_length_a   5.17626304
_cell_length_b   5.17626310
_cell_length_c   4.22319500
_cell_angle_alpha   90.00000000
_cell_angle_beta   90.00000000
_cell_angle_gamma   119.83289524
_symmetry_Int_Tables_number   1
_chemical_formula_structural   ThZn2Cu3
_chemical_formula_sum   'Th1 Zn2 Cu3'
_cell_volume   98.15971240
_cell_formula_units_Z   1
loop_
 _symmetry_equiv_pos_site_id
 _symmetry_equiv_pos_as_xyz
  1  'x, y, z'
loop_
 _atom_site_type_symbol
 _atom_site_label
 _atom_site_symmetry_multiplicity
 _atom_site_fract_x
 _atom_site_fract_y
 _atom_site_fract_z
 _atom_site_occupancy
  Th  Th0  1  0.500000  0.500000  0.000000  1
  Zn  Zn1  1  0.000000  0.500000  0.500000  1
  Zn  Zn2  1  0.500000  0.000000  0.500000  1
  Cu  Cu3  1  0.000000  0.000000  0.500000  1
  Cu  Cu4  1  0.163329  0.836671  0.000000  1
  Cu  Cu5  1  0.836671  0.163329  0.000000  1
