# generated using pymatgen
data_PrTh2(CuSn)3
_symmetry_space_group_name_H-M   'P 1'
_cell_length_a   4.52842900
_cell_length_b   4.52842914
_cell_length_c   12.11655300
_cell_angle_alpha   90.00000000
_cell_angle_beta   90.00000000
_cell_angle_gamma   119.99999169
_symmetry_Int_Tables_number   1
_chemical_formula_structural   PrTh2(CuSn)3
_chemical_formula_sum   'Pr1 Th2 Cu3 Sn3'
_cell_volume   215.18148157
_cell_formula_units_Z   1
loop_
 _symmetry_equiv_pos_site_id
 _symmetry_equiv_pos_as_xyz
  1  'x, y, z'
loop_
 _atom_site_type_symbol
 _atom_site_label
 _atom_site_symmetry_multiplicity
 _atom_site_fract_x
 _atom_site_fract_y
 _atom_site_fract_z
 _atom_site_occupancy
  Pr  Pr0  1  0.000000  0.000000  0.161882  1
  Th  Th1  1  0.000000  0.000000  0.827539  1
  Th  Th2  1  0.000000  0.000000  0.492318  1
  Cu  Cu3  1  0.666667  0.333333  0.011242  1
  Cu  Cu4  1  0.333333  0.666667  0.617378  1
  Cu  Cu5  1  0.333333  0.666667  0.371146  1
  Sn  Sn6  1  0.666667  0.333333  0.670264  1
  Sn  Sn7  1  0.666667  0.333333  0.316472  1
  Sn  Sn8  1  0.333333  0.666667  0.987757  1
