# generated using pymatgen
data_YLu3(ScRh)4
_symmetry_space_group_name_H-M   'P 1'
_cell_length_a   4.19651900
_cell_length_b   7.16648953
_cell_length_c   8.58249700
_cell_angle_alpha   89.92263277
_cell_angle_beta   90.00000000
_cell_angle_gamma   90.00000000
_symmetry_Int_Tables_number   1
_chemical_formula_structural   YLu3(ScRh)4
_chemical_formula_sum   'Y1 Lu3 Sc4 Rh4'
_cell_volume   258.11243567
_cell_formula_units_Z   1
loop_
 _symmetry_equiv_pos_site_id
 _symmetry_equiv_pos_as_xyz
  1  'x, y, z'
loop_
 _atom_site_type_symbol
 _atom_site_label
 _atom_site_symmetry_multiplicity
 _atom_site_fract_x
 _atom_site_fract_y
 _atom_site_fract_z
 _atom_site_occupancy
  Y  Y0  1  0.250000  0.018407  0.326552  1
  Lu  Lu1  1  0.250000  0.518141  0.170227  1
  Lu  Lu2  1  0.750000  0.481658  0.829156  1
  Lu  Lu3  1  0.750000  0.981908  0.672349  1
  Sc  Sc4  1  0.250000  0.639781  0.570031  1
  Sc  Sc5  1  0.750000  0.361200  0.431070  1
  Sc  Sc6  1  0.750000  0.859297  0.067040  1
  Sc  Sc7  1  0.250000  0.141291  0.929970  1
  Rh  Rh8  1  0.250000  0.752197  0.898875  1
  Rh  Rh9  1  0.750000  0.248082  0.101116  1
  Rh  Rh10  1  0.750000  0.744244  0.400790  1
  Rh  Rh11  1  0.250000  0.253793  0.602825  1
