# generated using pymatgen
data_Ho4Er3CoI12
_symmetry_space_group_name_H-M   'P 1'
_cell_length_a   9.69066349
_cell_length_b   9.68849503
_cell_length_c   9.68734312
_cell_angle_alpha   106.83226053
_cell_angle_beta   106.84310167
_cell_angle_gamma   106.83569267
_symmetry_Int_Tables_number   1
_chemical_formula_structural   Ho4Er3CoI12
_chemical_formula_sum   'Ho4 Er3 Co1 I12'
_cell_volume   760.80342011
_cell_formula_units_Z   1
loop_
 _symmetry_equiv_pos_site_id
 _symmetry_equiv_pos_as_xyz
  1  'x, y, z'
loop_
 _atom_site_type_symbol
 _atom_site_label
 _atom_site_symmetry_multiplicity
 _atom_site_fract_x
 _atom_site_fract_y
 _atom_site_fract_z
 _atom_site_occupancy
  Ho  Ho0  1  0.286321  0.090913  0.021377  1
  Ho  Ho1  1  0.021548  0.286499  0.090972  1
  Ho  Ho2  1  0.091143  0.021443  0.286468  1
  Ho  Ho3  1  0.713509  0.908735  0.978210  1
  Er  Er4  1  0.500036  0.500006  0.499991  1
  Er  Er5  1  0.978489  0.714396  0.909144  1
  Er  Er6  1  0.909258  0.978395  0.714372  1
  Co  Co7  1  0.999910  0.999788  0.999739  1
  I  I8  1  0.463477  0.161304  0.386923  1
  I  I9  1  0.386907  0.463480  0.161289  1
  I  I10  1  0.161283  0.386875  0.463444  1
  I  I11  1  0.536751  0.838727  0.613043  1
  I  I12  1  0.613236  0.536525  0.838643  1
  I  I13  1  0.838725  0.613232  0.536751  1
  I  I14  1  0.323185  0.775423  0.929242  1
  I  I15  1  0.929294  0.323346  0.775500  1
  I  I16  1  0.775599  0.929320  0.323584  1
  I  I17  1  0.676609  0.224434  0.070689  1
  I  I18  1  0.070608  0.676560  0.224104  1
  I  I19  1  0.224113  0.070598  0.676515  1
