# generated using pymatgen
data_Y8Ti12Si15As
_symmetry_space_group_name_H-M   'P 1'
_cell_length_a   7.07291138
_cell_length_b   7.06629018
_cell_length_c   13.00111238
_cell_angle_alpha   89.98258130
_cell_angle_beta   89.83106968
_cell_angle_gamma   89.88466107
_symmetry_Int_Tables_number   1
_chemical_formula_structural   Y8Ti12Si15As
_chemical_formula_sum   'Y8 Ti12 Si15 As1'
_cell_volume   649.78160120
_cell_formula_units_Z   1
loop_
 _symmetry_equiv_pos_site_id
 _symmetry_equiv_pos_as_xyz
  1  'x, y, z'
loop_
 _atom_site_type_symbol
 _atom_site_label
 _atom_site_symmetry_multiplicity
 _atom_site_fract_x
 _atom_site_fract_y
 _atom_site_fract_z
 _atom_site_occupancy
  Y  Y0  1  0.341325  0.001861  0.466234  1
  Y  Y1  1  0.497326  0.842179  0.717396  1
  Y  Y2  1  0.502187  0.159274  0.216384  1
  Y  Y3  1  0.840059  0.497178  0.283285  1
  Y  Y4  1  0.159073  0.501179  0.783178  1
  Y  Y5  1  0.660863  0.995218  0.967500  1
  Y  Y6  1  0.999776  0.342923  0.532120  1
  Y  Y7  1  0.998141  0.659421  0.033461  1
  Ti  Ti8  1  0.326074  0.326869  0.999633  1
  Ti  Ti9  1  0.172926  0.827083  0.250012  1
  Ti  Ti10  1  0.823894  0.173720  0.750200  1
  Ti  Ti11  1  0.672834  0.672924  0.500112  1
  Ti  Ti12  1  0.154342  0.009738  0.875571  1
  Ti  Ti13  1  0.491287  0.652126  0.125885  1
  Ti  Ti14  1  0.509481  0.347221  0.627375  1
  Ti  Ti15  1  0.654898  0.494273  0.874574  1
  Ti  Ti16  1  0.347222  0.507986  0.373777  1
  Ti  Ti17  1  0.847168  0.991739  0.376062  1
  Ti  Ti18  1  0.008355  0.151987  0.123875  1
  Ti  Ti19  1  0.989477  0.843875  0.622938  1
  Si  Si20  1  0.369388  0.702995  0.934051  1
  Si  Si21  1  0.628984  0.297885  0.435130  1
  Si  Si22  1  0.702559  0.370277  0.065590  1
  Si  Si23  1  0.297968  0.629808  0.565685  1
  Si  Si24  1  0.797169  0.869965  0.184852  1
  Si  Si25  1  0.130067  0.202567  0.315698  1
  Si  Si26  1  0.870874  0.797925  0.815044  1
  Si  Si27  1  0.290585  0.952778  0.064377  1
  Si  Si28  1  0.546889  0.790213  0.314438  1
  Si  Si29  1  0.461701  0.211843  0.819394  1
  Si  Si30  1  0.790381  0.546972  0.685279  1
  Si  Si31  1  0.209160  0.452821  0.185505  1
  Si  Si32  1  0.709083  0.046359  0.564335  1
  Si  Si33  1  0.953448  0.290436  0.935446  1
  Si  Si34  1  0.047206  0.709923  0.434965  1
  As  As35  1  0.197829  0.128457  0.680641  1
