# generated using pymatgen
data_SmRe2(TcGe)2
_symmetry_space_group_name_H-M   'P 1'
_cell_length_a   7.57586369
_cell_length_b   7.57586313
_cell_length_c   4.09247000
_cell_angle_alpha   90.00000000
_cell_angle_beta   90.00000000
_cell_angle_gamma   148.21139678
_symmetry_Int_Tables_number   1
_chemical_formula_structural   SmRe2(TcGe)2
_chemical_formula_sum   'Sm1 Re2 Tc2 Ge2'
_cell_volume   123.73273253
_cell_formula_units_Z   1
loop_
 _symmetry_equiv_pos_site_id
 _symmetry_equiv_pos_as_xyz
  1  'x, y, z'
loop_
 _atom_site_type_symbol
 _atom_site_label
 _atom_site_symmetry_multiplicity
 _atom_site_fract_x
 _atom_site_fract_y
 _atom_site_fract_z
 _atom_site_occupancy
  Sm  Sm0  1  0.000000  0.000000  0.000000  1
  Re  Re1  1  0.698504  0.301498  0.000000  1
  Re  Re2  1  0.301498  0.698504  0.000000  1
  Tc  Tc3  1  0.810743  0.189258  0.499999  1
  Tc  Tc4  1  0.189258  0.810743  0.499999  1
  Ge  Ge5  1  0.587485  0.412517  0.499999  1
  Ge  Ge6  1  0.412517  0.587485  0.499999  1
