# generated using pymatgen
data_TbNd7(AsCl6)2
_symmetry_space_group_name_H-M   'P 1'
_cell_length_a   4.10472900
_cell_length_b   13.20067250
_cell_length_c   14.01363810
_cell_angle_alpha   90.45919829
_cell_angle_beta   90.00000000
_cell_angle_gamma   90.00000000
_symmetry_Int_Tables_number   1
_chemical_formula_structural   TbNd7(AsCl6)2
_chemical_formula_sum   'Tb1 Nd7 As2 Cl12'
_cell_volume   759.30716133
_cell_formula_units_Z   1
loop_
 _symmetry_equiv_pos_site_id
 _symmetry_equiv_pos_as_xyz
  1  'x, y, z'
loop_
 _atom_site_type_symbol
 _atom_site_label
 _atom_site_symmetry_multiplicity
 _atom_site_fract_x
 _atom_site_fract_y
 _atom_site_fract_z
 _atom_site_occupancy
  Tb  Tb0  1  0.500000  0.377785  0.835437  1
  Nd  Nd1  1  0.500000  0.122508  0.336277  1
  Nd  Nd2  1  0.500000  0.878678  0.664312  1
  Nd  Nd3  1  0.500000  0.620699  0.162233  1
  Nd  Nd4  1  0.000000  0.124642  0.583025  1
  Nd  Nd5  1  0.000000  0.877106  0.418431  1
  Nd  Nd6  1  0.000000  0.623684  0.919833  1
  Nd  Nd7  1  0.000000  0.377381  0.082066  1
  As  As8  1  0.500000  0.001264  0.500710  1
  As  As9  1  0.500000  0.497018  0.996225  1
  Cl  Cl10  1  0.500000  0.240789  0.162286  1
  Cl  Cl11  1  0.500000  0.756845  0.835251  1
  Cl  Cl12  1  0.500000  0.741451  0.336174  1
  Cl  Cl13  1  0.500000  0.260633  0.669903  1
  Cl  Cl14  1  0.000000  0.250295  0.410800  1
  Cl  Cl15  1  0.000000  0.750791  0.589969  1
  Cl  Cl16  1  0.000000  0.750039  0.090633  1
  Cl  Cl17  1  0.000000  0.256913  0.901963  1
  Cl  Cl18  1  0.000000  0.004225  0.248603  1
  Cl  Cl19  1  0.000000  0.996485  0.752507  1
  Cl  Cl20  1  0.000000  0.504430  0.251666  1
  Cl  Cl21  1  0.000000  0.486338  0.751698  1
