# generated using pymatgen
data_Y3Lu3Th2(MgCo)2
_symmetry_space_group_name_H-M   'P 1'
_cell_length_a   9.57927742
_cell_length_b   9.57927679
_cell_length_c   9.57927800
_cell_angle_alpha   60.00000274
_cell_angle_beta   60.00000489
_cell_angle_gamma   60.00000311
_symmetry_Int_Tables_number   1
_chemical_formula_structural   Y3Lu3Th2(MgCo)2
_chemical_formula_sum   'Y6 Lu6 Th4 Mg4 Co4'
_cell_volume   621.56032846
_cell_formula_units_Z   2
loop_
 _symmetry_equiv_pos_site_id
 _symmetry_equiv_pos_as_xyz
  1  'x, y, z'
loop_
 _atom_site_type_symbol
 _atom_site_label
 _atom_site_symmetry_multiplicity
 _atom_site_fract_x
 _atom_site_fract_y
 _atom_site_fract_z
 _atom_site_occupancy
  Y  Y0  1  0.936576  0.563424  0.563424  1
  Y  Y1  1  0.563424  0.936576  0.936576  1
  Y  Y2  1  0.563424  0.936576  0.563424  1
  Y  Y3  1  0.936576  0.563424  0.936576  1
  Y  Y4  1  0.563424  0.563424  0.936576  1
  Y  Y5  1  0.936576  0.936576  0.563424  1
  Lu  Lu6  1  0.815590  0.184410  0.184410  1
  Lu  Lu7  1  0.184410  0.815590  0.815590  1
  Lu  Lu8  1  0.184410  0.815590  0.184410  1
  Lu  Lu9  1  0.815590  0.184410  0.815590  1
  Lu  Lu10  1  0.184410  0.184410  0.815590  1
  Lu  Lu11  1  0.815590  0.815590  0.184410  1
  Th  Th12  1  0.344674  0.344674  0.344674  1
  Th  Th13  1  0.344674  0.344674  0.965980  1
  Th  Th14  1  0.344674  0.965980  0.344674  1
  Th  Th15  1  0.965980  0.344674  0.344674  1
  Mg  Mg16  1  0.579858  0.579858  0.579858  1
  Mg  Mg17  1  0.579858  0.579858  0.260425  1
  Mg  Mg18  1  0.579858  0.260425  0.579858  1
  Mg  Mg19  1  0.260425  0.579858  0.579858  1
  Co  Co20  1  0.144138  0.144138  0.144138  1
  Co  Co21  1  0.144138  0.144138  0.567584  1
  Co  Co22  1  0.144138  0.567584  0.144138  1
  Co  Co23  1  0.567584  0.144138  0.144138  1
