# generated using pymatgen
data_CaDy5TmCo6Sn23
_symmetry_space_group_name_H-M   'P 1'
_cell_length_a   9.72619902
_cell_length_b   9.72619967
_cell_length_c   9.96151302
_cell_angle_alpha   89.99354736
_cell_angle_beta   90.00644923
_cell_angle_gamma   120.00464185
_symmetry_Int_Tables_number   1
_chemical_formula_structural   CaDy5TmCo6Sn23
_chemical_formula_sum   'Ca1 Dy5 Tm1 Co6 Sn23'
_cell_volume   816.05973967
_cell_formula_units_Z   1
loop_
 _symmetry_equiv_pos_site_id
 _symmetry_equiv_pos_as_xyz
  1  'x, y, z'
loop_
 _atom_site_type_symbol
 _atom_site_label
 _atom_site_symmetry_multiplicity
 _atom_site_fract_x
 _atom_site_fract_y
 _atom_site_fract_z
 _atom_site_occupancy
  Ca  Ca0  1  0.999994  0.000006  0.000034  1
  Dy  Dy1  1  0.520813  0.479187  0.694171  1
  Dy  Dy2  1  0.479228  0.958356  0.305693  1
  Dy  Dy3  1  0.520730  0.041635  0.694300  1
  Dy  Dy4  1  0.041644  0.520772  0.305693  1
  Dy  Dy5  1  0.958365  0.479270  0.694300  1
  Tm  Tm6  1  0.479549  0.520451  0.305630  1
  Co  Co7  1  0.831503  0.168497  0.198665  1
  Co  Co8  1  0.168532  0.831468  0.801398  1
  Co  Co9  1  0.830970  0.662705  0.198800  1
  Co  Co10  1  0.168520  0.337111  0.801334  1
  Co  Co11  1  0.337295  0.169030  0.198800  1
  Co  Co12  1  0.662889  0.831480  0.801334  1
  Sn  Sn13  1  0.346010  0.000084  0.000014  1
  Sn  Sn14  1  0.654011  0.999958  0.000043  1
  Sn  Sn15  1  0.000042  0.345989  0.000043  1
  Sn  Sn16  1  0.999916  0.653990  0.000014  1
  Sn  Sn17  1  0.654039  0.654046  0.000163  1
  Sn  Sn18  1  0.345954  0.345961  0.000163  1
  Sn  Sn19  1  0.333337  0.666663  0.816177  1
  Sn  Sn20  1  0.666560  0.333440  0.183884  1
  Sn  Sn21  1  0.999975  0.000025  0.500006  1
  Sn  Sn22  1  0.780942  0.219058  0.452034  1
  Sn  Sn23  1  0.219048  0.780952  0.547925  1
  Sn  Sn24  1  0.780424  0.561939  0.451752  1
  Sn  Sn25  1  0.219257  0.438074  0.547658  1
  Sn  Sn26  1  0.438061  0.219576  0.451752  1
  Sn  Sn27  1  0.561926  0.780743  0.547658  1
  Sn  Sn28  1  0.333719  0.666281  0.118727  1
  Sn  Sn29  1  0.666649  0.333351  0.881797  1
  Sn  Sn30  1  0.117199  0.882801  0.274482  1
  Sn  Sn31  1  0.882818  0.117182  0.725512  1
  Sn  Sn32  1  0.117848  0.235028  0.274592  1
  Sn  Sn33  1  0.882631  0.765373  0.725430  1
  Sn  Sn34  1  0.764972  0.882152  0.274592  1
  Sn  Sn35  1  0.234627  0.117369  0.725430  1
