# generated using pymatgen
data_Ce2TmSn3Ir2Rh
_symmetry_space_group_name_H-M   'P 1'
_cell_length_a   7.49287621
_cell_length_b   7.47366137
_cell_length_c   4.00930600
_cell_angle_alpha   90.00000000
_cell_angle_beta   90.00000000
_cell_angle_gamma   119.91519965
_symmetry_Int_Tables_number   1
_chemical_formula_structural   Ce2TmSn3Ir2Rh
_chemical_formula_sum   'Ce2 Tm1 Sn3 Ir2 Rh1'
_cell_volume   194.60423262
_cell_formula_units_Z   1
loop_
 _symmetry_equiv_pos_site_id
 _symmetry_equiv_pos_as_xyz
  1  'x, y, z'
loop_
 _atom_site_type_symbol
 _atom_site_label
 _atom_site_symmetry_multiplicity
 _atom_site_fract_x
 _atom_site_fract_y
 _atom_site_fract_z
 _atom_site_occupancy
  Ce  Ce0  1  0.585067  0.584492  0.000000  1
  Ce  Ce1  1  0.414933  0.999425  0.000000  1
  Tm  Tm2  1  0.000000  0.409117  0.000000  1
  Sn  Sn3  1  0.248669  0.255180  0.500000  1
  Sn  Sn4  1  0.000000  0.740084  0.500000  1
  Sn  Sn5  1  0.751331  0.006510  0.500000  1
  Ir  Ir6  1  0.658936  0.332076  0.500000  1
  Ir  Ir7  1  0.341064  0.673141  0.500000  1
  Rh  Rh8  1  0.000000  0.999974  0.000000  1
