# generated using pymatgen
data_Pr2Ga6CuPt
_symmetry_space_group_name_H-M   'P 1'
_cell_length_a   4.33847000
_cell_length_b   4.33847000
_cell_length_c   10.50655700
_cell_angle_alpha   90.00000000
_cell_angle_beta   90.00000000
_cell_angle_gamma   90.00000000
_symmetry_Int_Tables_number   1
_chemical_formula_structural   Pr2Ga6CuPt
_chemical_formula_sum   'Pr2 Ga6 Cu1 Pt1'
_cell_volume   197.75779834
_cell_formula_units_Z   1
loop_
 _symmetry_equiv_pos_site_id
 _symmetry_equiv_pos_as_xyz
  1  'x, y, z'
loop_
 _atom_site_type_symbol
 _atom_site_label
 _atom_site_symmetry_multiplicity
 _atom_site_fract_x
 _atom_site_fract_y
 _atom_site_fract_z
 _atom_site_occupancy
  Pr  Pr0  1  0.000000  0.000000  0.989156  1
  Pr  Pr1  1  0.500000  0.500000  0.490333  1
  Ga  Ga2  1  0.000000  0.500000  0.239319  1
  Ga  Ga3  1  0.500000  0.000000  0.747359  1
  Ga  Ga4  1  0.500000  0.000000  0.239319  1
  Ga  Ga5  1  0.000000  0.500000  0.747359  1
  Ga  Ga6  1  0.000000  0.000000  0.392299  1
  Ga  Ga7  1  0.500000  0.500000  0.900466  1
  Cu  Cu8  1  0.500000  0.500000  0.127797  1
  Pt  Pt9  1  0.000000  0.000000  0.626597  1
