# generated using pymatgen
data_Lu4SiTc7
_symmetry_space_group_name_H-M   'P 1'
_cell_length_a   5.28599000
_cell_length_b   5.28598983
_cell_length_c   8.76849800
_cell_angle_alpha   90.00000000
_cell_angle_beta   90.00000000
_cell_angle_gamma   119.99998858
_symmetry_Int_Tables_number   1
_chemical_formula_structural   Lu4SiTc7
_chemical_formula_sum   'Lu4 Si1 Tc7'
_cell_volume   212.18200504
_cell_formula_units_Z   1
loop_
 _symmetry_equiv_pos_site_id
 _symmetry_equiv_pos_as_xyz
  1  'x, y, z'
loop_
 _atom_site_type_symbol
 _atom_site_label
 _atom_site_symmetry_multiplicity
 _atom_site_fract_x
 _atom_site_fract_y
 _atom_site_fract_z
 _atom_site_occupancy
  Lu  Lu0  1  0.333333  0.666667  0.435437  1
  Lu  Lu1  1  0.666667  0.333333  0.564563  1
  Lu  Lu2  1  0.666667  0.333333  0.934688  1
  Lu  Lu3  1  0.333333  0.666667  0.065312  1
  Si  Si4  1  0.000000  0.000000  0.500000  1
  Tc  Tc5  1  0.000000  0.000000  0.000000  1
  Tc  Tc6  1  0.829856  0.170144  0.253482  1
  Tc  Tc7  1  0.829856  0.659713  0.253482  1
  Tc  Tc8  1  0.340287  0.170144  0.253482  1
  Tc  Tc9  1  0.170144  0.829856  0.746518  1
  Tc  Tc10  1  0.170144  0.340287  0.746518  1
  Tc  Tc11  1  0.659713  0.829856  0.746518  1
