# generated using pymatgen
data_DyHo5Al16(SiOs)8
_symmetry_space_group_name_H-M   'P 1'
_cell_length_a   8.69054606
_cell_length_b   8.69077473
_cell_length_c   9.41626900
_cell_angle_alpha   90.00000000
_cell_angle_beta   90.00000000
_cell_angle_gamma   120.10712623
_symmetry_Int_Tables_number   1
_chemical_formula_structural   DyHo5Al16(SiOs)8
_chemical_formula_sum   'Dy1 Ho5 Al16 Si8 Os8'
_cell_volume   615.24093564
_cell_formula_units_Z   1
loop_
 _symmetry_equiv_pos_site_id
 _symmetry_equiv_pos_as_xyz
  1  'x, y, z'
loop_
 _atom_site_type_symbol
 _atom_site_label
 _atom_site_symmetry_multiplicity
 _atom_site_fract_x
 _atom_site_fract_y
 _atom_site_fract_z
 _atom_site_occupancy
  Dy  Dy0  1  0.191900  0.387138  0.250000  1
  Ho  Ho1  1  0.807788  0.612213  0.750000  1
  Ho  Ho2  1  0.612306  0.807884  0.250000  1
  Ho  Ho3  1  0.387825  0.192247  0.750000  1
  Ho  Ho4  1  0.194802  0.805268  0.250000  1
  Ho  Ho5  1  0.805214  0.194810  0.750000  1
  Al  Al6  1  0.165432  0.329099  0.578441  1
  Al  Al7  1  0.834547  0.670884  0.421704  1
  Al  Al8  1  0.670871  0.834556  0.578324  1
  Al  Al9  1  0.834547  0.670884  0.078296  1
  Al  Al10  1  0.329167  0.165383  0.421762  1
  Al  Al11  1  0.165432  0.329099  0.921559  1
  Al  Al12  1  0.164478  0.835545  0.578246  1
  Al  Al13  1  0.329167  0.165383  0.078238  1
  Al  Al14  1  0.835417  0.164394  0.421843  1
  Al  Al15  1  0.670871  0.834556  0.921676  1
  Al  Al16  1  0.835417  0.164394  0.078157  1
  Al  Al17  1  0.164478  0.835545  0.921754  1
  Al  Al18  1  0.565070  0.435168  0.250000  1
  Al  Al19  1  0.435141  0.564912  0.750000  1
  Al  Al20  1  0.999941  0.999688  0.250000  1
  Al  Al21  1  0.999934  0.000077  0.750000  1
  Si  Si22  1  0.335091  0.665340  0.040196  1
  Si  Si23  1  0.665073  0.334957  0.959583  1
  Si  Si24  1  0.665073  0.334957  0.540417  1
  Si  Si25  1  0.335091  0.665340  0.459804  1
  Si  Si26  1  0.564039  0.124102  0.250000  1
  Si  Si27  1  0.435971  0.875857  0.750000  1
  Si  Si28  1  0.875646  0.436003  0.250000  1
  Si  Si29  1  0.124167  0.564080  0.750000  1
  Os  Os30  1  0.500004  0.000037  0.999986  1
  Os  Os31  1  0.999934  0.500059  0.999909  1
  Os  Os32  1  0.500004  0.000037  0.500014  1
  Os  Os33  1  0.500128  0.500071  0.999900  1
  Os  Os34  1  0.999934  0.500059  0.500091  1
  Os  Os35  1  0.500128  0.500071  0.500100  1
  Os  Os36  1  0.999983  0.999953  0.999985  1
  Os  Os37  1  0.999983  0.999953  0.500015  1
