# generated using pymatgen
data_Ca2Nb3Co9As7
_symmetry_space_group_name_H-M   'P 1'
_cell_length_a   9.62257300
_cell_length_b   9.62257354
_cell_length_c   3.81414100
_cell_angle_alpha   90.00000000
_cell_angle_beta   90.00000000
_cell_angle_gamma   120.00000159
_symmetry_Int_Tables_number   1
_chemical_formula_structural   Ca2Nb3Co9As7
_chemical_formula_sum   'Ca2 Nb3 Co9 As7'
_cell_volume   305.85094158
_cell_formula_units_Z   1
loop_
 _symmetry_equiv_pos_site_id
 _symmetry_equiv_pos_as_xyz
  1  'x, y, z'
loop_
 _atom_site_type_symbol
 _atom_site_label
 _atom_site_symmetry_multiplicity
 _atom_site_fract_x
 _atom_site_fract_y
 _atom_site_fract_z
 _atom_site_occupancy
  Ca  Ca0  1  0.333333  0.666667  0.000000  1
  Ca  Ca1  1  0.666667  0.333333  0.500000  1
  Nb  Nb2  1  0.223923  0.120701  0.500000  1
  Nb  Nb3  1  0.879299  0.103221  0.500000  1
  Nb  Nb4  1  0.896779  0.776077  0.500000  1
  Co  Co5  1  0.120600  0.279643  0.000000  1
  Co  Co6  1  0.720357  0.840958  0.000000  1
  Co  Co7  1  0.159042  0.879400  0.000000  1
  Co  Co8  1  0.426126  0.368008  0.000000  1
  Co  Co9  1  0.631992  0.058118  0.000000  1
  Co  Co10  1  0.941882  0.573874  0.000000  1
  Co  Co11  1  0.050087  0.434211  0.500000  1
  Co  Co12  1  0.565789  0.615876  0.500000  1
  Co  Co13  1  0.384124  0.949913  0.500000  1
  As  As14  1  0.292330  0.418090  0.500000  1
  As  As15  1  0.581910  0.874240  0.500000  1
  As  As16  1  0.125760  0.707670  0.500000  1
  As  As17  1  0.420808  0.112507  0.000000  1
  As  As18  1  0.887493  0.308300  0.000000  1
  As  As19  1  0.691700  0.579192  0.000000  1
  As  As20  1  0.000000  0.000000  0.000000  1
