# generated using pymatgen
data_CaP12Ru3Pt
_symmetry_space_group_name_H-M   'P 1'
_cell_length_a   7.04186081
_cell_length_b   7.04186070
_cell_length_c   7.05749800
_cell_angle_alpha   109.51620736
_cell_angle_beta   109.51620705
_cell_angle_gamma   109.42620116
_symmetry_Int_Tables_number   1
_chemical_formula_structural   CaP12Ru3Pt
_chemical_formula_sum   'Ca1 P12 Ru3 Pt1'
_cell_volume   269.25408205
_cell_formula_units_Z   1
loop_
 _symmetry_equiv_pos_site_id
 _symmetry_equiv_pos_as_xyz
  1  'x, y, z'
loop_
 _atom_site_type_symbol
 _atom_site_label
 _atom_site_symmetry_multiplicity
 _atom_site_fract_x
 _atom_site_fract_y
 _atom_site_fract_z
 _atom_site_occupancy
  Ca  Ca0  1  0.000000  0.000000  0.000000  1
  P  P1  1  0.364202  0.218138  0.865623  1
  P  P2  1  0.635798  0.781862  0.134377  1
  P  P3  1  0.644179  0.501483  0.856415  1
  P  P4  1  0.355821  0.498517  0.143585  1
  P  P5  1  0.218138  0.853936  0.352515  1
  P  P6  1  0.781862  0.146064  0.647485  1
  P  P7  1  0.501483  0.857303  0.645068  1
  P  P8  1  0.498517  0.142697  0.354932  1
  P  P9  1  0.857303  0.355821  0.212236  1
  P  P10  1  0.142697  0.644179  0.787764  1
  P  P11  1  0.853936  0.635798  0.501422  1
  P  P12  1  0.146064  0.364202  0.498578  1
  Ru  Ru13  1  0.500000  0.000000  0.000000  1
  Ru  Ru14  1  0.000000  0.500000  0.000000  1
  Ru  Ru15  1  0.500000  0.500000  0.500000  1
  Pt  Pt16  1  0.000000  0.000000  0.500000  1
