# generated using pymatgen
data_Fe3Mo6IrN2
_symmetry_space_group_name_H-M   'P 1'
_cell_length_a   6.74511300
_cell_length_b   6.74398071
_cell_length_c   6.76152344
_cell_angle_alpha   90.52164544
_cell_angle_beta   90.00000000
_cell_angle_gamma   90.00000000
_symmetry_Int_Tables_number   1
_chemical_formula_structural   Fe3Mo6IrN2
_chemical_formula_sum   'Fe6 Mo12 Ir2 N4'
_cell_volume   307.56159690
_cell_formula_units_Z   2
loop_
 _symmetry_equiv_pos_site_id
 _symmetry_equiv_pos_as_xyz
  1  'x, y, z'
loop_
 _atom_site_type_symbol
 _atom_site_label
 _atom_site_symmetry_multiplicity
 _atom_site_fract_x
 _atom_site_fract_y
 _atom_site_fract_z
 _atom_site_occupancy
  Fe  Fe0  1  0.818687  0.680500  0.566698  1
  Fe  Fe1  1  0.318687  0.319500  0.433302  1
  Fe  Fe2  1  0.067158  0.564050  0.323891  1
  Fe  Fe3  1  0.430195  0.075256  0.190251  1
  Fe  Fe4  1  0.567158  0.435950  0.676109  1
  Fe  Fe5  1  0.930195  0.924744  0.809749  1
  Mo  Mo6  1  0.624922  0.048902  0.543547  1
  Mo  Mo7  1  0.124922  0.951098  0.456453  1
  Mo  Mo8  1  0.874680  0.549490  0.952065  1
  Mo  Mo9  1  0.374680  0.450510  0.047935  1
  Mo  Mo10  1  0.205718  0.619604  0.701008  1
  Mo  Mo11  1  0.297393  0.127858  0.799245  1
  Mo  Mo12  1  0.797393  0.872142  0.200755  1
  Mo  Mo13  1  0.705718  0.380396  0.298992  1
  Mo  Mo14  1  0.049739  0.205345  0.128180  1
  Mo  Mo15  1  0.950584  0.295518  0.624787  1
  Mo  Mo16  1  0.549739  0.794655  0.871820  1
  Mo  Mo17  1  0.450584  0.704482  0.375213  1
  Ir  Ir18  1  0.682951  0.183508  0.932285  1
  Ir  Ir19  1  0.182951  0.816492  0.067715  1
  N  N20  1  0.374328  0.874210  0.626587  1
  N  N21  1  0.874328  0.125790  0.373413  1
  N  N22  1  0.123644  0.374258  0.877496  1
  N  N23  1  0.623644  0.625742  0.122504  1
