# generated using pymatgen
data_Er3TmRe4F28
_symmetry_space_group_name_H-M   'P 1'
_cell_length_a   5.54759508
_cell_length_b   8.84262661
_cell_length_c   11.99167614
_cell_angle_alpha   62.76009666
_cell_angle_beta   90.01743656
_cell_angle_gamma   90.01617184
_symmetry_Int_Tables_number   1
_chemical_formula_structural   Er3TmRe4F28
_chemical_formula_sum   'Er3 Tm1 Re4 F28'
_cell_volume   523.01657133
_cell_formula_units_Z   1
loop_
 _symmetry_equiv_pos_site_id
 _symmetry_equiv_pos_as_xyz
  1  'x, y, z'
loop_
 _atom_site_type_symbol
 _atom_site_label
 _atom_site_symmetry_multiplicity
 _atom_site_fract_x
 _atom_site_fract_y
 _atom_site_fract_z
 _atom_site_occupancy
  Er  Er0  1  0.258360  0.185233  0.735552  1
  Er  Er1  1  0.241686  0.185818  0.235472  1
  Er  Er2  1  0.741657  0.814190  0.264500  1
  Tm  Tm3  1  0.758330  0.814421  0.764359  1
  Re  Re4  1  0.758390  0.273053  0.956857  1
  Re  Re5  1  0.258362  0.727375  0.543314  1
  Re  Re6  1  0.241514  0.727341  0.042732  1
  Re  Re7  1  0.741682  0.272481  0.457115  1
  F  F8  1  0.442236  0.706095  0.914480  1
  F  F9  1  0.941687  0.294220  0.585313  1
  F  F10  1  0.558465  0.294235  0.085274  1
  F  F11  1  0.058603  0.705814  0.414881  1
  F  F12  1  0.439111  0.274162  0.545980  1
  F  F13  1  0.938767  0.726211  0.953374  1
  F  F14  1  0.560640  0.725792  0.454144  1
  F  F15  1  0.060891  0.274234  0.045920  1
  F  F16  1  0.776993  0.524305  0.858320  1
  F  F17  1  0.277070  0.476419  0.641495  1
  F  F18  1  0.222905  0.476481  0.141436  1
  F  F19  1  0.722937  0.523448  0.358582  1
  F  F20  1  0.754972  0.022635  0.053486  1
  F  F21  1  0.254971  0.977625  0.446440  1
  F  F22  1  0.245074  0.977675  0.946353  1
  F  F23  1  0.745003  0.022060  0.554075  1
  F  F24  1  0.967564  0.726641  0.639646  1
  F  F25  1  0.467821  0.273692  0.860671  1
  F  F26  1  0.032150  0.273724  0.360751  1
  F  F27  1  0.531952  0.726282  0.139222  1
  F  F28  1  0.048282  0.747244  0.175048  1
  F  F29  1  0.548228  0.252727  0.324879  1
  F  F30  1  0.951840  0.252768  0.824831  1
  F  F31  1  0.453021  0.747597  0.675350  1
  F  F32  1  0.418871  0.970271  0.232792  1
  F  F33  1  0.918878  0.029766  0.267209  1
  F  F34  1  0.581833  0.028419  0.767169  1
  F  F35  1  0.079258  0.969548  0.732977  1
