# generated using pymatgen
data_YZr3(Al3Rh)6
_symmetry_space_group_name_H-M   'P 1'
_cell_length_a   7.48693164
_cell_length_b   7.47802580
_cell_length_c   9.32860600
_cell_angle_alpha   90.00000000
_cell_angle_beta   90.00000000
_cell_angle_gamma   119.72247857
_symmetry_Int_Tables_number   1
_chemical_formula_structural   YZr3(Al3Rh)6
_chemical_formula_sum   'Y1 Zr3 Al18 Rh6'
_cell_volume   453.57167898
_cell_formula_units_Z   1
loop_
 _symmetry_equiv_pos_site_id
 _symmetry_equiv_pos_as_xyz
  1  'x, y, z'
loop_
 _atom_site_type_symbol
 _atom_site_label
 _atom_site_symmetry_multiplicity
 _atom_site_fract_x
 _atom_site_fract_y
 _atom_site_fract_z
 _atom_site_occupancy
  Y  Y0  1  0.329263  0.006244  0.750000  1
  Zr  Zr1  1  0.994035  0.671277  0.250000  1
  Zr  Zr2  1  0.006162  0.329792  0.750000  1
  Zr  Zr3  1  0.670934  0.994000  0.250000  1
  Al  Al4  1  0.120789  0.122182  0.250000  1
  Al  Al5  1  0.872575  0.876706  0.750000  1
  Al  Al6  1  0.996701  0.334356  0.076691  1
  Al  Al7  1  0.000225  0.662182  0.926567  1
  Al  Al8  1  0.000225  0.662182  0.573433  1
  Al  Al9  1  0.334795  0.997409  0.419378  1
  Al  Al10  1  0.996701  0.334356  0.423309  1
  Al  Al11  1  0.668663  0.003083  0.573563  1
  Al  Al12  1  0.668663  0.003083  0.926437  1
  Al  Al13  1  0.334795  0.997409  0.080622  1
  Al  Al14  1  0.330942  0.333804  0.553957  1
  Al  Al15  1  0.668868  0.668742  0.441255  1
  Al  Al16  1  0.668868  0.668742  0.058745  1
  Al  Al17  1  0.330942  0.333804  0.946043  1
  Al  Al18  1  0.338218  0.553918  0.250000  1
  Al  Al19  1  0.666986  0.451559  0.750000  1
  Al  Al20  1  0.555747  0.339557  0.250000  1
  Al  Al21  1  0.445233  0.656372  0.750000  1
  Rh  Rh22  1  0.672162  0.327934  0.001263  1
  Rh  Rh23  1  0.328497  0.673215  0.001796  1
  Rh  Rh24  1  0.328497  0.673215  0.498204  1
  Rh  Rh25  1  0.672162  0.327934  0.498737  1
  Rh  Rh26  1  0.999176  0.998472  0.001498  1
  Rh  Rh27  1  0.999176  0.998472  0.498502  1
