# generated using pymatgen
data_Er5Tm3Ti12Si15Sn
_symmetry_space_group_name_H-M   'P 1'
_cell_length_a   7.07618185
_cell_length_b   7.03852098
_cell_length_c   12.95119700
_cell_angle_alpha   89.98591835
_cell_angle_beta   89.74416019
_cell_angle_gamma   89.91796080
_symmetry_Int_Tables_number   1
_chemical_formula_structural   Er5Tm3Ti12Si15Sn
_chemical_formula_sum   'Er5 Tm3 Ti12 Si15 Sn1'
_cell_volume   645.03832238
_cell_formula_units_Z   1
loop_
 _symmetry_equiv_pos_site_id
 _symmetry_equiv_pos_as_xyz
  1  'x, y, z'
loop_
 _atom_site_type_symbol
 _atom_site_label
 _atom_site_symmetry_multiplicity
 _atom_site_fract_x
 _atom_site_fract_y
 _atom_site_fract_z
 _atom_site_occupancy
  Er  Er0  1  0.840668  0.496821  0.282252  1
  Er  Er1  1  0.159603  0.510047  0.786121  1
  Er  Er2  1  0.661760  0.996575  0.968898  1
  Er  Er3  1  0.992007  0.348515  0.527368  1
  Er  Er4  1  0.999634  0.659285  0.034034  1
  Tm  Tm5  1  0.342993  0.998729  0.461239  1
  Tm  Tm6  1  0.506292  0.835006  0.718157  1
  Tm  Tm7  1  0.502050  0.159789  0.216910  1
  Ti  Ti8  1  0.326686  0.326553  0.001292  1
  Ti  Ti9  1  0.173970  0.826128  0.249702  1
  Ti  Ti10  1  0.816532  0.174911  0.751975  1
  Ti  Ti11  1  0.672060  0.673310  0.499504  1
  Ti  Ti12  1  0.152711  0.007631  0.883346  1
  Ti  Ti13  1  0.493000  0.649594  0.126851  1
  Ti  Ti14  1  0.514554  0.354696  0.626467  1
  Ti  Ti15  1  0.653991  0.493630  0.875801  1
  Ti  Ti16  1  0.347471  0.508999  0.372740  1
  Ti  Ti17  1  0.846851  0.992928  0.375523  1
  Ti  Ti18  1  0.009741  0.150880  0.123414  1
  Ti  Ti19  1  0.979097  0.835915  0.618602  1
  Si  Si20  1  0.371165  0.703147  0.935537  1
  Si  Si21  1  0.627778  0.297053  0.432318  1
  Si  Si22  1  0.704488  0.368700  0.067277  1
  Si  Si23  1  0.296249  0.631687  0.566053  1
  Si  Si24  1  0.797265  0.869280  0.183766  1
  Si  Si25  1  0.130618  0.202585  0.315331  1
  Si  Si26  1  0.870250  0.799882  0.816445  1
  Si  Si27  1  0.293935  0.952145  0.067090  1
  Si  Si28  1  0.549080  0.790183  0.313592  1
  Si  Si29  1  0.459577  0.209724  0.820112  1
  Si  Si30  1  0.794008  0.544872  0.686959  1
  Si  Si31  1  0.209025  0.452443  0.185093  1
  Si  Si32  1  0.705084  0.048267  0.564386  1
  Si  Si33  1  0.952935  0.292177  0.935367  1
  Si  Si34  1  0.047266  0.710595  0.432583  1
  Sn  Sn35  1  0.199605  0.127322  0.677896  1
