# generated using pymatgen
data_Nd2TlSi2
_symmetry_space_group_name_H-M   'P 1'
_cell_length_a   7.70766006
_cell_length_b   7.70766081
_cell_length_c   4.25044500
_cell_angle_alpha   90.00000000
_cell_angle_beta   90.00000000
_cell_angle_gamma   150.77365515
_symmetry_Int_Tables_number   1
_chemical_formula_structural   Nd2TlSi2
_chemical_formula_sum   'Nd2 Tl1 Si2'
_cell_volume   123.29105438
_cell_formula_units_Z   1
loop_
 _symmetry_equiv_pos_site_id
 _symmetry_equiv_pos_as_xyz
  1  'x, y, z'
loop_
 _atom_site_type_symbol
 _atom_site_label
 _atom_site_symmetry_multiplicity
 _atom_site_fract_x
 _atom_site_fract_y
 _atom_site_fract_z
 _atom_site_occupancy
  Nd  Nd0  1  0.637712  0.362289  0.500000  1
  Nd  Nd1  1  0.362289  0.637712  0.500000  1
  Tl  Tl2  1  0.000000  0.000000  0.000000  1
  Si  Si3  1  0.796132  0.203868  0.000000  1
  Si  Si4  1  0.203868  0.796132  0.000000  1
