# generated using pymatgen
data_Dy3Y(Zn5Sn)2
_symmetry_space_group_name_H-M   'P 1'
_cell_length_a   8.36931800
_cell_length_b   8.36931792
_cell_length_c   9.00841200
_cell_angle_alpha   89.99808062
_cell_angle_beta   90.00191883
_cell_angle_gamma   149.74030901
_symmetry_Int_Tables_number   1
_chemical_formula_structural   Dy3Y(Zn5Sn)2
_chemical_formula_sum   'Dy3 Y1 Zn10 Sn2'
_cell_volume   317.97284925
_cell_formula_units_Z   1
loop_
 _symmetry_equiv_pos_site_id
 _symmetry_equiv_pos_as_xyz
  1  'x, y, z'
loop_
 _atom_site_type_symbol
 _atom_site_label
 _atom_site_symmetry_multiplicity
 _atom_site_fract_x
 _atom_site_fract_y
 _atom_site_fract_z
 _atom_site_occupancy
  Dy  Dy0  1  0.202215  0.797785  0.250005  1
  Dy  Dy1  1  0.797785  0.202215  0.749995  1
  Dy  Dy2  1  0.000000  0.000000  0.500000  1
  Y  Y3  1  0.000000  0.000000  0.000000  1
  Zn  Zn4  1  0.813339  0.186661  0.390717  1
  Zn  Zn5  1  0.186661  0.813339  0.609283  1
  Zn  Zn6  1  0.813315  0.186685  0.109304  1
  Zn  Zn7  1  0.186685  0.813315  0.890696  1
  Zn  Zn8  1  0.656156  0.343844  0.481774  1
  Zn  Zn9  1  0.343844  0.656156  0.518226  1
  Zn  Zn10  1  0.656180  0.343820  0.018220  1
  Zn  Zn11  1  0.343820  0.656180  0.981780  1
  Zn  Zn12  1  0.391870  0.608130  0.250011  1
  Zn  Zn13  1  0.608130  0.391870  0.749989  1
  Sn  Sn14  1  0.553356  0.446644  0.250052  1
  Sn  Sn15  1  0.446644  0.553356  0.749948  1
