# generated using pymatgen
data_Tb8Ta9Ti2Si16Ag
_symmetry_space_group_name_H-M   'P 1'
_cell_length_a   7.07628706
_cell_length_b   7.07375501
_cell_length_c   12.98733255
_cell_angle_alpha   90.15439433
_cell_angle_beta   89.82967653
_cell_angle_gamma   89.63913144
_symmetry_Int_Tables_number   1
_chemical_formula_structural   Tb8Ta9Ti2Si16Ag
_chemical_formula_sum   'Tb8 Ta9 Ti2 Si16 Ag1'
_cell_volume   650.07473204
_cell_formula_units_Z   1
loop_
 _symmetry_equiv_pos_site_id
 _symmetry_equiv_pos_as_xyz
  1  'x, y, z'
loop_
 _atom_site_type_symbol
 _atom_site_label
 _atom_site_symmetry_multiplicity
 _atom_site_fract_x
 _atom_site_fract_y
 _atom_site_fract_z
 _atom_site_occupancy
  Tb  Tb0  1  0.341744  0.002558  0.467173  1
  Tb  Tb1  1  0.496630  0.841686  0.717291  1
  Tb  Tb2  1  0.502256  0.158355  0.216039  1
  Tb  Tb3  1  0.841142  0.495887  0.282961  1
  Tb  Tb4  1  0.159096  0.501975  0.784449  1
  Tb  Tb5  1  0.654952  0.001901  0.967951  1
  Tb  Tb6  1  0.002857  0.340676  0.532408  1
  Tb  Tb7  1  0.000885  0.657527  0.032081  1
  Ta  Ta8  1  0.171260  0.826314  0.250149  1
  Ta  Ta9  1  0.826249  0.172780  0.750110  1
  Ta  Ta10  1  0.670829  0.670701  0.499548  1
  Ta  Ta11  1  0.149210  0.009409  0.876038  1
  Ta  Ta12  1  0.498523  0.651101  0.122164  1
  Ta  Ta13  1  0.504489  0.348249  0.622785  1
  Ta  Ta14  1  0.652086  0.497092  0.877495  1
  Ta  Ta15  1  0.348970  0.505778  0.377066  1
  Ta  Ta16  1  0.848008  0.990356  0.374274  1
  Ti  Ti17  1  0.009877  0.150128  0.123477  1
  Ti  Ti18  1  0.990508  0.847852  0.625879  1
  Si  Si19  1  0.200945  0.132744  0.683351  1
  Si  Si20  1  0.371906  0.719959  0.928975  1
  Si  Si21  1  0.634276  0.292849  0.431583  1
  Si  Si22  1  0.721458  0.369750  0.071370  1
  Si  Si23  1  0.293643  0.635759  0.568773  1
  Si  Si24  1  0.797971  0.868226  0.181837  1
  Si  Si25  1  0.134641  0.200965  0.315606  1
  Si  Si26  1  0.866808  0.798272  0.817673  1
  Si  Si27  1  0.286712  0.940166  0.065684  1
  Si  Si28  1  0.544921  0.792226  0.312279  1
  Si  Si29  1  0.455239  0.207946  0.809935  1
  Si  Si30  1  0.793316  0.546221  0.686436  1
  Si  Si31  1  0.206352  0.455890  0.189830  1
  Si  Si32  1  0.707778  0.044947  0.564465  1
  Si  Si33  1  0.941250  0.289153  0.935379  1
  Si  Si34  1  0.045711  0.705876  0.436845  1
  Ag  Ag35  1  0.327506  0.328730  0.000641  1
