# generated using pymatgen
data_Ho3Tm(Al3Rh)6
_symmetry_space_group_name_H-M   'P 1'
_cell_length_a   7.54748195
_cell_length_b   7.55006188
_cell_length_c   9.46245200
_cell_angle_alpha   90.00000000
_cell_angle_beta   90.00000000
_cell_angle_gamma   119.38898395
_symmetry_Int_Tables_number   1
_chemical_formula_structural   Ho3Tm(Al3Rh)6
_chemical_formula_sum   'Ho3 Tm1 Al18 Rh6'
_cell_volume   469.81629353
_cell_formula_units_Z   1
loop_
 _symmetry_equiv_pos_site_id
 _symmetry_equiv_pos_as_xyz
  1  'x, y, z'
loop_
 _atom_site_type_symbol
 _atom_site_label
 _atom_site_symmetry_multiplicity
 _atom_site_fract_x
 _atom_site_fract_y
 _atom_site_fract_z
 _atom_site_occupancy
  Ho  Ho0  1  0.994773  0.670707  0.250000  1
  Ho  Ho1  1  0.005410  0.329510  0.750000  1
  Ho  Ho2  1  0.670566  0.994646  0.250000  1
  Tm  Tm3  1  0.329470  0.005216  0.750000  1
  Al  Al4  1  0.127262  0.127052  0.250000  1
  Al  Al5  1  0.872913  0.872485  0.750000  1
  Al  Al6  1  0.001287  0.335174  0.074654  1
  Al  Al7  1  0.999280  0.665318  0.925246  1
  Al  Al8  1  0.999280  0.665318  0.574754  1
  Al  Al9  1  0.335125  0.001171  0.426144  1
  Al  Al10  1  0.001287  0.335174  0.425346  1
  Al  Al11  1  0.664127  0.998748  0.574839  1
  Al  Al12  1  0.664127  0.998748  0.925161  1
  Al  Al13  1  0.335125  0.001171  0.073856  1
  Al  Al14  1  0.333266  0.332736  0.551890  1
  Al  Al15  1  0.666782  0.666799  0.448967  1
  Al  Al16  1  0.666782  0.666799  0.051033  1
  Al  Al17  1  0.333266  0.332736  0.948110  1
  Al  Al18  1  0.338794  0.549355  0.250000  1
  Al  Al19  1  0.660677  0.450850  0.750000  1
  Al  Al20  1  0.549155  0.338611  0.250000  1
  Al  Al21  1  0.451410  0.661832  0.750000  1
  Rh  Rh22  1  0.671756  0.327697  0.999603  1
  Rh  Rh23  1  0.327702  0.671870  0.999612  1
  Rh  Rh24  1  0.327702  0.671870  0.500388  1
  Rh  Rh25  1  0.671756  0.327697  0.500397  1
  Rh  Rh26  1  0.000458  0.000354  0.999407  1
  Rh  Rh27  1  0.000458  0.000354  0.500593  1
