# generated using pymatgen
data_CeNd2Tl2SnRh3
_symmetry_space_group_name_H-M   'P 1'
_cell_length_a   7.87335100
_cell_length_b   7.75870393
_cell_length_c   3.94058500
_cell_angle_alpha   90.00000000
_cell_angle_beta   90.00000000
_cell_angle_gamma   120.49002523
_symmetry_Int_Tables_number   1
_chemical_formula_structural   CeNd2Tl2SnRh3
_chemical_formula_sum   'Ce1 Nd2 Tl2 Sn1 Rh3'
_cell_volume   207.43135693
_cell_formula_units_Z   1
loop_
 _symmetry_equiv_pos_site_id
 _symmetry_equiv_pos_as_xyz
  1  'x, y, z'
loop_
 _atom_site_type_symbol
 _atom_site_label
 _atom_site_symmetry_multiplicity
 _atom_site_fract_x
 _atom_site_fract_y
 _atom_site_fract_z
 _atom_site_occupancy
  Ce  Ce0  1  0.415906  0.000000  0.000000  1
  Nd  Nd1  1  0.993243  0.402670  0.000000  1
  Nd  Nd2  1  0.590573  0.597330  0.000000  1
  Tl  Tl3  1  0.260131  0.264470  0.500000  1
  Tl  Tl4  1  0.995660  0.735530  0.500000  1
  Sn  Sn5  1  0.752869  0.000000  0.500000  1
  Rh  Rh6  1  0.647111  0.293660  0.500000  1
  Rh  Rh7  1  0.353449  0.706340  0.500000  1
  Rh  Rh8  1  0.991059  0.000000  0.000000  1
