# generated using pymatgen
data_Nd2Ge2PtRh3
_symmetry_space_group_name_H-M   'P 1'
_cell_length_a   9.43515640
_cell_length_b   9.43515660
_cell_length_c   4.18827600
_cell_angle_alpha   90.00000000
_cell_angle_beta   90.00000000
_cell_angle_gamma   154.85217937
_symmetry_Int_Tables_number   1
_chemical_formula_structural   Nd2Ge2PtRh3
_chemical_formula_sum   'Nd2 Ge2 Pt1 Rh3'
_cell_volume   158.44427180
_cell_formula_units_Z   1
loop_
 _symmetry_equiv_pos_site_id
 _symmetry_equiv_pos_as_xyz
  1  'x, y, z'
loop_
 _atom_site_type_symbol
 _atom_site_label
 _atom_site_symmetry_multiplicity
 _atom_site_fract_x
 _atom_site_fract_y
 _atom_site_fract_z
 _atom_site_occupancy
  Nd  Nd0  1  0.100326  0.899674  0.750000  1
  Nd  Nd1  1  0.901923  0.098077  0.250000  1
  Ge  Ge2  1  0.323114  0.676886  0.750000  1
  Ge  Ge3  1  0.677634  0.322366  0.250000  1
  Pt  Pt4  1  0.543060  0.456940  0.250000  1
  Rh  Rh5  1  0.455028  0.544972  0.750000  1
  Rh  Rh6  1  0.249202  0.750798  0.250000  1
  Rh  Rh7  1  0.749713  0.250287  0.750000  1
