# generated using pymatgen
data_Hf3Zr(Co4P3)2
_symmetry_space_group_name_H-M   'P 1'
_cell_length_a   12.08780200
_cell_length_b   12.08780321
_cell_length_c   3.65127300
_cell_angle_alpha   90.00000000
_cell_angle_beta   90.00000000
_cell_angle_gamma   119.99999670
_symmetry_Int_Tables_number   1
_chemical_formula_structural   Hf3Zr(Co4P3)2
_chemical_formula_sum   'Hf6 Zr2 Co16 P12'
_cell_volume   462.02946245
_cell_formula_units_Z   2
loop_
 _symmetry_equiv_pos_site_id
 _symmetry_equiv_pos_as_xyz
  1  'x, y, z'
loop_
 _atom_site_type_symbol
 _atom_site_label
 _atom_site_symmetry_multiplicity
 _atom_site_fract_x
 _atom_site_fract_y
 _atom_site_fract_z
 _atom_site_occupancy
  Hf  Hf0  1  0.443673  0.443673  0.000000  1
  Hf  Hf1  1  0.556327  0.000000  0.000000  1
  Hf  Hf2  1  0.000000  0.556327  0.000000  1
  Hf  Hf3  1  0.824211  0.824211  0.500000  1
  Hf  Hf4  1  0.175789  0.000000  0.500000  1
  Hf  Hf5  1  0.000000  0.175789  0.500000  1
  Zr  Zr6  1  0.666667  0.333333  0.000000  1
  Zr  Zr7  1  0.333333  0.666667  0.000000  1
  Co  Co8  1  0.192687  0.371352  0.000000  1
  Co  Co9  1  0.178665  0.807313  0.000000  1
  Co  Co10  1  0.821335  0.628648  0.000000  1
  Co  Co11  1  0.807313  0.178665  0.000000  1
  Co  Co12  1  0.371352  0.192687  0.000000  1
  Co  Co13  1  0.125498  0.480746  0.500000  1
  Co  Co14  1  0.355248  0.874502  0.500000  1
  Co  Co15  1  0.519254  0.644752  0.500000  1
  Co  Co16  1  0.644752  0.519254  0.500000  1
  Co  Co17  1  0.874502  0.355248  0.500000  1
  Co  Co18  1  0.480746  0.125498  0.500000  1
  Co  Co19  1  0.000000  0.000000  0.000000  1
  Co  Co20  1  0.722233  0.000000  0.500000  1
  Co  Co21  1  0.000000  0.722233  0.500000  1
  Co  Co22  1  0.628648  0.821335  0.000000  1
  Co  Co23  1  0.277767  0.277767  0.500000  1
  P  P24  1  0.654654  0.654654  0.000000  1
  P  P25  1  0.345346  0.000000  0.000000  1
  P  P26  1  0.000000  0.345346  0.000000  1
  P  P27  1  0.481547  0.308658  0.500000  1
  P  P28  1  0.691342  0.172890  0.500000  1
  P  P29  1  0.827110  0.518453  0.500000  1
  P  P30  1  0.518453  0.827110  0.500000  1
  P  P31  1  0.172890  0.691342  0.500000  1
  P  P32  1  0.825190  0.000000  0.000000  1
  P  P33  1  0.000000  0.825190  0.000000  1
  P  P34  1  0.308658  0.481547  0.500000  1
  P  P35  1  0.174810  0.174810  0.000000  1
