# generated using pymatgen
data_Ca6DyErSb6
_symmetry_space_group_name_H-M   'P 1'
_cell_length_a   8.12443583
_cell_length_b   8.12648838
_cell_length_c   8.19407311
_cell_angle_alpha   109.47854407
_cell_angle_beta   109.45219447
_cell_angle_gamma   109.02618038
_symmetry_Int_Tables_number   1
_chemical_formula_structural   Ca6DyErSb6
_chemical_formula_sum   'Ca6 Dy1 Er1 Sb6'
_cell_volume   418.78564085
_cell_formula_units_Z   1
loop_
 _symmetry_equiv_pos_site_id
 _symmetry_equiv_pos_as_xyz
  1  'x, y, z'
loop_
 _atom_site_type_symbol
 _atom_site_label
 _atom_site_symmetry_multiplicity
 _atom_site_fract_x
 _atom_site_fract_y
 _atom_site_fract_z
 _atom_site_occupancy
  Ca  Ca0  1  0.999629  0.140908  0.497177  1
  Ca  Ca1  1  0.356737  0.354326  0.357401  1
  Ca  Ca2  1  0.640715  0.499533  0.996970  1
  Ca  Ca3  1  0.854151  0.856753  0.857574  1
  Ca  Ca4  1  0.502552  0.003063  0.645738  1
  Ca  Ca5  1  0.502767  0.002191  0.145643  1
  Dy  Dy6  1  0.999633  0.643126  0.499491  1
  Er  Er7  1  0.142786  0.499691  0.999477  1
  Sb  Sb8  1  0.243584  0.123220  0.871213  1
  Sb  Sb9  1  0.125460  0.864694  0.249242  1
  Sb  Sb10  1  0.761730  0.382274  0.630159  1
  Sb  Sb11  1  0.882778  0.261455  0.128673  1
  Sb  Sb12  1  0.621890  0.743433  0.370607  1
  Sb  Sb13  1  0.365588  0.625333  0.750635  1
