# generated using pymatgen
data_DyTmLu2(HfRh)4
_symmetry_space_group_name_H-M   'P 1'
_cell_length_a   4.57582800
_cell_length_b   6.93997545
_cell_length_c   8.22264390
_cell_angle_alpha   89.98180009
_cell_angle_beta   90.00000000
_cell_angle_gamma   90.00000000
_symmetry_Int_Tables_number   1
_chemical_formula_structural   DyTmLu2(HfRh)4
_chemical_formula_sum   'Dy1 Tm1 Lu2 Hf4 Rh4'
_cell_volume   261.11936831
_cell_formula_units_Z   1
loop_
 _symmetry_equiv_pos_site_id
 _symmetry_equiv_pos_as_xyz
  1  'x, y, z'
loop_
 _atom_site_type_symbol
 _atom_site_label
 _atom_site_symmetry_multiplicity
 _atom_site_fract_x
 _atom_site_fract_y
 _atom_site_fract_z
 _atom_site_occupancy
  Dy  Dy0  1  0.250000  0.515216  0.177353  1
  Tm  Tm1  1  0.250000  0.015879  0.323398  1
  Lu  Lu2  1  0.750000  0.483351  0.821665  1
  Lu  Lu3  1  0.750000  0.983634  0.677428  1
  Hf  Hf4  1  0.250000  0.642171  0.575707  1
  Hf  Hf5  1  0.750000  0.358334  0.428386  1
  Hf  Hf6  1  0.750000  0.859815  0.072846  1
  Hf  Hf7  1  0.250000  0.141402  0.924371  1
  Rh  Rh8  1  0.250000  0.766221  0.907598  1
  Rh  Rh9  1  0.750000  0.233558  0.089057  1
  Rh  Rh10  1  0.750000  0.735000  0.410890  1
  Rh  Rh11  1  0.250000  0.265421  0.591300  1
