# generated using pymatgen
data_ErCd3P7N12
_symmetry_space_group_name_H-M   'P 1'
_cell_length_a   7.42648891
_cell_length_b   7.45329351
_cell_length_c   7.45329402
_cell_angle_alpha   109.54394990
_cell_angle_beta   109.39838856
_cell_angle_gamma   109.39838976
_symmetry_Int_Tables_number   1
_chemical_formula_structural   ErCd3P7N12
_chemical_formula_sum   'Er1 Cd3 P7 N12'
_cell_volume   317.86866368
_cell_formula_units_Z   1
loop_
 _symmetry_equiv_pos_site_id
 _symmetry_equiv_pos_as_xyz
  1  'x, y, z'
loop_
 _atom_site_type_symbol
 _atom_site_label
 _atom_site_symmetry_multiplicity
 _atom_site_fract_x
 _atom_site_fract_y
 _atom_site_fract_z
 _atom_site_occupancy
  Er  Er0  1  0.639609  0.000000  0.000000  1
  Cd  Cd1  1  0.998778  0.000000  0.671564  1
  Cd  Cd2  1  0.998778  0.671564  0.000000  1
  Cd  Cd3  1  0.327214  0.328436  0.328436  1
  P  P4  1  0.249448  0.749106  0.497159  1
  P  P5  1  0.752289  0.251947  0.502841  1
  P  P6  1  0.752289  0.502841  0.251947  1
  P  P7  1  0.249448  0.497159  0.749106  1
  P  P8  1  0.500342  0.748053  0.250894  1
  P  P9  1  0.500342  0.250894  0.748053  1
  P  P10  1  0.997293  0.000000  0.000000  1
  N  N11  1  0.714126  0.292486  0.292486  1
  N  N12  1  0.288484  0.708915  0.287270  1
  N  N13  1  0.308443  0.593551  0.593551  1
  N  N14  1  0.579570  0.578356  0.291085  1
  N  N15  1  0.421640  0.707514  0.000000  1
  N  N16  1  0.001214  0.712730  0.421644  1
  N  N17  1  0.579570  0.291085  0.578356  1
  N  N18  1  0.714892  0.000000  0.406449  1
  N  N19  1  0.421640  0.000000  0.707514  1
  N  N20  1  0.714892  0.406449  0.000000  1
  N  N21  1  0.288484  0.287270  0.708915  1
  N  N22  1  0.001214  0.421644  0.712730  1
