# generated using pymatgen
data_Tb6Ho4(TlSb)3
_symmetry_space_group_name_H-M   'P 1'
_cell_length_a   9.00627300
_cell_length_b   8.98386396
_cell_length_c   6.55966300
_cell_angle_alpha   90.00000000
_cell_angle_beta   90.00000000
_cell_angle_gamma   120.08254363
_symmetry_Int_Tables_number   1
_chemical_formula_structural   Tb6Ho4(TlSb)3
_chemical_formula_sum   'Tb6 Ho4 Tl3 Sb3'
_cell_volume   459.25997939
_cell_formula_units_Z   1
loop_
 _symmetry_equiv_pos_site_id
 _symmetry_equiv_pos_as_xyz
  1  'x, y, z'
loop_
 _atom_site_type_symbol
 _atom_site_label
 _atom_site_symmetry_multiplicity
 _atom_site_fract_x
 _atom_site_fract_y
 _atom_site_fract_z
 _atom_site_occupancy
  Tb  Tb0  1  0.760700  0.000000  0.750000  1
  Tb  Tb1  1  0.762864  0.759583  0.250000  1
  Tb  Tb2  1  0.003280  0.240417  0.250000  1
  Tb  Tb3  1  0.002183  0.762401  0.750000  1
  Tb  Tb4  1  0.239782  0.237599  0.750000  1
  Tb  Tb5  1  0.238434  0.000000  0.250000  1
  Ho  Ho6  1  0.331044  0.666105  0.000836  1
  Ho  Ho7  1  0.664940  0.333895  0.499164  1
  Ho  Ho8  1  0.664940  0.333895  0.000836  1
  Ho  Ho9  1  0.331044  0.666105  0.499164  1
  Tl  Tl10  1  0.396941  0.000000  0.750000  1
  Tl  Tl11  1  0.395680  0.397252  0.250000  1
  Tl  Tl12  1  0.998427  0.602748  0.250000  1
  Sb  Sb13  1  0.997548  0.392217  0.750000  1
  Sb  Sb14  1  0.605331  0.607783  0.750000  1
  Sb  Sb15  1  0.606860  0.000000  0.250000  1
