# generated using pymatgen
data_Ni8Ge4Mo11WC4
_symmetry_space_group_name_H-M   'P 1'
_cell_length_a   7.92386888
_cell_length_b   7.91944826
_cell_length_c   7.91931748
_cell_angle_alpha   59.98311497
_cell_angle_beta   59.97938453
_cell_angle_gamma   59.98000317
_symmetry_Int_Tables_number   1
_chemical_formula_structural   Ni8Ge4Mo11WC4
_chemical_formula_sum   'Ni8 Ge4 Mo11 W1 C4'
_cell_volume   351.24987739
_cell_formula_units_Z   1
loop_
 _symmetry_equiv_pos_site_id
 _symmetry_equiv_pos_as_xyz
  1  'x, y, z'
loop_
 _atom_site_type_symbol
 _atom_site_label
 _atom_site_symmetry_multiplicity
 _atom_site_fract_x
 _atom_site_fract_y
 _atom_site_fract_z
 _atom_site_occupancy
  Ni  Ni0  1  0.914967  0.919015  0.250952  1
  Ni  Ni1  1  0.335576  0.331897  0.331933  1
  Ni  Ni2  1  0.247593  0.917967  0.917890  1
  Ni  Ni3  1  0.334008  0.999300  0.332726  1
  Ni  Ni4  1  0.000676  0.331886  0.331918  1
  Ni  Ni5  1  0.333995  0.332669  0.999381  1
  Ni  Ni6  1  0.916459  0.917961  0.917887  1
  Ni  Ni7  1  0.914983  0.250992  0.918954  1
  Ge  Ge8  1  0.126440  0.124442  0.124434  1
  Ge  Ge9  1  0.624770  0.124397  0.124383  1
  Ge  Ge10  1  0.124690  0.125760  0.624802  1
  Ge  Ge11  1  0.124707  0.624777  0.125755  1
  Mo  Mo12  1  0.940026  0.938044  0.562656  1
  Mo  Mo13  1  0.690010  0.687916  0.311812  1
  Mo  Mo14  1  0.689938  0.311862  0.687892  1
  Mo  Mo15  1  0.310251  0.687975  0.311794  1
  Mo  Mo16  1  0.559305  0.937970  0.562739  1
  Mo  Mo17  1  0.563625  0.936342  0.936350  1
  Mo  Mo18  1  0.940689  0.559286  0.559304  1
  Mo  Mo19  1  0.940034  0.562636  0.938063  1
  Mo  Mo20  1  0.310293  0.311841  0.687955  1
  Mo  Mo21  1  0.559295  0.562716  0.937993  1
  Mo  Mo22  1  0.309664  0.690299  0.690347  1
  W  W23  1  0.687666  0.312382  0.312384  1
  C  C24  1  0.625239  0.624840  0.624867  1
  C  C25  1  0.625062  0.624838  0.125085  1
  C  C26  1  0.124991  0.624874  0.624902  1
  C  C27  1  0.625048  0.125113  0.624842  1
