# generated using pymatgen
data_Pr4Ho16(Bi3Sb)3
_symmetry_space_group_name_H-M   'P 1'
_cell_length_a   8.18436957
_cell_length_b   9.45738400
_cell_length_c   11.96904800
_cell_angle_alpha   90.00000000
_cell_angle_beta   90.03547222
_cell_angle_gamma   90.00000000
_symmetry_Int_Tables_number   1
_chemical_formula_structural   Pr4Ho16(Bi3Sb)3
_chemical_formula_sum   'Pr4 Ho16 Bi9 Sb3'
_cell_volume   926.43676297
_cell_formula_units_Z   1
loop_
 _symmetry_equiv_pos_site_id
 _symmetry_equiv_pos_as_xyz
  1  'x, y, z'
loop_
 _atom_site_type_symbol
 _atom_site_label
 _atom_site_symmetry_multiplicity
 _atom_site_fract_x
 _atom_site_fract_y
 _atom_site_fract_z
 _atom_site_occupancy
  Pr  Pr0  1  0.319850  0.250000  0.218459  1
  Pr  Pr1  1  0.814800  0.250000  0.277781  1
  Pr  Pr2  1  0.681647  0.750000  0.779695  1
  Pr  Pr3  1  0.181624  0.750000  0.720219  1
  Ho  Ho4  1  0.351267  0.750000  0.215057  1
  Ho  Ho5  1  0.851817  0.750000  0.284387  1
  Ho  Ho6  1  0.648277  0.250000  0.784501  1
  Ho  Ho7  1  0.149260  0.250000  0.718247  1
  Ho  Ho8  1  0.688152  0.562900  0.058584  1
  Ho  Ho9  1  0.189597  0.934012  0.441198  1
  Ho  Ho10  1  0.312070  0.062393  0.941460  1
  Ho  Ho11  1  0.809170  0.439966  0.560227  1
  Ho  Ho12  1  0.312070  0.437607  0.941460  1
  Ho  Ho13  1  0.809170  0.060034  0.560227  1
  Ho  Ho14  1  0.688152  0.937100  0.058584  1
  Ho  Ho15  1  0.189597  0.565988  0.441198  1
  Ho  Ho16  1  0.477011  0.250000  0.487433  1
  Ho  Ho17  1  0.974610  0.250000  0.012289  1
  Ho  Ho18  1  0.526905  0.750000  0.513071  1
  Ho  Ho19  1  0.025912  0.750000  0.987525  1
  Bi  Bi20  1  0.094484  0.250000  0.462662  1
  Bi  Bi21  1  0.564892  0.989927  0.327831  1
  Bi  Bi22  1  0.065177  0.509177  0.172064  1
  Bi  Bi23  1  0.434392  0.490261  0.672344  1
  Bi  Bi24  1  0.934703  0.009230  0.828099  1
  Bi  Bi25  1  0.434392  0.009739  0.672344  1
  Bi  Bi26  1  0.934703  0.490770  0.828099  1
  Bi  Bi27  1  0.564892  0.510073  0.327831  1
  Bi  Bi28  1  0.065177  0.990823  0.172064  1
  Sb  Sb29  1  0.405051  0.750000  0.963599  1
  Sb  Sb30  1  0.905697  0.750000  0.536056  1
  Sb  Sb31  1  0.595482  0.250000  0.035403  1
