# generated using pymatgen
data_TbDy19IrRu11
_symmetry_space_group_name_H-M   'P 1'
_cell_length_a   10.81812349
_cell_length_b   10.81815591
_cell_length_c   6.38361400
_cell_angle_alpha   89.97832793
_cell_angle_beta   89.98317696
_cell_angle_gamma   90.01184718
_symmetry_Int_Tables_number   1
_chemical_formula_structural   TbDy19IrRu11
_chemical_formula_sum   'Tb1 Dy19 Ir1 Ru11'
_cell_volume   747.08794771
_cell_formula_units_Z   1
loop_
 _symmetry_equiv_pos_site_id
 _symmetry_equiv_pos_as_xyz
  1  'x, y, z'
loop_
 _atom_site_type_symbol
 _atom_site_label
 _atom_site_symmetry_multiplicity
 _atom_site_fract_x
 _atom_site_fract_y
 _atom_site_fract_z
 _atom_site_occupancy
  Tb  Tb0  1  0.292200  0.087065  0.377479  1
  Dy  Dy1  1  0.292303  0.913602  0.877757  1
  Dy  Dy2  1  0.707935  0.087219  0.877588  1
  Dy  Dy3  1  0.707843  0.912889  0.377474  1
  Dy  Dy4  1  0.587396  0.792613  0.877603  1
  Dy  Dy5  1  0.587222  0.207401  0.377278  1
  Dy  Dy6  1  0.413176  0.793036  0.377139  1
  Dy  Dy7  1  0.412835  0.207948  0.877503  1
  Dy  Dy8  1  0.207388  0.412631  0.622417  1
  Dy  Dy9  1  0.206923  0.586847  0.122863  1
  Dy  Dy10  1  0.792614  0.412820  0.122728  1
  Dy  Dy11  1  0.792069  0.587195  0.622496  1
  Dy  Dy12  1  0.912958  0.707737  0.122465  1
  Dy  Dy13  1  0.912771  0.292072  0.622409  1
  Dy  Dy14  1  0.086363  0.707696  0.622254  1
  Dy  Dy15  1  0.087075  0.292191  0.122509  1
  Dy  Dy16  1  0.999946  0.000144  0.500058  1
  Dy  Dy17  1  0.999820  0.000011  0.999941  1
  Dy  Dy18  1  0.501075  0.499355  0.000961  1
  Dy  Dy19  1  0.500647  0.498936  0.499044  1
  Ir  Ir20  1  0.346444  0.653554  0.750002  1
  Ru  Ru21  1  0.847022  0.152976  0.250000  1
  Ru  Ru22  1  0.847019  0.846896  0.749848  1
  Ru  Ru23  1  0.153080  0.152995  0.750240  1
  Ru  Ru24  1  0.153574  0.846365  0.249976  1
  Ru  Ru25  1  0.652710  0.347291  0.749999  1
  Ru  Ru26  1  0.652259  0.653023  0.250121  1
  Ru  Ru27  1  0.346989  0.347787  0.249855  1
  Ru  Ru28  1  0.500021  0.999608  0.124088  1
  Ru  Ru29  1  0.500003  0.000048  0.624613  1
  Ru  Ru30  1  0.999937  0.500034  0.875432  1
  Ru  Ru31  1  0.000382  0.500016  0.375858  1
