# generated using pymatgen
data_Dy6Y2Sc12Si15Au
_symmetry_space_group_name_H-M   'P 1'
_cell_length_a   7.13445833
_cell_length_b   7.38877247
_cell_length_c   14.08697165
_cell_angle_alpha   89.91474758
_cell_angle_beta   89.67752289
_cell_angle_gamma   90.19408891
_symmetry_Int_Tables_number   1
_chemical_formula_structural   Dy6Y2Sc12Si15Au
_chemical_formula_sum   'Dy6 Y2 Sc12 Si15 Au1'
_cell_volume   742.57628530
_cell_formula_units_Z   1
loop_
 _symmetry_equiv_pos_site_id
 _symmetry_equiv_pos_as_xyz
  1  'x, y, z'
loop_
 _atom_site_type_symbol
 _atom_site_label
 _atom_site_symmetry_multiplicity
 _atom_site_fract_x
 _atom_site_fract_y
 _atom_site_fract_z
 _atom_site_occupancy
  Dy  Dy0  1  0.487060  0.676457  0.903289  1
  Dy  Dy1  1  0.988169  0.828152  0.597759  1
  Dy  Dy2  1  0.512227  0.324105  0.096648  1
  Dy  Dy3  1  0.010615  0.174066  0.399697  1
  Dy  Dy4  1  0.510321  0.324484  0.400649  1
  Dy  Dy5  1  0.490980  0.676174  0.599234  1
  Y  Y6  1  0.012158  0.175178  0.097476  1
  Y  Y7  1  0.987574  0.825330  0.903579  1
  Sc  Sc8  1  0.162774  0.501125  0.751198  1
  Sc  Sc9  1  0.837368  0.498544  0.250778  1
  Sc  Sc10  1  0.338001  0.000382  0.249260  1
  Sc  Sc11  1  0.663865  0.996446  0.750889  1
  Sc  Sc12  1  0.338527  0.176129  0.625829  1
  Sc  Sc13  1  0.666647  0.823362  0.373605  1
  Sc  Sc14  1  0.168901  0.673413  0.373344  1
  Sc  Sc15  1  0.670319  0.824032  0.125103  1
  Sc  Sc16  1  0.828080  0.325698  0.625430  1
  Sc  Sc17  1  0.328668  0.175402  0.875941  1
  Sc  Sc18  1  0.830324  0.322677  0.875879  1
  Sc  Sc19  1  0.169233  0.676638  0.125127  1
  Si  Si20  1  0.035263  0.119579  0.750510  1
  Si  Si21  1  0.966488  0.883279  0.249429  1
  Si  Si22  1  0.466600  0.616147  0.248362  1
  Si  Si23  1  0.535062  0.384501  0.752392  1
  Si  Si24  1  0.284970  0.874480  0.750750  1
  Si  Si25  1  0.712964  0.127524  0.248915  1
  Si  Si26  1  0.214755  0.371627  0.248235  1
  Si  Si27  1  0.786789  0.626747  0.752400  1
  Si  Si28  1  0.835292  0.537409  0.459388  1
  Si  Si29  1  0.341130  0.963053  0.460131  1
  Si  Si30  1  0.843680  0.535667  0.039066  1
  Si  Si31  1  0.657683  0.036101  0.537869  1
  Si  Si32  1  0.155850  0.464289  0.961497  1
  Si  Si33  1  0.656362  0.035086  0.960935  1
  Si  Si34  1  0.343468  0.964147  0.039372  1
  Au  Au35  1  0.161838  0.462571  0.540034  1
