# generated using pymatgen
data_SrPr5SmCoI12
_symmetry_space_group_name_H-M   'P 1'
_cell_length_a   9.98543863
_cell_length_b   10.09035508
_cell_length_c   10.08164448
_cell_angle_alpha   106.25175201
_cell_angle_beta   106.48963595
_cell_angle_gamma   106.24603029
_symmetry_Int_Tables_number   1
_chemical_formula_structural   SrPr5SmCoI12
_chemical_formula_sum   'Sr1 Pr5 Sm1 Co1 I12'
_cell_volume   860.97014087
_cell_formula_units_Z   1
loop_
 _symmetry_equiv_pos_site_id
 _symmetry_equiv_pos_as_xyz
  1  'x, y, z'
loop_
 _atom_site_type_symbol
 _atom_site_label
 _atom_site_symmetry_multiplicity
 _atom_site_fract_x
 _atom_site_fract_y
 _atom_site_fract_z
 _atom_site_occupancy
  Sr  Sr0  1  0.500236  0.500039  0.499856  1
  Pr  Pr1  1  0.020340  0.096258  0.301012  1
  Pr  Pr2  1  0.096504  0.299725  0.020189  1
  Pr  Pr3  1  0.286359  0.019511  0.090971  1
  Pr  Pr4  1  0.903479  0.700024  0.979447  1
  Pr  Pr5  1  0.713252  0.979979  0.907016  1
  Sm  Sm6  1  0.979407  0.904660  0.703877  1
  Co  Co7  1  0.999598  0.999712  0.999461  1
  I  I8  1  0.545323  0.628338  0.855016  1
  I  I9  1  0.454611  0.371758  0.144773  1
  I  I10  1  0.317203  0.925934  0.772796  1
  I  I11  1  0.372740  0.143397  0.452130  1
  I  I12  1  0.927101  0.775248  0.324538  1
  I  I13  1  0.676680  0.072742  0.223364  1
  I  I14  1  0.071760  0.219835  0.677430  1
  I  I15  1  0.773155  0.321786  0.925849  1
  I  I16  1  0.226817  0.678251  0.074026  1
  I  I17  1  0.860041  0.552620  0.629207  1
  I  I18  1  0.142732  0.452984  0.370807  1
  I  I19  1  0.632662  0.857200  0.548235  1
