# generated using pymatgen
data_Tm2Cr3Ni6P7Ir3
_symmetry_space_group_name_H-M   'P 1'
_cell_length_a   9.23096700
_cell_length_b   9.23096818
_cell_length_c   3.74121300
_cell_angle_alpha   90.00000000
_cell_angle_beta   90.00000000
_cell_angle_gamma   119.99999935
_symmetry_Int_Tables_number   1
_chemical_formula_structural   Tm2Cr3Ni6P7Ir3
_chemical_formula_sum   'Tm2 Cr3 Ni6 P7 Ir3'
_cell_volume   276.08163722
_cell_formula_units_Z   1
loop_
 _symmetry_equiv_pos_site_id
 _symmetry_equiv_pos_as_xyz
  1  'x, y, z'
loop_
 _atom_site_type_symbol
 _atom_site_label
 _atom_site_symmetry_multiplicity
 _atom_site_fract_x
 _atom_site_fract_y
 _atom_site_fract_z
 _atom_site_occupancy
  Tm  Tm0  1  0.666667  0.333333  0.500000  1
  Tm  Tm1  1  0.333333  0.666667  0.000000  1
  Cr  Cr2  1  0.207449  0.087189  0.500000  1
  Cr  Cr3  1  0.879741  0.792551  0.500000  1
  Cr  Cr4  1  0.912811  0.120259  0.500000  1
  Ni  Ni5  1  0.433177  0.064545  0.000000  1
  Ni  Ni6  1  0.631369  0.566823  0.000000  1
  Ni  Ni7  1  0.935455  0.368631  0.000000  1
  Ni  Ni8  1  0.157894  0.276800  0.000000  1
  Ni  Ni9  1  0.118906  0.842106  0.000000  1
  Ni  Ni10  1  0.723200  0.881094  0.000000  1
  P  P11  1  0.000000  0.000000  0.000000  1
  P  P12  1  0.411491  0.289559  0.000000  1
  P  P13  1  0.878069  0.588509  0.000000  1
  P  P14  1  0.710441  0.121931  0.000000  1
  P  P15  1  0.110735  0.398483  0.500000  1
  P  P16  1  0.287748  0.889265  0.500000  1
  P  P17  1  0.601517  0.712252  0.500000  1
  Ir  Ir18  1  0.386294  0.434149  0.500000  1
  Ir  Ir19  1  0.047856  0.613706  0.500000  1
  Ir  Ir20  1  0.565851  0.952144  0.500000  1
