# generated using pymatgen
data_Th10CuSn2Bi5
_symmetry_space_group_name_H-M   'P 1'
_cell_length_a   9.66686241
_cell_length_b   9.68758067
_cell_length_c   6.64975855
_cell_angle_alpha   89.94022651
_cell_angle_beta   90.11979733
_cell_angle_gamma   119.92928290
_symmetry_Int_Tables_number   1
_chemical_formula_structural   Th10CuSn2Bi5
_chemical_formula_sum   'Th10 Cu1 Sn2 Bi5'
_cell_volume   539.69135583
_cell_formula_units_Z   1
loop_
 _symmetry_equiv_pos_site_id
 _symmetry_equiv_pos_as_xyz
  1  'x, y, z'
loop_
 _atom_site_type_symbol
 _atom_site_label
 _atom_site_symmetry_multiplicity
 _atom_site_fract_x
 _atom_site_fract_y
 _atom_site_fract_z
 _atom_site_occupancy
  Th  Th0  1  0.999902  0.725141  0.770395  1
  Th  Th1  1  0.274761  0.274859  0.770395  1
  Th  Th2  1  0.329935  0.662929  0.497083  1
  Th  Th3  1  0.667007  0.337071  0.497083  1
  Th  Th4  1  0.726732  0.722075  0.230347  1
  Th  Th5  1  0.726741  0.000000  0.771550  1
  Th  Th6  1  0.004657  0.277925  0.230347  1
  Th  Th7  1  0.272084  0.000000  0.229800  1
  Th  Th8  1  0.331237  0.663559  0.002503  1
  Th  Th9  1  0.667680  0.336441  0.002503  1
  Cu  Cu10  1  0.999744  0.000000  0.001011  1
  Sn  Sn11  1  0.381296  0.381025  0.254339  1
  Sn  Sn12  1  0.000271  0.618975  0.254339  1
  Bi  Bi13  1  0.617932  0.618345  0.743964  1
  Bi  Bi14  1  0.999587  0.381655  0.743964  1
  Bi  Bi15  1  0.382449  0.000000  0.744288  1
  Bi  Bi16  1  0.618624  0.000000  0.255966  1
  Bi  Bi17  1  0.999360  0.000000  0.500126  1
