# generated using pymatgen
data_Nd2Ho2SiI5
_symmetry_space_group_name_H-M   'P 1'
_cell_length_a   9.91654170
_cell_length_b   9.91654209
_cell_length_c   9.06905955
_cell_angle_alpha   77.90795983
_cell_angle_beta   77.90795833
_cell_angle_gamma   24.84270570
_symmetry_Int_Tables_number   1
_chemical_formula_structural   Nd2Ho2SiI5
_chemical_formula_sum   'Nd2 Ho2 Si1 I5'
_cell_volume   365.96240031
_cell_formula_units_Z   1
loop_
 _symmetry_equiv_pos_site_id
 _symmetry_equiv_pos_as_xyz
  1  'x, y, z'
loop_
 _atom_site_type_symbol
 _atom_site_label
 _atom_site_symmetry_multiplicity
 _atom_site_fract_x
 _atom_site_fract_y
 _atom_site_fract_z
 _atom_site_occupancy
  Nd  Nd0  1  0.501078  0.501078  0.213837  1
  Nd  Nd1  1  0.498922  0.498922  0.786163  1
  Ho  Ho2  1  0.857221  0.857221  0.072624  1
  Ho  Ho3  1  0.142779  0.142779  0.927376  1
  Si  Si4  1  0.000000  0.000000  0.000000  1
  I  I5  1  0.675393  0.675393  0.154764  1
  I  I6  1  0.324607  0.324607  0.845236  1
  I  I7  1  0.669047  0.669047  0.676738  1
  I  I8  1  0.330953  0.330953  0.323262  1
  I  I9  1  0.000000  0.000000  0.500000  1
