# generated using pymatgen
data_Ta4RuS8
_symmetry_space_group_name_H-M   'P 1'
_cell_length_a   6.65217600
_cell_length_b   6.65217515
_cell_length_c   12.09263800
_cell_angle_alpha   90.00000000
_cell_angle_beta   90.00000000
_cell_angle_gamma   119.99999429
_symmetry_Int_Tables_number   1
_chemical_formula_structural   Ta4RuS8
_chemical_formula_sum   'Ta8 Ru2 S16'
_cell_volume   463.42463374
_cell_formula_units_Z   2
loop_
 _symmetry_equiv_pos_site_id
 _symmetry_equiv_pos_as_xyz
  1  'x, y, z'
loop_
 _atom_site_type_symbol
 _atom_site_label
 _atom_site_symmetry_multiplicity
 _atom_site_fract_x
 _atom_site_fract_y
 _atom_site_fract_z
 _atom_site_occupancy
  Ta  Ta0  1  0.000000  0.000000  0.250000  1
  Ta  Ta1  1  0.000000  0.000000  0.750000  1
  Ta  Ta2  1  0.506686  0.013372  0.250000  1
  Ta  Ta3  1  0.493314  0.986628  0.750000  1
  Ta  Ta4  1  0.986628  0.493314  0.250000  1
  Ta  Ta5  1  0.013372  0.506686  0.750000  1
  Ta  Ta6  1  0.506686  0.493314  0.250000  1
  Ta  Ta7  1  0.493314  0.506686  0.750000  1
  Ru  Ru8  1  0.000000  0.000000  0.000000  1
  Ru  Ru9  1  0.000000  0.000000  0.500000  1
  S  S10  1  0.333333  0.666667  0.615848  1
  S  S11  1  0.666667  0.333333  0.384152  1
  S  S12  1  0.666667  0.333333  0.115848  1
  S  S13  1  0.333333  0.666667  0.884152  1
  S  S14  1  0.166335  0.332671  0.120925  1
  S  S15  1  0.833665  0.667329  0.879075  1
  S  S16  1  0.667329  0.833665  0.120925  1
  S  S17  1  0.833665  0.667329  0.620925  1
  S  S18  1  0.332671  0.166335  0.879075  1
  S  S19  1  0.166335  0.332671  0.379075  1
  S  S20  1  0.166335  0.833665  0.120925  1
  S  S21  1  0.332671  0.166335  0.620925  1
  S  S22  1  0.833665  0.166335  0.879075  1
  S  S23  1  0.667329  0.833665  0.379075  1
  S  S24  1  0.833665  0.166335  0.620925  1
  S  S25  1  0.166335  0.833665  0.379075  1
