# generated using pymatgen
data_La7Ir2Rh
_symmetry_space_group_name_H-M   'P 1'
_cell_length_a   6.51818448
_cell_length_b   10.24771581
_cell_length_c   10.25356375
_cell_angle_alpha   119.97261112
_cell_angle_beta   90.03871333
_cell_angle_gamma   89.99927641
_symmetry_Int_Tables_number   1
_chemical_formula_structural   La7Ir2Rh
_chemical_formula_sum   'La14 Ir4 Rh2'
_cell_volume   593.30615366
_cell_formula_units_Z   2
loop_
 _symmetry_equiv_pos_site_id
 _symmetry_equiv_pos_as_xyz
  1  'x, y, z'
loop_
 _atom_site_type_symbol
 _atom_site_label
 _atom_site_symmetry_multiplicity
 _atom_site_fract_x
 _atom_site_fract_y
 _atom_site_fract_z
 _atom_site_occupancy
  La  La0  1  0.472710  0.333207  0.666475  1
  La  La1  1  0.972259  0.667042  0.334042  1
  La  La2  1  0.250601  0.124006  0.873486  1
  La  La3  1  0.250593  0.749487  0.873502  1
  La  La4  1  0.250961  0.125576  0.251134  1
  La  La5  1  0.748981  0.875178  0.124856  1
  La  La6  1  0.749027  0.249734  0.124900  1
  La  La7  1  0.749897  0.874660  0.749277  1
  La  La8  1  0.437218  0.540187  0.460842  1
  La  La9  1  0.437101  0.920654  0.460855  1
  La  La10  1  0.437904  0.539387  0.078883  1
  La  La11  1  0.936573  0.460811  0.540424  1
  La  La12  1  0.936534  0.079590  0.540405  1
  La  La13  1  0.936086  0.460117  0.920193  1
  Ir  Ir14  1  0.189400  0.811031  0.622100  1
  Ir  Ir15  1  0.688561  0.189093  0.811942  1
  Ir  Ir16  1  0.688572  0.622847  0.811928  1
  Ir  Ir17  1  0.688496  0.188223  0.376393  1
  Rh  Rh18  1  0.190257  0.810632  0.189178  1
  Rh  Rh19  1  0.190267  0.378538  0.189186  1
