# generated using pymatgen
data_Ho5Er7In2Fe2Os
_symmetry_space_group_name_H-M   'P 1'
_cell_length_a   8.31947452
_cell_length_b   8.32032293
_cell_length_c   8.32027152
_cell_angle_alpha   108.69964608
_cell_angle_beta   108.70460088
_cell_angle_gamma   111.02528164
_symmetry_Int_Tables_number   1
_chemical_formula_structural   Ho5Er7In2Fe2Os
_chemical_formula_sum   'Ho5 Er7 In2 Fe2 Os1'
_cell_volume   443.08489867
_cell_formula_units_Z   1
loop_
 _symmetry_equiv_pos_site_id
 _symmetry_equiv_pos_as_xyz
  1  'x, y, z'
loop_
 _atom_site_type_symbol
 _atom_site_label
 _atom_site_symmetry_multiplicity
 _atom_site_fract_x
 _atom_site_fract_y
 _atom_site_fract_z
 _atom_site_occupancy
  Ho  Ho0  1  0.307479  0.307517  0.615042  1
  Ho  Ho1  1  0.692580  0.692647  0.385057  1
  Ho  Ho2  1  0.307481  0.692437  0.999958  1
  Ho  Ho3  1  0.692580  0.307524  0.999941  1
  Ho  Ho4  1  0.430378  0.192173  0.238220  1
  Er  Er5  1  0.569816  0.807899  0.761904  1
  Er  Er6  1  0.953979  0.192081  0.761850  1
  Er  Er7  1  0.192034  0.953887  0.761702  1
  Er  Er8  1  0.045914  0.807787  0.238152  1
  Er  Er9  1  0.807951  0.046004  0.238139  1
  Er  Er10  1  0.192022  0.430317  0.238168  1
  Er  Er11  1  0.807936  0.569811  0.761939  1
  In  In12  1  0.500014  0.999925  0.500083  1
  In  In13  1  0.000019  0.500014  0.500005  1
  Fe  Fe14  1  0.385586  0.385623  0.999956  1
  Fe  Fe15  1  0.614458  0.614468  0.000001  1
  Os  Os16  1  0.999775  0.999888  0.999885  1
