# generated using pymatgen
data_Y2BeCo9(TcAs2)3
_symmetry_space_group_name_H-M   'P 1'
_cell_length_a   3.78566000
_cell_length_b   9.31177551
_cell_length_c   9.31177700
_cell_angle_alpha   120.00000175
_cell_angle_beta   90.00000000
_cell_angle_gamma   90.00000000
_symmetry_Int_Tables_number   1
_chemical_formula_structural   Y2BeCo9(TcAs2)3
_chemical_formula_sum   'Y2 Be1 Co9 Tc3 As6'
_cell_volume   284.27410072
_cell_formula_units_Z   1
loop_
 _symmetry_equiv_pos_site_id
 _symmetry_equiv_pos_as_xyz
  1  'x, y, z'
loop_
 _atom_site_type_symbol
 _atom_site_label
 _atom_site_symmetry_multiplicity
 _atom_site_fract_x
 _atom_site_fract_y
 _atom_site_fract_z
 _atom_site_occupancy
  Y  Y0  1  0.000000  0.666667  0.333333  1
  Y  Y1  1  0.500000  0.333333  0.666667  1
  Be  Be2  1  0.000000  0.000000  0.000000  1
  Co  Co3  1  0.000000  0.571265  0.942307  1
  Co  Co4  1  0.000000  0.371042  0.428735  1
  Co  Co5  1  0.000000  0.057693  0.628958  1
  Co  Co6  1  0.000000  0.879571  0.151259  1
  Co  Co7  1  0.000000  0.271687  0.120429  1
  Co  Co8  1  0.000000  0.848741  0.728313  1
  Co  Co9  1  0.500000  0.948626  0.380773  1
  Co  Co10  1  0.500000  0.432146  0.051374  1
  Co  Co11  1  0.500000  0.619227  0.567854  1
  Tc  Tc12  1  0.500000  0.795251  0.907102  1
  Tc  Tc13  1  0.500000  0.111852  0.204749  1
  Tc  Tc14  1  0.500000  0.092898  0.888148  1
  As  As15  1  0.500000  0.708306  0.116049  1
  As  As16  1  0.500000  0.407743  0.291694  1
  As  As17  1  0.500000  0.883951  0.592257  1
  As  As18  1  0.000000  0.591998  0.704430  1
  As  As19  1  0.000000  0.112431  0.408002  1
  As  As20  1  0.000000  0.295570  0.887569  1
