# generated using pymatgen
data_Y3Mg(AlPt)4
_symmetry_space_group_name_H-M   'P 1'
_cell_length_a   4.35848500
_cell_length_b   6.89466410
_cell_length_c   7.72644024
_cell_angle_alpha   92.90831208
_cell_angle_beta   90.00000000
_cell_angle_gamma   90.00000000
_symmetry_Int_Tables_number   1
_chemical_formula_structural   Y3Mg(AlPt)4
_chemical_formula_sum   'Y3 Mg1 Al4 Pt4'
_cell_volume   231.88272190
_cell_formula_units_Z   1
loop_
 _symmetry_equiv_pos_site_id
 _symmetry_equiv_pos_as_xyz
  1  'x, y, z'
loop_
 _atom_site_type_symbol
 _atom_site_label
 _atom_site_symmetry_multiplicity
 _atom_site_fract_x
 _atom_site_fract_y
 _atom_site_fract_z
 _atom_site_occupancy
  Y  Y0  1  0.250000  0.525729  0.816081  1
  Y  Y1  1  0.750000  0.977149  0.330189  1
  Y  Y2  1  0.750000  0.470534  0.180568  1
  Mg  Mg3  1  0.250000  0.025253  0.676899  1
  Al  Al4  1  0.250000  0.138933  0.055029  1
  Al  Al5  1  0.250000  0.652187  0.439175  1
  Al  Al6  1  0.750000  0.857590  0.935765  1
  Al  Al7  1  0.750000  0.355330  0.565040  1
  Pt  Pt8  1  0.250000  0.275959  0.386337  1
  Pt  Pt9  1  0.250000  0.776146  0.124187  1
  Pt  Pt10  1  0.750000  0.728940  0.619165  1
  Pt  Pt11  1  0.750000  0.216250  0.871565  1
