# generated using pymatgen
data_Tb4NdBi2Te
_symmetry_space_group_name_H-M   'P 1'
_cell_length_a   8.25677500
_cell_length_b   9.56686100
_cell_length_c   12.10084400
_cell_angle_alpha   90.00000000
_cell_angle_beta   90.00000000
_cell_angle_gamma   90.00000000
_symmetry_Int_Tables_number   1
_chemical_formula_structural   Tb4NdBi2Te
_chemical_formula_sum   'Tb16 Nd4 Bi8 Te4'
_cell_volume   955.86283543
_cell_formula_units_Z   4
loop_
 _symmetry_equiv_pos_site_id
 _symmetry_equiv_pos_as_xyz
  1  'x, y, z'
loop_
 _atom_site_type_symbol
 _atom_site_label
 _atom_site_symmetry_multiplicity
 _atom_site_fract_x
 _atom_site_fract_y
 _atom_site_fract_z
 _atom_site_occupancy
  Tb  Tb0  1  0.689321  0.560770  0.056223  1
  Tb  Tb1  1  0.189321  0.939230  0.443777  1
  Tb  Tb2  1  0.310679  0.060770  0.943777  1
  Tb  Tb3  1  0.810679  0.439230  0.556223  1
  Tb  Tb4  1  0.310679  0.439230  0.943777  1
  Tb  Tb5  1  0.810679  0.060770  0.556223  1
  Tb  Tb6  1  0.689321  0.939230  0.056223  1
  Tb  Tb7  1  0.189321  0.560770  0.443777  1
  Tb  Tb8  1  0.476019  0.250000  0.487643  1
  Tb  Tb9  1  0.976019  0.250000  0.012357  1
  Tb  Tb10  1  0.523981  0.750000  0.512357  1
  Tb  Tb11  1  0.023981  0.750000  0.987643  1
  Tb  Tb12  1  0.318305  0.250000  0.218967  1
  Tb  Tb13  1  0.818305  0.250000  0.281033  1
  Tb  Tb14  1  0.681695  0.750000  0.781033  1
  Tb  Tb15  1  0.181695  0.750000  0.718967  1
  Nd  Nd16  1  0.352836  0.750000  0.212455  1
  Nd  Nd17  1  0.852836  0.750000  0.287545  1
  Nd  Nd18  1  0.647164  0.250000  0.787545  1
  Nd  Nd19  1  0.147164  0.250000  0.712455  1
  Bi  Bi20  1  0.567797  0.998453  0.326895  1
  Bi  Bi21  1  0.067797  0.501547  0.173105  1
  Bi  Bi22  1  0.432203  0.498453  0.673105  1
  Bi  Bi23  1  0.932203  0.001547  0.826895  1
  Bi  Bi24  1  0.432203  0.001547  0.673105  1
  Bi  Bi25  1  0.932203  0.498453  0.826895  1
  Bi  Bi26  1  0.567797  0.501547  0.326895  1
  Bi  Bi27  1  0.067797  0.998453  0.173105  1
  Te  Te28  1  0.408787  0.750000  0.954117  1
  Te  Te29  1  0.908787  0.750000  0.545883  1
  Te  Te30  1  0.591213  0.250000  0.045883  1
  Te  Te31  1  0.091213  0.250000  0.454117  1
