# generated using pymatgen
data_La2PuRu2
_symmetry_space_group_name_H-M   'P 1'
_cell_length_a   6.11270023
_cell_length_b   6.11269983
_cell_length_c   7.56768900
_cell_angle_alpha   90.00000000
_cell_angle_beta   90.00000000
_cell_angle_gamma   120.40568903
_symmetry_Int_Tables_number   1
_chemical_formula_structural   La2PuRu2
_chemical_formula_sum   'La4 Pu2 Ru4'
_cell_volume   243.87659794
_cell_formula_units_Z   2
loop_
 _symmetry_equiv_pos_site_id
 _symmetry_equiv_pos_as_xyz
  1  'x, y, z'
loop_
 _atom_site_type_symbol
 _atom_site_label
 _atom_site_symmetry_multiplicity
 _atom_site_fract_x
 _atom_site_fract_y
 _atom_site_fract_z
 _atom_site_occupancy
  La  La0  1  0.335580  0.664420  0.095504  1
  La  La1  1  0.664420  0.335580  0.904496  1
  La  La2  1  0.164420  0.835580  0.595504  1
  La  La3  1  0.835580  0.164420  0.404496  1
  Pu  Pu4  1  0.000000  0.000000  0.000000  1
  Pu  Pu5  1  0.500000  0.500000  0.500000  1
  Ru  Ru6  1  0.837977  0.662023  0.250000  1
  Ru  Ru7  1  0.662023  0.837977  0.750000  1
  Ru  Ru8  1  0.162023  0.337977  0.750000  1
  Ru  Ru9  1  0.337977  0.162023  0.250000  1
