# generated using pymatgen
data_Tm6SbO12
_symmetry_space_group_name_H-M   'P 1'
_cell_length_a   6.40109115
_cell_length_b   6.40128223
_cell_length_c   6.40106021
_cell_angle_alpha   98.96593665
_cell_angle_beta   98.96509319
_cell_angle_gamma   98.96418415
_symmetry_Int_Tables_number   1
_chemical_formula_structural   Tm6SbO12
_chemical_formula_sum   'Tm6 Sb1 O12'
_cell_volume   251.51724842
_cell_formula_units_Z   1
loop_
 _symmetry_equiv_pos_site_id
 _symmetry_equiv_pos_as_xyz
  1  'x, y, z'
loop_
 _atom_site_type_symbol
 _atom_site_label
 _atom_site_symmetry_multiplicity
 _atom_site_fract_x
 _atom_site_fract_y
 _atom_site_fract_z
 _atom_site_occupancy
  Tm  Tm0  1  0.609207  0.305912  0.139455  1
  Tm  Tm1  1  0.139452  0.609205  0.305912  1
  Tm  Tm2  1  0.694090  0.860548  0.390794  1
  Tm  Tm3  1  0.305910  0.139452  0.609206  1
  Tm  Tm4  1  0.860548  0.390795  0.694088  1
  Tm  Tm5  1  0.390793  0.694088  0.860545  1
  Sb  Sb6  1  0.000000  0.000000  0.000000  1
  O  O7  1  0.693043  0.926252  0.044655  1
  O  O8  1  0.955343  0.306956  0.073743  1
  O  O9  1  0.433512  0.586828  0.178679  1
  O  O10  1  0.073743  0.955344  0.306954  1
  O  O11  1  0.821322  0.566491  0.413168  1
  O  O12  1  0.586833  0.178688  0.433513  1
  O  O13  1  0.413167  0.821312  0.566487  1
  O  O14  1  0.178678  0.433509  0.586832  1
  O  O15  1  0.926257  0.044656  0.693046  1
  O  O16  1  0.566488  0.413172  0.821321  1
  O  O17  1  0.044657  0.693044  0.926257  1
  O  O18  1  0.306957  0.073747  0.955345  1
