# generated using pymatgen
data_Dy4Zn25(GaCu2)3
_symmetry_space_group_name_H-M   'P 1'
_cell_length_a   8.91706800
_cell_length_b   8.91706864
_cell_length_c   8.59607400
_cell_angle_alpha   90.00000000
_cell_angle_beta   90.00000000
_cell_angle_gamma   120.00001246
_symmetry_Int_Tables_number   1
_chemical_formula_structural   Dy4Zn25(GaCu2)3
_chemical_formula_sum   'Dy4 Zn25 Ga3 Cu6'
_cell_volume   591.93621456
_cell_formula_units_Z   1
loop_
 _symmetry_equiv_pos_site_id
 _symmetry_equiv_pos_as_xyz
  1  'x, y, z'
loop_
 _atom_site_type_symbol
 _atom_site_label
 _atom_site_symmetry_multiplicity
 _atom_site_fract_x
 _atom_site_fract_y
 _atom_site_fract_z
 _atom_site_occupancy
  Dy  Dy0  1  0.000000  0.000000  0.249511  1
  Dy  Dy1  1  0.000000  0.000000  0.752643  1
  Dy  Dy2  1  0.333333  0.666667  0.749635  1
  Dy  Dy3  1  0.666667  0.333333  0.249610  1
  Zn  Zn4  1  0.333333  0.666667  0.097333  1
  Zn  Zn5  1  0.333044  0.367052  0.249336  1
  Zn  Zn6  1  0.632948  0.965993  0.249336  1
  Zn  Zn7  1  0.034007  0.666956  0.249336  1
  Zn  Zn8  1  0.632948  0.666956  0.249336  1
  Zn  Zn9  1  0.034007  0.367052  0.249336  1
  Zn  Zn10  1  0.333044  0.965993  0.249336  1
  Zn  Zn11  1  0.667336  0.635311  0.750081  1
  Zn  Zn12  1  0.364689  0.032025  0.750081  1
  Zn  Zn13  1  0.967975  0.332664  0.750081  1
  Zn  Zn14  1  0.364689  0.332664  0.750081  1
  Zn  Zn15  1  0.967975  0.635311  0.750081  1
  Zn  Zn16  1  0.667336  0.032025  0.750081  1
  Zn  Zn17  1  0.162883  0.837117  0.517686  1
  Zn  Zn18  1  0.162883  0.325766  0.517686  1
  Zn  Zn19  1  0.674234  0.837117  0.517686  1
  Zn  Zn20  1  0.836563  0.163437  0.480441  1
  Zn  Zn21  1  0.836563  0.673123  0.480441  1
  Zn  Zn22  1  0.326877  0.163437  0.480441  1
  Zn  Zn23  1  0.836948  0.163052  0.018130  1
  Zn  Zn24  1  0.836948  0.673894  0.018130  1
  Zn  Zn25  1  0.326106  0.163052  0.018130  1
  Zn  Zn26  1  0.165438  0.834562  0.983258  1
  Zn  Zn27  1  0.165438  0.330877  0.983258  1
  Zn  Zn28  1  0.669123  0.834562  0.983258  1
  Ga  Ga29  1  0.333333  0.666667  0.405733  1
  Ga  Ga30  1  0.666667  0.333333  0.596040  1
  Ga  Ga31  1  0.666667  0.333333  0.904551  1
  Cu  Cu32  1  0.500672  0.499328  0.500189  1
  Cu  Cu33  1  0.500672  0.001345  0.500189  1
  Cu  Cu34  1  0.998655  0.499328  0.500189  1
  Cu  Cu35  1  0.500414  0.499586  0.999776  1
  Cu  Cu36  1  0.500414  0.000827  0.999776  1
  Cu  Cu37  1  0.999173  0.499586  0.999776  1
