# generated using pymatgen
data_Cr3Bi4SbF28
_symmetry_space_group_name_H-M   'P 1'
_cell_length_a   5.61628908
_cell_length_b   9.01330917
_cell_length_c   12.05787500
_cell_angle_alpha   62.25688551
_cell_angle_beta   90.62119458
_cell_angle_gamma   89.90372462
_symmetry_Int_Tables_number   1
_chemical_formula_structural   Cr3Bi4SbF28
_chemical_formula_sum   'Cr3 Bi4 Sb1 F28'
_cell_volume   540.17077751
_cell_formula_units_Z   1
loop_
 _symmetry_equiv_pos_site_id
 _symmetry_equiv_pos_as_xyz
  1  'x, y, z'
loop_
 _atom_site_type_symbol
 _atom_site_label
 _atom_site_symmetry_multiplicity
 _atom_site_fract_x
 _atom_site_fract_y
 _atom_site_fract_z
 _atom_site_occupancy
  Cr  Cr0  1  0.742887  0.278590  0.953040  1
  Cr  Cr1  1  0.761143  0.270944  0.459021  1
  Cr  Cr2  1  0.257099  0.729382  0.040382  1
  Bi  Bi3  1  0.766918  0.820281  0.243861  1
  Bi  Bi4  1  0.273731  0.205742  0.227208  1
  Bi  Bi5  1  0.229027  0.172823  0.746012  1
  Bi  Bi6  1  0.740462  0.809408  0.781380  1
  Sb  Sb7  1  0.244478  0.724205  0.543755  1
  F  F8  1  0.947079  0.714166  0.467289  1
  F  F9  1  0.462163  0.286354  0.037755  1
  F  F10  1  0.037433  0.277897  0.549947  1
  F  F11  1  0.554772  0.717617  0.960363  1
  F  F12  1  0.061446  0.711780  0.912437  1
  F  F13  1  0.567956  0.287234  0.574135  1
  F  F14  1  0.928857  0.294611  0.072130  1
  F  F15  1  0.419311  0.699122  0.418852  1
  F  F16  1  0.728112  0.507204  0.858831  1
  F  F17  1  0.238237  0.486323  0.642533  1
  F  F18  1  0.266189  0.489358  0.137367  1
  F  F19  1  0.771519  0.500317  0.365886  1
  F  F20  1  0.744984  0.043701  0.043183  1
  F  F21  1  0.242426  0.963435  0.457088  1
  F  F22  1  0.266568  0.972604  0.945126  1
  F  F23  1  0.765183  0.039860  0.551541  1
  F  F24  1  0.070735  0.736039  0.675611  1
  F  F25  1  0.555442  0.260391  0.832935  1
  F  F26  1  0.951324  0.251425  0.340539  1
  F  F27  1  0.442297  0.751934  0.168037  1
  F  F28  1  0.015915  0.275224  0.864849  1
  F  F29  1  0.537651  0.724960  0.626559  1
  F  F30  1  0.969035  0.736615  0.124353  1
  F  F31  1  0.487485  0.264869  0.365399  1
  F  F32  1  0.093961  0.971408  0.231575  1
  F  F33  1  0.589650  0.028669  0.269961  1
  F  F34  1  0.878719  0.035841  0.784777  1
  F  F35  1  0.389810  0.959669  0.726281  1
