# generated using pymatgen
data_PrBe(Cu2Si)4
_symmetry_space_group_name_H-M   'P 1'
_cell_length_a   8.09382508
_cell_length_b   8.09382546
_cell_length_c   8.09382449
_cell_angle_alpha   120.59449419
_cell_angle_beta   120.59450094
_cell_angle_gamma   88.97335193
_symmetry_Int_Tables_number   1
_chemical_formula_structural   PrBe(Cu2Si)4
_chemical_formula_sum   'Pr2 Be2 Cu16 Si8'
_cell_volume   371.49303873
_cell_formula_units_Z   2
loop_
 _symmetry_equiv_pos_site_id
 _symmetry_equiv_pos_as_xyz
  1  'x, y, z'
loop_
 _atom_site_type_symbol
 _atom_site_label
 _atom_site_symmetry_multiplicity
 _atom_site_fract_x
 _atom_site_fract_y
 _atom_site_fract_z
 _atom_site_occupancy
  Pr  Pr0  1  0.250000  0.250000  0.000000  1
  Pr  Pr1  1  0.750000  0.750000  0.000000  1
  Be  Be2  1  0.500000  0.000000  0.500000  1
  Be  Be3  1  0.000000  0.500000  0.500000  1
  Cu  Cu4  1  0.942571  0.209610  0.152181  1
  Cu  Cu5  1  0.209610  0.057429  0.267039  1
  Cu  Cu6  1  0.790390  0.942571  0.732961  1
  Cu  Cu7  1  0.442571  0.290390  0.732961  1
  Cu  Cu8  1  0.057429  0.790390  0.847819  1
  Cu  Cu9  1  0.800314  0.058156  0.500000  1
  Cu  Cu10  1  0.558156  0.300314  0.500000  1
  Cu  Cu11  1  0.199686  0.941844  0.500000  1
  Cu  Cu12  1  0.441844  0.699686  0.500000  1
  Cu  Cu13  1  0.941844  0.441844  0.742157  1
  Cu  Cu14  1  0.699686  0.199686  0.257843  1
  Cu  Cu15  1  0.058156  0.558156  0.257843  1
  Cu  Cu16  1  0.709610  0.442571  0.152181  1
  Cu  Cu17  1  0.557429  0.709610  0.267039  1
  Cu  Cu18  1  0.300314  0.800314  0.742157  1
  Cu  Cu19  1  0.290390  0.557429  0.847819  1
  Si  Si20  1  0.792482  0.292482  0.850734  1
  Si  Si21  1  0.558252  0.058252  0.850734  1
  Si  Si22  1  0.058252  0.207518  0.500000  1
  Si  Si23  1  0.292482  0.441748  0.500000  1
  Si  Si24  1  0.941748  0.792482  0.500000  1
  Si  Si25  1  0.441748  0.941748  0.149266  1
  Si  Si26  1  0.207518  0.707518  0.149266  1
  Si  Si27  1  0.707518  0.558252  0.500000  1
