# generated using pymatgen
data_Ho5Er5Si5Bi
_symmetry_space_group_name_H-M   'P 1'
_cell_length_a   8.47795538
_cell_length_b   8.52034365
_cell_length_c   6.31261400
_cell_angle_alpha   90.00000000
_cell_angle_beta   90.00000000
_cell_angle_gamma   119.86981178
_symmetry_Int_Tables_number   1
_chemical_formula_structural   Ho5Er5Si5Bi
_chemical_formula_sum   'Ho5 Er5 Si5 Bi1'
_cell_volume   395.41791788
_cell_formula_units_Z   1
loop_
 _symmetry_equiv_pos_site_id
 _symmetry_equiv_pos_as_xyz
  1  'x, y, z'
loop_
 _atom_site_type_symbol
 _atom_site_label
 _atom_site_symmetry_multiplicity
 _atom_site_fract_x
 _atom_site_fract_y
 _atom_site_fract_z
 _atom_site_occupancy
  Ho  Ho0  1  0.998383  0.243381  0.250000  1
  Ho  Ho1  1  0.755139  0.756728  0.250000  1
  Ho  Ho2  1  0.767891  0.999963  0.750000  1
  Ho  Ho3  1  0.239782  0.254939  0.750000  1
  Ho  Ho4  1  0.240128  0.999937  0.250000  1
  Er  Er5  1  0.984707  0.744842  0.750000  1
  Er  Er6  1  0.330730  0.654038  0.495110  1
  Er  Er7  1  0.676784  0.346031  0.004840  1
  Er  Er8  1  0.676784  0.346031  0.495160  1
  Er  Er9  1  0.330730  0.654038  0.004890  1
  Si  Si10  1  0.393402  0.390805  0.250000  1
  Si  Si11  1  0.002586  0.609154  0.250000  1
  Si  Si12  1  0.998668  0.394910  0.750000  1
  Si  Si13  1  0.604317  0.605425  0.750000  1
  Si  Si14  1  0.606759  0.999988  0.250000  1
  Bi  Bi15  1  0.393211  0.999790  0.750000  1
