# generated using pymatgen
data_Tb8Zr11Si16Mo
_symmetry_space_group_name_H-M   'P 1'
_cell_length_a   7.32143886
_cell_length_b   7.32143886
_cell_length_c   13.46471303
_cell_angle_alpha   89.94806144
_cell_angle_beta   90.05193688
_cell_angle_gamma   90.01510842
_symmetry_Int_Tables_number   1
_chemical_formula_structural   Tb8Zr11Si16Mo
_chemical_formula_sum   'Tb8 Zr11 Si16 Mo1'
_cell_volume   721.75468229
_cell_formula_units_Z   1
loop_
 _symmetry_equiv_pos_site_id
 _symmetry_equiv_pos_as_xyz
  1  'x, y, z'
loop_
 _atom_site_type_symbol
 _atom_site_label
 _atom_site_symmetry_multiplicity
 _atom_site_fract_x
 _atom_site_fract_y
 _atom_site_fract_z
 _atom_site_occupancy
  Tb  Tb0  1  0.998870  0.345101  0.210591  1
  Tb  Tb1  1  0.004285  0.654495  0.715850  1
  Tb  Tb2  1  0.154548  0.495870  0.463659  1
  Tb  Tb3  1  0.500868  0.847828  0.035523  1
  Tb  Tb4  1  0.847828  0.500868  0.964477  1
  Tb  Tb5  1  0.495870  0.154548  0.536341  1
  Tb  Tb6  1  0.345101  0.998870  0.789409  1
  Tb  Tb7  1  0.654495  0.004285  0.284150  1
  Zr  Zr8  1  0.824612  0.824612  0.500000  1
  Zr  Zr9  1  0.323649  0.675601  0.248238  1
  Zr  Zr10  1  0.675601  0.323649  0.751762  1
  Zr  Zr11  1  0.145529  0.996915  0.373106  1
  Zr  Zr12  1  0.854890  0.005189  0.878008  1
  Zr  Zr13  1  0.504141  0.645997  0.625260  1
  Zr  Zr14  1  0.352011  0.494022  0.876684  1
  Zr  Zr15  1  0.494022  0.352011  0.123316  1
  Zr  Zr16  1  0.645997  0.504141  0.374740  1
  Zr  Zr17  1  0.996915  0.145529  0.626894  1
  Zr  Zr18  1  0.005189  0.854890  0.121992  1
  Si  Si19  1  0.360788  0.293941  0.315278  1
  Si  Si20  1  0.638917  0.706188  0.817553  1
  Si  Si21  1  0.206261  0.861206  0.566387  1
  Si  Si22  1  0.139405  0.796510  0.933699  1
  Si  Si23  1  0.796510  0.139405  0.066301  1
  Si  Si24  1  0.861206  0.206261  0.433613  1
  Si  Si25  1  0.293941  0.360788  0.684722  1
  Si  Si26  1  0.706188  0.638917  0.182447  1
  Si  Si27  1  0.293026  0.054344  0.182325  1
  Si  Si28  1  0.704175  0.949268  0.688021  1
  Si  Si29  1  0.447947  0.795795  0.436430  1
  Si  Si30  1  0.203892  0.547127  0.062119  1
  Si  Si31  1  0.547127  0.203892  0.937881  1
  Si  Si32  1  0.795795  0.447947  0.563570  1
  Si  Si33  1  0.054344  0.293026  0.817675  1
  Si  Si34  1  0.949268  0.704175  0.311979  1
  Mo  Mo35  1  0.176787  0.176787  0.000000  1
