# generated using pymatgen
data_NbS27
_symmetry_space_group_name_H-M   'P 1'
_cell_length_a   15.06676166
_cell_length_b   15.07224805
_cell_length_c   15.08988981
_cell_angle_alpha   118.85455195
_cell_angle_beta   118.79952147
_cell_angle_gamma   118.72269865
_symmetry_Int_Tables_number   1
_chemical_formula_structural   NbS27
_chemical_formula_sum   'Nb1 S27'
_cell_volume   973.04389903
_cell_formula_units_Z   1
loop_
 _symmetry_equiv_pos_site_id
 _symmetry_equiv_pos_as_xyz
  1  'x, y, z'
loop_
 _atom_site_type_symbol
 _atom_site_label
 _atom_site_symmetry_multiplicity
 _atom_site_fract_x
 _atom_site_fract_y
 _atom_site_fract_z
 _atom_site_occupancy
  Nb  Nb0  1  0.799082  0.798902  0.799163  1
  S  S1  1  0.804123  0.522222  0.522457  1
  S  S2  1  0.524641  0.524967  0.805514  1
  S  S3  1  0.522857  0.804496  0.523459  1
  S  S4  1  0.242945  0.372970  0.631184  1
  S  S5  1  0.354978  0.953927  0.354731  1
  S  S6  1  0.354670  0.354528  0.953960  1
  S  S7  1  0.953520  0.354888  0.354795  1
  S  S8  1  0.124582  0.736106  0.253237  1
  S  S9  1  0.252239  0.123073  0.735073  1
  S  S10  1  0.735233  0.252533  0.123178  1
  S  S11  1  0.735881  0.124095  0.253189  1
  S  S12  1  0.252200  0.734945  0.122762  1
  S  S13  1  0.124048  0.252740  0.735632  1
  S  S14  1  0.349979  0.881384  0.532750  1
  S  S15  1  0.532228  0.350061  0.881127  1
  S  S16  1  0.881497  0.532881  0.349728  1
  S  S17  1  0.881554  0.349902  0.533030  1
  S  S18  1  0.532402  0.881225  0.349758  1
  S  S19  1  0.350181  0.532523  0.881255  1
  S  S20  1  0.241441  0.630024  0.371893  1
  S  S21  1  0.373193  0.243649  0.631804  1
  S  S22  1  0.630977  0.371953  0.242217  1
  S  S23  1  0.630189  0.241386  0.371717  1
  S  S24  1  0.372394  0.631459  0.243032  1
  S  S25  1  0.898575  0.032499  0.032265  1
  S  S26  1  0.034301  0.034050  0.901186  1
  S  S27  1  0.035386  0.901905  0.035201  1
