# generated using pymatgen
data_Tb4Tm4ReTc3C8
_symmetry_space_group_name_H-M   'P 1'
_cell_length_a   5.07934500
_cell_length_b   6.57451426
_cell_length_c   9.81475709
_cell_angle_alpha   90.04311629
_cell_angle_beta   90.00000000
_cell_angle_gamma   90.00000000
_symmetry_Int_Tables_number   1
_chemical_formula_structural   Tb4Tm4ReTc3C8
_chemical_formula_sum   'Tb4 Tm4 Re1 Tc3 C8'
_cell_volume   327.75612496
_cell_formula_units_Z   1
loop_
 _symmetry_equiv_pos_site_id
 _symmetry_equiv_pos_as_xyz
  1  'x, y, z'
loop_
 _atom_site_type_symbol
 _atom_site_label
 _atom_site_symmetry_multiplicity
 _atom_site_fract_x
 _atom_site_fract_y
 _atom_site_fract_z
 _atom_site_occupancy
  Tb  Tb0  1  0.750000  0.466321  0.784572  1
  Tb  Tb1  1  0.250000  0.032556  0.285469  1
  Tb  Tb2  1  0.750000  0.967024  0.714351  1
  Tb  Tb3  1  0.250000  0.532324  0.214483  1
  Tm  Tm4  1  0.750000  0.825154  0.057999  1
  Tm  Tm5  1  0.250000  0.673860  0.557835  1
  Tm  Tm6  1  0.750000  0.325895  0.441394  1
  Tm  Tm7  1  0.250000  0.175604  0.941546  1
  Re  Re8  1  0.250000  0.720572  0.866093  1
  Tc  Tc9  1  0.750000  0.279407  0.133676  1
  Tc  Tc10  1  0.250000  0.221157  0.633807  1
  Tc  Tc11  1  0.750000  0.779632  0.366061  1
  C  C12  1  0.750000  0.173407  0.951537  1
  C  C13  1  0.250000  0.825691  0.049683  1
  C  C14  1  0.750000  0.673942  0.548425  1
  C  C15  1  0.250000  0.325946  0.451691  1
  C  C16  1  0.750000  0.048055  0.259342  1
  C  C17  1  0.250000  0.453248  0.760731  1
  C  C18  1  0.750000  0.548520  0.240304  1
  C  C19  1  0.250000  0.951688  0.741000  1
