# generated using pymatgen
data_Ho2(UAl5)3
_symmetry_space_group_name_H-M   'P 1'
_cell_length_a   12.58987594
_cell_length_b   12.58987573
_cell_length_c   12.58987626
_cell_angle_alpha   28.00389453
_cell_angle_beta   28.00389735
_cell_angle_gamma   28.00389436
_symmetry_Int_Tables_number   1
_chemical_formula_structural   Ho2(UAl5)3
_chemical_formula_sum   'Ho2 U3 Al15'
_cell_volume   388.57599573
_cell_formula_units_Z   1
loop_
 _symmetry_equiv_pos_site_id
 _symmetry_equiv_pos_as_xyz
  1  'x, y, z'
loop_
 _atom_site_type_symbol
 _atom_site_label
 _atom_site_symmetry_multiplicity
 _atom_site_fract_x
 _atom_site_fract_y
 _atom_site_fract_z
 _atom_site_occupancy
  Ho  Ho0  1  0.130844  0.130844  0.130844  1
  Ho  Ho1  1  0.000295  0.000295  0.000295  1
  U  U2  1  0.599157  0.599157  0.599157  1
  U  U3  1  0.400509  0.400509  0.400509  1
  U  U4  1  0.869362  0.869362  0.869362  1
  Al  Al5  1  0.573232  0.114349  0.114349  1
  Al  Al6  1  0.114349  0.573232  0.114349  1
  Al  Al7  1  0.114349  0.114349  0.573232  1
  Al  Al8  1  0.428749  0.885045  0.885045  1
  Al  Al9  1  0.885045  0.428749  0.885045  1
  Al  Al10  1  0.500559  0.500559  0.998791  1
  Al  Al11  1  0.500559  0.998791  0.500559  1
  Al  Al12  1  0.998791  0.500559  0.500559  1
  Al  Al13  1  0.636814  0.636814  0.127581  1
  Al  Al14  1  0.636814  0.127581  0.636814  1
  Al  Al15  1  0.127581  0.636814  0.636814  1
  Al  Al16  1  0.364717  0.364717  0.868513  1
  Al  Al17  1  0.364717  0.868513  0.364717  1
  Al  Al18  1  0.868513  0.364717  0.364717  1
  Al  Al19  1  0.885045  0.885045  0.428749  1
