# generated using pymatgen
data_DyEr3Ga18NiIr5
_symmetry_space_group_name_H-M   'P 1'
_cell_length_a   7.55905902
_cell_length_b   7.55965314
_cell_length_c   9.43862106
_cell_angle_alpha   90.20119483
_cell_angle_beta   90.20350116
_cell_angle_gamma   119.97974524
_symmetry_Int_Tables_number   1
_chemical_formula_structural   DyEr3Ga18NiIr5
_chemical_formula_sum   'Dy1 Er3 Ga18 Ni1 Ir5'
_cell_volume   467.18249710
_cell_formula_units_Z   1
loop_
 _symmetry_equiv_pos_site_id
 _symmetry_equiv_pos_as_xyz
  1  'x, y, z'
loop_
 _atom_site_type_symbol
 _atom_site_label
 _atom_site_symmetry_multiplicity
 _atom_site_fract_x
 _atom_site_fract_y
 _atom_site_fract_z
 _atom_site_occupancy
  Dy  Dy0  1  0.996796  0.667151  0.750173  1
  Er  Er1  1  0.003127  0.332823  0.249733  1
  Er  Er2  1  0.667176  0.996875  0.750299  1
  Er  Er3  1  0.332847  0.003126  0.249727  1
  Ga  Ga4  1  0.121842  0.122022  0.744882  1
  Ga  Ga5  1  0.878313  0.878344  0.255131  1
  Ga  Ga6  1  0.998776  0.329425  0.579874  1
  Ga  Ga7  1  0.001176  0.670225  0.419699  1
  Ga  Ga8  1  0.001153  0.666509  0.081101  1
  Ga  Ga9  1  0.333839  0.999174  0.919325  1
  Ga  Ga10  1  0.998810  0.333144  0.919322  1
  Ga  Ga11  1  0.666537  0.001195  0.080855  1
  Ga  Ga12  1  0.670262  0.001217  0.419943  1
  Ga  Ga13  1  0.330114  0.999138  0.579886  1
  Ga  Ga14  1  0.332211  0.332181  0.065471  1
  Ga  Ga15  1  0.667526  0.667832  0.934729  1
  Ga  Ga16  1  0.672723  0.673053  0.564916  1
  Ga  Ga17  1  0.326967  0.326961  0.434886  1
  Ga  Ga18  1  0.338867  0.545963  0.749432  1
  Ga  Ga19  1  0.661249  0.453934  0.250559  1
  Ga  Ga20  1  0.545715  0.338496  0.749425  1
  Ga  Ga21  1  0.453962  0.661292  0.250570  1
  Ni  Ni22  1  0.000016  0.000041  0.499967  1
  Ir  Ir23  1  0.671831  0.327948  0.499878  1
  Ir  Ir24  1  0.328115  0.671938  0.499896  1
  Ir  Ir25  1  0.328248  0.671745  0.000106  1
  Ir  Ir26  1  0.671733  0.328171  0.000106  1
  Ir  Ir27  1  0.000071  0.000074  0.000108  1
