# generated using pymatgen
data_Sm2Er8In5Hg3Pd4
_symmetry_space_group_name_H-M   'P 1'
_cell_length_a   3.61465500
_cell_length_b   8.04495296
_cell_length_c   18.32831197
_cell_angle_alpha   89.90594741
_cell_angle_beta   90.00000000
_cell_angle_gamma   90.00000000
_symmetry_Int_Tables_number   1
_chemical_formula_structural   Sm2Er8In5Hg3Pd4
_chemical_formula_sum   'Sm2 Er8 In5 Hg3 Pd4'
_cell_volume   532.98163550
_cell_formula_units_Z   1
loop_
 _symmetry_equiv_pos_site_id
 _symmetry_equiv_pos_as_xyz
  1  'x, y, z'
loop_
 _atom_site_type_symbol
 _atom_site_label
 _atom_site_symmetry_multiplicity
 _atom_site_fract_x
 _atom_site_fract_y
 _atom_site_fract_z
 _atom_site_occupancy
  Sm  Sm0  1  0.000000  0.502968  0.498012  1
  Sm  Sm1  1  0.000000  0.999421  0.000225  1
  Er  Er2  1  0.000000  0.745230  0.284367  1
  Er  Er3  1  0.000000  0.256247  0.719502  1
  Er  Er4  1  0.000000  0.754808  0.783296  1
  Er  Er5  1  0.000000  0.245312  0.215765  1
  Er  Er6  1  0.000000  0.610216  0.084814  1
  Er  Er7  1  0.000000  0.390956  0.916484  1
  Er  Er8  1  0.000000  0.882095  0.585001  1
  Er  Er9  1  0.000000  0.110093  0.414632  1
  In  In10  1  0.500000  0.205673  0.568196  1
  In  In11  1  0.500000  0.577479  0.651039  1
  In  In12  1  0.500000  0.417760  0.348418  1
  In  In13  1  0.500000  0.919628  0.150816  1
  In  In14  1  0.500000  0.080671  0.849711  1
  Hg  Hg15  1  0.500000  0.708988  0.931955  1
  Hg  Hg16  1  0.500000  0.292597  0.067091  1
  Hg  Hg17  1  0.500000  0.794043  0.431971  1
  Pd  Pd18  1  0.500000  0.531583  0.197881  1
  Pd  Pd19  1  0.500000  0.469948  0.802657  1
  Pd  Pd20  1  0.500000  0.971771  0.696866  1
  Pd  Pd21  1  0.500000  0.032512  0.301303  1
