# generated using pymatgen
data_RbGdHo2F10
_symmetry_space_group_name_H-M   'P 1'
_cell_length_a   8.26625739
_cell_length_b   8.30652294
_cell_length_c   8.30652397
_cell_angle_alpha   59.67955478
_cell_angle_beta   60.16022489
_cell_angle_gamma   60.16022163
_symmetry_Int_Tables_number   1
_chemical_formula_structural   RbGdHo2F10
_chemical_formula_sum   'Rb2 Gd2 Ho4 F20'
_cell_volume   403.28513081
_cell_formula_units_Z   2
loop_
 _symmetry_equiv_pos_site_id
 _symmetry_equiv_pos_as_xyz
  1  'x, y, z'
loop_
 _atom_site_type_symbol
 _atom_site_label
 _atom_site_symmetry_multiplicity
 _atom_site_fract_x
 _atom_site_fract_y
 _atom_site_fract_z
 _atom_site_occupancy
  Rb  Rb0  1  0.250000  0.250000  0.250000  1
  Rb  Rb1  1  0.750000  0.750000  0.750000  1
  Gd  Gd2  1  0.759268  0.240732  0.240732  1
  Gd  Gd3  1  0.240732  0.759268  0.759268  1
  Ho  Ho4  1  0.240309  0.759691  0.240309  1
  Ho  Ho5  1  0.759691  0.240309  0.759691  1
  Ho  Ho6  1  0.240309  0.240309  0.759691  1
  Ho  Ho7  1  0.759691  0.759691  0.240309  1
  F  F8  1  0.828028  0.500000  0.500000  1
  F  F9  1  0.171972  0.500000  0.500000  1
  F  F10  1  0.500000  0.828028  0.171972  1
  F  F11  1  0.500000  0.171972  0.828028  1
  F  F12  1  0.504237  0.830880  0.495763  1
  F  F13  1  0.169120  0.495763  0.830880  1
  F  F14  1  0.495763  0.169120  0.504237  1
  F  F15  1  0.830880  0.504237  0.169120  1
  F  F16  1  0.504237  0.495763  0.830880  1
  F  F17  1  0.495763  0.504237  0.169120  1
  F  F18  1  0.169120  0.830880  0.495763  1
  F  F19  1  0.830880  0.169120  0.504237  1
  F  F20  1  0.114799  0.109206  0.109206  1
  F  F21  1  0.885201  0.890794  0.890794  1
  F  F22  1  0.109206  0.114799  0.666791  1
  F  F23  1  0.109206  0.666791  0.114799  1
  F  F24  1  0.890794  0.885201  0.333209  1
  F  F25  1  0.890794  0.333209  0.885201  1
  F  F26  1  0.666791  0.109206  0.109206  1
  F  F27  1  0.333209  0.890794  0.890794  1
