# generated using pymatgen
data_SnBi4Br3
_symmetry_space_group_name_H-M   'P 1'
_cell_length_a   23.69323212
_cell_length_b   23.69323210
_cell_length_c   6.66750400
_cell_angle_alpha   80.05412682
_cell_angle_beta   80.05412683
_cell_angle_gamma   14.04688054
_symmetry_Int_Tables_number   1
_chemical_formula_structural   SnBi4Br3
_chemical_formula_sum   'Sn3 Bi12 Br9'
_cell_volume   894.60651873
_cell_formula_units_Z   3
loop_
 _symmetry_equiv_pos_site_id
 _symmetry_equiv_pos_as_xyz
  1  'x, y, z'
loop_
 _atom_site_type_symbol
 _atom_site_label
 _atom_site_symmetry_multiplicity
 _atom_site_fract_x
 _atom_site_fract_y
 _atom_site_fract_z
 _atom_site_occupancy
  Sn  Sn0  1  0.933236  0.933236  0.160688  1
  Sn  Sn1  1  0.473467  0.473467  0.646886  1
  Sn  Sn2  1  0.601460  0.601460  0.495782  1
  Bi  Bi3  1  0.092034  0.092034  0.025020  1
  Bi  Bi4  1  0.738502  0.738502  0.009909  1
  Bi  Bi5  1  0.245092  0.245092  0.515075  1
  Bi  Bi6  1  0.235387  0.235387  0.026766  1
  Bi  Bi7  1  0.744342  0.744342  0.515867  1
  Bi  Bi8  1  0.876150  0.876150  0.950524  1
  Bi  Bi9  1  0.302662  0.302662  0.149424  1
  Bi  Bi10  1  0.170960  0.170960  0.295222  1
  Bi  Bi11  1  0.677338  0.677338  0.790984  1
  Bi  Bi12  1  0.803773  0.803773  0.152061  1
  Bi  Bi13  1  0.175891  0.175891  0.790093  1
  Bi  Bi14  1  0.669815  0.669815  0.302931  1
  Br  Br15  1  0.096254  0.096254  0.506789  1
  Br  Br16  1  0.594034  0.594034  0.042729  1
  Br  Br17  1  0.884512  0.884512  0.465338  1
  Br  Br18  1  0.374307  0.374307  0.949799  1
  Br  Br19  1  0.439883  0.439883  0.150676  1
  Br  Br20  1  0.970041  0.970041  0.639236  1
  Br  Br21  1  0.528508  0.528508  0.662735  1
  Br  Br22  1  0.035213  0.035213  0.099067  1
  Br  Br23  1  0.305226  0.305226  0.656404  1
