# generated using pymatgen
data_Nb7FeCo7Si14Mo
_symmetry_space_group_name_H-M   'P 1'
_cell_length_a   9.20329996
_cell_length_b   9.20523811
_cell_length_c   9.21208714
_cell_angle_alpha   94.23208965
_cell_angle_beta   94.22089423
_cell_angle_gamma   148.48201388
_symmetry_Int_Tables_number   1
_chemical_formula_structural   Nb7FeCo7Si14Mo
_chemical_formula_sum   'Nb7 Fe1 Co7 Si14 Mo1'
_cell_volume   392.67639724
_cell_formula_units_Z   1
loop_
 _symmetry_equiv_pos_site_id
 _symmetry_equiv_pos_as_xyz
  1  'x, y, z'
loop_
 _atom_site_type_symbol
 _atom_site_label
 _atom_site_symmetry_multiplicity
 _atom_site_fract_x
 _atom_site_fract_y
 _atom_site_fract_z
 _atom_site_occupancy
  Nb  Nb0  1  0.867131  0.867131  0.734262  1
  Nb  Nb1  1  0.864853  0.133888  0.999312  1
  Nb  Nb2  1  0.134459  0.865424  0.999312  1
  Nb  Nb3  1  0.499847  0.691856  0.191547  1
  Nb  Nb4  1  0.499656  0.309865  0.809824  1
  Nb  Nb5  1  0.310168  0.499960  0.809824  1
  Nb  Nb6  1  0.691700  0.499691  0.191547  1
  Fe  Fe7  1  0.601033  0.101033  0.202066  1
  Co  Co8  1  0.398846  0.898846  0.797691  1
  Co  Co9  1  0.101285  0.601285  0.202571  1
  Co  Co10  1  0.099966  0.897793  0.498956  1
  Co  Co11  1  0.398990  0.601163  0.498956  1
  Co  Co12  1  0.600201  0.399265  0.499899  1
  Co  Co13  1  0.899698  0.100634  0.499899  1
  Co  Co14  1  0.898848  0.398848  0.797696  1
  Si  Si15  1  0.290802  0.290802  0.581606  1
  Si  Si16  1  0.707550  0.707550  0.415098  1
  Si  Si17  1  0.708417  0.291770  0.000144  1
  Si  Si18  1  0.291726  0.708373  0.000144  1
  Si  Si19  1  0.999779  0.292944  0.295562  1
  Si  Si20  1  0.999317  0.701970  0.702167  1
  Si  Si21  1  0.702850  0.000198  0.702167  1
  Si  Si22  1  0.295784  0.002619  0.295562  1
  Si  Si23  1  0.502086  0.910179  0.405763  1
  Si  Si24  1  0.499153  0.093876  0.594627  1
  Si  Si25  1  0.095474  0.500751  0.594627  1
  Si  Si26  1  0.903677  0.495584  0.405763  1
  Si  Si27  1  0.752724  0.752786  0.002978  1
  Si  Si28  1  0.250254  0.250192  0.002978  1
  Mo  Mo29  1  0.133725  0.133725  0.267450  1
