# generated using pymatgen
data_La8Ho12Si15Ir
_symmetry_space_group_name_H-M   'P 1'
_cell_length_a   7.59199513
_cell_length_b   7.83722613
_cell_length_c   14.90588100
_cell_angle_alpha   89.98632895
_cell_angle_beta   89.80687530
_cell_angle_gamma   90.29782162
_symmetry_Int_Tables_number   1
_chemical_formula_structural   La8Ho12Si15Ir
_chemical_formula_sum   'La8 Ho12 Si15 Ir1'
_cell_volume   886.88559284
_cell_formula_units_Z   1
loop_
 _symmetry_equiv_pos_site_id
 _symmetry_equiv_pos_as_xyz
  1  'x, y, z'
loop_
 _atom_site_type_symbol
 _atom_site_label
 _atom_site_symmetry_multiplicity
 _atom_site_fract_x
 _atom_site_fract_y
 _atom_site_fract_z
 _atom_site_occupancy
  La  La0  1  0.976889  0.815498  0.096810  1
  La  La1  1  0.476536  0.676412  0.401813  1
  La  La2  1  0.528552  0.329172  0.901357  1
  La  La3  1  0.023922  0.179480  0.598852  1
  La  La4  1  0.021034  0.182480  0.902939  1
  La  La5  1  0.525667  0.323391  0.598860  1
  La  La6  1  0.477792  0.677086  0.100915  1
  La  La7  1  0.976081  0.822449  0.400005  1
  Ho  Ho8  1  0.651334  0.995849  0.249561  1
  Ho  Ho9  1  0.151419  0.507150  0.247885  1
  Ho  Ho10  1  0.846039  0.494077  0.757869  1
  Ho  Ho11  1  0.347172  0.008851  0.751825  1
  Ho  Ho12  1  0.680073  0.813837  0.880681  1
  Ho  Ho13  1  0.176990  0.681045  0.622132  1
  Ho  Ho14  1  0.822437  0.332890  0.119819  1
  Ho  Ho15  1  0.316903  0.175653  0.375692  1
  Ho  Ho16  1  0.322137  0.176464  0.124416  1
  Ho  Ho17  1  0.820884  0.320581  0.376650  1
  Ho  Ho18  1  0.174176  0.672473  0.878856  1
  Ho  Ho19  1  0.680935  0.821829  0.622886  1
  Si  Si20  1  0.769874  0.620691  0.251707  1
  Si  Si21  1  0.272416  0.878665  0.250789  1
  Si  Si22  1  0.728836  0.115533  0.749692  1
  Si  Si23  1  0.231328  0.382746  0.746934  1
  Si  Si24  1  0.022278  0.117623  0.248427  1
  Si  Si25  1  0.526880  0.383697  0.251756  1
  Si  Si26  1  0.467473  0.617685  0.746329  1
  Si  Si27  1  0.973008  0.885952  0.748754  1
  Si  Si28  1  0.356733  0.970246  0.539342  1
  Si  Si29  1  0.642154  0.030828  0.040581  1
  Si  Si30  1  0.143881  0.468125  0.460418  1
  Si  Si31  1  0.152004  0.464937  0.042149  1
  Si  Si32  1  0.642491  0.031411  0.460240  1
  Si  Si33  1  0.356096  0.967514  0.961435  1
  Si  Si34  1  0.857051  0.532796  0.537970  1
  Ir  Ir35  1  0.860527  0.524878  0.953654  1
