# generated using pymatgen
data_Er12In3SiTc
_symmetry_space_group_name_H-M   'P 1'
_cell_length_a   8.43742180
_cell_length_b   8.43668087
_cell_length_c   8.43742210
_cell_angle_alpha   110.32144054
_cell_angle_beta   110.32219478
_cell_angle_gamma   107.78654258
_symmetry_Int_Tables_number   1
_chemical_formula_structural   Er12In3SiTc
_chemical_formula_sum   'Er12 In3 Si1 Tc1'
_cell_volume   462.02935181
_cell_formula_units_Z   1
loop_
 _symmetry_equiv_pos_site_id
 _symmetry_equiv_pos_as_xyz
  1  'x, y, z'
loop_
 _atom_site_type_symbol
 _atom_site_label
 _atom_site_symmetry_multiplicity
 _atom_site_fract_x
 _atom_site_fract_y
 _atom_site_fract_z
 _atom_site_occupancy
  Er  Er0  1  0.304908  0.304947  0.613305  1
  Er  Er1  1  0.691512  0.691519  0.386562  1
  Er  Er2  1  0.304959  0.691519  0.000007  1
  Er  Er3  1  0.691640  0.304947  0.000039  1
  Er  Er4  1  0.459919  0.206878  0.253034  1
  Er  Er5  1  0.548632  0.798387  0.750285  1
  Er  Er6  1  0.953844  0.206878  0.746959  1
  Er  Er7  1  0.206864  0.953799  0.746934  1
  Er  Er8  1  0.048102  0.798387  0.249755  1
  Er  Er9  1  0.798362  0.048143  0.249781  1
  Er  Er10  1  0.206880  0.459930  0.253050  1
  Er  Er11  1  0.798387  0.548629  0.750241  1
  In  In12  1  0.006994  0.006982  0.999987  1
  In  In13  1  0.500082  0.000162  0.500081  1
  In  In14  1  0.000056  0.500123  0.500067  1
  Si  Si15  1  0.621987  0.621952  0.999965  1
  Tc  Tc16  1  0.356871  0.356818  0.999947  1
