# generated using pymatgen
data_K2Ba(RuO4)2
_symmetry_space_group_name_H-M   'P 1'
_cell_length_a   8.10447187
_cell_length_b   8.10446376
_cell_length_c   8.10447016
_cell_angle_alpha   43.87729061
_cell_angle_beta   43.87722765
_cell_angle_gamma   43.87723807
_symmetry_Int_Tables_number   1
_chemical_formula_structural   K2Ba(RuO4)2
_chemical_formula_sum   'K2 Ba1 Ru2 O8'
_cell_volume   232.21485422
_cell_formula_units_Z   1
loop_
 _symmetry_equiv_pos_site_id
 _symmetry_equiv_pos_as_xyz
  1  'x, y, z'
loop_
 _atom_site_type_symbol
 _atom_site_label
 _atom_site_symmetry_multiplicity
 _atom_site_fract_x
 _atom_site_fract_y
 _atom_site_fract_z
 _atom_site_occupancy
  K  K0  1  0.198179  0.198178  0.198180  1
  K  K1  1  0.801821  0.801822  0.801820  1
  Ba  Ba2  1  0.000000  0.000000  0.000000  1
  Ru  Ru3  1  0.404420  0.404419  0.404425  1
  Ru  Ru4  1  0.595580  0.595581  0.595575  1
  O  O5  1  0.733151  0.733147  0.243936  1
  O  O6  1  0.756060  0.266855  0.266852  1
  O  O7  1  0.266854  0.756060  0.266850  1
  O  O8  1  0.322599  0.322598  0.322598  1
  O  O9  1  0.677401  0.677402  0.677402  1
  O  O10  1  0.733147  0.243941  0.733148  1
  O  O11  1  0.243941  0.733146  0.733146  1
  O  O12  1  0.266849  0.266853  0.756064  1
