# generated using pymatgen
data_VPd7Pt
_symmetry_space_group_name_H-M   'P 1'
_cell_length_a   6.23522130
_cell_length_b   6.23522089
_cell_length_c   6.23522071
_cell_angle_alpha   95.60643833
_cell_angle_beta   95.44549069
_cell_angle_gamma   143.84330861
_symmetry_Int_Tables_number   1
_chemical_formula_structural   VPd7Pt
_chemical_formula_sum   'V1 Pd7 Pt1'
_cell_volume   135.96173074
_cell_formula_units_Z   1
loop_
 _symmetry_equiv_pos_site_id
 _symmetry_equiv_pos_as_xyz
  1  'x, y, z'
loop_
 _atom_site_type_symbol
 _atom_site_label
 _atom_site_symmetry_multiplicity
 _atom_site_fract_x
 _atom_site_fract_y
 _atom_site_fract_z
 _atom_site_occupancy
  V  V0  1  0.003904  0.000000  0.003904  1
  Pd  Pd1  1  0.338904  0.339061  0.677965  1
  Pd  Pd2  1  0.661202  0.661933  0.323135  1
  Pd  Pd3  1  0.661202  0.338067  0.999269  1
  Pd  Pd4  1  0.338904  0.660939  0.999842  1
  Pd  Pd5  1  0.999297  0.328550  0.327847  1
  Pd  Pd6  1  0.999297  0.671450  0.670747  1
  Pd  Pd7  1  0.671656  0.000000  0.671656  1
  Pt  Pt8  1  0.325636  0.000000  0.325636  1
