# generated using pymatgen
data_Pr6Mg(SiSe7)2
_symmetry_space_group_name_H-M   'P 1'
_cell_length_a   10.74867300
_cell_length_b   10.74867336
_cell_length_c   6.03644400
_cell_angle_alpha   90.00000000
_cell_angle_beta   90.00000000
_cell_angle_gamma   120.00000197
_symmetry_Int_Tables_number   1
_chemical_formula_structural   Pr6Mg(SiSe7)2
_chemical_formula_sum   'Pr6 Mg1 Si2 Se14'
_cell_volume   603.97855011
_cell_formula_units_Z   1
loop_
 _symmetry_equiv_pos_site_id
 _symmetry_equiv_pos_as_xyz
  1  'x, y, z'
loop_
 _atom_site_type_symbol
 _atom_site_label
 _atom_site_symmetry_multiplicity
 _atom_site_fract_x
 _atom_site_fract_y
 _atom_site_fract_z
 _atom_site_occupancy
  Pr  Pr0  1  0.976915  0.433730  0.751835  1
  Pr  Pr1  1  0.456815  0.023085  0.751835  1
  Pr  Pr2  1  0.566270  0.543185  0.751835  1
  Pr  Pr3  1  0.689438  0.899574  0.248885  1
  Pr  Pr4  1  0.210136  0.310562  0.248885  1
  Pr  Pr5  1  0.100426  0.789864  0.248885  1
  Mg  Mg6  1  0.333333  0.666667  0.513315  1
  Si  Si7  1  0.666667  0.333333  0.165012  1
  Si  Si8  1  0.000000  0.000000  0.660218  1
  Se  Se9  1  0.666667  0.333333  0.538974  1
  Se  Se10  1  0.000000  0.000000  0.034651  1
  Se  Se11  1  0.083439  0.503989  0.274402  1
  Se  Se12  1  0.420550  0.916561  0.274402  1
  Se  Se13  1  0.496011  0.579450  0.274402  1
  Se  Se14  1  0.582880  0.831599  0.756381  1
  Se  Se15  1  0.248718  0.417120  0.756381  1
  Se  Se16  1  0.168401  0.751282  0.756381  1
  Se  Se17  1  0.813259  0.557626  0.014741  1
  Se  Se18  1  0.744367  0.186741  0.014741  1
  Se  Se19  1  0.442374  0.255633  0.014741  1
  Se  Se20  1  0.853222  0.775606  0.511044  1
  Se  Se21  1  0.922385  0.146778  0.511044  1
  Se  Se22  1  0.224394  0.077615  0.511044  1
