# generated using pymatgen
data_Tb5Y3Tc3B24Ru
_symmetry_space_group_name_H-M   'P 1'
_cell_length_a   3.69079800
_cell_length_b   9.17612848
_cell_length_c   11.56848115
_cell_angle_alpha   89.93597552
_cell_angle_beta   90.00000000
_cell_angle_gamma   90.00000000
_symmetry_Int_Tables_number   1
_chemical_formula_structural   Tb5Y3Tc3B24Ru
_chemical_formula_sum   'Tb5 Y3 Tc3 B24 Ru1'
_cell_volume   391.79224408
_cell_formula_units_Z   1
loop_
 _symmetry_equiv_pos_site_id
 _symmetry_equiv_pos_as_xyz
  1  'x, y, z'
loop_
 _atom_site_type_symbol
 _atom_site_label
 _atom_site_symmetry_multiplicity
 _atom_site_fract_x
 _atom_site_fract_y
 _atom_site_fract_z
 _atom_site_occupancy
  Tb  Tb0  1  0.000000  0.323769  0.414063  1
  Tb  Tb1  1  0.000000  0.674928  0.584212  1
  Tb  Tb2  1  0.000000  0.823233  0.087147  1
  Tb  Tb3  1  0.000000  0.177724  0.914379  1
  Tb  Tb4  1  0.000000  0.942415  0.370306  1
  Y  Y5  1  0.000000  0.057988  0.630755  1
  Y  Y6  1  0.000000  0.443047  0.129929  1
  Y  Y7  1  0.000000  0.557828  0.869145  1
  Tc  Tc8  1  0.000000  0.638122  0.320594  1
  Tc  Tc9  1  0.000000  0.361777  0.679949  1
  Tc  Tc10  1  0.000000  0.137958  0.178248  1
  B  B11  1  0.500000  0.553055  0.432505  1
  B  B12  1  0.500000  0.446480  0.567131  1
  B  B13  1  0.500000  0.053175  0.067083  1
  B  B14  1  0.500000  0.946031  0.932522  1
  B  B15  1  0.500000  0.747729  0.418335  1
  B  B16  1  0.500000  0.251387  0.581748  1
  B  B17  1  0.500000  0.248715  0.081469  1
  B  B18  1  0.500000  0.752022  0.918163  1
  B  B19  1  0.500000  0.791035  0.265666  1
  B  B20  1  0.500000  0.209094  0.735022  1
  B  B21  1  0.500000  0.291374  0.234483  1
  B  B22  1  0.500000  0.709812  0.765373  1
  B  B23  1  0.500000  0.631133  0.185822  1
  B  B24  1  0.500000  0.368975  0.814534  1
  B  B25  1  0.500000  0.130744  0.313669  1
  B  B26  1  0.500000  0.868756  0.686066  1
  B  B27  1  0.500000  0.982324  0.211648  1
  B  B28  1  0.500000  0.016309  0.788518  1
  B  B29  1  0.500000  0.482497  0.287992  1
  B  B30  1  0.500000  0.517206  0.711512  1
  B  B31  1  0.500000  0.602671  0.028205  1
  B  B32  1  0.500000  0.399004  0.971410  1
  B  B33  1  0.500000  0.102198  0.472130  1
  B  B34  1  0.500000  0.897757  0.529230  1
  Ru  Ru35  1  0.000000  0.861725  0.821040  1
