# generated using pymatgen
data_Tb4CdRu
_symmetry_space_group_name_H-M   'P 1'
_cell_length_a   9.67460328
_cell_length_b   9.67460294
_cell_length_c   9.67460300
_cell_angle_alpha   59.99999636
_cell_angle_beta   59.99999753
_cell_angle_gamma   59.99999916
_symmetry_Int_Tables_number   1
_chemical_formula_structural   Tb4CdRu
_chemical_formula_sum   'Tb16 Cd4 Ru4'
_cell_volume   640.30139325
_cell_formula_units_Z   4
loop_
 _symmetry_equiv_pos_site_id
 _symmetry_equiv_pos_as_xyz
  1  'x, y, z'
loop_
 _atom_site_type_symbol
 _atom_site_label
 _atom_site_symmetry_multiplicity
 _atom_site_fract_x
 _atom_site_fract_y
 _atom_site_fract_z
 _atom_site_occupancy
  Tb  Tb0  1  0.345982  0.345982  0.345982  1
  Tb  Tb1  1  0.345982  0.345982  0.962053  1
  Tb  Tb2  1  0.345982  0.962053  0.345982  1
  Tb  Tb3  1  0.962053  0.345982  0.345982  1
  Tb  Tb4  1  0.810251  0.189749  0.189749  1
  Tb  Tb5  1  0.189749  0.810251  0.810251  1
  Tb  Tb6  1  0.189749  0.810251  0.189749  1
  Tb  Tb7  1  0.810251  0.189749  0.810251  1
  Tb  Tb8  1  0.189749  0.189749  0.810251  1
  Tb  Tb9  1  0.810251  0.810251  0.189749  1
  Tb  Tb10  1  0.938105  0.561895  0.561895  1
  Tb  Tb11  1  0.561895  0.938105  0.938105  1
  Tb  Tb12  1  0.561895  0.938105  0.561895  1
  Tb  Tb13  1  0.938105  0.561895  0.938105  1
  Tb  Tb14  1  0.561895  0.561895  0.938105  1
  Tb  Tb15  1  0.938105  0.938105  0.561895  1
  Cd  Cd16  1  0.579903  0.579903  0.579903  1
  Cd  Cd17  1  0.579903  0.579903  0.260289  1
  Cd  Cd18  1  0.579903  0.260289  0.579903  1
  Cd  Cd19  1  0.260289  0.579903  0.579903  1
  Ru  Ru20  1  0.138675  0.138675  0.138675  1
  Ru  Ru21  1  0.138675  0.138675  0.583974  1
  Ru  Ru22  1  0.138675  0.583974  0.138675  1
  Ru  Ru23  1  0.583974  0.138675  0.138675  1
