# generated using pymatgen
data_Ac(CdAu2)2
_symmetry_space_group_name_H-M   'P 1'
_cell_length_a   5.94493485
_cell_length_b   5.94493533
_cell_length_c   5.94493667
_cell_angle_alpha   103.29641906
_cell_angle_beta   103.29642401
_cell_angle_gamma   122.68514023
_symmetry_Int_Tables_number   1
_chemical_formula_structural   Ac(CdAu2)2
_chemical_formula_sum   'Ac1 Cd2 Au4'
_cell_volume   155.17506044
_cell_formula_units_Z   1
loop_
 _symmetry_equiv_pos_site_id
 _symmetry_equiv_pos_as_xyz
  1  'x, y, z'
loop_
 _atom_site_type_symbol
 _atom_site_label
 _atom_site_symmetry_multiplicity
 _atom_site_fract_x
 _atom_site_fract_y
 _atom_site_fract_z
 _atom_site_occupancy
  Ac  Ac0  1  0.000000  0.000000  0.000000  1
  Cd  Cd1  1  0.250000  0.750000  0.500000  1
  Cd  Cd2  1  0.750000  0.250000  0.500000  1
  Au  Au3  1  0.304511  0.304511  0.609022  1
  Au  Au4  1  0.695489  0.695489  0.390978  1
  Au  Au5  1  0.695489  0.304511  0.000000  1
  Au  Au6  1  0.304511  0.695489  0.000000  1
