# generated using pymatgen
data_BiIr3RhPb3O14
_symmetry_space_group_name_H-M   'P 1'
_cell_length_a   7.35835127
_cell_length_b   7.34729966
_cell_length_c   7.35852868
_cell_angle_alpha   60.05047880
_cell_angle_beta   60.07670065
_cell_angle_gamma   60.04966713
_symmetry_Int_Tables_number   1
_chemical_formula_structural   BiIr3RhPb3O14
_chemical_formula_sum   'Bi1 Ir3 Rh1 Pb3 O14'
_cell_volume   281.68520335
_cell_formula_units_Z   1
loop_
 _symmetry_equiv_pos_site_id
 _symmetry_equiv_pos_as_xyz
  1  'x, y, z'
loop_
 _atom_site_type_symbol
 _atom_site_label
 _atom_site_symmetry_multiplicity
 _atom_site_fract_x
 _atom_site_fract_y
 _atom_site_fract_z
 _atom_site_occupancy
  Bi  Bi0  1  0.625000  0.125000  0.125000  1
  Ir  Ir1  1  0.125000  0.625000  0.625000  1
  Ir  Ir2  1  0.625000  0.125000  0.625000  1
  Ir  Ir3  1  0.625000  0.625000  0.625000  1
  Rh  Rh4  1  0.625000  0.625000  0.125000  1
  Pb  Pb5  1  0.125000  0.625000  0.125000  1
  Pb  Pb6  1  0.125000  0.125000  0.625000  1
  Pb  Pb7  1  0.125000  0.125000  0.125000  1
  O  O8  1  0.704728  0.705493  0.297978  1
  O  O9  1  0.296725  0.296672  0.702049  1
  O  O10  1  0.704378  0.296608  0.702405  1
  O  O11  1  0.292060  0.704697  0.298546  1
  O  O12  1  0.296725  0.704552  0.702049  1
  O  O13  1  0.704728  0.291800  0.297978  1
  O  O14  1  0.545272  0.544507  0.952022  1
  O  O15  1  0.953275  0.953328  0.547951  1
  O  O16  1  0.545622  0.953392  0.547595  1
  O  O17  1  0.957940  0.545303  0.951454  1
  O  O18  1  0.953275  0.545448  0.547951  1
  O  O19  1  0.545272  0.958200  0.952022  1
  O  O20  1  0.251187  0.249359  0.250096  1
  O  O21  1  0.998813  0.000641  0.999904  1
