# generated using pymatgen
data_Y3Ho(Lu4Bi3)4
_symmetry_space_group_name_H-M   'P 1'
_cell_length_a   8.16557259
_cell_length_b   9.39034700
_cell_length_c   11.87656685
_cell_angle_alpha   90.00000000
_cell_angle_beta   89.95658183
_cell_angle_gamma   90.00000000
_symmetry_Int_Tables_number   1
_chemical_formula_structural   Y3Ho(Lu4Bi3)4
_chemical_formula_sum   'Y3 Ho1 Lu16 Bi12'
_cell_volume   910.66590640
_cell_formula_units_Z   1
loop_
 _symmetry_equiv_pos_site_id
 _symmetry_equiv_pos_as_xyz
  1  'x, y, z'
loop_
 _atom_site_type_symbol
 _atom_site_label
 _atom_site_symmetry_multiplicity
 _atom_site_fract_x
 _atom_site_fract_y
 _atom_site_fract_z
 _atom_site_occupancy
  Y  Y0  1  0.313943  0.250000  0.217776  1
  Y  Y1  1  0.813991  0.250000  0.282180  1
  Y  Y2  1  0.686116  0.750000  0.782205  1
  Ho  Ho3  1  0.186112  0.750000  0.717551  1
  Lu  Lu4  1  0.353074  0.750000  0.218536  1
  Lu  Lu5  1  0.853267  0.750000  0.281583  1
  Lu  Lu6  1  0.646786  0.250000  0.781366  1
  Lu  Lu7  1  0.146826  0.250000  0.718576  1
  Lu  Lu8  1  0.692023  0.567323  0.060303  1
  Lu  Lu9  1  0.192144  0.932608  0.439786  1
  Lu  Lu10  1  0.307949  0.067305  0.939648  1
  Lu  Lu11  1  0.807847  0.432657  0.560357  1
  Lu  Lu12  1  0.307949  0.432695  0.939648  1
  Lu  Lu13  1  0.807847  0.067343  0.560357  1
  Lu  Lu14  1  0.692023  0.932677  0.060303  1
  Lu  Lu15  1  0.192144  0.567392  0.439786  1
  Lu  Lu16  1  0.477392  0.250000  0.489848  1
  Lu  Lu17  1  0.977423  0.250000  0.010208  1
  Lu  Lu18  1  0.522484  0.750000  0.510368  1
  Lu  Lu19  1  0.022734  0.750000  0.989530  1
  Bi  Bi20  1  0.402242  0.750000  0.959462  1
  Bi  Bi21  1  0.902784  0.750000  0.540799  1
  Bi  Bi22  1  0.597607  0.250000  0.040294  1
  Bi  Bi23  1  0.097505  0.250000  0.459701  1
  Bi  Bi24  1  0.566241  0.994443  0.326441  1
  Bi  Bi25  1  0.066144  0.505539  0.173633  1
  Bi  Bi26  1  0.433276  0.494819  0.673715  1
  Bi  Bi27  1  0.934233  0.005268  0.826125  1
  Bi  Bi28  1  0.433276  0.005181  0.673715  1
  Bi  Bi29  1  0.934233  0.494732  0.826125  1
  Bi  Bi30  1  0.566241  0.505557  0.326441  1
  Bi  Bi31  1  0.066144  0.994461  0.173633  1
