# generated using pymatgen
data_Er3TmCo3Ru5
_symmetry_space_group_name_H-M   'P 1'
_cell_length_a   5.13098796
_cell_length_b   5.11508550
_cell_length_c   8.78105102
_cell_angle_alpha   89.99999789
_cell_angle_beta   90.00669845
_cell_angle_gamma   119.89752410
_symmetry_Int_Tables_number   1
_chemical_formula_structural   Er3TmCo3Ru5
_chemical_formula_sum   'Er3 Tm1 Co3 Ru5'
_cell_volume   199.79221177
_cell_formula_units_Z   1
loop_
 _symmetry_equiv_pos_site_id
 _symmetry_equiv_pos_as_xyz
  1  'x, y, z'
loop_
 _atom_site_type_symbol
 _atom_site_label
 _atom_site_symmetry_multiplicity
 _atom_site_fract_x
 _atom_site_fract_y
 _atom_site_fract_z
 _atom_site_occupancy
  Er  Er0  1  0.664133  0.332066  0.568099  1
  Er  Er1  1  0.663855  0.331927  0.931648  1
  Er  Er2  1  0.330609  0.665305  0.064932  1
  Tm  Tm3  1  0.330370  0.665186  0.435171  1
  Co  Co4  1  0.173995  0.343050  0.749799  1
  Co  Co5  1  0.173995  0.830945  0.749799  1
  Co  Co6  1  0.339178  0.169589  0.250369  1
  Ru  Ru7  1  0.831745  0.660004  0.250268  1
  Ru  Ru8  1  0.662099  0.831050  0.749802  1
  Ru  Ru9  1  0.998956  0.999478  0.996487  1
  Ru  Ru10  1  0.831745  0.171742  0.250268  1
  Ru  Ru11  1  0.999318  0.999659  0.503358  1
