# generated using pymatgen
data_Tb2CoNi(PH2)2
_symmetry_space_group_name_H-M   'P 1'
_cell_length_a   3.93857700
_cell_length_b   3.93857834
_cell_length_c   8.02357100
_cell_angle_alpha   90.00000000
_cell_angle_beta   90.00000000
_cell_angle_gamma   119.99999711
_symmetry_Int_Tables_number   1
_chemical_formula_structural   Tb2CoNi(PH2)2
_chemical_formula_sum   'Tb2 Co1 Ni1 P2 H4'
_cell_volume   107.78967772
_cell_formula_units_Z   1
loop_
 _symmetry_equiv_pos_site_id
 _symmetry_equiv_pos_as_xyz
  1  'x, y, z'
loop_
 _atom_site_type_symbol
 _atom_site_label
 _atom_site_symmetry_multiplicity
 _atom_site_fract_x
 _atom_site_fract_y
 _atom_site_fract_z
 _atom_site_occupancy
  Tb  Tb0  1  0.000000  0.000000  0.999508  1
  Tb  Tb1  1  0.000000  0.000000  0.500492  1
  Co  Co2  1  0.666667  0.333333  0.250000  1
  Ni  Ni3  1  0.333333  0.666667  0.750000  1
  P  P4  1  0.333333  0.666667  0.250000  1
  P  P5  1  0.666667  0.333333  0.750000  1
  H  H6  1  0.333333  0.666667  0.951394  1
  H  H7  1  0.666667  0.333333  0.053175  1
  H  H8  1  0.333333  0.666667  0.548606  1
  H  H9  1  0.666667  0.333333  0.446825  1
