# generated using pymatgen
data_NaAg3(SnO3)2
_symmetry_space_group_name_H-M   'P 1'
_cell_length_a   5.55076041
_cell_length_b   5.55533155
_cell_length_c   6.64669744
_cell_angle_alpha   73.86865756
_cell_angle_beta   97.99197716
_cell_angle_gamma   120.02723634
_symmetry_Int_Tables_number   1
_chemical_formula_structural   NaAg3(SnO3)2
_chemical_formula_sum   'Na1 Ag3 Sn2 O6'
_cell_volume   170.46478621
_cell_formula_units_Z   1
loop_
 _symmetry_equiv_pos_site_id
 _symmetry_equiv_pos_as_xyz
  1  'x, y, z'
loop_
 _atom_site_type_symbol
 _atom_site_label
 _atom_site_symmetry_multiplicity
 _atom_site_fract_x
 _atom_site_fract_y
 _atom_site_fract_z
 _atom_site_occupancy
  Na  Na0  1  0.333333  0.166667  0.500000  1
  Ag  Ag1  1  0.677367  0.338682  0.000000  1
  Ag  Ag2  1  0.333333  0.666667  0.000000  1
  Ag  Ag3  1  0.989300  0.994651  0.000000  1
  Sn  Sn4  1  0.999733  0.499866  0.500000  1
  Sn  Sn5  1  0.666934  0.833467  0.500000  1
  O  O6  1  0.333333  0.742737  0.673755  1
  O  O7  1  0.969322  0.110033  0.672822  1
  O  O8  1  0.697345  0.474046  0.672822  1
  O  O9  1  0.697345  0.223300  0.327178  1
  O  O10  1  0.333333  0.590597  0.326245  1
  O  O11  1  0.969322  0.859287  0.327178  1
