# generated using pymatgen
data_Ca5La7(GaRh)8
_symmetry_space_group_name_H-M   'P 1'
_cell_length_a   5.72632604
_cell_length_b   8.15759882
_cell_length_c   14.00399894
_cell_angle_alpha   89.90429682
_cell_angle_beta   90.09952706
_cell_angle_gamma   89.88704162
_symmetry_Int_Tables_number   1
_chemical_formula_structural   Ca5La7(GaRh)8
_chemical_formula_sum   'Ca5 La7 Ga8 Rh8'
_cell_volume   654.16661653
_cell_formula_units_Z   1
loop_
 _symmetry_equiv_pos_site_id
 _symmetry_equiv_pos_as_xyz
  1  'x, y, z'
loop_
 _atom_site_type_symbol
 _atom_site_label
 _atom_site_symmetry_multiplicity
 _atom_site_fract_x
 _atom_site_fract_y
 _atom_site_fract_z
 _atom_site_occupancy
  Ca  Ca0  1  0.637861  0.256227  0.246804  1
  Ca  Ca1  1  0.360865  0.744393  0.751405  1
  Ca  Ca2  1  0.359862  0.748243  0.247779  1
  Ca  Ca3  1  0.640446  0.248117  0.749978  1
  Ca  Ca4  1  0.152955  0.399132  0.102526  1
  La  La5  1  0.852420  0.592797  0.907653  1
  La  La6  1  0.840449  0.600142  0.596070  1
  La  La7  1  0.839516  0.900360  0.402157  1
  La  La8  1  0.155390  0.399957  0.403722  1
  La  La9  1  0.160501  0.095193  0.596728  1
  La  La10  1  0.156862  0.101799  0.905901  1
  La  La11  1  0.838528  0.901118  0.096314  1
  Ga  Ga12  1  0.152337  0.097283  0.248963  1
  Ga  Ga13  1  0.847126  0.898725  0.752427  1
  Ga  Ga14  1  0.850420  0.599658  0.247535  1
  Ga  Ga15  1  0.154460  0.399453  0.748764  1
  Ga  Ga16  1  0.616810  0.254321  0.004113  1
  Ga  Ga17  1  0.370503  0.748562  0.000293  1
  Ga  Ga18  1  0.364689  0.751379  0.499232  1
  Ga  Ga19  1  0.632262  0.250416  0.499472  1
  Rh  Rh20  1  0.356387  0.029995  0.091540  1
  Rh  Rh21  1  0.646373  0.973705  0.909830  1
  Rh  Rh22  1  0.644238  0.967024  0.591816  1
  Rh  Rh23  1  0.641141  0.533026  0.408293  1
  Rh  Rh24  1  0.359303  0.035328  0.408148  1
  Rh  Rh25  1  0.357919  0.466626  0.588038  1
  Rh  Rh26  1  0.362898  0.469942  0.906842  1
  Rh  Rh27  1  0.647479  0.537078  0.087659  1
