# generated using pymatgen
data_Pr5NdNp2O14
_symmetry_space_group_name_H-M   'P 1'
_cell_length_a   6.81335332
_cell_length_b   6.81299481
_cell_length_c   8.00035000
_cell_angle_alpha   90.00000000
_cell_angle_beta   90.00000000
_cell_angle_gamma   109.79819566
_symmetry_Int_Tables_number   1
_chemical_formula_structural   Pr5NdNp2O14
_chemical_formula_sum   'Pr5 Nd1 Np2 O14'
_cell_volume   349.41976816
_cell_formula_units_Z   1
loop_
 _symmetry_equiv_pos_site_id
 _symmetry_equiv_pos_as_xyz
  1  'x, y, z'
loop_
 _atom_site_type_symbol
 _atom_site_label
 _atom_site_symmetry_multiplicity
 _atom_site_fract_x
 _atom_site_fract_y
 _atom_site_fract_z
 _atom_site_occupancy
  Pr  Pr0  1  0.499680  0.499919  0.500320  1
  Pr  Pr1  1  0.499680  0.499919  0.999680  1
  Pr  Pr2  1  0.533576  0.001821  0.750000  1
  Pr  Pr3  1  0.001847  0.533455  0.250000  1
  Pr  Pr4  1  0.466366  0.998165  0.250000  1
  Nd  Nd5  1  0.997485  0.465944  0.750000  1
  Np  Np6  1  0.000091  0.999942  0.500550  1
  Np  Np7  1  0.000091  0.999942  0.999450  1
  O  O8  1  0.674203  0.918606  0.472128  1
  O  O9  1  0.919652  0.673659  0.529478  1
  O  O10  1  0.674203  0.918606  0.027872  1
  O  O11  1  0.919652  0.673659  0.970522  1
  O  O12  1  0.326053  0.081445  0.528116  1
  O  O13  1  0.080851  0.326351  0.472954  1
  O  O14  1  0.326053  0.081445  0.971884  1
  O  O15  1  0.080851  0.326351  0.027046  1
  O  O16  1  0.916681  0.085413  0.750000  1
  O  O17  1  0.083366  0.916365  0.250000  1
  O  O18  1  0.366286  0.629941  0.750000  1
  O  O19  1  0.630797  0.368853  0.250000  1
  O  O20  1  0.635299  0.367136  0.750000  1
  O  O21  1  0.367236  0.633062  0.250000  1
