# generated using pymatgen
data_Zr6AlTc3Ru2
_symmetry_space_group_name_H-M   'P 1'
_cell_length_a   4.66409400
_cell_length_b   6.64632700
_cell_length_c   14.01045400
_cell_angle_alpha   89.99975663
_cell_angle_beta   90.00056066
_cell_angle_gamma   89.99855108
_symmetry_Int_Tables_number   1
_chemical_formula_structural   Zr6AlTc3Ru2
_chemical_formula_sum   'Zr12 Al2 Tc6 Ru4'
_cell_volume   434.31137880
_cell_formula_units_Z   2
loop_
 _symmetry_equiv_pos_site_id
 _symmetry_equiv_pos_as_xyz
  1  'x, y, z'
loop_
 _atom_site_type_symbol
 _atom_site_label
 _atom_site_symmetry_multiplicity
 _atom_site_fract_x
 _atom_site_fract_y
 _atom_site_fract_z
 _atom_site_occupancy
  Zr  Zr0  1  0.500019  0.243530  0.995217  1
  Zr  Zr1  1  0.499993  0.756472  0.995217  1
  Zr  Zr2  1  0.999968  0.256470  0.171450  1
  Zr  Zr3  1  0.999993  0.743531  0.171450  1
  Zr  Zr4  1  0.499968  0.253509  0.338190  1
  Zr  Zr5  1  0.500008  0.746491  0.338190  1
  Zr  Zr6  1  0.999990  0.249637  0.500944  1
  Zr  Zr7  1  0.000009  0.750362  0.500944  1
  Zr  Zr8  1  0.500022  0.250363  0.665723  1
  Zr  Zr9  1  0.500002  0.749638  0.665723  1
  Zr  Zr10  1  0.000037  0.246492  0.828477  1
  Zr  Zr11  1  0.999996  0.753510  0.828477  1
  Al  Al12  1  0.000004  0.500000  0.998993  1
  Al  Al13  1  0.499973  0.000000  0.167674  1
  Tc  Tc14  1  0.000009  0.000001  0.002791  1
  Tc  Tc15  1  0.499979  0.500001  0.163874  1
  Tc  Tc16  1  0.999987  0.000000  0.329392  1
  Tc  Tc17  1  0.499999  0.500000  0.500826  1
  Tc  Tc18  1  0.000012  0.000000  0.665840  1
  Tc  Tc19  1  0.500020  0.500001  0.837277  1
  Ru  Ru20  1  0.999982  0.500000  0.334568  1
  Ru  Ru21  1  0.500000  0.000001  0.499111  1
  Ru  Ru22  1  0.000010  0.499999  0.667556  1
  Ru  Ru23  1  0.500017  0.000003  0.832096  1
