# generated using pymatgen
data_CeNd4Ho3(Si3Rh)4
_symmetry_space_group_name_H-M   'P 1'
_cell_length_a   8.22546100
_cell_length_b   8.22545972
_cell_length_c   8.12871200
_cell_angle_alpha   90.00000000
_cell_angle_beta   90.00000000
_cell_angle_gamma   120.00000111
_symmetry_Int_Tables_number   1
_chemical_formula_structural   CeNd4Ho3(Si3Rh)4
_chemical_formula_sum   'Ce1 Nd4 Ho3 Si12 Rh4'
_cell_volume   476.29145651
_cell_formula_units_Z   1
loop_
 _symmetry_equiv_pos_site_id
 _symmetry_equiv_pos_as_xyz
  1  'x, y, z'
loop_
 _atom_site_type_symbol
 _atom_site_label
 _atom_site_symmetry_multiplicity
 _atom_site_fract_x
 _atom_site_fract_y
 _atom_site_fract_z
 _atom_site_occupancy
  Ce  Ce0  1  0.000000  0.000000  0.750000  1
  Nd  Nd1  1  0.000000  0.000000  0.250000  1
  Nd  Nd2  1  0.505034  0.494966  0.250000  1
  Nd  Nd3  1  0.505034  0.010068  0.250000  1
  Nd  Nd4  1  0.989932  0.494966  0.250000  1
  Ho  Ho5  1  0.492433  0.507567  0.750000  1
  Ho  Ho6  1  0.492433  0.984865  0.750000  1
  Ho  Ho7  1  0.015135  0.507567  0.750000  1
  Si  Si8  1  0.166428  0.833572  0.508539  1
  Si  Si9  1  0.166428  0.332856  0.508539  1
  Si  Si10  1  0.667144  0.833572  0.508539  1
  Si  Si11  1  0.832151  0.167849  0.505558  1
  Si  Si12  1  0.832151  0.664303  0.505558  1
  Si  Si13  1  0.335697  0.167849  0.505558  1
  Si  Si14  1  0.832151  0.167849  0.994442  1
  Si  Si15  1  0.832151  0.664303  0.994442  1
  Si  Si16  1  0.335697  0.167849  0.994442  1
  Si  Si17  1  0.166428  0.833572  0.991461  1
  Si  Si18  1  0.166428  0.332856  0.991461  1
  Si  Si19  1  0.667144  0.833572  0.991461  1
  Rh  Rh20  1  0.333333  0.666667  0.489527  1
  Rh  Rh21  1  0.666667  0.333333  0.544191  1
  Rh  Rh22  1  0.666667  0.333333  0.955809  1
  Rh  Rh23  1  0.333333  0.666667  0.010473  1
