# generated using pymatgen
data_Hf2Ga2IrPd
_symmetry_space_group_name_H-M   'P 1'
_cell_length_a   7.28439300
_cell_length_b   7.28439241
_cell_length_c   6.76304800
_cell_angle_alpha   90.00000000
_cell_angle_beta   90.00000000
_cell_angle_gamma   119.99999812
_symmetry_Int_Tables_number   1
_chemical_formula_structural   Hf2Ga2IrPd
_chemical_formula_sum   'Hf6 Ga6 Ir3 Pd3'
_cell_volume   310.78482965
_cell_formula_units_Z   3
loop_
 _symmetry_equiv_pos_site_id
 _symmetry_equiv_pos_as_xyz
  1  'x, y, z'
loop_
 _atom_site_type_symbol
 _atom_site_label
 _atom_site_symmetry_multiplicity
 _atom_site_fract_x
 _atom_site_fract_y
 _atom_site_fract_z
 _atom_site_occupancy
  Hf  Hf0  1  0.603954  0.598768  0.253951  1
  Hf  Hf1  1  0.015606  0.405201  0.745919  1
  Hf  Hf2  1  0.401232  0.005186  0.253951  1
  Hf  Hf3  1  0.994814  0.396046  0.253951  1
  Hf  Hf4  1  0.389595  0.984394  0.745919  1
  Hf  Hf5  1  0.594799  0.610405  0.745919  1
  Ga  Ga6  1  0.272607  0.268971  0.500786  1
  Ga  Ga7  1  0.731029  0.003637  0.500786  1
  Ga  Ga8  1  0.996363  0.727393  0.500786  1
  Ga  Ga9  1  0.730662  0.002776  0.000798  1
  Ga  Ga10  1  0.272115  0.269338  0.000798  1
  Ga  Ga11  1  0.997224  0.727885  0.000798  1
  Ir  Ir12  1  0.333333  0.666667  0.487766  1
  Ir  Ir13  1  0.333333  0.666667  0.013124  1
  Ir  Ir14  1  0.666667  0.333333  0.512076  1
  Pd  Pd15  1  0.000000  0.000000  0.750219  1
  Pd  Pd16  1  0.000000  0.000000  0.251392  1
  Pd  Pd17  1  0.666667  0.333333  0.981060  1
