# generated using pymatgen
data_CsRb5(In2As3)2
_symmetry_space_group_name_H-M   'P 1'
_cell_length_a   10.65917750
_cell_length_b   10.64338782
_cell_length_c   15.85014900
_cell_angle_alpha   90.09637597
_cell_angle_beta   89.90879804
_cell_angle_gamma   141.62286414
_symmetry_Int_Tables_number   1
_chemical_formula_structural   CsRb5(In2As3)2
_chemical_formula_sum   'Cs2 Rb10 In8 As12'
_cell_volume   1116.38106780
_cell_formula_units_Z   2
loop_
 _symmetry_equiv_pos_site_id
 _symmetry_equiv_pos_as_xyz
  1  'x, y, z'
loop_
 _atom_site_type_symbol
 _atom_site_label
 _atom_site_symmetry_multiplicity
 _atom_site_fract_x
 _atom_site_fract_y
 _atom_site_fract_z
 _atom_site_occupancy
  Cs  Cs0  1  0.851982  0.852700  0.356915  1
  Cs  Cs1  1  0.386844  0.070992  0.320612  1
  Rb  Rb2  1  0.610572  0.926832  0.675845  1
  Rb  Rb3  1  0.572732  0.888941  0.175225  1
  Rb  Rb4  1  0.073315  0.389264  0.324231  1
  Rb  Rb5  1  0.110561  0.426651  0.824086  1
  Rb  Rb6  1  0.651717  0.651566  0.861891  1
  Rb  Rb7  1  0.426926  0.110409  0.824487  1
  Rb  Rb8  1  0.348115  0.348743  0.137408  1
  Rb  Rb9  1  0.926494  0.610867  0.675840  1
  Rb  Rb10  1  0.152593  0.152589  0.638836  1
  Rb  Rb11  1  0.889669  0.573458  0.175524  1
  In  In12  1  0.238114  0.760125  0.501020  1
  In  In13  1  0.261087  0.738481  0.999692  1
  In  In14  1  0.739078  0.261396  0.999548  1
  In  In15  1  0.915540  0.084139  0.999879  1
  In  In16  1  0.761065  0.237719  0.500479  1
  In  In17  1  0.083954  0.915623  0.999367  1
  In  In18  1  0.415818  0.585585  0.501485  1
  In  In19  1  0.584774  0.415923  0.501352  1
  As  As20  1  0.048774  0.399539  0.093624  1
  As  As21  1  0.657682  0.658054  0.613622  1
  As  As22  1  0.400100  0.050901  0.090645  1
  As  As23  1  0.600568  0.949686  0.907168  1
  As  As24  1  0.950924  0.600168  0.906700  1
  As  As25  1  0.450694  0.100117  0.593792  1
  As  As26  1  0.547747  0.897322  0.408060  1
  As  As27  1  0.158019  0.158397  0.887843  1
  As  As28  1  0.098810  0.449148  0.594081  1
  As  As29  1  0.842906  0.842561  0.111721  1
  As  As30  1  0.343346  0.344767  0.391130  1
  As  As31  1  0.899481  0.547339  0.407888  1
