# generated using pymatgen
data_Ho5ThTcIr
_symmetry_space_group_name_H-M   'P 1'
_cell_length_a   6.33493200
_cell_length_b   7.29386900
_cell_length_c   9.35844900
_cell_angle_alpha   90.00000000
_cell_angle_beta   90.00000000
_cell_angle_gamma   90.00000000
_symmetry_Int_Tables_number   1
_chemical_formula_structural   Ho5ThTcIr
_chemical_formula_sum   'Ho10 Th2 Tc2 Ir2'
_cell_volume   432.41803051
_cell_formula_units_Z   2
loop_
 _symmetry_equiv_pos_site_id
 _symmetry_equiv_pos_as_xyz
  1  'x, y, z'
loop_
 _atom_site_type_symbol
 _atom_site_label
 _atom_site_symmetry_multiplicity
 _atom_site_fract_x
 _atom_site_fract_y
 _atom_site_fract_z
 _atom_site_occupancy
  Ho  Ho0  1  0.332181  0.676329  0.063898  1
  Ho  Ho1  1  0.167819  0.176329  0.436102  1
  Ho  Ho2  1  0.670136  0.323628  0.566306  1
  Ho  Ho3  1  0.829864  0.823628  0.933694  1
  Ho  Ho4  1  0.670136  0.323628  0.933694  1
  Ho  Ho5  1  0.829864  0.823628  0.566306  1
  Ho  Ho6  1  0.332181  0.676329  0.436102  1
  Ho  Ho7  1  0.167819  0.176329  0.063898  1
  Ho  Ho8  1  0.135996  0.460847  0.750000  1
  Ho  Ho9  1  0.364004  0.960847  0.750000  1
  Th  Th10  1  0.861248  0.548768  0.250000  1
  Th  Th11  1  0.638752  0.048768  0.250000  1
  Tc  Tc12  1  0.021449  0.872495  0.250000  1
  Tc  Tc13  1  0.478551  0.372495  0.250000  1
  Ir  Ir14  1  0.955201  0.117976  0.750000  1
  Ir  Ir15  1  0.544799  0.617976  0.750000  1
