# generated using pymatgen
data_Nd8Si12RuAu3
_symmetry_space_group_name_H-M   'P 1'
_cell_length_a   8.30730100
_cell_length_b   8.30734499
_cell_length_c   8.58357800
_cell_angle_alpha   89.99908733
_cell_angle_beta   90.00079430
_cell_angle_gamma   119.99885228
_symmetry_Int_Tables_number   1
_chemical_formula_structural   Nd8Si12RuAu3
_chemical_formula_sum   'Nd8 Si12 Ru1 Au3'
_cell_volume   513.01044207
_cell_formula_units_Z   1
loop_
 _symmetry_equiv_pos_site_id
 _symmetry_equiv_pos_as_xyz
  1  'x, y, z'
loop_
 _atom_site_type_symbol
 _atom_site_label
 _atom_site_symmetry_multiplicity
 _atom_site_fract_x
 _atom_site_fract_y
 _atom_site_fract_z
 _atom_site_occupancy
  Nd  Nd0  1  0.999984  0.000015  0.750616  1
  Nd  Nd1  1  0.000003  0.999998  0.249431  1
  Nd  Nd2  1  0.496123  0.503874  0.756704  1
  Nd  Nd3  1  0.496091  0.992199  0.756692  1
  Nd  Nd4  1  0.007804  0.503911  0.756690  1
  Nd  Nd5  1  0.497533  0.502467  0.243341  1
  Nd  Nd6  1  0.004839  0.502405  0.243320  1
  Nd  Nd7  1  0.497594  0.995162  0.243321  1
  Si  Si8  1  0.838794  0.161202  0.999194  1
  Si  Si9  1  0.838805  0.677596  0.999245  1
  Si  Si10  1  0.322402  0.161193  0.999246  1
  Si  Si11  1  0.836650  0.163348  0.500562  1
  Si  Si12  1  0.836670  0.673314  0.500623  1
  Si  Si13  1  0.326686  0.163328  0.500623  1
  Si  Si14  1  0.163001  0.836999  0.499430  1
  Si  Si15  1  0.674031  0.837008  0.499430  1
  Si  Si16  1  0.162992  0.325970  0.499430  1
  Si  Si17  1  0.169444  0.830561  0.001103  1
  Si  Si18  1  0.661110  0.830559  0.001055  1
  Si  Si19  1  0.169443  0.338888  0.001054  1
  Ru  Ru20  1  0.333359  0.666639  0.001529  1
  Au  Au21  1  0.666658  0.333343  0.997536  1
  Au  Au22  1  0.666658  0.333342  0.502151  1
  Au  Au23  1  0.333326  0.666676  0.497672  1
