# generated using pymatgen
data_La2CoNi(P2Rh)2
_symmetry_space_group_name_H-M   'P 1'
_cell_length_a   4.10978500
_cell_length_b   4.10978500
_cell_length_c   9.51546500
_cell_angle_alpha   90.00000000
_cell_angle_beta   90.00000000
_cell_angle_gamma   90.00000000
_symmetry_Int_Tables_number   1
_chemical_formula_structural   La2CoNi(P2Rh)2
_chemical_formula_sum   'La2 Co1 Ni1 P4 Rh2'
_cell_volume   160.71937009
_cell_formula_units_Z   1
loop_
 _symmetry_equiv_pos_site_id
 _symmetry_equiv_pos_as_xyz
  1  'x, y, z'
loop_
 _atom_site_type_symbol
 _atom_site_label
 _atom_site_symmetry_multiplicity
 _atom_site_fract_x
 _atom_site_fract_y
 _atom_site_fract_z
 _atom_site_occupancy
  La  La0  1  0.000000  0.500000  0.260868  1
  La  La1  1  0.500000  0.000000  0.735045  1
  Co  Co2  1  0.500000  0.000000  0.394112  1
  Ni  Ni3  1  0.000000  0.500000  0.608343  1
  P  P4  1  0.000000  0.000000  0.498211  1
  P  P5  1  0.500000  0.500000  0.498211  1
  P  P6  1  0.000000  0.500000  0.857493  1
  P  P7  1  0.500000  0.000000  0.148529  1
  Rh  Rh8  1  0.000000  0.000000  0.999594  1
  Rh  Rh9  1  0.500000  0.500000  0.999594  1
