# generated using pymatgen
data_La4CdHgPtAu3
_symmetry_space_group_name_H-M   'P 1'
_cell_length_a   8.21859029
_cell_length_b   8.22335170
_cell_length_c   3.94656600
_cell_angle_alpha   90.00000000
_cell_angle_beta   90.00000000
_cell_angle_gamma   90.28604813
_symmetry_Int_Tables_number   1
_chemical_formula_structural   La4CdHgPtAu3
_chemical_formula_sum   'La4 Cd1 Hg1 Pt1 Au3'
_cell_volume   266.72280706
_cell_formula_units_Z   1
loop_
 _symmetry_equiv_pos_site_id
 _symmetry_equiv_pos_as_xyz
  1  'x, y, z'
loop_
 _atom_site_type_symbol
 _atom_site_label
 _atom_site_symmetry_multiplicity
 _atom_site_fract_x
 _atom_site_fract_y
 _atom_site_fract_z
 _atom_site_occupancy
  La  La0  1  0.672664  0.171298  0.500000  1
  La  La1  1  0.315732  0.817407  0.500000  1
  La  La2  1  0.175942  0.338075  0.500000  1
  La  La3  1  0.839240  0.677352  0.500000  1
  Cd  Cd4  1  0.500003  0.500714  0.000000  1
  Hg  Hg5  1  0.000550  0.999770  0.000000  1
  Pt  Pt6  1  0.126190  0.623708  0.000000  1
  Au  Au7  1  0.872492  0.374605  0.000000  1
  Au  Au8  1  0.623903  0.871032  0.000000  1
  Au  Au9  1  0.373284  0.126042  0.000000  1
