# generated using pymatgen
data_LiPr6Co17P12
_symmetry_space_group_name_H-M   'P 1'
_cell_length_a   3.79248600
_cell_length_b   10.69146700
_cell_length_c   12.47478300
_cell_angle_alpha   90.00000000
_cell_angle_beta   90.00000000
_cell_angle_gamma   90.00000000
_symmetry_Int_Tables_number   1
_chemical_formula_structural   LiPr6Co17P12
_chemical_formula_sum   'Li1 Pr6 Co17 P12'
_cell_volume   505.81800674
_cell_formula_units_Z   1
loop_
 _symmetry_equiv_pos_site_id
 _symmetry_equiv_pos_as_xyz
  1  'x, y, z'
loop_
 _atom_site_type_symbol
 _atom_site_label
 _atom_site_symmetry_multiplicity
 _atom_site_fract_x
 _atom_site_fract_y
 _atom_site_fract_z
 _atom_site_occupancy
  Li  Li0  1  0.500000  0.500000  0.149204  1
  Pr  Pr1  1  0.000000  0.500000  0.522474  1
  Pr  Pr2  1  0.500000  0.000000  0.479546  1
  Pr  Pr3  1  0.500000  0.818390  0.206652  1
  Pr  Pr4  1  0.500000  0.181610  0.206652  1
  Pr  Pr5  1  0.000000  0.682881  0.794163  1
  Pr  Pr6  1  0.000000  0.317119  0.794163  1
  Co  Co7  1  0.000000  0.000000  0.842709  1
  Co  Co8  1  0.500000  0.500000  0.705749  1
  Co  Co9  1  0.000000  0.000000  0.294618  1
  Co  Co10  1  0.000000  0.500000  0.986725  1
  Co  Co11  1  0.500000  0.000000  0.011081  1
  Co  Co12  1  0.500000  0.330922  0.995593  1
  Co  Co13  1  0.500000  0.669078  0.995593  1
  Co  Co14  1  0.000000  0.164315  0.001867  1
  Co  Co15  1  0.000000  0.835685  0.001867  1
  Co  Co16  1  0.500000  0.296406  0.431773  1
  Co  Co17  1  0.500000  0.703594  0.431773  1
  Co  Co18  1  0.000000  0.201960  0.570845  1
  Co  Co19  1  0.000000  0.798040  0.570845  1
  Co  Co20  1  0.500000  0.882475  0.710884  1
  Co  Co21  1  0.500000  0.117525  0.710884  1
  Co  Co22  1  0.000000  0.619845  0.293408  1
  Co  Co23  1  0.000000  0.380155  0.293408  1
  P  P24  1  0.500000  0.500000  0.888419  1
  P  P25  1  0.000000  0.000000  0.112384  1
  P  P26  1  0.500000  0.500000  0.340884  1
  P  P27  1  0.000000  0.000000  0.661578  1
  P  P28  1  0.500000  0.303862  0.614189  1
  P  P29  1  0.500000  0.696138  0.614189  1
  P  P30  1  0.000000  0.195274  0.387652  1
  P  P31  1  0.000000  0.804726  0.387652  1
  P  P32  1  0.500000  0.849568  0.894624  1
  P  P33  1  0.500000  0.150432  0.894624  1
  P  P34  1  0.000000  0.656086  0.100666  1
  P  P35  1  0.000000  0.343914  0.100666  1
