# generated using pymatgen
data_Pr10Si2Br15
_symmetry_space_group_name_H-M   'P 1'
_cell_length_a   9.64934339
_cell_length_b   10.40655659
_cell_length_c   11.32310348
_cell_angle_alpha   90.74448275
_cell_angle_beta   114.76205740
_cell_angle_gamma   110.95310123
_symmetry_Int_Tables_number   1
_chemical_formula_structural   Pr10Si2Br15
_chemical_formula_sum   'Pr10 Si2 Br15'
_cell_volume   946.27760871
_cell_formula_units_Z   1
loop_
 _symmetry_equiv_pos_site_id
 _symmetry_equiv_pos_as_xyz
  1  'x, y, z'
loop_
 _atom_site_type_symbol
 _atom_site_label
 _atom_site_symmetry_multiplicity
 _atom_site_fract_x
 _atom_site_fract_y
 _atom_site_fract_z
 _atom_site_occupancy
  Pr  Pr0  1  0.814563  0.420588  0.281935  1
  Pr  Pr1  1  0.185437  0.579412  0.718065  1
  Pr  Pr2  1  0.684741  0.743473  0.819964  1
  Pr  Pr3  1  0.315259  0.256527  0.180036  1
  Pr  Pr4  1  0.527771  0.694867  0.104604  1
  Pr  Pr5  1  0.472229  0.305133  0.895396  1
  Pr  Pr6  1  0.591349  0.039277  0.339753  1
  Pr  Pr7  1  0.408651  0.960723  0.660247  1
  Pr  Pr8  1  0.744922  0.082409  0.053116  1
  Pr  Pr9  1  0.255078  0.917591  0.946884  1
  Si  Si10  1  0.468008  0.824748  0.880194  1
  Si  Si11  1  0.531992  0.175252  0.119806  1
  Br  Br12  1  0.000000  0.000000  0.000000  1
  Br  Br13  1  0.636758  0.881843  0.585320  1
  Br  Br14  1  0.363242  0.118157  0.414680  1
  Br  Br15  1  0.884602  0.299624  0.527257  1
  Br  Br16  1  0.115398  0.700376  0.472743  1
  Br  Br17  1  0.298199  0.764705  0.182903  1
  Br  Br18  1  0.701801  0.235295  0.817097  1
  Br  Br19  1  0.060429  0.347719  0.230006  1
  Br  Br20  1  0.170547  0.059569  0.703829  1
  Br  Br21  1  0.829453  0.940431  0.296171  1
  Br  Br22  1  0.236098  0.411319  0.945206  1
  Br  Br23  1  0.763902  0.588681  0.054794  1
  Br  Br24  1  0.406139  0.468198  0.657602  1
  Br  Br25  1  0.593861  0.531802  0.342398  1
  Br  Br26  1  0.939571  0.652281  0.769994  1
