# generated using pymatgen
data_Ba8As5I
_symmetry_space_group_name_H-M   'P 1'
_cell_length_a   8.82486386
_cell_length_b   8.82488618
_cell_length_c   8.82486877
_cell_angle_alpha   109.27741240
_cell_angle_beta   109.27740144
_cell_angle_gamma   109.85964436
_symmetry_Int_Tables_number   1
_chemical_formula_structural   Ba8As5I
_chemical_formula_sum   'Ba8 As5 I1'
_cell_volume   529.03937260
_cell_formula_units_Z   1
loop_
 _symmetry_equiv_pos_site_id
 _symmetry_equiv_pos_as_xyz
  1  'x, y, z'
loop_
 _atom_site_type_symbol
 _atom_site_label
 _atom_site_symmetry_multiplicity
 _atom_site_fract_x
 _atom_site_fract_y
 _atom_site_fract_z
 _atom_site_occupancy
  Ba  Ba0  1  0.734819  0.366263  0.242893  1
  Ba  Ba1  1  0.980051  0.737851  0.090850  1
  Ba  Ba2  1  0.647002  0.889202  0.909153  1
  Ba  Ba3  1  0.123371  0.491925  0.757107  1
  Ba  Ba4  1  0.633737  0.876630  0.368556  1
  Ba  Ba5  1  0.508070  0.265179  0.631440  1
  Ba  Ba6  1  0.262152  0.353001  0.242201  1
  Ba  Ba7  1  0.110799  0.019950  0.757799  1
  As  As8  1  0.746625  0.632084  0.624502  1
  As  As9  1  0.367916  0.992417  0.114541  1
  As  As10  1  0.007583  0.122124  0.375498  1
  As  As11  1  0.500000  0.499999  0.000000  1
  As  As12  1  0.877876  0.253375  0.885459  1
  I  I13  1  0.250000  0.750000  0.500000  1
