# generated using pymatgen
data_Pr7Nd9Cd3InIr4
_symmetry_space_group_name_H-M   'P 1'
_cell_length_a   9.99728015
_cell_length_b   9.99727340
_cell_length_c   9.99995061
_cell_angle_alpha   60.10473524
_cell_angle_beta   60.10457142
_cell_angle_gamma   60.13721578
_symmetry_Int_Tables_number   1
_chemical_formula_structural   Pr7Nd9Cd3InIr4
_chemical_formula_sum   'Pr7 Nd9 Cd3 In1 Ir4'
_cell_volume   708.56750104
_cell_formula_units_Z   1
loop_
 _symmetry_equiv_pos_site_id
 _symmetry_equiv_pos_as_xyz
  1  'x, y, z'
loop_
 _atom_site_type_symbol
 _atom_site_label
 _atom_site_symmetry_multiplicity
 _atom_site_fract_x
 _atom_site_fract_y
 _atom_site_fract_z
 _atom_site_occupancy
  Pr  Pr0  1  0.808116  0.808116  0.189909  1
  Pr  Pr1  1  0.942402  0.560540  0.561027  1
  Pr  Pr2  1  0.559545  0.940249  0.939756  1
  Pr  Pr3  1  0.560539  0.942402  0.561027  1
  Pr  Pr4  1  0.940248  0.559546  0.939756  1
  Pr  Pr5  1  0.560747  0.560747  0.942165  1
  Pr  Pr6  1  0.939846  0.939846  0.559941  1
  Nd  Nd7  1  0.347531  0.347531  0.347458  1
  Nd  Nd8  1  0.349271  0.349271  0.953983  1
  Nd  Nd9  1  0.348780  0.954308  0.349465  1
  Nd  Nd10  1  0.954308  0.348781  0.349465  1
  Nd  Nd11  1  0.809925  0.189755  0.189152  1
  Nd  Nd12  1  0.190479  0.808067  0.807878  1
  Nd  Nd13  1  0.189754  0.809925  0.189152  1
  Nd  Nd14  1  0.808068  0.190479  0.807878  1
  Nd  Nd15  1  0.189232  0.189233  0.810105  1
  Cd  Cd16  1  0.578890  0.578891  0.260864  1
  Cd  Cd17  1  0.579069  0.260773  0.579090  1
  Cd  Cd18  1  0.260773  0.579069  0.579091  1
  In  In19  1  0.579979  0.579978  0.580476  1
  Ir  Ir20  1  0.141571  0.141572  0.141895  1
  Ir  Ir21  1  0.142408  0.142408  0.575743  1
  Ir  Ir22  1  0.143427  0.575085  0.142361  1
  Ir  Ir23  1  0.575085  0.143427  0.142361  1
