# generated using pymatgen
data_Ac4BeVN6
_symmetry_space_group_name_H-M   'P 1'
_cell_length_a   6.66188829
_cell_length_b   6.66188790
_cell_length_c   12.03595300
_cell_angle_alpha   86.46181497
_cell_angle_beta   93.53818482
_cell_angle_gamma   130.70646574
_symmetry_Int_Tables_number   1
_chemical_formula_structural   Ac4BeVN6
_chemical_formula_sum   'Ac8 Be2 V2 N12'
_cell_volume   403.99474232
_cell_formula_units_Z   2
loop_
 _symmetry_equiv_pos_site_id
 _symmetry_equiv_pos_as_xyz
  1  'x, y, z'
loop_
 _atom_site_type_symbol
 _atom_site_label
 _atom_site_symmetry_multiplicity
 _atom_site_fract_x
 _atom_site_fract_y
 _atom_site_fract_z
 _atom_site_occupancy
  Ac  Ac0  1  0.054418  0.945582  0.860281  1
  Ac  Ac1  1  0.945582  0.054418  0.139719  1
  Ac  Ac2  1  0.421464  0.578536  0.336176  1
  Ac  Ac3  1  0.578536  0.421464  0.663824  1
  Ac  Ac4  1  0.647680  0.352320  0.066800  1
  Ac  Ac5  1  0.352320  0.647680  0.933200  1
  Ac  Ac6  1  0.864305  0.135695  0.579648  1
  Ac  Ac7  1  0.135695  0.864305  0.420352  1
  Be  Be8  1  0.788797  0.211203  0.829763  1
  Be  Be9  1  0.211203  0.788797  0.170237  1
  V  V10  1  0.760567  0.239433  0.333561  1
  V  V11  1  0.239433  0.760567  0.666439  1
  N  N12  1  0.539726  0.460274  0.867019  1
  N  N13  1  0.460274  0.539726  0.132981  1
  N  N14  1  0.918766  0.081234  0.371856  1
  N  N15  1  0.081234  0.918766  0.628144  1
  N  N16  1  0.529574  0.003439  0.754881  1
  N  N17  1  0.003439  0.529574  0.245119  1
  N  N18  1  0.470426  0.996561  0.245119  1
  N  N19  1  0.996561  0.470426  0.754881  1
  N  N20  1  0.860991  0.139009  0.950815  1
  N  N21  1  0.139009  0.860991  0.049185  1
  N  N22  1  0.669531  0.330469  0.455588  1
  N  N23  1  0.330469  0.669531  0.544412  1
