# generated using pymatgen
data_Ho3Tm(Sc4Bi3)4
_symmetry_space_group_name_H-M   'P 1'
_cell_length_a   7.87491904
_cell_length_b   9.05124800
_cell_length_c   11.54125306
_cell_angle_alpha   90.00000000
_cell_angle_beta   89.98855001
_cell_angle_gamma   90.00000000
_symmetry_Int_Tables_number   1
_chemical_formula_structural   Ho3Tm(Sc4Bi3)4
_chemical_formula_sum   'Ho3 Tm1 Sc16 Bi12'
_cell_volume   822.63563248
_cell_formula_units_Z   1
loop_
 _symmetry_equiv_pos_site_id
 _symmetry_equiv_pos_as_xyz
  1  'x, y, z'
loop_
 _atom_site_type_symbol
 _atom_site_label
 _atom_site_symmetry_multiplicity
 _atom_site_fract_x
 _atom_site_fract_y
 _atom_site_fract_z
 _atom_site_occupancy
  Ho  Ho0  1  0.184565  0.250000  0.781345  1
  Ho  Ho1  1  0.815476  0.750000  0.218676  1
  Ho  Ho2  1  0.315469  0.750000  0.281284  1
  Tm  Tm3  1  0.684772  0.250000  0.718383  1
  Sc  Sc4  1  0.019056  0.250000  0.511316  1
  Sc  Sc5  1  0.980707  0.750000  0.488935  1
  Sc  Sc6  1  0.480880  0.750000  0.011093  1
  Sc  Sc7  1  0.519393  0.250000  0.988694  1
  Sc  Sc8  1  0.351026  0.250000  0.280026  1
  Sc  Sc9  1  0.649042  0.750000  0.720007  1
  Sc  Sc10  1  0.148941  0.750000  0.779933  1
  Sc  Sc11  1  0.850916  0.250000  0.219975  1
  Sc  Sc12  1  0.193793  0.067429  0.062119  1
  Sc  Sc13  1  0.806179  0.932585  0.937801  1
  Sc  Sc14  1  0.306048  0.932565  0.562139  1
  Sc  Sc15  1  0.806179  0.567415  0.937801  1
  Sc  Sc16  1  0.693870  0.067402  0.437989  1
  Sc  Sc17  1  0.193793  0.432571  0.062119  1
  Sc  Sc18  1  0.693870  0.432598  0.437989  1
  Sc  Sc19  1  0.306048  0.567435  0.562139  1
  Bi  Bi20  1  0.403363  0.250000  0.534497  1
  Bi  Bi21  1  0.597153  0.750000  0.465996  1
  Bi  Bi22  1  0.097239  0.750000  0.034007  1
  Bi  Bi23  1  0.902526  0.250000  0.965761  1
  Bi  Bi24  1  0.064753  0.009506  0.328282  1
  Bi  Bi25  1  0.934702  0.991017  0.671877  1
  Bi  Bi26  1  0.435686  0.990891  0.828064  1
  Bi  Bi27  1  0.934702  0.508983  0.671877  1
  Bi  Bi28  1  0.564707  0.009485  0.171764  1
  Bi  Bi29  1  0.064753  0.490494  0.328282  1
  Bi  Bi30  1  0.564707  0.490515  0.171764  1
  Bi  Bi31  1  0.435686  0.509109  0.828064  1
