# generated using pymatgen
data_Er3Tm4CoBr12
_symmetry_space_group_name_H-M   'P 1'
_cell_length_a   9.14532808
_cell_length_b   9.14532839
_cell_length_c   9.14532944
_cell_angle_alpha   106.72318679
_cell_angle_beta   106.72319414
_cell_angle_gamma   106.72319883
_symmetry_Int_Tables_number   1
_chemical_formula_structural   Er3Tm4CoBr12
_chemical_formula_sum   'Er3 Tm4 Co1 Br12'
_cell_volume   641.75546365
_cell_formula_units_Z   1
loop_
 _symmetry_equiv_pos_site_id
 _symmetry_equiv_pos_as_xyz
  1  'x, y, z'
loop_
 _atom_site_type_symbol
 _atom_site_label
 _atom_site_symmetry_multiplicity
 _atom_site_fract_x
 _atom_site_fract_y
 _atom_site_fract_z
 _atom_site_occupancy
  Er  Er0  1  0.298355  0.095421  0.019973  1
  Er  Er1  1  0.095421  0.019973  0.298355  1
  Er  Er2  1  0.019973  0.298355  0.095421  1
  Tm  Tm3  1  0.703205  0.904348  0.979695  1
  Tm  Tm4  1  0.904348  0.979695  0.703205  1
  Tm  Tm5  1  0.979695  0.703205  0.904348  1
  Tm  Tm6  1  0.499873  0.499873  0.499873  1
  Co  Co7  1  0.000267  0.000267  0.000267  1
  Br  Br8  1  0.218536  0.069319  0.674632  1
  Br  Br9  1  0.069319  0.674632  0.218536  1
  Br  Br10  1  0.674632  0.218536  0.069319  1
  Br  Br11  1  0.779547  0.930519  0.325335  1
  Br  Br12  1  0.930519  0.325335  0.779547  1
  Br  Br13  1  0.325335  0.779547  0.930519  1
  Br  Br14  1  0.386995  0.461201  0.169094  1
  Br  Br15  1  0.461201  0.169094  0.386995  1
  Br  Br16  1  0.169094  0.386995  0.461201  1
  Br  Br17  1  0.613353  0.539393  0.830939  1
  Br  Br18  1  0.539393  0.830939  0.613353  1
  Br  Br19  1  0.830939  0.613353  0.539393  1
