# generated using pymatgen
data_HfNb3Fe3Co5P6
_symmetry_space_group_name_H-M   'P 1'
_cell_length_a   11.92340900
_cell_length_b   11.92340917
_cell_length_c   3.63215000
_cell_angle_alpha   90.00000000
_cell_angle_beta   90.00000000
_cell_angle_gamma   120.00000231
_symmetry_Int_Tables_number   1
_chemical_formula_structural   HfNb3Fe3Co5P6
_chemical_formula_sum   'Hf2 Nb6 Fe6 Co10 P12'
_cell_volume   447.19329816
_cell_formula_units_Z   2
loop_
 _symmetry_equiv_pos_site_id
 _symmetry_equiv_pos_as_xyz
  1  'x, y, z'
loop_
 _atom_site_type_symbol
 _atom_site_label
 _atom_site_symmetry_multiplicity
 _atom_site_fract_x
 _atom_site_fract_y
 _atom_site_fract_z
 _atom_site_occupancy
  Hf  Hf0  1  0.333333  0.666667  0.000000  1
  Hf  Hf1  1  0.666667  0.333333  0.000000  1
  Nb  Nb2  1  0.821579  0.999255  0.500000  1
  Nb  Nb3  1  0.000745  0.822324  0.500000  1
  Nb  Nb4  1  0.177676  0.178421  0.500000  1
  Nb  Nb5  1  0.445465  0.999859  0.000000  1
  Nb  Nb6  1  0.000141  0.445606  0.000000  1
  Nb  Nb7  1  0.554394  0.554535  0.000000  1
  Fe  Fe8  1  0.277195  0.002812  0.500000  1
  Fe  Fe9  1  0.997188  0.274384  0.500000  1
  Fe  Fe10  1  0.725616  0.722805  0.500000  1
  Fe  Fe11  1  0.630147  0.807576  0.000000  1
  Fe  Fe12  1  0.192424  0.822572  0.000000  1
  Fe  Fe13  1  0.177428  0.369853  0.000000  1
  Co  Co14  1  0.369987  0.179628  0.000000  1
  Co  Co15  1  0.809641  0.630013  0.000000  1
  Co  Co16  1  0.820372  0.190359  0.000000  1
  Co  Co17  1  0.515240  0.871672  0.500000  1
  Co  Co18  1  0.128328  0.643568  0.500000  1
  Co  Co19  1  0.356432  0.484760  0.500000  1
  Co  Co20  1  0.484379  0.353998  0.500000  1
  Co  Co21  1  0.869619  0.515621  0.500000  1
  Co  Co22  1  0.646002  0.130381  0.500000  1
  Co  Co23  1  0.000000  0.000000  0.000000  1
  P  P24  1  0.174480  0.998678  0.000000  1
  P  P25  1  0.001322  0.175802  0.000000  1
  P  P26  1  0.824198  0.825520  0.000000  1
  P  P27  1  0.522110  0.692038  0.500000  1
  P  P28  1  0.307962  0.830071  0.500000  1
  P  P29  1  0.169929  0.477890  0.500000  1
  P  P30  1  0.480349  0.169598  0.500000  1
  P  P31  1  0.689248  0.519651  0.500000  1
  P  P32  1  0.830402  0.310752  0.500000  1
  P  P33  1  0.649113  0.998206  0.000000  1
  P  P34  1  0.001794  0.650907  0.000000  1
  P  P35  1  0.349093  0.350887  0.000000  1
