# generated using pymatgen
data_Y3ErMn2(Co2Si5)2
_symmetry_space_group_name_H-M   'P 1'
_cell_length_a   5.44658708
_cell_length_b   7.98955233
_cell_length_c   7.99119604
_cell_angle_alpha   72.96974551
_cell_angle_beta   70.07518412
_cell_angle_gamma   70.07091264
_symmetry_Int_Tables_number   1
_chemical_formula_structural   Y3ErMn2(Co2Si5)2
_chemical_formula_sum   'Y3 Er1 Mn2 Co4 Si10'
_cell_volume   301.14344000
_cell_formula_units_Z   1
loop_
 _symmetry_equiv_pos_site_id
 _symmetry_equiv_pos_as_xyz
  1  'x, y, z'
loop_
 _atom_site_type_symbol
 _atom_site_label
 _atom_site_symmetry_multiplicity
 _atom_site_fract_x
 _atom_site_fract_y
 _atom_site_fract_z
 _atom_site_occupancy
  Y  Y0  1  0.364522  0.868275  0.402682  1
  Y  Y1  1  0.635416  0.131816  0.597353  1
  Y  Y2  1  0.864518  0.402684  0.868281  1
  Er  Er3  1  0.135538  0.597131  0.131793  1
  Mn  Mn4  1  0.750218  0.999737  0.000053  1
  Mn  Mn5  1  0.249992  0.999737  0.000053  1
  Co  Co6  1  0.140927  0.261557  0.456588  1
  Co  Co7  1  0.859057  0.738710  0.543177  1
  Co  Co8  1  0.640911  0.457305  0.260873  1
  Co  Co9  1  0.358803  0.543215  0.739180  1
  Si  Si10  1  0.750312  0.500128  0.499618  1
  Si  Si11  1  0.249941  0.500128  0.499618  1
  Si  Si12  1  0.531679  0.218376  0.218042  1
  Si  Si13  1  0.968289  0.781758  0.782232  1
  Si  Si14  1  0.467722  0.781758  0.782232  1
  Si  Si15  1  0.031902  0.218376  0.218042  1
  Si  Si16  1  0.099004  0.069092  0.732901  1
  Si  Si17  1  0.901364  0.930391  0.266881  1
  Si  Si18  1  0.599049  0.732580  0.069323  1
  Si  Si19  1  0.400838  0.267246  0.931077  1
