# generated using pymatgen
data_Lu8Sc12Si15P
_symmetry_space_group_name_H-M   'P 1'
_cell_length_a   7.01958107
_cell_length_b   7.30221128
_cell_length_c   13.84413500
_cell_angle_alpha   90.00000000
_cell_angle_beta   90.00000000
_cell_angle_gamma   90.06699929
_symmetry_Int_Tables_number   1
_chemical_formula_structural   Lu8Sc12Si15P
_chemical_formula_sum   'Lu8 Sc12 Si15 P1'
_cell_volume   709.62861114
_cell_formula_units_Z   1
loop_
 _symmetry_equiv_pos_site_id
 _symmetry_equiv_pos_as_xyz
  1  'x, y, z'
loop_
 _atom_site_type_symbol
 _atom_site_label
 _atom_site_symmetry_multiplicity
 _atom_site_fract_x
 _atom_site_fract_y
 _atom_site_fract_z
 _atom_site_occupancy
  Lu  Lu0  1  0.010679  0.176056  0.095962  1
  Lu  Lu1  1  0.990129  0.825264  0.901193  1
  Lu  Lu2  1  0.489160  0.676774  0.904147  1
  Lu  Lu3  1  0.990129  0.825264  0.598807  1
  Lu  Lu4  1  0.511585  0.323276  0.095691  1
  Lu  Lu5  1  0.010679  0.176056  0.404038  1
  Lu  Lu6  1  0.511585  0.323276  0.404309  1
  Lu  Lu7  1  0.489160  0.676774  0.595853  1
  Sc  Sc8  1  0.160008  0.503098  0.750000  1
  Sc  Sc9  1  0.838590  0.496194  0.250000  1
  Sc  Sc10  1  0.338881  0.003689  0.250000  1
  Sc  Sc11  1  0.662886  0.998228  0.750000  1
  Sc  Sc12  1  0.327675  0.174171  0.626921  1
  Sc  Sc13  1  0.668017  0.823057  0.375631  1
  Sc  Sc14  1  0.168161  0.677587  0.375368  1
  Sc  Sc15  1  0.668017  0.823057  0.124369  1
  Sc  Sc16  1  0.832728  0.321992  0.626075  1
  Sc  Sc17  1  0.327675  0.174171  0.873079  1
  Sc  Sc18  1  0.832728  0.321992  0.873925  1
  Sc  Sc19  1  0.168161  0.677587  0.124632  1
  Si  Si20  1  0.965294  0.886542  0.250000  1
  Si  Si21  1  0.466391  0.612641  0.250000  1
  Si  Si22  1  0.531612  0.385529  0.750000  1
  Si  Si23  1  0.293905  0.862421  0.750000  1
  Si  Si24  1  0.714887  0.128939  0.250000  1
  Si  Si25  1  0.215261  0.370707  0.250000  1
  Si  Si26  1  0.786289  0.631093  0.750000  1
  Si  Si27  1  0.159944  0.464556  0.539837  1
  Si  Si28  1  0.840101  0.534626  0.461276  1
  Si  Si29  1  0.338324  0.965949  0.460736  1
  Si  Si30  1  0.840101  0.534626  0.038724  1
  Si  Si31  1  0.661590  0.035745  0.540131  1
  Si  Si32  1  0.159944  0.464556  0.960163  1
  Si  Si33  1  0.661590  0.035745  0.959869  1
  Si  Si34  1  0.338324  0.965949  0.039264  1
  P  P35  1  0.029809  0.122813  0.750000  1
