# generated using pymatgen
data_Er16Cd3InPd4
_symmetry_space_group_name_H-M   'P 1'
_cell_length_a   9.61883970
_cell_length_b   9.61883902
_cell_length_c   9.61883971
_cell_angle_alpha   60.15206099
_cell_angle_beta   60.15206689
_cell_angle_gamma   60.15205912
_symmetry_Int_Tables_number   1
_chemical_formula_structural   Er16Cd3InPd4
_chemical_formula_sum   'Er16 Cd3 In1 Pd4'
_cell_volume   631.46067473
_cell_formula_units_Z   1
loop_
 _symmetry_equiv_pos_site_id
 _symmetry_equiv_pos_as_xyz
  1  'x, y, z'
loop_
 _atom_site_type_symbol
 _atom_site_label
 _atom_site_symmetry_multiplicity
 _atom_site_fract_x
 _atom_site_fract_y
 _atom_site_fract_z
 _atom_site_occupancy
  Er  Er0  1  0.350473  0.350473  0.350473  1
  Er  Er1  1  0.356660  0.356660  0.935507  1
  Er  Er2  1  0.356660  0.935507  0.356660  1
  Er  Er3  1  0.935507  0.356660  0.356660  1
  Er  Er4  1  0.810553  0.189845  0.189845  1
  Er  Er5  1  0.191043  0.809954  0.809954  1
  Er  Er6  1  0.189845  0.810553  0.189845  1
  Er  Er7  1  0.809954  0.191043  0.809954  1
  Er  Er8  1  0.189845  0.189845  0.810553  1
  Er  Er9  1  0.809954  0.809954  0.191043  1
  Er  Er10  1  0.935466  0.567323  0.567323  1
  Er  Er11  1  0.564706  0.935794  0.935794  1
  Er  Er12  1  0.567323  0.935466  0.567323  1
  Er  Er13  1  0.935794  0.564706  0.935794  1
  Er  Er14  1  0.567323  0.567323  0.935466  1
  Er  Er15  1  0.935794  0.935794  0.564706  1
  Cd  Cd16  1  0.580493  0.580493  0.251643  1
  Cd  Cd17  1  0.580493  0.251643  0.580493  1
  Cd  Cd18  1  0.251643  0.580493  0.580493  1
  In  In19  1  0.582356  0.582356  0.582356  1
  Pd  Pd20  1  0.145935  0.145935  0.145935  1
  Pd  Pd21  1  0.141985  0.141985  0.568209  1
  Pd  Pd22  1  0.141985  0.568209  0.141985  1
  Pd  Pd23  1  0.568209  0.141985  0.141985  1
