# generated using pymatgen
data_Dy5Er(Ga2Si3)2
_symmetry_space_group_name_H-M   'P 1'
_cell_length_a   5.92096390
_cell_length_b   5.92096240
_cell_length_c   9.36059800
_cell_angle_alpha   90.00000000
_cell_angle_beta   90.00000000
_cell_angle_gamma   102.84863670
_symmetry_Int_Tables_number   1
_chemical_formula_structural   Dy5Er(Ga2Si3)2
_chemical_formula_sum   'Dy5 Er1 Ga4 Si6'
_cell_volume   319.94514666
_cell_formula_units_Z   1
loop_
 _symmetry_equiv_pos_site_id
 _symmetry_equiv_pos_as_xyz
  1  'x, y, z'
loop_
 _atom_site_type_symbol
 _atom_site_label
 _atom_site_symmetry_multiplicity
 _atom_site_fract_x
 _atom_site_fract_y
 _atom_site_fract_z
 _atom_site_occupancy
  Dy  Dy0  1  0.340819  0.340819  0.750000  1
  Dy  Dy1  1  0.801062  0.198953  0.000265  1
  Dy  Dy2  1  0.198953  0.801062  0.000265  1
  Dy  Dy3  1  0.198953  0.801062  0.499735  1
  Dy  Dy4  1  0.801062  0.198953  0.499735  1
  Er  Er5  1  0.660186  0.660186  0.250000  1
  Ga  Ga6  1  0.320899  0.320899  0.054613  1
  Ga  Ga7  1  0.679219  0.679219  0.946384  1
  Ga  Ga8  1  0.679219  0.679219  0.553616  1
  Ga  Ga9  1  0.320899  0.320899  0.445387  1
  Si  Si10  1  0.092630  0.485577  0.250000  1
  Si  Si11  1  0.906376  0.514654  0.750000  1
  Si  Si12  1  0.485577  0.092630  0.250000  1
  Si  Si13  1  0.514654  0.906376  0.750000  1
  Si  Si14  1  0.054240  0.054240  0.250000  1
  Si  Si15  1  0.945252  0.945252  0.750000  1
