# generated using pymatgen
data_Hg3F8
_symmetry_space_group_name_H-M   'P 1'
_cell_length_a   6.13591789
_cell_length_b   5.66242973
_cell_length_c   7.14254373
_cell_angle_alpha   103.45758357
_cell_angle_beta   86.47744831
_cell_angle_gamma   63.67125011
_symmetry_Int_Tables_number   1
_chemical_formula_structural   Hg3F8
_chemical_formula_sum   'Hg3 F8'
_cell_volume   212.41698115
_cell_formula_units_Z   1
loop_
 _symmetry_equiv_pos_site_id
 _symmetry_equiv_pos_as_xyz
  1  'x, y, z'
loop_
 _atom_site_type_symbol
 _atom_site_label
 _atom_site_symmetry_multiplicity
 _atom_site_fract_x
 _atom_site_fract_y
 _atom_site_fract_z
 _atom_site_occupancy
  Hg  Hg0  1  0.816847  0.731445  0.273590  1
  Hg  Hg1  1  0.090247  0.210955  0.641409  1
  Hg  Hg2  1  0.366660  0.689724  0.006969  1
  F  F3  1  0.634408  0.490289  0.209101  1
  F  F4  1  0.037030  0.928441  0.319492  1
  F  F5  1  0.720339  0.382023  0.739544  1
  F  F6  1  0.020225  0.488164  0.478878  1
  F  F7  1  0.148540  0.490104  0.960985  1
  F  F8  1  0.459888  0.038488  0.542076  1
  F  F9  1  0.157780  0.935602  0.805188  1
  F  F10  1  0.552503  0.927895  0.068851  1
