# generated using pymatgen
data_CeEr2SiRh5
_symmetry_space_group_name_H-M   'P 1'
_cell_length_a   7.96152859
_cell_length_b   7.96152911
_cell_length_c   7.96152869
_cell_angle_alpha   126.29896896
_cell_angle_beta   123.25133780
_cell_angle_gamma   81.93412209
_symmetry_Int_Tables_number   1
_chemical_formula_structural   CeEr2SiRh5
_chemical_formula_sum   'Ce2 Er4 Si2 Rh10'
_cell_volume   327.16427918
_cell_formula_units_Z   2
loop_
 _symmetry_equiv_pos_site_id
 _symmetry_equiv_pos_as_xyz
  1  'x, y, z'
loop_
 _atom_site_type_symbol
 _atom_site_label
 _atom_site_symmetry_multiplicity
 _atom_site_fract_x
 _atom_site_fract_y
 _atom_site_fract_z
 _atom_site_occupancy
  Ce  Ce0  1  0.377837  0.250000  0.127837  1
  Ce  Ce1  1  0.622163  0.750000  0.872163  1
  Er  Er2  1  0.222904  0.448553  0.774351  1
  Er  Er3  1  0.777096  0.551447  0.225649  1
  Er  Er4  1  0.825797  0.051447  0.774351  1
  Er  Er5  1  0.174203  0.948553  0.225649  1
  Si  Si6  1  0.785332  0.250000  0.535332  1
  Si  Si7  1  0.214668  0.750000  0.464668  1
  Rh  Rh8  1  0.171099  0.392563  0.342277  1
  Rh  Rh9  1  0.828901  0.171179  0.221464  1
  Rh  Rh10  1  0.449714  0.107437  0.778536  1
  Rh  Rh11  1  0.550286  0.328821  0.657723  1
  Rh  Rh12  1  0.000000  0.500000  0.000000  1
  Rh  Rh13  1  0.000000  0.000000  0.500000  1
  Rh  Rh14  1  0.449714  0.671179  0.342277  1
  Rh  Rh15  1  0.550286  0.892563  0.221464  1
  Rh  Rh16  1  0.171099  0.828821  0.778536  1
  Rh  Rh17  1  0.828901  0.607437  0.657723  1
