# generated using pymatgen
data_Th2Fe2Te
_symmetry_space_group_name_H-M   'P 1'
_cell_length_a   4.04132400
_cell_length_b   4.04132465
_cell_length_c   17.02939500
_cell_angle_alpha   90.00000000
_cell_angle_beta   90.00000000
_cell_angle_gamma   119.99999468
_symmetry_Int_Tables_number   1
_chemical_formula_structural   Th2Fe2Te
_chemical_formula_sum   'Th4 Fe4 Te2'
_cell_volume   240.86698917
_cell_formula_units_Z   2
loop_
 _symmetry_equiv_pos_site_id
 _symmetry_equiv_pos_as_xyz
  1  'x, y, z'
loop_
 _atom_site_type_symbol
 _atom_site_label
 _atom_site_symmetry_multiplicity
 _atom_site_fract_x
 _atom_site_fract_y
 _atom_site_fract_z
 _atom_site_occupancy
  Th  Th0  1  0.000000  0.000000  0.111248  1
  Th  Th1  1  0.000000  0.000000  0.388752  1
  Th  Th2  1  0.000000  0.000000  0.611248  1
  Th  Th3  1  0.000000  0.000000  0.888752  1
  Fe  Fe4  1  0.333334  0.666667  0.002661  1
  Fe  Fe5  1  0.333334  0.666667  0.497339  1
  Fe  Fe6  1  0.666666  0.333334  0.502661  1
  Fe  Fe7  1  0.666666  0.333334  0.997339  1
  Te  Te8  1  0.666666  0.333334  0.250000  1
  Te  Te9  1  0.333334  0.666667  0.750000  1
