# generated using pymatgen
data_Ca3YbAl18IrPd5
_symmetry_space_group_name_H-M   'P 1'
_cell_length_a   7.64103659
_cell_length_b   7.64495116
_cell_length_c   9.56313905
_cell_angle_alpha   90.02608231
_cell_angle_beta   90.02484612
_cell_angle_gamma   119.49911271
_symmetry_Int_Tables_number   1
_chemical_formula_structural   Ca3YbAl18IrPd5
_chemical_formula_sum   'Ca3 Yb1 Al18 Ir1 Pd5'
_cell_volume   486.21446686
_cell_formula_units_Z   1
loop_
 _symmetry_equiv_pos_site_id
 _symmetry_equiv_pos_as_xyz
  1  'x, y, z'
loop_
 _atom_site_type_symbol
 _atom_site_label
 _atom_site_symmetry_multiplicity
 _atom_site_fract_x
 _atom_site_fract_y
 _atom_site_fract_z
 _atom_site_occupancy
  Ca  Ca0  1  0.995875  0.670674  0.250893  1
  Ca  Ca1  1  0.003984  0.329383  0.749135  1
  Ca  Ca2  1  0.670473  0.995792  0.250900  1
  Yb  Yb3  1  0.329082  0.003907  0.748973  1
  Al  Al4  1  0.129318  0.129323  0.252057  1
  Al  Al5  1  0.871111  0.870553  0.747994  1
  Al  Al6  1  0.001288  0.335034  0.077080  1
  Al  Al7  1  0.999233  0.665288  0.922353  1
  Al  Al8  1  0.000330  0.669061  0.575216  1
  Al  Al9  1  0.331215  0.000106  0.425659  1
  Al  Al10  1  0.000094  0.331088  0.425449  1
  Al  Al11  1  0.668552  0.000017  0.575061  1
  Al  Al12  1  0.664561  0.998782  0.922417  1
  Al  Al13  1  0.335020  0.001318  0.076675  1
  Al  Al14  1  0.329591  0.329257  0.551240  1
  Al  Al15  1  0.670378  0.670669  0.449180  1
  Al  Al16  1  0.666385  0.666457  0.052942  1
  Al  Al17  1  0.333577  0.333205  0.946621  1
  Al  Al18  1  0.339954  0.544745  0.250730  1
  Al  Al19  1  0.659422  0.454760  0.749284  1
  Al  Al20  1  0.544734  0.339923  0.250750  1
  Al  Al21  1  0.455250  0.660516  0.749271  1
  Ir  Ir22  1  0.001045  0.999987  0.500596  1
  Pd  Pd23  1  0.670290  0.328481  0.999610  1
  Pd  Pd24  1  0.329122  0.671561  0.999459  1
  Pd  Pd25  1  0.329258  0.671430  0.500464  1
  Pd  Pd26  1  0.670013  0.328618  0.500523  1
  Pd  Pd27  1  0.000845  0.000065  0.999467  1
