# generated using pymatgen
data_Yb12Ho8Si15P
_symmetry_space_group_name_H-M   'P 1'
_cell_length_a   7.37232900
_cell_length_b   7.80390613
_cell_length_c   15.09931700
_cell_angle_alpha   90.00000000
_cell_angle_beta   90.00000000
_cell_angle_gamma   89.98968458
_symmetry_Int_Tables_number   1
_chemical_formula_structural   Yb12Ho8Si15P
_chemical_formula_sum   'Yb12 Ho8 Si15 P1'
_cell_volume   868.70843899
_cell_formula_units_Z   1
loop_
 _symmetry_equiv_pos_site_id
 _symmetry_equiv_pos_as_xyz
  1  'x, y, z'
loop_
 _atom_site_type_symbol
 _atom_site_label
 _atom_site_symmetry_multiplicity
 _atom_site_fract_x
 _atom_site_fract_y
 _atom_site_fract_z
 _atom_site_occupancy
  Yb  Yb0  1  0.980444  0.819194  0.405518  1
  Yb  Yb1  1  0.477202  0.681185  0.095778  1
  Yb  Yb2  1  0.522688  0.316966  0.595134  1
  Yb  Yb3  1  0.022618  0.182846  0.904842  1
  Yb  Yb4  1  0.022618  0.182846  0.595158  1
  Yb  Yb5  1  0.522688  0.316966  0.904866  1
  Yb  Yb6  1  0.477202  0.681185  0.404222  1
  Yb  Yb7  1  0.980444  0.819194  0.094482  1
  Yb  Yb8  1  0.348587  0.021379  0.750000  1
  Yb  Yb9  1  0.848402  0.478708  0.750000  1
  Yb  Yb10  1  0.146998  0.521828  0.250000  1
  Yb  Yb11  1  0.652975  0.974662  0.250000  1
  Ho  Ho12  1  0.318150  0.178844  0.121124  1
  Ho  Ho13  1  0.816310  0.321747  0.378691  1
  Ho  Ho14  1  0.182474  0.677279  0.878508  1
  Ho  Ho15  1  0.682668  0.822580  0.621451  1
  Ho  Ho16  1  0.318150  0.178844  0.378876  1
  Ho  Ho17  1  0.816310  0.321747  0.121309  1
  Ho  Ho18  1  0.182474  0.677279  0.621492  1
  Ho  Ho19  1  0.682668  0.822580  0.878549  1
  Si  Si20  1  0.854142  0.533927  0.536257  1
  Si  Si21  1  0.355580  0.966179  0.963288  1
  Si  Si22  1  0.645446  0.031713  0.461414  1
  Si  Si23  1  0.143554  0.468020  0.038437  1
  Si  Si24  1  0.143554  0.468020  0.461563  1
  Si  Si25  1  0.645446  0.031713  0.038586  1
  Si  Si26  1  0.355580  0.966179  0.536712  1
  Si  Si27  1  0.854142  0.533927  0.963743  1
  Si  Si28  1  0.974270  0.883097  0.750000  1
  Si  Si29  1  0.474190  0.616977  0.750000  1
  Si  Si30  1  0.526287  0.387426  0.250000  1
  Si  Si31  1  0.026184  0.117296  0.250000  1
  Si  Si32  1  0.245004  0.395062  0.750000  1
  Si  Si33  1  0.744986  0.104915  0.750000  1
  Si  Si34  1  0.254286  0.894078  0.250000  1
  P  P35  1  0.755281  0.603611  0.250000  1
