# generated using pymatgen
data_Fe4MoP4W3
_symmetry_space_group_name_H-M   'P 1'
_cell_length_a   3.66338600
_cell_length_b   5.89671110
_cell_length_c   6.72349412
_cell_angle_alpha   89.97839441
_cell_angle_beta   90.00000000
_cell_angle_gamma   90.00000000
_symmetry_Int_Tables_number   1
_chemical_formula_structural   Fe4MoP4W3
_chemical_formula_sum   'Fe4 Mo1 P4 W3'
_cell_volume   145.24043165
_cell_formula_units_Z   1
loop_
 _symmetry_equiv_pos_site_id
 _symmetry_equiv_pos_as_xyz
  1  'x, y, z'
loop_
 _atom_site_type_symbol
 _atom_site_label
 _atom_site_symmetry_multiplicity
 _atom_site_fract_x
 _atom_site_fract_y
 _atom_site_fract_z
 _atom_site_occupancy
  Fe  Fe0  1  0.250000  0.860915  0.937135  1
  Fe  Fe1  1  0.250000  0.357978  0.561379  1
  Fe  Fe2  1  0.750000  0.139909  0.064993  1
  Fe  Fe3  1  0.750000  0.641456  0.434978  1
  Mo  Mo4  1  0.750000  0.528508  0.828600  1
  P  P5  1  0.250000  0.230946  0.878232  1
  P  P6  1  0.250000  0.726895  0.624749  1
  P  P7  1  0.750000  0.769730  0.119272  1
  P  P8  1  0.750000  0.271917  0.377826  1
  W  W9  1  0.250000  0.971380  0.329430  1
  W  W10  1  0.250000  0.472833  0.171477  1
  W  W11  1  0.750000  0.027534  0.671930  1
