# generated using pymatgen
data_V7BiO18
_symmetry_space_group_name_H-M   'P 1'
_cell_length_a   7.30922923
_cell_length_b   8.32869466
_cell_length_c   9.38342200
_cell_angle_alpha   105.88065437
_cell_angle_beta   112.86448471
_cell_angle_gamma   63.83972490
_symmetry_Int_Tables_number   1
_chemical_formula_structural   V7BiO18
_chemical_formula_sum   'V7 Bi1 O18'
_cell_volume   468.79833725
_cell_formula_units_Z   1
loop_
 _symmetry_equiv_pos_site_id
 _symmetry_equiv_pos_as_xyz
  1  'x, y, z'
loop_
 _atom_site_type_symbol
 _atom_site_label
 _atom_site_symmetry_multiplicity
 _atom_site_fract_x
 _atom_site_fract_y
 _atom_site_fract_z
 _atom_site_occupancy
  V  V0  1  0.203278  0.859907  0.747900  1
  V  V1  1  0.726943  0.614786  0.987129  1
  V  V2  1  0.001780  0.904526  0.062793  1
  V  V3  1  0.400900  0.809447  0.431083  1
  V  V4  1  0.667572  0.098035  0.519702  1
  V  V5  1  0.191064  0.422237  0.581766  1
  V  V6  1  0.181045  0.299427  0.911970  1
  Bi  Bi7  1  0.687088  0.357743  0.242155  1
  O  O8  1  0.350970  0.377337  0.067631  1
  O  O9  1  0.839937  0.124428  0.061770  1
  O  O10  1  0.852909  0.774687  0.051028  1
  O  O11  1  0.661408  0.588084  0.131165  1
  O  O12  1  0.201855  0.879256  0.250753  1
  O  O13  1  0.688013  0.147225  0.364618  1
  O  O14  1  0.023657  0.363717  0.411920  1
  O  O15  1  0.522793  0.581473  0.413277  1
  O  O16  1  0.591100  0.907671  0.464448  1
  O  O17  1  0.291474  0.887188  0.577822  1
  O  O18  1  0.134987  0.646617  0.608489  1
  O  O19  1  0.467713  0.290068  0.590393  1
  O  O20  1  0.908107  0.039898  0.661163  1
  O  O21  1  0.153467  0.369675  0.738628  1
  O  O22  1  0.504352  0.688314  0.834058  1
  O  O23  1  0.112426  0.832792  0.916517  1
  O  O24  1  0.276603  0.071573  0.891192  1
  O  O25  1  0.915353  0.400493  0.930833  1
