# generated using pymatgen
data_NdPRhN
_symmetry_space_group_name_H-M   'P 1'
_cell_length_a   3.89979300
_cell_length_b   3.89979300
_cell_length_c   8.17643300
_cell_angle_alpha   90.00000000
_cell_angle_beta   90.00000000
_cell_angle_gamma   90.00000000
_symmetry_Int_Tables_number   1
_chemical_formula_structural   NdPRhN
_chemical_formula_sum   'Nd2 P2 Rh2 N2'
_cell_volume   124.35034461
_cell_formula_units_Z   2
loop_
 _symmetry_equiv_pos_site_id
 _symmetry_equiv_pos_as_xyz
  1  'x, y, z'
loop_
 _atom_site_type_symbol
 _atom_site_label
 _atom_site_symmetry_multiplicity
 _atom_site_fract_x
 _atom_site_fract_y
 _atom_site_fract_z
 _atom_site_occupancy
  Nd  Nd0  1  0.500000  0.000000  0.163722  1
  Nd  Nd1  1  0.000000  0.500000  0.836278  1
  P  P2  1  0.000000  0.500000  0.337355  1
  P  P3  1  0.500000  0.000000  0.662644  1
  Rh  Rh4  1  0.000000  0.000000  0.500000  1
  Rh  Rh5  1  0.500000  0.500000  0.500000  1
  N  N6  1  0.000000  0.500000  0.131276  1
  N  N7  1  0.500000  0.000000  0.868723  1
