# generated using pymatgen
data_Tb5Lu(CI5)2
_symmetry_space_group_name_H-M   'P 1'
_cell_length_a   7.66879927
_cell_length_b   9.50489237
_cell_length_c   9.60611943
_cell_angle_alpha   107.00986415
_cell_angle_beta   96.32161939
_cell_angle_gamma   104.21629661
_symmetry_Int_Tables_number   1
_chemical_formula_structural   Tb5Lu(CI5)2
_chemical_formula_sum   'Tb5 Lu1 C2 I10'
_cell_volume   636.43831986
_cell_formula_units_Z   1
loop_
 _symmetry_equiv_pos_site_id
 _symmetry_equiv_pos_as_xyz
  1  'x, y, z'
loop_
 _atom_site_type_symbol
 _atom_site_label
 _atom_site_symmetry_multiplicity
 _atom_site_fract_x
 _atom_site_fract_y
 _atom_site_fract_z
 _atom_site_occupancy
  Tb  Tb0  1  0.028988  0.742174  0.925048  1
  Tb  Tb1  1  0.103081  0.037789  0.781287  1
  Tb  Tb2  1  0.970256  0.258161  0.074685  1
  Tb  Tb3  1  0.895283  0.961647  0.217858  1
  Tb  Tb4  1  0.372677  0.131428  0.176815  1
  Lu  Lu5  1  0.631511  0.869599  0.825226  1
  C  C6  1  0.089971  0.029698  0.040625  1
  C  C7  1  0.906764  0.969728  0.958306  1
  I  I8  1  0.202975  0.738602  0.652405  1
  I  I9  1  0.911864  0.634879  0.177763  1
  I  I10  1  0.087236  0.364940  0.821561  1
  I  I11  1  0.740534  0.914125  0.547159  1
  I  I12  1  0.252649  0.083146  0.457384  1
  I  I13  1  0.651969  0.552532  0.728658  1
  I  I14  1  0.458326  0.809470  0.087724  1
  I  I15  1  0.806839  0.264195  0.352174  1
  I  I16  1  0.344866  0.453729  0.271419  1
  I  I17  1  0.544209  0.184158  0.903902  1
