# generated using pymatgen
data_Pr4Ga10AgPt5
_symmetry_space_group_name_H-M   'P 1'
_cell_length_a   8.69360627
_cell_length_b   8.69360623
_cell_length_c   8.69360491
_cell_angle_alpha   138.78164521
_cell_angle_beta   106.41142376
_cell_angle_gamma   88.00933462
_symmetry_Int_Tables_number   1
_chemical_formula_structural   Pr4Ga10AgPt5
_chemical_formula_sum   'Pr4 Ga10 Ag1 Pt5'
_cell_volume   398.54564710
_cell_formula_units_Z   1
loop_
 _symmetry_equiv_pos_site_id
 _symmetry_equiv_pos_as_xyz
  1  'x, y, z'
loop_
 _atom_site_type_symbol
 _atom_site_label
 _atom_site_symmetry_multiplicity
 _atom_site_fract_x
 _atom_site_fract_y
 _atom_site_fract_z
 _atom_site_occupancy
  Pr  Pr0  1  0.863300  0.631993  0.231308  1
  Pr  Pr1  1  0.136700  0.368009  0.768694  1
  Pr  Pr2  1  0.400685  0.131991  0.268692  1
  Pr  Pr3  1  0.599315  0.868007  0.731306  1
  Ga  Ga4  1  0.500000  0.750000  0.250000  1
  Ga  Ga5  1  0.500000  0.250000  0.750000  1
  Ga  Ga6  1  0.227689  0.977689  0.750000  1
  Ga  Ga7  1  0.772311  0.522311  0.750000  1
  Ga  Ga8  1  0.775543  0.025543  0.250000  1
  Ga  Ga9  1  0.224457  0.474457  0.250000  1
  Ga  Ga10  1  0.045656  0.897446  0.160218  1
  Ga  Ga11  1  0.954344  0.114562  0.851790  1
  Ga  Ga12  1  0.737227  0.385438  0.339782  1
  Ga  Ga13  1  0.262773  0.602554  0.648210  1
  Ag  Ag14  1  0.000000  0.750000  0.750000  1
  Pt  Pt15  1  0.000000  0.250000  0.250000  1
  Pt  Pt16  1  0.252262  0.860936  0.388145  1
  Pt  Pt17  1  0.747738  0.135881  0.608672  1
  Pt  Pt18  1  0.472790  0.364119  0.111855  1
  Pt  Pt19  1  0.527210  0.639064  0.891328  1
