# generated using pymatgen
data_Tb8Zn3Si12Au
_symmetry_space_group_name_H-M   'P 1'
_cell_length_a   8.16397600
_cell_length_b   8.16397547
_cell_length_c   8.13598900
_cell_angle_alpha   90.00000000
_cell_angle_beta   90.00000000
_cell_angle_gamma   120.00000215
_symmetry_Int_Tables_number   1
_chemical_formula_structural   Tb8Zn3Si12Au
_chemical_formula_sum   'Tb8 Zn3 Si12 Au1'
_cell_volume   469.61762248
_cell_formula_units_Z   1
loop_
 _symmetry_equiv_pos_site_id
 _symmetry_equiv_pos_as_xyz
  1  'x, y, z'
loop_
 _atom_site_type_symbol
 _atom_site_label
 _atom_site_symmetry_multiplicity
 _atom_site_fract_x
 _atom_site_fract_y
 _atom_site_fract_z
 _atom_site_occupancy
  Tb  Tb0  1  0.501916  0.003832  0.248086  1
  Tb  Tb1  1  0.500736  0.001472  0.751920  1
  Tb  Tb2  1  0.996168  0.498084  0.248086  1
  Tb  Tb3  1  0.998528  0.499264  0.751920  1
  Tb  Tb4  1  0.501916  0.498084  0.248086  1
  Tb  Tb5  1  0.500736  0.499264  0.751920  1
  Tb  Tb6  1  0.000000  0.000000  0.249825  1
  Tb  Tb7  1  0.000000  0.000000  0.750406  1
  Zn  Zn8  1  0.333333  0.666667  0.005411  1
  Zn  Zn9  1  0.666667  0.333333  0.994961  1
  Zn  Zn10  1  0.666667  0.333333  0.500301  1
  Si  Si11  1  0.166340  0.332682  0.997657  1
  Si  Si12  1  0.832775  0.665549  0.002280  1
  Si  Si13  1  0.667318  0.833660  0.997657  1
  Si  Si14  1  0.833490  0.666979  0.502058  1
  Si  Si15  1  0.334451  0.167225  0.002280  1
  Si  Si16  1  0.163341  0.326682  0.497961  1
  Si  Si17  1  0.166340  0.833660  0.997657  1
  Si  Si18  1  0.333021  0.166510  0.502058  1
  Si  Si19  1  0.832775  0.167225  0.002280  1
  Si  Si20  1  0.673318  0.836659  0.497961  1
  Si  Si21  1  0.833490  0.166510  0.502058  1
  Si  Si22  1  0.163341  0.836659  0.497961  1
  Au  Au23  1  0.333333  0.666667  0.499206  1
