# generated using pymatgen
data_NaLi6SbO6
_symmetry_space_group_name_H-M   'P 1'
_cell_length_a   5.34543228
_cell_length_b   5.34543246
_cell_length_c   5.34543157
_cell_angle_alpha   101.65785254
_cell_angle_beta   101.65785774
_cell_angle_gamma   101.65785260
_symmetry_Int_Tables_number   1
_chemical_formula_structural   NaLi6SbO6
_chemical_formula_sum   'Na1 Li6 Sb1 O6'
_cell_volume   141.72662714
_cell_formula_units_Z   1
loop_
 _symmetry_equiv_pos_site_id
 _symmetry_equiv_pos_as_xyz
  1  'x, y, z'
loop_
 _atom_site_type_symbol
 _atom_site_label
 _atom_site_symmetry_multiplicity
 _atom_site_fract_x
 _atom_site_fract_y
 _atom_site_fract_z
 _atom_site_occupancy
  Na  Na0  1  0.500000  0.500000  0.500000  1
  Li  Li1  1  0.655997  0.344004  0.000000  1
  Li  Li2  1  0.344004  0.655997  0.000000  1
  Li  Li3  1  0.655997  0.000000  0.344004  1
  Li  Li4  1  0.000000  0.655997  0.344004  1
  Li  Li5  1  0.344005  0.000000  0.655997  1
  Li  Li6  1  0.000000  0.344005  0.655997  1
  Sb  Sb7  1  0.000000  0.000000  0.000000  1
  O  O8  1  0.724520  0.724520  0.079614  1
  O  O9  1  0.920386  0.275481  0.275480  1
  O  O10  1  0.275481  0.920386  0.275480  1
  O  O11  1  0.724520  0.079615  0.724520  1
  O  O12  1  0.079615  0.724520  0.724520  1
  O  O13  1  0.275480  0.275480  0.920386  1
