# generated using pymatgen
data_TbCePa(SnIr)3
_symmetry_space_group_name_H-M   'P 1'
_cell_length_a   7.50571860
_cell_length_b   7.50569627
_cell_length_c   4.01776600
_cell_angle_alpha   90.00000000
_cell_angle_beta   90.00000000
_cell_angle_gamma   119.25102333
_symmetry_Int_Tables_number   1
_chemical_formula_structural   TbCePa(SnIr)3
_chemical_formula_sum   'Tb1 Ce1 Pa1 Sn3 Ir3'
_cell_volume   197.48176822
_cell_formula_units_Z   1
loop_
 _symmetry_equiv_pos_site_id
 _symmetry_equiv_pos_as_xyz
  1  'x, y, z'
loop_
 _atom_site_type_symbol
 _atom_site_label
 _atom_site_symmetry_multiplicity
 _atom_site_fract_x
 _atom_site_fract_y
 _atom_site_fract_z
 _atom_site_occupancy
  Tb  Tb0  1  0.593489  0.000282  0.000000  1
  Ce  Ce1  1  0.000321  0.590155  0.000000  1
  Pa  Pa2  1  0.412731  0.412989  0.000000  1
  Sn  Sn3  1  0.988700  0.252589  0.500000  1
  Sn  Sn4  1  0.753849  0.757067  0.500000  1
  Sn  Sn5  1  0.257414  0.992017  0.500000  1
  Ir  Ir6  1  0.015746  0.015390  0.000000  1
  Ir  Ir7  1  0.645781  0.339900  0.500000  1
  Ir  Ir8  1  0.331969  0.639611  0.500000  1
