# generated using pymatgen
data_Sm2Be(PN2)7
_symmetry_space_group_name_H-M   'P 1'
_cell_length_a   7.55000519
_cell_length_b   7.78158248
_cell_length_c   5.27443600
_cell_angle_alpha   77.15182163
_cell_angle_beta   78.84990455
_cell_angle_gamma   68.58306060
_symmetry_Int_Tables_number   1
_chemical_formula_structural   Sm2Be(PN2)7
_chemical_formula_sum   'Sm2 Be1 P7 N14'
_cell_volume   279.10125894
_cell_formula_units_Z   1
loop_
 _symmetry_equiv_pos_site_id
 _symmetry_equiv_pos_as_xyz
  1  'x, y, z'
loop_
 _atom_site_type_symbol
 _atom_site_label
 _atom_site_symmetry_multiplicity
 _atom_site_fract_x
 _atom_site_fract_y
 _atom_site_fract_z
 _atom_site_occupancy
  Sm  Sm0  1  0.783099  0.209106  0.222415  1
  Sm  Sm1  1  0.195695  0.803177  0.778965  1
  Be  Be2  1  0.311637  0.458183  0.305897  1
  P  P3  1  0.545681  0.705795  0.194828  1
  P  P4  1  0.102095  0.256375  0.708808  1
  P  P5  1  0.730815  0.916816  0.794056  1
  P  P6  1  0.915716  0.747803  0.294667  1
  P  P7  1  0.263922  0.087119  0.220105  1
  P  P8  1  0.444147  0.297925  0.804573  1
  P  P9  1  0.715434  0.460793  0.594445  1
  N  N10  1  0.259944  0.364139  0.636464  1
  N  N11  1  0.591019  0.794327  0.892326  1
  N  N12  1  0.735903  0.650603  0.372669  1
  N  N13  1  0.389240  0.232682  0.122685  1
  N  N14  1  0.882287  0.389024  0.790825  1
  N  N15  1  0.622123  0.134651  0.668740  1
  N  N16  1  0.121788  0.622560  0.191472  1
  N  N17  1  0.371356  0.868726  0.339045  1
  N  N18  1  0.906227  0.844468  0.552288  1
  N  N19  1  0.151159  0.092795  0.973967  1
  N  N20  1  0.518693  0.506612  0.255802  1
  N  N21  1  0.507518  0.481346  0.776021  1
  N  N22  1  0.837647  0.919024  0.042241  1
  N  N23  1  0.096854  0.155950  0.466696  1
