# generated using pymatgen
data_Ti4SiGe2MoC
_symmetry_space_group_name_H-M   'P 1'
_cell_length_a   7.52952453
_cell_length_b   7.52952496
_cell_length_c   5.20664768
_cell_angle_alpha   89.94184316
_cell_angle_beta   89.94184241
_cell_angle_gamma   120.29263172
_symmetry_Int_Tables_number   1
_chemical_formula_structural   Ti4SiGe2MoC
_chemical_formula_sum   'Ti8 Si2 Ge4 Mo2 C2'
_cell_volume   254.87947051
_cell_formula_units_Z   2
loop_
 _symmetry_equiv_pos_site_id
 _symmetry_equiv_pos_as_xyz
  1  'x, y, z'
loop_
 _atom_site_type_symbol
 _atom_site_label
 _atom_site_symmetry_multiplicity
 _atom_site_fract_x
 _atom_site_fract_y
 _atom_site_fract_z
 _atom_site_occupancy
  Ti  Ti0  1  0.662798  0.337202  0.500000  1
  Ti  Ti1  1  0.337202  0.662798  0.500000  1
  Ti  Ti2  1  0.229159  0.003290  0.250992  1
  Ti  Ti3  1  0.770841  0.996710  0.749008  1
  Ti  Ti4  1  0.003290  0.229159  0.250992  1
  Ti  Ti5  1  0.996710  0.770841  0.749008  1
  Ti  Ti6  1  0.768517  0.768517  0.252536  1
  Ti  Ti7  1  0.231483  0.231483  0.747464  1
  Si  Si8  1  0.406167  0.406167  0.241602  1
  Si  Si9  1  0.593833  0.593833  0.758398  1
  Ge  Ge10  1  0.597072  0.001738  0.249928  1
  Ge  Ge11  1  0.402928  0.998262  0.750072  1
  Ge  Ge12  1  0.001738  0.597072  0.249928  1
  Ge  Ge13  1  0.998262  0.402928  0.750072  1
  Mo  Mo14  1  0.336650  0.663350  0.000000  1
  Mo  Mo15  1  0.663350  0.336650  0.000000  1
  C  C16  1  0.000000  0.000000  0.000000  1
  C  C17  1  0.000000  0.000000  0.500000  1
