# generated using pymatgen
data_Sm2Cd4(Cu5Ni)3
_symmetry_space_group_name_H-M   'P 1'
_cell_length_a   5.02341400
_cell_length_b   5.02341475
_cell_length_c   16.13280100
_cell_angle_alpha   90.00000000
_cell_angle_beta   90.00000000
_cell_angle_gamma   119.99999508
_symmetry_Int_Tables_number   1
_chemical_formula_structural   Sm2Cd4(Cu5Ni)3
_chemical_formula_sum   'Sm2 Cd4 Cu15 Ni3'
_cell_volume   352.56438396
_cell_formula_units_Z   1
loop_
 _symmetry_equiv_pos_site_id
 _symmetry_equiv_pos_as_xyz
  1  'x, y, z'
loop_
 _atom_site_type_symbol
 _atom_site_label
 _atom_site_symmetry_multiplicity
 _atom_site_fract_x
 _atom_site_fract_y
 _atom_site_fract_z
 _atom_site_occupancy
  Sm  Sm0  1  0.666667  0.333333  0.250000  1
  Sm  Sm1  1  0.333333  0.666667  0.750000  1
  Cd  Cd2  1  0.666667  0.333333  0.465667  1
  Cd  Cd3  1  0.333333  0.666667  0.965495  1
  Cd  Cd4  1  0.666667  0.333333  0.034333  1
  Cd  Cd5  1  0.333333  0.666667  0.534505  1
  Cu  Cu6  1  0.168444  0.831556  0.375681  1
  Cu  Cu7  1  0.168444  0.336886  0.375681  1
  Cu  Cu8  1  0.000000  0.000000  0.250000  1
  Cu  Cu9  1  0.000000  0.000000  0.999818  1
  Cu  Cu10  1  0.000000  0.000000  0.500182  1
  Cu  Cu11  1  0.168444  0.336886  0.124319  1
  Cu  Cu12  1  0.832002  0.167998  0.624947  1
  Cu  Cu13  1  0.335996  0.167998  0.624947  1
  Cu  Cu14  1  0.663114  0.831556  0.124319  1
  Cu  Cu15  1  0.168444  0.831556  0.124319  1
  Cu  Cu16  1  0.832002  0.664004  0.875053  1
  Cu  Cu17  1  0.832002  0.167998  0.875053  1
  Cu  Cu18  1  0.832002  0.664004  0.624947  1
  Cu  Cu19  1  0.335996  0.167998  0.875053  1
  Cu  Cu20  1  0.663114  0.831556  0.375681  1
  Ni  Ni21  1  0.333333  0.666667  0.250000  1
  Ni  Ni22  1  0.666667  0.333333  0.750000  1
  Ni  Ni23  1  0.000000  0.000000  0.750000  1
