# generated using pymatgen
data_Nd3Ag2Hg3Rh
_symmetry_space_group_name_H-M   'P 1'
_cell_length_a   8.12551300
_cell_length_b   8.12551403
_cell_length_c   3.82454800
_cell_angle_alpha   90.00000000
_cell_angle_beta   90.00000000
_cell_angle_gamma   120.00000802
_symmetry_Int_Tables_number   1
_chemical_formula_structural   Nd3Ag2Hg3Rh
_chemical_formula_sum   'Nd3 Ag2 Hg3 Rh1'
_cell_volume   218.68165222
_cell_formula_units_Z   1
loop_
 _symmetry_equiv_pos_site_id
 _symmetry_equiv_pos_as_xyz
  1  'x, y, z'
loop_
 _atom_site_type_symbol
 _atom_site_label
 _atom_site_symmetry_multiplicity
 _atom_site_fract_x
 _atom_site_fract_y
 _atom_site_fract_z
 _atom_site_occupancy
  Nd  Nd0  1  0.610630  0.029555  0.500000  1
  Nd  Nd1  1  0.418925  0.389370  0.500000  1
  Nd  Nd2  1  0.970445  0.581075  0.500000  1
  Ag  Ag3  1  0.000000  0.000000  0.500000  1
  Ag  Ag4  1  0.333333  0.666667  0.000000  1
  Hg  Hg5  1  0.269808  0.995421  0.000000  1
  Hg  Hg6  1  0.725613  0.730192  0.000000  1
  Hg  Hg7  1  0.004579  0.274387  0.000000  1
  Rh  Rh8  1  0.666667  0.333333  0.000000  1
