# generated using pymatgen
data_Eu2CuPdPt2
_symmetry_space_group_name_H-M   'P 1'
_cell_length_a   5.38182324
_cell_length_b   5.60917725
_cell_length_c   5.60917716
_cell_angle_alpha   60.26664067
_cell_angle_beta   58.81376736
_cell_angle_gamma   58.81377130
_symmetry_Int_Tables_number   1
_chemical_formula_structural   Eu2CuPdPt2
_chemical_formula_sum   'Eu2 Cu1 Pd1 Pt2'
_cell_volume   117.76684083
_cell_formula_units_Z   1
loop_
 _symmetry_equiv_pos_site_id
 _symmetry_equiv_pos_as_xyz
  1  'x, y, z'
loop_
 _atom_site_type_symbol
 _atom_site_label
 _atom_site_symmetry_multiplicity
 _atom_site_fract_x
 _atom_site_fract_y
 _atom_site_fract_z
 _atom_site_occupancy
  Eu  Eu0  1  0.249206  0.249220  0.249220  1
  Eu  Eu1  1  0.000794  0.000780  0.000780  1
  Cu  Cu2  1  0.125000  0.625000  0.625000  1
  Pd  Pd3  1  0.625000  0.625000  0.625000  1
  Pt  Pt4  1  0.625000  0.125000  0.625000  1
  Pt  Pt5  1  0.625000  0.625000  0.125000  1
