# generated using pymatgen
data_Ti3(NbGa2)2
_symmetry_space_group_name_H-M   'P 1'
_cell_length_a   7.95090400
_cell_length_b   7.95090413
_cell_length_c   5.40457900
_cell_angle_alpha   90.00000000
_cell_angle_beta   90.00000000
_cell_angle_gamma   119.99999945
_symmetry_Int_Tables_number   1
_chemical_formula_structural   Ti3(NbGa2)2
_chemical_formula_sum   'Ti6 Nb4 Ga8'
_cell_volume   295.88675865
_cell_formula_units_Z   2
loop_
 _symmetry_equiv_pos_site_id
 _symmetry_equiv_pos_as_xyz
  1  'x, y, z'
loop_
 _atom_site_type_symbol
 _atom_site_label
 _atom_site_symmetry_multiplicity
 _atom_site_fract_x
 _atom_site_fract_y
 _atom_site_fract_z
 _atom_site_occupancy
  Ti  Ti0  1  0.714986  0.714986  0.750000  1
  Ti  Ti1  1  0.285014  0.000000  0.750000  1
  Ti  Ti2  1  0.000000  0.285014  0.750000  1
  Ti  Ti3  1  0.285014  0.285014  0.250000  1
  Ti  Ti4  1  0.714986  0.000000  0.250000  1
  Ti  Ti5  1  0.000000  0.714986  0.250000  1
  Nb  Nb6  1  0.666667  0.333333  0.000000  1
  Nb  Nb7  1  0.333333  0.666667  0.000000  1
  Nb  Nb8  1  0.333333  0.666667  0.500000  1
  Nb  Nb9  1  0.666667  0.333333  0.500000  1
  Ga  Ga10  1  0.000000  0.000000  0.000000  1
  Ga  Ga11  1  0.000000  0.000000  0.500000  1
  Ga  Ga12  1  0.377011  0.377011  0.750000  1
  Ga  Ga13  1  0.622989  0.000000  0.750000  1
  Ga  Ga14  1  0.000000  0.622989  0.750000  1
  Ga  Ga15  1  0.622989  0.622989  0.250000  1
  Ga  Ga16  1  0.377011  0.000000  0.250000  1
  Ga  Ga17  1  0.000000  0.377011  0.250000  1
