# generated using pymatgen
data_SrU2Pa(Al3Ir)6
_symmetry_space_group_name_H-M   'P 1'
_cell_length_a   7.63581094
_cell_length_b   7.60851630
_cell_length_c   9.44127100
_cell_angle_alpha   90.00000000
_cell_angle_beta   90.00000000
_cell_angle_gamma   119.47250047
_symmetry_Int_Tables_number   1
_chemical_formula_structural   SrU2Pa(Al3Ir)6
_chemical_formula_sum   'Sr1 U2 Pa1 Al18 Ir6'
_cell_volume   477.52954490
_cell_formula_units_Z   1
loop_
 _symmetry_equiv_pos_site_id
 _symmetry_equiv_pos_as_xyz
  1  'x, y, z'
loop_
 _atom_site_type_symbol
 _atom_site_label
 _atom_site_symmetry_multiplicity
 _atom_site_fract_x
 _atom_site_fract_y
 _atom_site_fract_z
 _atom_site_occupancy
  Sr  Sr0  1  0.670512  0.995127  0.750000  1
  U  U1  1  0.003184  0.326760  0.250000  1
  U  U2  1  0.329143  0.005562  0.250000  1
  Pa  Pa3  1  0.998544  0.671895  0.750000  1
  Al  Al4  1  0.132550  0.127157  0.750000  1
  Al  Al5  1  0.868406  0.869094  0.250000  1
  Al  Al6  1  0.002790  0.334698  0.573098  1
  Al  Al7  1  0.997026  0.662630  0.421854  1
  Al  Al8  1  0.997026  0.662630  0.078146  1
  Al  Al9  1  0.336406  0.004009  0.927082  1
  Al  Al10  1  0.002790  0.334698  0.926902  1
  Al  Al11  1  0.664312  0.997878  0.076819  1
  Al  Al12  1  0.664312  0.997878  0.423181  1
  Al  Al13  1  0.336406  0.004009  0.572918  1
  Al  Al14  1  0.334832  0.335221  0.054704  1
  Al  Al15  1  0.665064  0.665528  0.948598  1
  Al  Al16  1  0.665064  0.665528  0.551402  1
  Al  Al17  1  0.334832  0.335221  0.445296  1
  Al  Al18  1  0.334881  0.544923  0.750000  1
  Al  Al19  1  0.657716  0.450088  0.250000  1
  Al  Al20  1  0.550441  0.346960  0.750000  1
  Al  Al21  1  0.451619  0.659538  0.250000  1
  Ir  Ir22  1  0.673988  0.331151  0.498249  1
  Ir  Ir23  1  0.324154  0.671071  0.498371  1
  Ir  Ir24  1  0.324154  0.671071  0.001629  1
  Ir  Ir25  1  0.673988  0.331151  0.001751  1
  Ir  Ir26  1  0.002931  0.999263  0.497179  1
  Ir  Ir27  1  0.002931  0.999263  0.002821  1
