# generated using pymatgen
data_Lu8TaNb9Si16MoW
_symmetry_space_group_name_H-M   'P 1'
_cell_length_a   6.77083401
_cell_length_b   6.99550290
_cell_length_c   13.26422400
_cell_angle_alpha   90.00000000
_cell_angle_beta   90.00000000
_cell_angle_gamma   89.97371886
_symmetry_Int_Tables_number   1
_chemical_formula_structural   Lu8TaNb9Si16MoW
_chemical_formula_sum   'Lu8 Ta1 Nb9 Si16 Mo1 W1'
_cell_volume   628.26506311
_cell_formula_units_Z   1
loop_
 _symmetry_equiv_pos_site_id
 _symmetry_equiv_pos_as_xyz
  1  'x, y, z'
loop_
 _atom_site_type_symbol
 _atom_site_label
 _atom_site_symmetry_multiplicity
 _atom_site_fract_x
 _atom_site_fract_y
 _atom_site_fract_z
 _atom_site_occupancy
  Lu  Lu0  1  0.501509  0.327399  0.094924  1
  Lu  Lu1  1  0.001502  0.173190  0.405129  1
  Lu  Lu2  1  0.498031  0.673070  0.595047  1
  Lu  Lu3  1  0.998306  0.826888  0.905071  1
  Lu  Lu4  1  0.498031  0.673070  0.904953  1
  Lu  Lu5  1  0.998306  0.826888  0.594929  1
  Lu  Lu6  1  0.501509  0.327399  0.405076  1
  Lu  Lu7  1  0.001502  0.173190  0.094871  1
  Ta  Ta8  1  0.339439  0.992508  0.250000  1
  Nb  Nb9  1  0.834716  0.328737  0.625472  1
  Nb  Nb10  1  0.334252  0.172255  0.874255  1
  Nb  Nb11  1  0.165304  0.670902  0.125674  1
  Nb  Nb12  1  0.666260  0.827770  0.374040  1
  Nb  Nb13  1  0.165304  0.670902  0.374326  1
  Nb  Nb14  1  0.666260  0.827770  0.125960  1
  Nb  Nb15  1  0.834716  0.328737  0.874528  1
  Nb  Nb16  1  0.334252  0.172255  0.625745  1
  Nb  Nb17  1  0.660725  0.006675  0.750000  1
  Si  Si18  1  0.665032  0.036262  0.540947  1
  Si  Si19  1  0.165037  0.463474  0.957656  1
  Si  Si20  1  0.335108  0.964175  0.042001  1
  Si  Si21  1  0.834985  0.536793  0.457913  1
  Si  Si22  1  0.335108  0.964175  0.457999  1
  Si  Si23  1  0.834985  0.536793  0.042087  1
  Si  Si24  1  0.665032  0.036262  0.959053  1
  Si  Si25  1  0.165037  0.463474  0.542344  1
  Si  Si26  1  0.533889  0.382641  0.750000  1
  Si  Si27  1  0.037598  0.119704  0.750000  1
  Si  Si28  1  0.466323  0.617674  0.250000  1
  Si  Si29  1  0.962780  0.880925  0.250000  1
  Si  Si30  1  0.798094  0.632296  0.750000  1
  Si  Si31  1  0.293606  0.863141  0.750000  1
  Si  Si32  1  0.202384  0.366723  0.250000  1
  Si  Si33  1  0.705032  0.136699  0.250000  1
  Mo  Mo34  1  0.839617  0.506613  0.250000  1
  W  W35  1  0.160435  0.492572  0.750000  1
