# generated using pymatgen
data_TaNb13Si3As5
_symmetry_space_group_name_H-M   'P 1'
_cell_length_a   3.52141400
_cell_length_b   7.94424560
_cell_length_c   14.19758565
_cell_angle_alpha   103.98129584
_cell_angle_beta   90.00000000
_cell_angle_gamma   102.80496518
_symmetry_Int_Tables_number   1
_chemical_formula_structural   TaNb13Si3As5
_chemical_formula_sum   'Ta1 Nb13 Si3 As5'
_cell_volume   375.22326893
_cell_formula_units_Z   1
loop_
 _symmetry_equiv_pos_site_id
 _symmetry_equiv_pos_as_xyz
  1  'x, y, z'
loop_
 _atom_site_type_symbol
 _atom_site_label
 _atom_site_symmetry_multiplicity
 _atom_site_fract_x
 _atom_site_fract_y
 _atom_site_fract_z
 _atom_site_occupancy
  Ta  Ta0  1  0.000151  0.000304  0.999624  1
  Nb  Nb1  1  0.498530  0.997059  0.500917  1
  Nb  Nb2  1  0.428070  0.856143  0.826131  1
  Nb  Nb3  1  0.571033  0.142066  0.169166  1
  Nb  Nb4  1  0.196272  0.392544  0.308058  1
  Nb  Nb5  1  0.803324  0.606647  0.691190  1
  Nb  Nb6  1  0.212697  0.425394  0.799885  1
  Nb  Nb7  1  0.787430  0.574860  0.199130  1
  Nb  Nb8  1  0.333101  0.666201  0.029228  1
  Nb  Nb9  1  0.667010  0.334020  0.969964  1
  Nb  Nb10  1  0.998084  0.996168  0.660843  1
  Nb  Nb11  1  0.000040  0.000081  0.338869  1
  Nb  Nb12  1  0.181455  0.362911  0.547476  1
  Nb  Nb13  1  0.822892  0.645784  0.457587  1
  Si  Si14  1  0.174270  0.348538  0.108087  1
  Si  Si15  1  0.826200  0.652403  0.891155  1
  Si  Si16  1  0.370699  0.741400  0.600558  1
  As  As17  1  0.629936  0.259871  0.402206  1
  As  As18  1  0.371260  0.742517  0.333963  1
  As  As19  1  0.627445  0.254891  0.666544  1
  As  As20  1  0.063374  0.126748  0.847162  1
  As  As21  1  0.936726  0.873450  0.152257  1
