# generated using pymatgen
data_SmY3(WO6)2
_symmetry_space_group_name_H-M   'P 1'
_cell_length_a   5.43832300
_cell_length_b   7.76477647
_cell_length_c   11.55126825
_cell_angle_alpha   75.56546773
_cell_angle_beta   90.00000000
_cell_angle_gamma   90.00000000
_symmetry_Int_Tables_number   1
_chemical_formula_structural   SmY3(WO6)2
_chemical_formula_sum   'Sm2 Y6 W4 O24'
_cell_volume   472.38190112
_cell_formula_units_Z   2
loop_
 _symmetry_equiv_pos_site_id
 _symmetry_equiv_pos_as_xyz
  1  'x, y, z'
loop_
 _atom_site_type_symbol
 _atom_site_label
 _atom_site_symmetry_multiplicity
 _atom_site_fract_x
 _atom_site_fract_y
 _atom_site_fract_z
 _atom_site_occupancy
  Sm  Sm0  1  0.684028  0.500000  0.750000  1
  Sm  Sm1  1  0.315972  0.500000  0.250000  1
  Y  Y2  1  0.740170  0.000000  0.750000  1
  Y  Y3  1  0.259830  0.000000  0.250000  1
  Y  Y4  1  0.186938  0.796201  0.577427  1
  Y  Y5  1  0.813062  0.796201  0.077427  1
  Y  Y6  1  0.186938  0.203799  0.922573  1
  Y  Y7  1  0.813062  0.203799  0.422573  1
  W  W8  1  0.253552  0.725415  0.885059  1
  W  W9  1  0.746448  0.725415  0.385059  1
  W  W10  1  0.253552  0.274585  0.614941  1
  W  W11  1  0.746448  0.274585  0.114941  1
  O  O12  1  0.042699  0.940188  0.895443  1
  O  O13  1  0.530769  0.847126  0.930654  1
  O  O14  1  0.957301  0.940188  0.395443  1
  O  O15  1  0.456452  0.791728  0.728094  1
  O  O16  1  0.469231  0.847126  0.430654  1
  O  O17  1  0.983325  0.714161  0.771525  1
  O  O18  1  0.543548  0.791728  0.228094  1
  O  O19  1  0.851521  0.638882  0.546739  1
  O  O20  1  0.354999  0.492440  0.886926  1
  O  O21  1  0.016675  0.714161  0.271525  1
  O  O22  1  0.354999  0.507560  0.613074  1
  O  O23  1  0.851521  0.361118  0.953261  1
  O  O24  1  0.148479  0.638882  0.046739  1
  O  O25  1  0.645001  0.492440  0.386926  1
  O  O26  1  0.983325  0.285839  0.728475  1
  O  O27  1  0.645001  0.507560  0.113074  1
  O  O28  1  0.148479  0.361118  0.453261  1
  O  O29  1  0.456452  0.208272  0.771906  1
  O  O30  1  0.016675  0.285839  0.228475  1
  O  O31  1  0.530769  0.152874  0.569346  1
  O  O32  1  0.543548  0.208272  0.271906  1
  O  O33  1  0.042699  0.059812  0.604557  1
  O  O34  1  0.469231  0.152874  0.069346  1
  O  O35  1  0.957301  0.059812  0.104557  1
