# generated using pymatgen
data_Dy19Y(Cd3Tc)2
_symmetry_space_group_name_H-M   'P 1'
_cell_length_a   9.55332300
_cell_length_b   9.55369872
_cell_length_c   9.95666900
_cell_angle_alpha   90.00000000
_cell_angle_beta   90.00000000
_cell_angle_gamma   120.00129896
_symmetry_Int_Tables_number   1
_chemical_formula_structural   Dy19Y(Cd3Tc)2
_chemical_formula_sum   'Dy19 Y1 Cd6 Tc2'
_cell_volume   786.98239989
_cell_formula_units_Z   1
loop_
 _symmetry_equiv_pos_site_id
 _symmetry_equiv_pos_as_xyz
  1  'x, y, z'
loop_
 _atom_site_type_symbol
 _atom_site_label
 _atom_site_symmetry_multiplicity
 _atom_site_fract_x
 _atom_site_fract_y
 _atom_site_fract_z
 _atom_site_occupancy
  Dy  Dy0  1  0.999954  0.999977  0.500052  1
  Dy  Dy1  1  0.999954  0.999977  0.999948  1
  Dy  Dy2  1  0.210054  0.790055  0.440937  1
  Dy  Dy3  1  0.210054  0.419999  0.440937  1
  Dy  Dy4  1  0.579981  0.789991  0.441024  1
  Dy  Dy5  1  0.789929  0.209921  0.558962  1
  Dy  Dy6  1  0.789929  0.580007  0.558962  1
  Dy  Dy7  1  0.419931  0.209965  0.558997  1
  Dy  Dy8  1  0.789929  0.209921  0.941038  1
  Dy  Dy9  1  0.789929  0.580007  0.941038  1
  Dy  Dy10  1  0.419931  0.209965  0.941003  1
  Dy  Dy11  1  0.210054  0.790055  0.059063  1
  Dy  Dy12  1  0.210054  0.419999  0.059063  1
  Dy  Dy13  1  0.579981  0.789991  0.058976  1
  Dy  Dy14  1  0.539697  0.460346  0.250000  1
  Dy  Dy15  1  0.539697  0.079352  0.250000  1
  Dy  Dy16  1  0.920647  0.460324  0.250000  1
  Dy  Dy17  1  0.460428  0.539654  0.750000  1
  Dy  Dy18  1  0.460428  0.920774  0.750000  1
  Y  Y19  1  0.079537  0.539768  0.750000  1
  Cd  Cd20  1  0.885520  0.114482  0.250000  1
  Cd  Cd21  1  0.885520  0.771039  0.250000  1
  Cd  Cd22  1  0.228948  0.114474  0.250000  1
  Cd  Cd23  1  0.114531  0.885626  0.750000  1
  Cd  Cd24  1  0.114531  0.228903  0.750000  1
  Cd  Cd25  1  0.771028  0.885513  0.750000  1
  Tc  Tc26  1  0.333347  0.666674  0.250000  1
  Tc  Tc27  1  0.666478  0.333238  0.750000  1
