# generated using pymatgen
data_HfSc5(PRu)6
_symmetry_space_group_name_H-M   'P 1'
_cell_length_a   7.48779184
_cell_length_b   7.49420753
_cell_length_c   7.48779201
_cell_angle_alpha   128.03082322
_cell_angle_beta   121.52939101
_cell_angle_gamma   81.98516321
_symmetry_Int_Tables_number   1
_chemical_formula_structural   HfSc5(PRu)6
_chemical_formula_sum   'Hf1 Sc5 P6 Ru6'
_cell_volume   271.45487246
_cell_formula_units_Z   1
loop_
 _symmetry_equiv_pos_site_id
 _symmetry_equiv_pos_as_xyz
  1  'x, y, z'
loop_
 _atom_site_type_symbol
 _atom_site_label
 _atom_site_symmetry_multiplicity
 _atom_site_fract_x
 _atom_site_fract_y
 _atom_site_fract_z
 _atom_site_occupancy
  Hf  Hf0  1  0.949774  0.655217  0.205443  1
  Sc  Sc1  1  0.465833  0.688205  0.722373  1
  Sc  Sc2  1  0.534177  0.255442  0.221266  1
  Sc  Sc3  1  0.747633  0.835529  0.587896  1
  Sc  Sc4  1  0.252044  0.838221  0.086176  1
  Sc  Sc5  1  0.050545  0.257003  0.706458  1
  P  P6  1  0.269584  0.267499  0.497916  1
  P  P7  1  0.728220  0.220087  0.991868  1
  P  P8  1  0.330478  0.586915  0.250482  1
  P  P9  1  0.670614  0.922131  0.259171  1
  P  P10  1  0.162960  0.922131  0.751516  1
  P  P11  1  0.836433  0.586915  0.756437  1
  Ru  Ru12  1  0.504643  0.497836  0.001012  1
  Ru  Ru13  1  0.996824  0.497836  0.493193  1
  Ru  Ru14  1  0.101704  0.255021  0.111920  1
  Ru  Ru15  1  0.901586  0.009297  0.155446  1
  Ru  Ru16  1  0.353851  0.009297  0.607711  1
  Ru  Ru17  1  0.643101  0.255021  0.653317  1
