# generated using pymatgen
data_Er10IrPt5
_symmetry_space_group_name_H-M   'P 1'
_cell_length_a   10.93310500
_cell_length_b   10.93310500
_cell_length_c   6.35852400
_cell_angle_alpha   90.00000000
_cell_angle_beta   90.00000000
_cell_angle_gamma   90.00000000
_symmetry_Int_Tables_number   1
_chemical_formula_structural   Er10IrPt5
_chemical_formula_sum   'Er20 Ir2 Pt10'
_cell_volume   760.05208183
_cell_formula_units_Z   2
loop_
 _symmetry_equiv_pos_site_id
 _symmetry_equiv_pos_as_xyz
  1  'x, y, z'
loop_
 _atom_site_type_symbol
 _atom_site_label
 _atom_site_symmetry_multiplicity
 _atom_site_fract_x
 _atom_site_fract_y
 _atom_site_fract_z
 _atom_site_occupancy
  Er  Er0  1  0.292039  0.087761  0.377210  1
  Er  Er1  1  0.292039  0.912239  0.877210  1
  Er  Er2  1  0.707961  0.087761  0.877210  1
  Er  Er3  1  0.707961  0.912239  0.377210  1
  Er  Er4  1  0.587761  0.792039  0.877210  1
  Er  Er5  1  0.587761  0.207961  0.377210  1
  Er  Er6  1  0.412239  0.792039  0.377210  1
  Er  Er7  1  0.412239  0.207961  0.877210  1
  Er  Er8  1  0.205862  0.412896  0.623374  1
  Er  Er9  1  0.205862  0.587104  0.123374  1
  Er  Er10  1  0.794138  0.412896  0.123374  1
  Er  Er11  1  0.794138  0.587104  0.623374  1
  Er  Er12  1  0.912896  0.705862  0.123374  1
  Er  Er13  1  0.912896  0.294138  0.623374  1
  Er  Er14  1  0.087104  0.705862  0.623374  1
  Er  Er15  1  0.087104  0.294138  0.123374  1
  Er  Er16  1  0.000000  0.000000  0.500377  1
  Er  Er17  1  0.000000  0.000000  0.000377  1
  Er  Er18  1  0.500000  0.500000  0.000377  1
  Er  Er19  1  0.500000  0.500000  0.500377  1
  Ir  Ir20  1  0.000000  0.500000  0.880256  1
  Ir  Ir21  1  0.000000  0.500000  0.380256  1
  Pt  Pt22  1  0.845783  0.153255  0.249731  1
  Pt  Pt23  1  0.845783  0.846745  0.749731  1
  Pt  Pt24  1  0.154217  0.153255  0.749731  1
  Pt  Pt25  1  0.154217  0.846745  0.249731  1
  Pt  Pt26  1  0.653255  0.345783  0.749731  1
  Pt  Pt27  1  0.653255  0.654217  0.249731  1
  Pt  Pt28  1  0.346745  0.345783  0.249731  1
  Pt  Pt29  1  0.346745  0.654217  0.749731  1
  Pt  Pt30  1  0.500000  0.000000  0.117725  1
  Pt  Pt31  1  0.500000  0.000000  0.617725  1
