# generated using pymatgen
data_LaLu2RuO7
_symmetry_space_group_name_H-M   'P 1'
_cell_length_a   6.37672927
_cell_length_b   6.37672757
_cell_length_c   7.45832700
_cell_angle_alpha   90.00000000
_cell_angle_beta   90.00000000
_cell_angle_gamma   109.57018771
_symmetry_Int_Tables_number   1
_chemical_formula_structural   LaLu2RuO7
_chemical_formula_sum   'La2 Lu4 Ru2 O14'
_cell_volume   285.75579854
_cell_formula_units_Z   2
loop_
 _symmetry_equiv_pos_site_id
 _symmetry_equiv_pos_as_xyz
  1  'x, y, z'
loop_
 _atom_site_type_symbol
 _atom_site_label
 _atom_site_symmetry_multiplicity
 _atom_site_fract_x
 _atom_site_fract_y
 _atom_site_fract_z
 _atom_site_occupancy
  La  La0  1  0.000000  0.000000  0.500000  1
  La  La1  1  0.000000  0.000000  0.000000  1
  Lu  Lu2  1  0.485193  0.938345  0.750000  1
  Lu  Lu3  1  0.514807  0.061655  0.250000  1
  Lu  Lu4  1  0.938345  0.485193  0.750000  1
  Lu  Lu5  1  0.061655  0.514807  0.250000  1
  Ru  Ru6  1  0.500000  0.500000  0.500000  1
  Ru  Ru7  1  0.500000  0.500000  0.000000  1
  O  O8  1  0.593831  0.593831  0.750000  1
  O  O9  1  0.406169  0.406169  0.250000  1
  O  O10  1  0.833324  0.124916  0.750000  1
  O  O11  1  0.166676  0.875084  0.250000  1
  O  O12  1  0.124916  0.833324  0.750000  1
  O  O13  1  0.875084  0.166676  0.250000  1
  O  O14  1  0.442903  0.179133  0.963506  1
  O  O15  1  0.557097  0.820867  0.463506  1
  O  O16  1  0.179133  0.442903  0.963506  1
  O  O17  1  0.820867  0.557097  0.463506  1
  O  O18  1  0.442903  0.179133  0.536494  1
  O  O19  1  0.557097  0.820867  0.036494  1
  O  O20  1  0.820867  0.557097  0.036494  1
  O  O21  1  0.179133  0.442903  0.536494  1
