# generated using pymatgen
data_Na3TcO5
_symmetry_space_group_name_H-M   'P 1'
_cell_length_a   5.55724900
_cell_length_b   5.55724942
_cell_length_c   14.01577100
_cell_angle_alpha   90.00000000
_cell_angle_beta   90.00000000
_cell_angle_gamma   120.00000348
_symmetry_Int_Tables_number   1
_chemical_formula_structural   Na3TcO5
_chemical_formula_sum   'Na9 Tc3 O15'
_cell_volume   374.85849283
_cell_formula_units_Z   3
loop_
 _symmetry_equiv_pos_site_id
 _symmetry_equiv_pos_as_xyz
  1  'x, y, z'
loop_
 _atom_site_type_symbol
 _atom_site_label
 _atom_site_symmetry_multiplicity
 _atom_site_fract_x
 _atom_site_fract_y
 _atom_site_fract_z
 _atom_site_occupancy
  Na  Na0  1  0.626668  0.942339  0.583499  1
  Na  Na1  1  0.315671  0.373332  0.250166  1
  Na  Na2  1  0.057661  0.684329  0.916833  1
  Na  Na3  1  0.684329  0.057661  0.083167  1
  Na  Na4  1  0.373332  0.315671  0.749834  1
  Na  Na5  1  0.942339  0.626668  0.416501  1
  Na  Na6  1  0.000000  0.713532  0.166667  1
  Na  Na7  1  0.713532  0.000000  0.833333  1
  Na  Na8  1  0.286468  0.286468  0.500000  1
  Tc  Tc9  1  0.000000  0.635435  0.666667  1
  Tc  Tc10  1  0.635435  0.000000  0.333333  1
  Tc  Tc11  1  0.364565  0.364565  0.000000  1
  O  O12  1  0.140520  0.479089  0.059399  1
  O  O13  1  0.338569  0.859480  0.726066  1
  O  O14  1  0.520911  0.661431  0.392733  1
  O  O15  1  0.000000  0.314264  0.666667  1
  O  O16  1  0.314264  0.000000  0.333333  1
  O  O17  1  0.685736  0.685736  0.000000  1
  O  O18  1  0.661431  0.520911  0.607267  1
  O  O19  1  0.859480  0.338569  0.273934  1
  O  O20  1  0.479089  0.140520  0.940601  1
  O  O21  1  0.322814  0.159940  0.108170  1
  O  O22  1  0.837126  0.677186  0.774836  1
  O  O23  1  0.840060  0.162874  0.441503  1
  O  O24  1  0.162874  0.840060  0.558497  1
  O  O25  1  0.159940  0.322814  0.891830  1
  O  O26  1  0.677186  0.837126  0.225164  1
