# generated using pymatgen
data_SrEu6DySb6
_symmetry_space_group_name_H-M   'P 1'
_cell_length_a   8.46030780
_cell_length_b   8.34891204
_cell_length_c   8.43873500
_cell_angle_alpha   70.80578946
_cell_angle_beta   70.19732289
_cell_angle_gamma   109.42982929
_symmetry_Int_Tables_number   1
_chemical_formula_structural   SrEu6DySb6
_chemical_formula_sum   'Sr1 Eu6 Dy1 Sb6'
_cell_volume   458.76700105
_cell_formula_units_Z   1
loop_
 _symmetry_equiv_pos_site_id
 _symmetry_equiv_pos_as_xyz
  1  'x, y, z'
loop_
 _atom_site_type_symbol
 _atom_site_label
 _atom_site_symmetry_multiplicity
 _atom_site_fract_x
 _atom_site_fract_y
 _atom_site_fract_z
 _atom_site_occupancy
  Sr  Sr0  1  0.856520  0.002820  0.997796  1
  Eu  Eu1  1  0.999197  0.357116  0.499432  1
  Eu  Eu2  1  0.498860  0.499186  0.146130  1
  Eu  Eu3  1  0.645464  0.144920  0.356090  1
  Eu  Eu4  1  0.361987  0.001137  0.995812  1
  Eu  Eu5  1  0.495281  0.496925  0.642216  1
  Eu  Eu6  1  0.142106  0.639096  0.862605  1
  Dy  Dy7  1  0.999965  0.859640  0.500491  1
  Sb  Sb8  1  0.631979  0.872220  0.740936  1
  Sb  Sb9  1  0.877358  0.627318  0.258074  1
  Sb  Sb10  1  0.247137  0.116971  0.618973  1
  Sb  Sb11  1  0.754986  0.389367  0.865869  1
  Sb  Sb12  1  0.363298  0.751815  0.380470  1
  Sb  Sb13  1  0.125862  0.241466  0.135105  1
