# generated using pymatgen
data_Ti2Nb12GaP7
_symmetry_space_group_name_H-M   'P 1'
_cell_length_a   7.72237314
_cell_length_b   7.72237321
_cell_length_c   13.90520237
_cell_angle_alpha   76.15377135
_cell_angle_beta   76.15377210
_cell_angle_gamma   25.95072520
_symmetry_Int_Tables_number   1
_chemical_formula_structural   Ti2Nb12GaP7
_chemical_formula_sum   'Ti2 Nb12 Ga1 P7'
_cell_volume   351.75945088
_cell_formula_units_Z   1
loop_
 _symmetry_equiv_pos_site_id
 _symmetry_equiv_pos_as_xyz
  1  'x, y, z'
loop_
 _atom_site_type_symbol
 _atom_site_label
 _atom_site_symmetry_multiplicity
 _atom_site_fract_x
 _atom_site_fract_y
 _atom_site_fract_z
 _atom_site_occupancy
  Ti  Ti0  1  0.996482  0.996482  0.001828  1
  Ti  Ti1  1  0.501325  0.501325  0.499906  1
  Nb  Nb2  1  0.430483  0.430483  0.171675  1
  Nb  Nb3  1  0.565244  0.565244  0.822791  1
  Nb  Nb4  1  0.198194  0.198194  0.684557  1
  Nb  Nb5  1  0.804506  0.804506  0.312676  1
  Nb  Nb6  1  0.208863  0.208863  0.201912  1
  Nb  Nb7  1  0.795652  0.795652  0.790399  1
  Nb  Nb8  1  0.338242  0.338242  0.972692  1
  Nb  Nb9  1  0.663139  0.663139  0.037988  1
  Nb  Nb10  1  0.003011  0.003011  0.335798  1
  Nb  Nb11  1  0.996601  0.996601  0.664581  1
  Nb  Nb12  1  0.174563  0.174563  0.458662  1
  Nb  Nb13  1  0.825364  0.825364  0.540279  1
  Ga  Ga14  1  0.174252  0.174252  0.891329  1
  P  P15  1  0.825363  0.825363  0.112149  1
  P  P16  1  0.375699  0.375699  0.400147  1
  P  P17  1  0.623718  0.623718  0.601497  1
  P  P18  1  0.373278  0.373278  0.659442  1
  P  P19  1  0.628370  0.628370  0.338018  1
  P  P20  1  0.061134  0.061134  0.150914  1
  P  P21  1  0.936517  0.936517  0.850761  1
