# generated using pymatgen
data_Zr2Ta3GaSi3
_symmetry_space_group_name_H-M   'P 1'
_cell_length_a   6.92213003
_cell_length_b   6.92146883
_cell_length_c   12.80276948
_cell_angle_alpha   90.05507692
_cell_angle_beta   89.99406197
_cell_angle_gamma   90.06218266
_symmetry_Int_Tables_number   1
_chemical_formula_structural   Zr2Ta3GaSi3
_chemical_formula_sum   'Zr8 Ta12 Ga4 Si12'
_cell_volume   613.39677379
_cell_formula_units_Z   4
loop_
 _symmetry_equiv_pos_site_id
 _symmetry_equiv_pos_as_xyz
  1  'x, y, z'
loop_
 _atom_site_type_symbol
 _atom_site_label
 _atom_site_symmetry_multiplicity
 _atom_site_fract_x
 _atom_site_fract_y
 _atom_site_fract_z
 _atom_site_occupancy
  Zr  Zr0  1  0.999912  0.665724  0.028987  1
  Zr  Zr1  1  0.000064  0.340033  0.531265  1
  Zr  Zr2  1  0.656580  0.999077  0.969714  1
  Zr  Zr3  1  0.161078  0.500924  0.779289  1
  Zr  Zr4  1  0.835165  0.499582  0.279684  1
  Zr  Zr5  1  0.501174  0.155985  0.219176  1
  Zr  Zr6  1  0.499297  0.838799  0.721255  1
  Zr  Zr7  1  0.339767  0.000506  0.469221  1
  Ta  Ta8  1  0.352580  0.502797  0.378257  1
  Ta  Ta9  1  0.844609  0.999284  0.369519  1
  Ta  Ta10  1  0.003152  0.147873  0.127730  1
  Ta  Ta11  1  0.998902  0.844079  0.631017  1
  Ta  Ta12  1  0.649109  0.497327  0.875128  1
  Ta  Ta13  1  0.502449  0.351637  0.625325  1
  Ta  Ta14  1  0.499155  0.655930  0.122212  1
  Ta  Ta15  1  0.156384  0.000879  0.872773  1
  Ta  Ta16  1  0.665554  0.665064  0.500131  1
  Ta  Ta17  1  0.830932  0.169620  0.750157  1
  Ta  Ta18  1  0.170913  0.836343  0.249119  1
  Ta  Ta19  1  0.335979  0.328801  0.999071  1
  Ga  Ga20  1  0.040659  0.701482  0.435017  1
  Ga  Ga21  1  0.959601  0.301282  0.936164  1
  Ga  Ga22  1  0.700983  0.040134  0.564384  1
  Ga  Ga23  1  0.198552  0.459397  0.185164  1
  Si  Si24  1  0.798914  0.543462  0.686127  1
  Si  Si25  1  0.457089  0.200664  0.813226  1
  Si  Si26  1  0.543621  0.797024  0.314199  1
  Si  Si27  1  0.297106  0.956819  0.063370  1
  Si  Si28  1  0.863759  0.793427  0.823235  1
  Si  Si29  1  0.136175  0.208694  0.323270  1
  Si  Si30  1  0.793439  0.862357  0.177845  1
  Si  Si31  1  0.293092  0.637033  0.572047  1
  Si  Si32  1  0.707450  0.364212  0.072963  1
  Si  Si33  1  0.636662  0.292394  0.428394  1
  Si  Si34  1  0.363049  0.705284  0.928310  1
  Si  Si35  1  0.207094  0.136070  0.677252  1
