# generated using pymatgen
data_CeSmHgPd2
_symmetry_space_group_name_H-M   'P 1'
_cell_length_a   7.79850700
_cell_length_b   7.77993400
_cell_length_c   3.82062900
_cell_angle_alpha   90.00000000
_cell_angle_beta   90.00000000
_cell_angle_gamma   90.00000000
_symmetry_Int_Tables_number   1
_chemical_formula_structural   CeSmHgPd2
_chemical_formula_sum   'Ce2 Sm2 Hg2 Pd4'
_cell_volume   231.80470508
_cell_formula_units_Z   2
loop_
 _symmetry_equiv_pos_site_id
 _symmetry_equiv_pos_as_xyz
  1  'x, y, z'
loop_
 _atom_site_type_symbol
 _atom_site_label
 _atom_site_symmetry_multiplicity
 _atom_site_fract_x
 _atom_site_fract_y
 _atom_site_fract_z
 _atom_site_occupancy
  Ce  Ce0  1  0.324137  0.174244  0.500001  1
  Ce  Ce1  1  0.824137  0.325756  0.500001  1
  Sm  Sm2  1  0.174554  0.675783  0.500001  1
  Sm  Sm3  1  0.674554  0.824217  0.500001  1
  Hg  Hg4  1  0.998505  0.997990  0.000000  1
  Hg  Hg5  1  0.498506  0.502011  0.000000  1
  Pd  Pd6  1  0.628698  0.134111  0.000000  1
  Pd  Pd7  1  0.128698  0.365889  0.000000  1
  Pd  Pd8  1  0.874106  0.619630  0.000000  1
  Pd  Pd9  1  0.374107  0.880369  0.000000  1
