# generated using pymatgen
data_Na8Li4Al3GaBi8
_symmetry_space_group_name_H-M   'P 1'
_cell_length_a   10.22416647
_cell_length_b   10.22416525
_cell_length_c   6.41801818
_cell_angle_alpha   90.12283931
_cell_angle_beta   89.87717357
_cell_angle_gamma   98.52832723
_symmetry_Int_Tables_number   1
_chemical_formula_structural   Na8Li4Al3GaBi8
_chemical_formula_sum   'Na8 Li4 Al3 Ga1 Bi8'
_cell_volume   663.47733346
_cell_formula_units_Z   1
loop_
 _symmetry_equiv_pos_site_id
 _symmetry_equiv_pos_as_xyz
  1  'x, y, z'
loop_
 _atom_site_type_symbol
 _atom_site_label
 _atom_site_symmetry_multiplicity
 _atom_site_fract_x
 _atom_site_fract_y
 _atom_site_fract_z
 _atom_site_occupancy
  Na  Na0  1  0.575356  0.923215  0.250447  1
  Na  Na1  1  0.671537  0.329184  0.222951  1
  Na  Na2  1  0.329184  0.671537  0.777049  1
  Na  Na3  1  0.075810  0.423172  0.251435  1
  Na  Na4  1  0.923215  0.575356  0.749553  1
  Na  Na5  1  0.423172  0.075810  0.748565  1
  Na  Na6  1  0.827986  0.173132  0.722837  1
  Na  Na7  1  0.173132  0.827986  0.277163  1
  Li  Li8  1  0.879734  0.879734  0.500000  1
  Li  Li9  1  0.121067  0.121067  0.500000  1
  Li  Li10  1  0.620027  0.620027  0.000000  1
  Li  Li11  1  0.379173  0.379173  0.000000  1
  Al  Al12  1  0.129545  0.129545  0.000000  1
  Al  Al13  1  0.370234  0.370234  0.500000  1
  Al  Al14  1  0.628787  0.628787  0.500000  1
  Ga  Ga15  1  0.870911  0.870911  0.000000  1
  Bi  Bi16  1  0.114844  0.888326  0.775679  1
  Bi  Bi17  1  0.612049  0.386717  0.723004  1
  Bi  Bi18  1  0.888326  0.114844  0.224321  1
  Bi  Bi19  1  0.386717  0.612049  0.276996  1
  Bi  Bi20  1  0.362270  0.138131  0.249046  1
  Bi  Bi21  1  0.138131  0.362270  0.750954  1
  Bi  Bi22  1  0.637319  0.861477  0.748410  1
  Bi  Bi23  1  0.861477  0.637319  0.251590  1
