# generated using pymatgen
data_MgScPaNi2
_symmetry_space_group_name_H-M   'P 1'
_cell_length_a   7.43382100
_cell_length_b   7.18813700
_cell_length_c   3.40007400
_cell_angle_alpha   90.00000000
_cell_angle_beta   90.00000000
_cell_angle_gamma   90.00000000
_symmetry_Int_Tables_number   1
_chemical_formula_structural   MgScPaNi2
_chemical_formula_sum   'Mg2 Sc2 Pa2 Ni4'
_cell_volume   181.68405507
_cell_formula_units_Z   2
loop_
 _symmetry_equiv_pos_site_id
 _symmetry_equiv_pos_as_xyz
  1  'x, y, z'
loop_
 _atom_site_type_symbol
 _atom_site_label
 _atom_site_symmetry_multiplicity
 _atom_site_fract_x
 _atom_site_fract_y
 _atom_site_fract_z
 _atom_site_occupancy
  Mg  Mg0  1  0.006793  0.983418  0.000000  1
  Mg  Mg1  1  0.506793  0.516582  0.000000  1
  Sc  Sc2  1  0.828601  0.668163  0.500000  1
  Sc  Sc3  1  0.328601  0.831837  0.500000  1
  Pa  Pa4  1  0.669107  0.162030  0.500000  1
  Pa  Pa5  1  0.169107  0.337970  0.500000  1
  Ni  Ni6  1  0.870685  0.358294  0.000000  1
  Ni  Ni7  1  0.370685  0.141706  0.000000  1
  Ni  Ni8  1  0.624814  0.886128  0.000000  1
  Ni  Ni9  1  0.124814  0.613872  0.000000  1
