# generated using pymatgen
data_La5TbYbFeI12
_symmetry_space_group_name_H-M   'P 1'
_cell_length_a   10.16610841
_cell_length_b   10.00935449
_cell_length_c   10.02440677
_cell_angle_alpha   107.11318148
_cell_angle_beta   106.57305224
_cell_angle_gamma   107.24480709
_symmetry_Int_Tables_number   1
_chemical_formula_structural   La5TbYbFeI12
_chemical_formula_sum   'La5 Tb1 Yb1 Fe1 I12'
_cell_volume   850.01029964
_cell_formula_units_Z   1
loop_
 _symmetry_equiv_pos_site_id
 _symmetry_equiv_pos_as_xyz
  1  'x, y, z'
loop_
 _atom_site_type_symbol
 _atom_site_label
 _atom_site_symmetry_multiplicity
 _atom_site_fract_x
 _atom_site_fract_y
 _atom_site_fract_z
 _atom_site_occupancy
  La  La0  1  0.094539  0.294647  0.025138  1
  La  La1  1  0.024318  0.096585  0.293457  1
  La  La2  1  0.313677  0.026392  0.102380  1
  La  La3  1  0.900940  0.704481  0.973516  1
  La  La4  1  0.973987  0.902976  0.705791  1
  Tb  Tb5  1  0.699795  0.973072  0.900160  1
  Yb  Yb6  1  0.499736  0.501068  0.500615  1
  Fe  Fe7  1  0.998175  0.999264  0.999237  1
  I  I8  1  0.462044  0.387467  0.160622  1
  I  I9  1  0.164262  0.466443  0.388322  1
  I  I10  1  0.383909  0.161354  0.464878  1
  I  I11  1  0.538618  0.624908  0.841352  1
  I  I12  1  0.834962  0.533218  0.611686  1
  I  I13  1  0.616313  0.845221  0.547476  1
  I  I14  1  0.767091  0.308503  0.924668  1
  I  I15  1  0.925963  0.770633  0.320720  1
  I  I16  1  0.323406  0.926956  0.771787  1
  I  I17  1  0.224277  0.677842  0.072257  1
  I  I18  1  0.073711  0.229276  0.679135  1
  I  I19  1  0.680277  0.069695  0.216800  1
