# generated using pymatgen
data_Tm3Al3ZnGeIr
_symmetry_space_group_name_H-M   'P 1'
_cell_length_a   6.92501600
_cell_length_b   6.92501619
_cell_length_c   4.21109500
_cell_angle_alpha   90.00000000
_cell_angle_beta   90.00000000
_cell_angle_gamma   119.99999908
_symmetry_Int_Tables_number   1
_chemical_formula_structural   Tm3Al3ZnGeIr
_chemical_formula_sum   'Tm3 Al3 Zn1 Ge1 Ir1'
_cell_volume   174.89091467
_cell_formula_units_Z   1
loop_
 _symmetry_equiv_pos_site_id
 _symmetry_equiv_pos_as_xyz
  1  'x, y, z'
loop_
 _atom_site_type_symbol
 _atom_site_label
 _atom_site_symmetry_multiplicity
 _atom_site_fract_x
 _atom_site_fract_y
 _atom_site_fract_z
 _atom_site_occupancy
  Tm  Tm0  1  0.416440  0.000735  0.000000  1
  Tm  Tm1  1  0.999265  0.415704  0.000000  1
  Tm  Tm2  1  0.584296  0.583560  0.000000  1
  Al  Al3  1  0.772194  0.006987  0.499999  1
  Al  Al4  1  0.234792  0.227806  0.499999  1
  Al  Al5  1  0.993013  0.765208  0.499999  1
  Zn  Zn6  1  0.666666  0.333333  0.499999  1
  Ge  Ge7  1  0.333333  0.666666  0.499999  1
  Ir  Ir8  1  0.000000  0.000000  0.000000  1
