# generated using pymatgen
data_YbZr3(Nb3Si4)2
_symmetry_space_group_name_H-M   'P 1'
_cell_length_a   6.93818961
_cell_length_b   6.93869816
_cell_length_c   12.83768400
_cell_angle_alpha   90.00000000
_cell_angle_beta   90.00000000
_cell_angle_gamma   90.21663250
_symmetry_Int_Tables_number   1
_chemical_formula_structural   YbZr3(Nb3Si4)2
_chemical_formula_sum   'Yb2 Zr6 Nb12 Si16'
_cell_volume   618.02740979
_cell_formula_units_Z   2
loop_
 _symmetry_equiv_pos_site_id
 _symmetry_equiv_pos_as_xyz
  1  'x, y, z'
loop_
 _atom_site_type_symbol
 _atom_site_label
 _atom_site_symmetry_multiplicity
 _atom_site_fract_x
 _atom_site_fract_y
 _atom_site_fract_z
 _atom_site_occupancy
  Yb  Yb0  1  0.337112  0.995699  0.780452  1
  Yb  Yb1  1  0.662888  0.004301  0.280452  1
  Zr  Zr2  1  0.003281  0.343311  0.217695  1
  Zr  Zr3  1  0.996719  0.656689  0.717695  1
  Zr  Zr4  1  0.157959  0.501524  0.468557  1
  Zr  Zr5  1  0.498671  0.842000  0.033753  1
  Zr  Zr6  1  0.842041  0.498476  0.968557  1
  Zr  Zr7  1  0.501329  0.158000  0.533753  1
  Nb  Nb8  1  0.168912  0.170060  0.000143  1
  Nb  Nb9  1  0.831088  0.829940  0.500143  1
  Nb  Nb10  1  0.327673  0.666758  0.250429  1
  Nb  Nb11  1  0.672327  0.333242  0.750429  1
  Nb  Nb12  1  0.150784  0.993147  0.376043  1
  Nb  Nb13  1  0.849216  0.006853  0.876043  1
  Nb  Nb14  1  0.506819  0.652702  0.625164  1
  Nb  Nb15  1  0.349286  0.496499  0.874864  1
  Nb  Nb16  1  0.493181  0.347298  0.125164  1
  Nb  Nb17  1  0.650714  0.503501  0.374864  1
  Nb  Nb18  1  0.996477  0.156635  0.622825  1
  Nb  Nb19  1  0.003523  0.843365  0.122825  1
  Si  Si20  1  0.294791  0.043425  0.187112  1
  Si  Si21  1  0.705209  0.956575  0.687112  1
  Si  Si22  1  0.455865  0.798408  0.436483  1
  Si  Si23  1  0.201846  0.543653  0.063678  1
  Si  Si24  1  0.544135  0.201592  0.936483  1
  Si  Si25  1  0.798154  0.456347  0.563678  1
  Si  Si26  1  0.045926  0.300087  0.812937  1
  Si  Si27  1  0.954074  0.699913  0.312937  1
  Si  Si28  1  0.362644  0.292753  0.322272  1
  Si  Si29  1  0.637356  0.707247  0.822272  1
  Si  Si30  1  0.206032  0.864628  0.569950  1
  Si  Si31  1  0.133597  0.790225  0.929910  1
  Si  Si32  1  0.793968  0.135372  0.069950  1
  Si  Si33  1  0.866403  0.209775  0.429910  1
  Si  Si34  1  0.293511  0.368354  0.677735  1
  Si  Si35  1  0.706489  0.631646  0.177735  1
