# generated using pymatgen
data_YEr2(Ni3P2)3
_symmetry_space_group_name_H-M   'P 1'
_cell_length_a   3.76651400
_cell_length_b   10.44387600
_cell_length_c   12.30349200
_cell_angle_alpha   90.00000000
_cell_angle_beta   90.00000000
_cell_angle_gamma   90.00000000
_symmetry_Int_Tables_number   1
_chemical_formula_structural   YEr2(Ni3P2)3
_chemical_formula_sum   'Y2 Er4 Ni18 P12'
_cell_volume   483.98252839
_cell_formula_units_Z   2
loop_
 _symmetry_equiv_pos_site_id
 _symmetry_equiv_pos_as_xyz
  1  'x, y, z'
loop_
 _atom_site_type_symbol
 _atom_site_label
 _atom_site_symmetry_multiplicity
 _atom_site_fract_x
 _atom_site_fract_y
 _atom_site_fract_z
 _atom_site_occupancy
  Y  Y0  1  0.752199  0.000000  0.478934  1
  Y  Y1  1  0.252199  0.500000  0.521066  1
  Er  Er2  1  0.251767  0.683239  0.794379  1
  Er  Er3  1  0.251767  0.316761  0.794379  1
  Er  Er4  1  0.751767  0.816761  0.205621  1
  Er  Er5  1  0.751767  0.183239  0.205621  1
  Ni  Ni6  1  0.751282  0.000000  0.016706  1
  Ni  Ni7  1  0.251282  0.500000  0.983294  1
  Ni  Ni8  1  0.251875  0.199729  0.571491  1
  Ni  Ni9  1  0.251875  0.800271  0.571491  1
  Ni  Ni10  1  0.751875  0.300271  0.428509  1
  Ni  Ni11  1  0.751875  0.699729  0.428509  1
  Ni  Ni12  1  0.252490  0.620793  0.288240  1
  Ni  Ni13  1  0.252490  0.379207  0.288240  1
  Ni  Ni14  1  0.752490  0.879207  0.711760  1
  Ni  Ni15  1  0.752490  0.120793  0.711760  1
  Ni  Ni16  1  0.250799  0.167125  0.004474  1
  Ni  Ni17  1  0.250799  0.832875  0.004474  1
  Ni  Ni18  1  0.750799  0.332875  0.995526  1
  Ni  Ni19  1  0.750799  0.667125  0.995526  1
  Ni  Ni20  1  0.251784  0.000000  0.841831  1
  Ni  Ni21  1  0.751784  0.500000  0.158169  1
  Ni  Ni22  1  0.252461  0.000000  0.299202  1
  Ni  Ni23  1  0.752461  0.500000  0.700798  1
  P  P24  1  0.252237  0.186911  0.384988  1
  P  P25  1  0.252237  0.813089  0.384988  1
  P  P26  1  0.752237  0.313089  0.615012  1
  P  P27  1  0.752237  0.686911  0.615012  1
  P  P28  1  0.251592  0.000000  0.123685  1
  P  P29  1  0.751592  0.500000  0.876315  1
  P  P30  1  0.251522  0.652335  0.107533  1
  P  P31  1  0.251522  0.347665  0.107533  1
  P  P32  1  0.751522  0.847665  0.892467  1
  P  P33  1  0.751522  0.152335  0.892467  1
  P  P34  1  0.252103  0.000000  0.656601  1
  P  P35  1  0.752103  0.500000  0.343399  1
