# generated using pymatgen
data_SmTh3Cu4Si3Ge
_symmetry_space_group_name_H-M   'P 1'
_cell_length_a   4.15167800
_cell_length_b   8.19245290
_cell_length_c   7.17642804
_cell_angle_alpha   89.87026381
_cell_angle_beta   90.00000000
_cell_angle_gamma   90.00000000
_symmetry_Int_Tables_number   1
_chemical_formula_structural   SmTh3Cu4Si3Ge
_chemical_formula_sum   'Sm1 Th3 Cu4 Si3 Ge1'
_cell_volume   244.08710513
_cell_formula_units_Z   1
loop_
 _symmetry_equiv_pos_site_id
 _symmetry_equiv_pos_as_xyz
  1  'x, y, z'
loop_
 _atom_site_type_symbol
 _atom_site_label
 _atom_site_symmetry_multiplicity
 _atom_site_fract_x
 _atom_site_fract_y
 _atom_site_fract_z
 _atom_site_occupancy
  Sm  Sm0  1  0.750000  0.498965  0.748482  1
  Th  Th1  1  0.250000  0.001419  0.251237  1
  Th  Th2  1  0.250000  0.498954  0.251840  1
  Th  Th3  1  0.750000  0.001096  0.748814  1
  Cu  Cu4  1  0.250000  0.245191  0.916862  1
  Cu  Cu5  1  0.250000  0.756222  0.576770  1
  Cu  Cu6  1  0.750000  0.754139  0.088801  1
  Cu  Cu7  1  0.750000  0.246642  0.417556  1
  Si  Si8  1  0.250000  0.252318  0.584344  1
  Si  Si9  1  0.750000  0.745788  0.417963  1
  Si  Si10  1  0.750000  0.254750  0.082938  1
  Ge  Ge11  1  0.250000  0.744518  0.914394  1
