# generated using pymatgen
data_Ba6Ta(IrO6)3
_symmetry_space_group_name_H-M   'P 1'
_cell_length_a   7.57638362
_cell_length_b   7.57638240
_cell_length_c   7.57638200
_cell_angle_alpha   84.98732771
_cell_angle_beta   84.98732240
_cell_angle_gamma   84.98733614
_symmetry_Int_Tables_number   1
_chemical_formula_structural   Ba6Ta(IrO6)3
_chemical_formula_sum   'Ba6 Ta1 Ir3 O18'
_cell_volume   430.18046339
_cell_formula_units_Z   1
loop_
 _symmetry_equiv_pos_site_id
 _symmetry_equiv_pos_as_xyz
  1  'x, y, z'
loop_
 _atom_site_type_symbol
 _atom_site_label
 _atom_site_symmetry_multiplicity
 _atom_site_fract_x
 _atom_site_fract_y
 _atom_site_fract_z
 _atom_site_occupancy
  Ba  Ba0  1  0.585785  0.921145  0.249820  1
  Ba  Ba1  1  0.921145  0.249820  0.585785  1
  Ba  Ba2  1  0.249820  0.585785  0.921145  1
  Ba  Ba3  1  0.410911  0.083513  0.746315  1
  Ba  Ba4  1  0.746315  0.410911  0.083513  1
  Ba  Ba5  1  0.083513  0.746315  0.410911  1
  Ta  Ta6  1  0.144588  0.144588  0.144588  1
  Ir  Ir7  1  0.350466  0.350466  0.350466  1
  Ir  Ir8  1  0.847158  0.847158  0.847158  1
  Ir  Ir9  1  0.647002  0.647002  0.647002  1
  O  O10  1  0.260760  0.923630  0.088933  1
  O  O11  1  0.088933  0.260760  0.923630  1
  O  O12  1  0.923630  0.088933  0.260760  1
  O  O13  1  0.254627  0.418865  0.573086  1
  O  O14  1  0.573086  0.254627  0.418865  1
  O  O15  1  0.418865  0.573086  0.254627  1
  O  O16  1  0.746708  0.070589  0.910522  1
  O  O17  1  0.910522  0.746708  0.070589  1
  O  O18  1  0.070589  0.910522  0.746708  1
  O  O19  1  0.745572  0.583860  0.423046  1
  O  O20  1  0.108657  0.406685  0.256065  1
  O  O21  1  0.406685  0.256065  0.108657  1
  O  O22  1  0.256065  0.108657  0.406685  1
  O  O23  1  0.892631  0.603385  0.745675  1
  O  O24  1  0.603385  0.745675  0.892631  1
  O  O25  1  0.745675  0.892631  0.603385  1
  O  O26  1  0.583860  0.423046  0.745572  1
  O  O27  1  0.423046  0.745572  0.583860  1
