# generated using pymatgen
data_DyEr(TmBi)3
_symmetry_space_group_name_H-M   'P 1'
_cell_length_a   8.20366100
_cell_length_b   9.44388800
_cell_length_c   11.95562900
_cell_angle_alpha   90.00000000
_cell_angle_beta   90.00000000
_cell_angle_gamma   90.00000000
_symmetry_Int_Tables_number   1
_chemical_formula_structural   DyEr(TmBi)3
_chemical_formula_sum   'Dy4 Er4 Tm12 Bi12'
_cell_volume   926.25584901
_cell_formula_units_Z   4
loop_
 _symmetry_equiv_pos_site_id
 _symmetry_equiv_pos_as_xyz
  1  'x, y, z'
loop_
 _atom_site_type_symbol
 _atom_site_label
 _atom_site_symmetry_multiplicity
 _atom_site_fract_x
 _atom_site_fract_y
 _atom_site_fract_z
 _atom_site_occupancy
  Dy  Dy0  1  0.312222  0.250000  0.218391  1
  Dy  Dy1  1  0.812222  0.250000  0.281609  1
  Dy  Dy2  1  0.687778  0.750000  0.781609  1
  Dy  Dy3  1  0.187778  0.750000  0.718391  1
  Er  Er4  1  0.352480  0.750000  0.216847  1
  Er  Er5  1  0.852480  0.750000  0.283153  1
  Er  Er6  1  0.647520  0.250000  0.783153  1
  Er  Er7  1  0.147520  0.250000  0.716847  1
  Tm  Tm8  1  0.692670  0.565611  0.059141  1
  Tm  Tm9  1  0.192670  0.934389  0.440859  1
  Tm  Tm10  1  0.307330  0.065611  0.940859  1
  Tm  Tm11  1  0.807330  0.434389  0.559141  1
  Tm  Tm12  1  0.307330  0.434389  0.940859  1
  Tm  Tm13  1  0.807330  0.065611  0.559141  1
  Tm  Tm14  1  0.692670  0.934389  0.059141  1
  Tm  Tm15  1  0.192670  0.565611  0.440859  1
  Tm  Tm16  1  0.476114  0.250000  0.488890  1
  Tm  Tm17  1  0.976114  0.250000  0.011110  1
  Tm  Tm18  1  0.523886  0.750000  0.511110  1
  Tm  Tm19  1  0.023886  0.750000  0.988890  1
  Bi  Bi20  1  0.405251  0.750000  0.958116  1
  Bi  Bi21  1  0.905251  0.750000  0.541884  1
  Bi  Bi22  1  0.594749  0.250000  0.041884  1
  Bi  Bi23  1  0.094749  0.250000  0.458116  1
  Bi  Bi24  1  0.565224  0.994936  0.325930  1
  Bi  Bi25  1  0.065224  0.505064  0.174070  1
  Bi  Bi26  1  0.434776  0.494936  0.674070  1
  Bi  Bi27  1  0.934776  0.005064  0.825930  1
  Bi  Bi28  1  0.434776  0.005064  0.674070  1
  Bi  Bi29  1  0.934776  0.494936  0.825930  1
  Bi  Bi30  1  0.565224  0.505064  0.325930  1
  Bi  Bi31  1  0.065224  0.994936  0.174070  1
