# generated using pymatgen
data_Ho4InPt
_symmetry_space_group_name_H-M   'P 1'
_cell_length_a   9.68607251
_cell_length_b   9.68607223
_cell_length_c   9.68607200
_cell_angle_alpha   60.00000078
_cell_angle_beta   60.00000173
_cell_angle_gamma   60.00000218
_symmetry_Int_Tables_number   1
_chemical_formula_structural   Ho4InPt
_chemical_formula_sum   'Ho16 In4 Pt4'
_cell_volume   642.58136906
_cell_formula_units_Z   4
loop_
 _symmetry_equiv_pos_site_id
 _symmetry_equiv_pos_as_xyz
  1  'x, y, z'
loop_
 _atom_site_type_symbol
 _atom_site_label
 _atom_site_symmetry_multiplicity
 _atom_site_fract_x
 _atom_site_fract_y
 _atom_site_fract_z
 _atom_site_occupancy
  Ho  Ho0  1  0.187578  0.187578  0.812422  1
  Ho  Ho1  1  0.600318  0.600318  0.199047  1
  Ho  Ho2  1  0.439963  0.060037  0.439963  1
  Ho  Ho3  1  0.439963  0.439963  0.060037  1
  Ho  Ho4  1  0.812422  0.187578  0.812422  1
  Ho  Ho5  1  0.187578  0.812422  0.187578  1
  Ho  Ho6  1  0.439963  0.060037  0.060037  1
  Ho  Ho7  1  0.187578  0.812422  0.812422  1
  Ho  Ho8  1  0.060037  0.439963  0.060037  1
  Ho  Ho9  1  0.812422  0.812422  0.187578  1
  Ho  Ho10  1  0.199047  0.600318  0.600318  1
  Ho  Ho11  1  0.060037  0.439963  0.439963  1
  Ho  Ho12  1  0.060037  0.060037  0.439963  1
  Ho  Ho13  1  0.812422  0.187578  0.187578  1
  Ho  Ho14  1  0.600318  0.199047  0.600318  1
  Ho  Ho15  1  0.600318  0.600318  0.600318  1
  In  In16  1  0.832987  0.832987  0.832987  1
  In  In17  1  0.832987  0.832987  0.501039  1
  In  In18  1  0.501039  0.832987  0.832987  1
  In  In19  1  0.832987  0.501039  0.832987  1
  Pt  Pt20  1  0.392612  0.822164  0.392612  1
  Pt  Pt21  1  0.392612  0.392612  0.392612  1
  Pt  Pt22  1  0.822164  0.392612  0.392612  1
  Pt  Pt23  1  0.392612  0.392612  0.822164  1
