# generated using pymatgen
data_Ti4V4Si3P
_symmetry_space_group_name_H-M   'P 1'
_cell_length_a   3.33256200
_cell_length_b   6.52213111
_cell_length_c   7.86141591
_cell_angle_alpha   89.64507830
_cell_angle_beta   90.00000000
_cell_angle_gamma   90.00000000
_symmetry_Int_Tables_number   1
_chemical_formula_structural   Ti4V4Si3P
_chemical_formula_sum   'Ti4 V4 Si3 P1'
_cell_volume   170.86779067
_cell_formula_units_Z   1
loop_
 _symmetry_equiv_pos_site_id
 _symmetry_equiv_pos_as_xyz
  1  'x, y, z'
loop_
 _atom_site_type_symbol
 _atom_site_label
 _atom_site_symmetry_multiplicity
 _atom_site_fract_x
 _atom_site_fract_y
 _atom_site_fract_z
 _atom_site_occupancy
  Ti  Ti0  1  0.250000  0.550971  0.165768  1
  Ti  Ti1  1  0.750000  0.447344  0.829454  1
  Ti  Ti2  1  0.750000  0.957035  0.665362  1
  Ti  Ti3  1  0.250000  0.049305  0.335351  1
  V  V4  1  0.250000  0.623540  0.561949  1
  V  V5  1  0.750000  0.368385  0.444099  1
  V  V6  1  0.750000  0.874763  0.060350  1
  V  V7  1  0.250000  0.128619  0.936807  1
  Si  Si8  1  0.250000  0.750189  0.859238  1
  Si  Si9  1  0.750000  0.251010  0.140435  1
  Si  Si10  1  0.750000  0.748268  0.360948  1
  P  P11  1  0.250000  0.250570  0.640239  1
