# generated using pymatgen
data_TbAl3Au
_symmetry_space_group_name_H-M   'P 1'
_cell_length_a   4.19869034
_cell_length_b   4.19868995
_cell_length_c   6.33921274
_cell_angle_alpha   70.66031280
_cell_angle_beta   70.66031448
_cell_angle_gamma   89.99999304
_symmetry_Int_Tables_number   1
_chemical_formula_structural   TbAl3Au
_chemical_formula_sum   'Tb1 Al3 Au1'
_cell_volume   98.73990021
_cell_formula_units_Z   1
loop_
 _symmetry_equiv_pos_site_id
 _symmetry_equiv_pos_as_xyz
  1  'x, y, z'
loop_
 _atom_site_type_symbol
 _atom_site_label
 _atom_site_symmetry_multiplicity
 _atom_site_fract_x
 _atom_site_fract_y
 _atom_site_fract_z
 _atom_site_occupancy
  Tb  Tb0  1  0.987370  0.987370  0.025260  1
  Al  Al1  1  0.749383  0.249383  0.501235  1
  Al  Al2  1  0.249383  0.749383  0.501235  1
  Al  Al3  1  0.396606  0.396606  0.206788  1
  Au  Au4  1  0.617258  0.617258  0.765483  1
