# generated using pymatgen
data_La2Dy4PtRh17
_symmetry_space_group_name_H-M   'P 1'
_cell_length_a   5.32149500
_cell_length_b   5.32159616
_cell_length_c   17.56949701
_cell_angle_alpha   90.00328436
_cell_angle_beta   90.00081087
_cell_angle_gamma   120.00405809
_symmetry_Int_Tables_number   1
_chemical_formula_structural   La2Dy4PtRh17
_chemical_formula_sum   'La2 Dy4 Pt1 Rh17'
_cell_volume   430.87150236
_cell_formula_units_Z   1
loop_
 _symmetry_equiv_pos_site_id
 _symmetry_equiv_pos_as_xyz
  1  'x, y, z'
loop_
 _atom_site_type_symbol
 _atom_site_label
 _atom_site_symmetry_multiplicity
 _atom_site_fract_x
 _atom_site_fract_y
 _atom_site_fract_z
 _atom_site_occupancy
  La  La0  1  0.333347  0.666704  0.748587  1
  La  La1  1  0.666653  0.333296  0.251413  1
  Dy  Dy2  1  0.333349  0.666669  0.541013  1
  Dy  Dy3  1  0.666671  0.333319  0.042927  1
  Dy  Dy4  1  0.666651  0.333331  0.458987  1
  Dy  Dy5  1  0.333329  0.666681  0.957073  1
  Pt  Pt6  1  0.000000  0.000000  0.000000  1
  Rh  Rh7  1  0.167741  0.335462  0.125671  1
  Rh  Rh8  1  0.832727  0.665440  0.624030  1
  Rh  Rh9  1  0.664484  0.832202  0.125642  1
  Rh  Rh10  1  0.167785  0.832192  0.125660  1
  Rh  Rh11  1  0.832762  0.167317  0.624041  1
  Rh  Rh12  1  0.334604  0.167280  0.624014  1
  Rh  Rh13  1  0.832259  0.664538  0.874329  1
  Rh  Rh14  1  0.832215  0.167808  0.874340  1
  Rh  Rh15  1  0.335516  0.167798  0.874358  1
  Rh  Rh16  1  0.665396  0.832720  0.375986  1
  Rh  Rh17  1  0.167238  0.832683  0.375959  1
  Rh  Rh18  1  0.167273  0.334560  0.375970  1
  Rh  Rh19  1  0.999920  0.999892  0.251111  1
  Rh  Rh20  1  0.000080  0.000108  0.748889  1
  Rh  Rh21  1  0.333451  0.666664  0.250425  1
  Rh  Rh22  1  0.666549  0.333336  0.749575  1
  Rh  Rh23  1  0.000000  0.000000  0.500000  1
