# generated using pymatgen
data_Tb4MnTcOs6
_symmetry_space_group_name_H-M   'P 1'
_cell_length_a   5.32299038
_cell_length_b   5.32299161
_cell_length_c   8.81134327
_cell_angle_alpha   89.94701414
_cell_angle_beta   90.05298390
_cell_angle_gamma   119.07626350
_symmetry_Int_Tables_number   1
_chemical_formula_structural   Tb4MnTcOs6
_chemical_formula_sum   'Tb4 Mn1 Tc1 Os6'
_cell_volume   218.19845023
_cell_formula_units_Z   1
loop_
 _symmetry_equiv_pos_site_id
 _symmetry_equiv_pos_as_xyz
  1  'x, y, z'
loop_
 _atom_site_type_symbol
 _atom_site_label
 _atom_site_symmetry_multiplicity
 _atom_site_fract_x
 _atom_site_fract_y
 _atom_site_fract_z
 _atom_site_occupancy
  Tb  Tb0  1  0.332871  0.667129  0.432967  1
  Tb  Tb1  1  0.666335  0.333665  0.569460  1
  Tb  Tb2  1  0.665797  0.334203  0.934614  1
  Tb  Tb3  1  0.332206  0.667794  0.062826  1
  Mn  Mn4  1  0.000921  0.999079  0.501784  1
  Tc  Tc5  1  0.829706  0.170294  0.251541  1
  Os  Os6  1  0.999401  0.000599  0.998571  1
  Os  Os7  1  0.829350  0.659738  0.253356  1
  Os  Os8  1  0.340262  0.170650  0.253356  1
  Os  Os9  1  0.172808  0.827192  0.747450  1
  Os  Os10  1  0.169034  0.338691  0.747038  1
  Os  Os11  1  0.661309  0.830966  0.747038  1
