# generated using pymatgen
data_Tb3Er5Cd2OsPt
_symmetry_space_group_name_H-M   'P 1'
_cell_length_a   9.61453167
_cell_length_b   9.61453175
_cell_length_c   9.69262300
_cell_angle_alpha   59.73095030
_cell_angle_beta   59.73095003
_cell_angle_gamma   59.53910442
_symmetry_Int_Tables_number   1
_chemical_formula_structural   Tb3Er5Cd2OsPt
_chemical_formula_sum   'Tb6 Er10 Cd4 Os2 Pt2'
_cell_volume   628.75456031
_cell_formula_units_Z   2
loop_
 _symmetry_equiv_pos_site_id
 _symmetry_equiv_pos_as_xyz
  1  'x, y, z'
loop_
 _atom_site_type_symbol
 _atom_site_label
 _atom_site_symmetry_multiplicity
 _atom_site_fract_x
 _atom_site_fract_y
 _atom_site_fract_z
 _atom_site_occupancy
  Tb  Tb0  1  0.939594  0.554286  0.565625  1
  Tb  Tb1  1  0.554286  0.939594  0.940494  1
  Tb  Tb2  1  0.554286  0.939594  0.565625  1
  Tb  Tb3  1  0.939594  0.554286  0.940494  1
  Tb  Tb4  1  0.563346  0.563346  0.936654  1
  Tb  Tb5  1  0.939904  0.939904  0.560096  1
  Er  Er6  1  0.350801  0.350801  0.350035  1
  Er  Er7  1  0.350801  0.350801  0.948362  1
  Er  Er8  1  0.345769  0.956196  0.349017  1
  Er  Er9  1  0.956196  0.345769  0.349017  1
  Er  Er10  1  0.815867  0.185853  0.190579  1
  Er  Er11  1  0.185853  0.815867  0.807701  1
  Er  Er12  1  0.185853  0.815867  0.190579  1
  Er  Er13  1  0.815867  0.185853  0.807701  1
  Er  Er14  1  0.187808  0.187808  0.812192  1
  Er  Er15  1  0.808474  0.808474  0.191526  1
  Cd  Cd16  1  0.579205  0.579205  0.581526  1
  Cd  Cd17  1  0.579205  0.579205  0.260063  1
  Cd  Cd18  1  0.580876  0.255718  0.581703  1
  Cd  Cd19  1  0.255718  0.580876  0.581703  1
  Os  Os20  1  0.145365  0.145365  0.135376  1
  Os  Os21  1  0.145365  0.145365  0.573895  1
  Pt  Pt22  1  0.144643  0.575323  0.140018  1
  Pt  Pt23  1  0.575323  0.144643  0.140018  1
