# generated using pymatgen
data_ErLu4Ag5
_symmetry_space_group_name_H-M   'P 1'
_cell_length_a   3.57405300
_cell_length_b   3.57405300
_cell_length_c   17.84846700
_cell_angle_alpha   90.00000000
_cell_angle_beta   90.00000000
_cell_angle_gamma   90.00000000
_symmetry_Int_Tables_number   1
_chemical_formula_structural   ErLu4Ag5
_chemical_formula_sum   'Er1 Lu4 Ag5'
_cell_volume   227.99372670
_cell_formula_units_Z   1
loop_
 _symmetry_equiv_pos_site_id
 _symmetry_equiv_pos_as_xyz
  1  'x, y, z'
loop_
 _atom_site_type_symbol
 _atom_site_label
 _atom_site_symmetry_multiplicity
 _atom_site_fract_x
 _atom_site_fract_y
 _atom_site_fract_z
 _atom_site_occupancy
  Er  Er0  1  0.000000  0.000000  0.000000  1
  Lu  Lu1  1  0.000000  0.000000  0.199482  1
  Lu  Lu2  1  0.000000  0.000000  0.399577  1
  Lu  Lu3  1  0.000000  0.000000  0.600423  1
  Lu  Lu4  1  0.000000  0.000000  0.800518  1
  Ag  Ag5  1  0.500000  0.500000  0.099598  1
  Ag  Ag6  1  0.500000  0.500000  0.299377  1
  Ag  Ag7  1  0.500000  0.500000  0.500000  1
  Ag  Ag8  1  0.500000  0.500000  0.700623  1
  Ag  Ag9  1  0.500000  0.500000  0.900402  1
