# generated using pymatgen
data_Pr4IrPdAu2
_symmetry_space_group_name_H-M   'P 1'
_cell_length_a   4.76541900
_cell_length_b   5.83687209
_cell_length_c   7.46060975
_cell_angle_alpha   88.42143258
_cell_angle_beta   90.00000000
_cell_angle_gamma   90.00000000
_symmetry_Int_Tables_number   1
_chemical_formula_structural   Pr4IrPdAu2
_chemical_formula_sum   'Pr4 Ir1 Pd1 Au2'
_cell_volume   207.43915834
_cell_formula_units_Z   1
loop_
 _symmetry_equiv_pos_site_id
 _symmetry_equiv_pos_as_xyz
  1  'x, y, z'
loop_
 _atom_site_type_symbol
 _atom_site_label
 _atom_site_symmetry_multiplicity
 _atom_site_fract_x
 _atom_site_fract_y
 _atom_site_fract_z
 _atom_site_occupancy
  Pr  Pr0  1  0.250000  0.361471  0.673075  1
  Pr  Pr1  1  0.250000  0.135672  0.197271  1
  Pr  Pr2  1  0.750000  0.650278  0.331382  1
  Pr  Pr3  1  0.750000  0.859881  0.797494  1
  Ir  Ir4  1  0.250000  0.839349  0.540921  1
  Pd  Pd5  1  0.750000  0.155338  0.456818  1
  Au  Au6  1  0.250000  0.648323  0.040879  1
  Au  Au7  1  0.750000  0.349688  0.962160  1
