# generated using pymatgen
data_Ce2HfB2Ru5
_symmetry_space_group_name_H-M   'P 1'
_cell_length_a   9.80116900
_cell_length_b   9.80116900
_cell_length_c   3.16253800
_cell_angle_alpha   90.00000000
_cell_angle_beta   90.00000000
_cell_angle_gamma   90.00000000
_symmetry_Int_Tables_number   1
_chemical_formula_structural   Ce2HfB2Ru5
_chemical_formula_sum   'Ce4 Hf2 B4 Ru10'
_cell_volume   303.80261518
_cell_formula_units_Z   2
loop_
 _symmetry_equiv_pos_site_id
 _symmetry_equiv_pos_as_xyz
  1  'x, y, z'
loop_
 _atom_site_type_symbol
 _atom_site_label
 _atom_site_symmetry_multiplicity
 _atom_site_fract_x
 _atom_site_fract_y
 _atom_site_fract_z
 _atom_site_occupancy
  Ce  Ce0  1  0.824375  0.675625  0.000000  1
  Ce  Ce1  1  0.175625  0.324375  0.000000  1
  Ce  Ce2  1  0.324375  0.824375  0.000000  1
  Ce  Ce3  1  0.675625  0.175625  0.000000  1
  Hf  Hf4  1  0.500000  0.500000  0.000000  1
  Hf  Hf5  1  0.000000  0.000000  0.000000  1
  B  B6  1  0.621356  0.878644  0.000000  1
  B  B7  1  0.378644  0.121356  0.000000  1
  B  B8  1  0.121356  0.621356  0.000000  1
  B  B9  1  0.878644  0.378644  0.000000  1
  Ru  Ru10  1  0.571414  0.722487  0.500000  1
  Ru  Ru11  1  0.428586  0.277513  0.500000  1
  Ru  Ru12  1  0.071414  0.777513  0.500000  1
  Ru  Ru13  1  0.928586  0.222487  0.500000  1
  Ru  Ru14  1  0.277513  0.571414  0.500000  1
  Ru  Ru15  1  0.722487  0.428586  0.500000  1
  Ru  Ru16  1  0.222487  0.071414  0.500000  1
  Ru  Ru17  1  0.777513  0.928586  0.500000  1
  Ru  Ru18  1  0.500000  0.000000  0.500000  1
  Ru  Ru19  1  0.000000  0.500000  0.500000  1
