# generated using pymatgen
data_HoEr7Re(B8Os)3
_symmetry_space_group_name_H-M   'P 1'
_cell_length_a   3.64306700
_cell_length_b   9.10878562
_cell_length_c   11.48884500
_cell_angle_alpha   90.08284643
_cell_angle_beta   90.00000000
_cell_angle_gamma   90.00000000
_symmetry_Int_Tables_number   1
_chemical_formula_structural   HoEr7Re(B8Os)3
_chemical_formula_sum   'Ho1 Er7 Re1 B24 Os3'
_cell_volume   381.24447215
_cell_formula_units_Z   1
loop_
 _symmetry_equiv_pos_site_id
 _symmetry_equiv_pos_as_xyz
  1  'x, y, z'
loop_
 _atom_site_type_symbol
 _atom_site_label
 _atom_site_symmetry_multiplicity
 _atom_site_fract_x
 _atom_site_fract_y
 _atom_site_fract_z
 _atom_site_occupancy
  Ho  Ho0  1  0.000000  0.322025  0.414957  1
  Er  Er1  1  0.000000  0.680260  0.588211  1
  Er  Er2  1  0.000000  0.822501  0.083679  1
  Er  Er3  1  0.000000  0.176385  0.913239  1
  Er  Er4  1  0.000000  0.943660  0.371932  1
  Er  Er5  1  0.000000  0.055456  0.627674  1
  Er  Er6  1  0.000000  0.443312  0.127928  1
  Er  Er7  1  0.000000  0.556259  0.872660  1
  Re  Re8  1  0.000000  0.862378  0.821214  1
  B  B9  1  0.500000  0.553786  0.433526  1
  B  B10  1  0.500000  0.446501  0.566818  1
  B  B11  1  0.500000  0.053530  0.066946  1
  B  B12  1  0.500000  0.947247  0.933510  1
  B  B13  1  0.500000  0.748778  0.419838  1
  B  B14  1  0.500000  0.251321  0.580161  1
  B  B15  1  0.500000  0.248321  0.080332  1
  B  B16  1  0.500000  0.751366  0.919648  1
  B  B17  1  0.500000  0.790968  0.265773  1
  B  B18  1  0.500000  0.208650  0.733546  1
  B  B19  1  0.500000  0.291392  0.234016  1
  B  B20  1  0.500000  0.707899  0.765851  1
  B  B21  1  0.500000  0.630889  0.184993  1
  B  B22  1  0.500000  0.368612  0.814526  1
  B  B23  1  0.500000  0.131307  0.315032  1
  B  B24  1  0.500000  0.868947  0.685229  1
  B  B25  1  0.500000  0.982759  0.212639  1
  B  B26  1  0.500000  0.018277  0.787297  1
  B  B27  1  0.500000  0.482710  0.287539  1
  B  B28  1  0.500000  0.517552  0.712662  1
  B  B29  1  0.500000  0.605299  0.029872  1
  B  B30  1  0.500000  0.393345  0.970757  1
  B  B31  1  0.500000  0.106358  0.470217  1
  B  B32  1  0.500000  0.893915  0.528870  1
  Os  Os33  1  0.000000  0.637480  0.321289  1
  Os  Os34  1  0.000000  0.362704  0.678338  1
  Os  Os35  1  0.000000  0.137850  0.179281  1
