# generated using pymatgen
data_Ac2TbPr(Zn5Si)2
_symmetry_space_group_name_H-M   'P 1'
_cell_length_a   8.44546570
_cell_length_b   8.44546666
_cell_length_c   8.92455100
_cell_angle_alpha   90.00000000
_cell_angle_beta   90.00000000
_cell_angle_gamma   149.09139222
_symmetry_Int_Tables_number   1
_chemical_formula_structural   Ac2TbPr(Zn5Si)2
_chemical_formula_sum   'Ac2 Tb1 Pr1 Zn10 Si2'
_cell_volume   326.97757216
_cell_formula_units_Z   1
loop_
 _symmetry_equiv_pos_site_id
 _symmetry_equiv_pos_as_xyz
  1  'x, y, z'
loop_
 _atom_site_type_symbol
 _atom_site_label
 _atom_site_symmetry_multiplicity
 _atom_site_fract_x
 _atom_site_fract_y
 _atom_site_fract_z
 _atom_site_occupancy
  Ac  Ac0  1  0.000404  0.999596  0.498929  1
  Ac  Ac1  1  0.000404  0.999596  0.001071  1
  Tb  Tb2  1  0.204887  0.795113  0.250000  1
  Pr  Pr3  1  0.794351  0.205649  0.750000  1
  Zn  Zn4  1  0.811049  0.188951  0.389211  1
  Zn  Zn5  1  0.187889  0.812111  0.607026  1
  Zn  Zn6  1  0.811049  0.188951  0.110789  1
  Zn  Zn7  1  0.187889  0.812111  0.892974  1
  Zn  Zn8  1  0.654515  0.345485  0.476225  1
  Zn  Zn9  1  0.346069  0.653931  0.519892  1
  Zn  Zn10  1  0.654515  0.345485  0.023775  1
  Zn  Zn11  1  0.346069  0.653931  0.980108  1
  Zn  Zn12  1  0.405116  0.594884  0.250000  1
  Zn  Zn13  1  0.594466  0.405534  0.750000  1
  Si  Si14  1  0.564204  0.435796  0.250000  1
  Si  Si15  1  0.437124  0.562876  0.750000  1
