# generated using pymatgen
data_NdBi3Pt4F28
_symmetry_space_group_name_H-M   'P 1'
_cell_length_a   5.64859762
_cell_length_b   9.19518073
_cell_length_c   12.25399235
_cell_angle_alpha   61.69771362
_cell_angle_beta   90.09603392
_cell_angle_gamma   89.90934824
_symmetry_Int_Tables_number   1
_chemical_formula_structural   NdBi3Pt4F28
_chemical_formula_sum   'Nd1 Bi3 Pt4 F28'
_cell_volume   560.38329282
_cell_formula_units_Z   1
loop_
 _symmetry_equiv_pos_site_id
 _symmetry_equiv_pos_as_xyz
  1  'x, y, z'
loop_
 _atom_site_type_symbol
 _atom_site_label
 _atom_site_symmetry_multiplicity
 _atom_site_fract_x
 _atom_site_fract_y
 _atom_site_fract_z
 _atom_site_occupancy
  Nd  Nd0  1  0.740149  0.809375  0.264020  1
  Bi  Bi1  1  0.763352  0.814630  0.762470  1
  Bi  Bi2  1  0.262170  0.185293  0.738037  1
  Bi  Bi3  1  0.235175  0.182828  0.237606  1
  Pt  Pt4  1  0.758499  0.272538  0.957659  1
  Pt  Pt5  1  0.257532  0.728096  0.542364  1
  Pt  Pt6  1  0.243360  0.728393  0.040331  1
  Pt  Pt7  1  0.742499  0.271222  0.459270  1
  F  F8  1  0.431607  0.707021  0.913611  1
  F  F9  1  0.932979  0.292443  0.586384  1
  F  F10  1  0.568867  0.293240  0.084339  1
  F  F11  1  0.067102  0.707432  0.415204  1
  F  F12  1  0.445076  0.279410  0.541968  1
  F  F13  1  0.945013  0.720179  0.958506  1
  F  F14  1  0.552199  0.719220  0.459274  1
  F  F15  1  0.056108  0.281083  0.040222  1
  F  F16  1  0.767730  0.514736  0.860552  1
  F  F17  1  0.266665  0.486081  0.639883  1
  F  F18  1  0.233437  0.487372  0.137815  1
  F  F19  1  0.732158  0.513648  0.361944  1
  F  F20  1  0.757623  0.028439  0.051119  1
  F  F21  1  0.258019  0.973099  0.449622  1
  F  F22  1  0.243270  0.974003  0.947357  1
  F  F23  1  0.743080  0.026938  0.551294  1
  F  F24  1  0.966427  0.729049  0.630314  1
  F  F25  1  0.467311  0.272273  0.868655  1
  F  F26  1  0.033007  0.271640  0.370669  1
  F  F27  1  0.532748  0.728579  0.129781  1
  F  F28  1  0.058615  0.743018  0.171377  1
  F  F29  1  0.558143  0.256692  0.327938  1
  F  F30  1  0.942619  0.257774  0.825740  1
  F  F31  1  0.440765  0.742806  0.673901  1
  F  F32  1  0.399199  0.969407  0.230228  1
  F  F33  1  0.909068  0.033185  0.269962  1
  F  F34  1  0.594418  0.029817  0.770116  1
  F  F35  1  0.094012  0.969038  0.730467  1
