# generated using pymatgen
data_Ca4MgNi(RuO6)2
_symmetry_space_group_name_H-M   'P 1'
_cell_length_a   5.41029048
_cell_length_b   5.60795597
_cell_length_c   7.71181041
_cell_angle_alpha   90.17317643
_cell_angle_beta   90.17070880
_cell_angle_gamma   89.97052177
_symmetry_Int_Tables_number   1
_chemical_formula_structural   Ca4MgNi(RuO6)2
_chemical_formula_sum   'Ca4 Mg1 Ni1 Ru2 O12'
_cell_volume   233.97936340
_cell_formula_units_Z   1
loop_
 _symmetry_equiv_pos_site_id
 _symmetry_equiv_pos_as_xyz
  1  'x, y, z'
loop_
 _atom_site_type_symbol
 _atom_site_label
 _atom_site_symmetry_multiplicity
 _atom_site_fract_x
 _atom_site_fract_y
 _atom_site_fract_z
 _atom_site_occupancy
  Ca  Ca0  1  0.985869  0.059024  0.253956  1
  Ca  Ca1  1  0.515276  0.557896  0.248815  1
  Ca  Ca2  1  0.014127  0.941026  0.746035  1
  Ca  Ca3  1  0.484733  0.442167  0.751216  1
  Mg  Mg4  1  0.499817  0.999969  0.000032  1
  Ni  Ni5  1  0.000133  0.500058  0.500003  1
  Ru  Ru6  1  0.499786  0.999865  0.499923  1
  Ru  Ru7  1  0.000224  0.500008  0.000007  1
  O  O8  1  0.690021  0.287026  0.448637  1
  O  O9  1  0.809825  0.786428  0.050990  1
  O  O10  1  0.310261  0.713141  0.551398  1
  O  O11  1  0.189974  0.213595  0.949010  1
  O  O12  1  0.208199  0.195063  0.546723  1
  O  O13  1  0.290440  0.694775  0.953781  1
  O  O14  1  0.791964  0.804920  0.453288  1
  O  O15  1  0.709346  0.305111  0.046191  1
  O  O16  1  0.094422  0.472065  0.242363  1
  O  O17  1  0.407420  0.972395  0.258080  1
  O  O18  1  0.592539  0.027564  0.742040  1
  O  O19  1  0.905629  0.527904  0.757513  1
