# generated using pymatgen
data_LaLu5Np3O18
_symmetry_space_group_name_H-M   'P 1'
_cell_length_a   9.41860062
_cell_length_b   9.42816044
_cell_length_c   5.13862101
_cell_angle_alpha   90.00000242
_cell_angle_beta   90.00278978
_cell_angle_gamma   120.03358507
_symmetry_Int_Tables_number   1
_chemical_formula_structural   LaLu5Np3O18
_chemical_formula_sum   'La1 Lu5 Np3 O18'
_cell_volume   395.04219810
_cell_formula_units_Z   1
loop_
 _symmetry_equiv_pos_site_id
 _symmetry_equiv_pos_as_xyz
  1  'x, y, z'
loop_
 _atom_site_type_symbol
 _atom_site_label
 _atom_site_symmetry_multiplicity
 _atom_site_fract_x
 _atom_site_fract_y
 _atom_site_fract_z
 _atom_site_occupancy
  La  La0  1  0.000000  0.622221  0.000000  1
  Lu  Lu1  1  0.000000  0.290360  0.500000  1
  Lu  Lu2  1  0.368881  0.369850  0.001306  1
  Lu  Lu3  1  0.292758  0.000597  0.500926  1
  Lu  Lu4  1  0.707242  0.707839  0.499074  1
  Lu  Lu5  1  0.631119  0.000968  0.998694  1
  Np  Np6  1  0.339827  0.667388  0.499103  1
  Np  Np7  1  0.000000  0.005810  0.000000  1
  Np  Np8  1  0.660173  0.327560  0.500897  1
  O  O9  1  0.090657  0.888346  0.775732  1
  O  O10  1  0.228311  0.773644  0.293859  1
  O  O11  1  0.128101  0.531037  0.705965  1
  O  O12  1  0.417511  0.876854  0.731934  1
  O  O13  1  0.232521  0.453606  0.268320  1
  O  O14  1  0.123271  0.218172  0.784343  1
  O  O15  1  0.215276  0.125155  0.219359  1
  O  O16  1  0.552197  0.783972  0.278905  1
  O  O17  1  0.462938  0.578310  0.718511  1
  O  O18  1  0.784724  0.909879  0.780641  1
  O  O19  1  0.447803  0.231775  0.721095  1
  O  O20  1  0.582489  0.459343  0.268066  1
  O  O21  1  0.537062  0.115372  0.281489  1
  O  O22  1  0.771689  0.545333  0.706141  1
  O  O23  1  0.909343  0.797689  0.224268  1
  O  O24  1  0.767479  0.221085  0.731680  1
  O  O25  1  0.871899  0.402936  0.294035  1
  O  O26  1  0.876729  0.094901  0.215657  1
