# generated using pymatgen
data_CaPr(UBr6)2
_symmetry_space_group_name_H-M   'P 1'
_cell_length_a   7.70569600
_cell_length_b   7.70569455
_cell_length_c   14.72165400
_cell_angle_alpha   84.13660358
_cell_angle_beta   84.13660469
_cell_angle_gamma   119.39663989
_symmetry_Int_Tables_number   1
_chemical_formula_structural   CaPr(UBr6)2
_chemical_formula_sum   'Ca1 Pr1 U2 Br12'
_cell_volume   745.81303949
_cell_formula_units_Z   1
loop_
 _symmetry_equiv_pos_site_id
 _symmetry_equiv_pos_as_xyz
  1  'x, y, z'
loop_
 _atom_site_type_symbol
 _atom_site_label
 _atom_site_symmetry_multiplicity
 _atom_site_fract_x
 _atom_site_fract_y
 _atom_site_fract_z
 _atom_site_occupancy
  Ca  Ca0  1  0.085773  0.914227  0.250000  1
  Pr  Pr1  1  0.914737  0.085263  0.750000  1
  U  U2  1  0.419441  0.580559  0.250000  1
  U  U3  1  0.580453  0.419547  0.750000  1
  Br  Br4  1  0.293702  0.418896  0.636044  1
  Br  Br5  1  0.420257  0.299625  0.138881  1
  Br  Br6  1  0.210854  0.089588  0.863402  1
  Br  Br7  1  0.095315  0.219865  0.360430  1
  Br  Br8  1  0.183823  0.667653  0.137944  1
  Br  Br9  1  0.671585  0.180311  0.634952  1
  Br  Br10  1  0.332347  0.816177  0.362056  1
  Br  Br11  1  0.819689  0.328415  0.865048  1
  Br  Br12  1  0.780135  0.904685  0.139570  1
  Br  Br13  1  0.910412  0.789146  0.636598  1
  Br  Br14  1  0.581104  0.706298  0.863956  1
  Br  Br15  1  0.700375  0.579743  0.361119  1
