# generated using pymatgen
data_La5NiRuO12
_symmetry_space_group_name_H-M   'P 1'
_cell_length_a   7.13746209
_cell_length_b   7.13746258
_cell_length_c   7.75330406
_cell_angle_alpha   74.24775495
_cell_angle_beta   74.24775287
_cell_angle_gamma   50.88085437
_symmetry_Int_Tables_number   1
_chemical_formula_structural   La5NiRuO12
_chemical_formula_sum   'La5 Ni1 Ru1 O12'
_cell_volume   292.26354348
_cell_formula_units_Z   1
loop_
 _symmetry_equiv_pos_site_id
 _symmetry_equiv_pos_as_xyz
  1  'x, y, z'
loop_
 _atom_site_type_symbol
 _atom_site_label
 _atom_site_symmetry_multiplicity
 _atom_site_fract_x
 _atom_site_fract_y
 _atom_site_fract_z
 _atom_site_occupancy
  La  La0  1  0.325676  0.293696  0.353551  1
  La  La1  1  0.706304  0.674324  0.646449  1
  La  La2  1  0.691900  0.687033  0.166045  1
  La  La3  1  0.312967  0.308100  0.833955  1
  La  La4  1  0.011645  0.988355  0.500000  1
  Ni  Ni5  1  0.743517  0.256483  0.000000  1
  Ru  Ru6  1  0.230314  0.769686  0.000000  1
  O  O7  1  0.101180  0.592417  0.574256  1
  O  O8  1  0.008620  0.990338  0.169887  1
  O  O9  1  0.407583  0.898820  0.425744  1
  O  O10  1  0.472759  0.529315  0.173715  1
  O  O11  1  0.104291  0.589691  0.078724  1
  O  O12  1  0.915078  0.396120  0.419006  1
  O  O13  1  0.009662  0.991380  0.830113  1
  O  O14  1  0.603880  0.084921  0.580994  1
  O  O15  1  0.470685  0.527241  0.826285  1
  O  O16  1  0.572145  0.098516  0.078889  1
  O  O17  1  0.410309  0.895709  0.921276  1
  O  O18  1  0.901484  0.427855  0.921111  1
