# generated using pymatgen
data_Pr7Nd9(HgPt)4
_symmetry_space_group_name_H-M   'P 1'
_cell_length_a   10.02074458
_cell_length_b   10.02074513
_cell_length_c   10.00249900
_cell_angle_alpha   60.06021119
_cell_angle_beta   60.06020941
_cell_angle_gamma   60.19941718
_symmetry_Int_Tables_number   1
_chemical_formula_structural   Pr7Nd9(HgPt)4
_chemical_formula_sum   'Pr7 Nd9 Hg4 Pt4'
_cell_volume   711.93380462
_cell_formula_units_Z   1
loop_
 _symmetry_equiv_pos_site_id
 _symmetry_equiv_pos_as_xyz
  1  'x, y, z'
loop_
 _atom_site_type_symbol
 _atom_site_label
 _atom_site_symmetry_multiplicity
 _atom_site_fract_x
 _atom_site_fract_y
 _atom_site_fract_z
 _atom_site_occupancy
  Pr  Pr0  1  0.808089  0.808089  0.191911  1
  Pr  Pr1  1  0.938586  0.561681  0.564106  1
  Pr  Pr2  1  0.561681  0.938586  0.935627  1
  Pr  Pr3  1  0.561681  0.938586  0.564106  1
  Pr  Pr4  1  0.938586  0.561681  0.935627  1
  Pr  Pr5  1  0.561992  0.561992  0.938008  1
  Pr  Pr6  1  0.936326  0.936326  0.563674  1
  Nd  Nd7  1  0.352013  0.352013  0.351103  1
  Nd  Nd8  1  0.352013  0.352013  0.944870  1
  Nd  Nd9  1  0.352797  0.942776  0.352213  1
  Nd  Nd10  1  0.942776  0.352797  0.352213  1
  Nd  Nd11  1  0.809393  0.191376  0.191331  1
  Nd  Nd12  1  0.191376  0.809393  0.807898  1
  Nd  Nd13  1  0.191376  0.809393  0.191331  1
  Nd  Nd14  1  0.809393  0.191376  0.807898  1
  Nd  Nd15  1  0.191195  0.191195  0.808805  1
  Hg  Hg16  1  0.584404  0.584404  0.585197  1
  Hg  Hg17  1  0.584404  0.584404  0.245994  1
  Hg  Hg18  1  0.584633  0.246419  0.584473  1
  Hg  Hg19  1  0.246419  0.584633  0.584473  1
  Pt  Pt20  1  0.143433  0.143433  0.144122  1
  Pt  Pt21  1  0.143433  0.143433  0.569011  1
  Pt  Pt22  1  0.144150  0.569848  0.143002  1
  Pt  Pt23  1  0.569848  0.144150  0.143002  1
