# generated using pymatgen
data_Tb8Si12OsAu3
_symmetry_space_group_name_H-M   'P 1'
_cell_length_a   8.20800800
_cell_length_b   8.20800812
_cell_length_c   8.22579100
_cell_angle_alpha   90.00000000
_cell_angle_beta   90.00000000
_cell_angle_gamma   120.00000759
_symmetry_Int_Tables_number   1
_chemical_formula_structural   Tb8Si12OsAu3
_chemical_formula_sum   'Tb8 Si12 Os1 Au3'
_cell_volume   479.93654149
_cell_formula_units_Z   1
loop_
 _symmetry_equiv_pos_site_id
 _symmetry_equiv_pos_as_xyz
  1  'x, y, z'
loop_
 _atom_site_type_symbol
 _atom_site_label
 _atom_site_symmetry_multiplicity
 _atom_site_fract_x
 _atom_site_fract_y
 _atom_site_fract_z
 _atom_site_occupancy
  Tb  Tb0  1  0.496627  0.993254  0.257114  1
  Tb  Tb1  1  0.494743  0.989489  0.742881  1
  Tb  Tb2  1  0.006746  0.503373  0.257114  1
  Tb  Tb3  1  0.010511  0.505257  0.742881  1
  Tb  Tb4  1  0.496627  0.503373  0.257114  1
  Tb  Tb5  1  0.494743  0.505257  0.742881  1
  Tb  Tb6  1  0.000000  0.000000  0.249587  1
  Tb  Tb7  1  0.000000  0.000000  0.749875  1
  Si  Si8  1  0.162729  0.325460  0.995872  1
  Si  Si9  1  0.836678  0.673356  0.003772  1
  Si  Si10  1  0.674540  0.837271  0.995872  1
  Si  Si11  1  0.838792  0.677585  0.501876  1
  Si  Si12  1  0.326644  0.163322  0.003772  1
  Si  Si13  1  0.168318  0.336636  0.497967  1
  Si  Si14  1  0.162729  0.837271  0.995872  1
  Si  Si15  1  0.322415  0.161208  0.501876  1
  Si  Si16  1  0.836678  0.163322  0.003772  1
  Si  Si17  1  0.663364  0.831682  0.497967  1
  Si  Si18  1  0.838792  0.161208  0.501876  1
  Si  Si19  1  0.168318  0.831682  0.497967  1
  Os  Os20  1  0.333333  0.666667  0.498002  1
  Au  Au21  1  0.333333  0.666667  0.004943  1
  Au  Au22  1  0.666667  0.333333  0.997574  1
  Au  Au23  1  0.666667  0.333333  0.501567  1
