# generated using pymatgen
data_Tb2TmLu2(ReO6)2
_symmetry_space_group_name_H-M   'P 1'
_cell_length_a   6.77200665
_cell_length_b   6.77200673
_cell_length_c   7.46245400
_cell_angle_alpha   74.06478670
_cell_angle_beta   74.06479654
_cell_angle_gamma   49.34805277
_symmetry_Int_Tables_number   1
_chemical_formula_structural   Tb2TmLu2(ReO6)2
_chemical_formula_sum   'Tb2 Tm1 Lu2 Re2 O12'
_cell_volume   247.50797524
_cell_formula_units_Z   1
loop_
 _symmetry_equiv_pos_site_id
 _symmetry_equiv_pos_as_xyz
  1  'x, y, z'
loop_
 _atom_site_type_symbol
 _atom_site_label
 _atom_site_symmetry_multiplicity
 _atom_site_fract_x
 _atom_site_fract_y
 _atom_site_fract_z
 _atom_site_occupancy
  Tb  Tb0  1  0.803283  0.803283  0.357430  1
  Tb  Tb1  1  0.196786  0.196786  0.641818  1
  Tm  Tm2  1  0.814571  0.814571  0.824806  1
  Lu  Lu3  1  0.185339  0.185339  0.175989  1
  Lu  Lu4  1  0.500041  0.500041  0.499711  1
  Re  Re5  1  0.285973  0.713958  0.000266  1
  Re  Re6  1  0.713958  0.285973  0.000266  1
  O  O7  1  0.414258  0.919019  0.917535  1
  O  O8  1  0.082716  0.583429  0.083810  1
  O  O9  1  0.583429  0.082716  0.083810  1
  O  O10  1  0.919019  0.414258  0.917535  1
  O  O11  1  0.600396  0.097609  0.575913  1
  O  O12  1  0.903325  0.398657  0.422235  1
  O  O13  1  0.398657  0.903325  0.422235  1
  O  O14  1  0.999308  0.999308  0.822289  1
  O  O15  1  0.001320  0.001320  0.178413  1
  O  O16  1  0.499937  0.499937  0.789908  1
  O  O17  1  0.500076  0.500076  0.210122  1
  O  O18  1  0.097609  0.600396  0.575913  1
