# generated using pymatgen
data_Nd7CoBr12
_symmetry_space_group_name_H-M   'P 1'
_cell_length_a   9.50169827
_cell_length_b   9.50169859
_cell_length_c   9.50169857
_cell_angle_alpha   106.61787984
_cell_angle_beta   106.61788147
_cell_angle_gamma   106.61787622
_symmetry_Int_Tables_number   1
_chemical_formula_structural   Nd7CoBr12
_chemical_formula_sum   'Nd7 Co1 Br12'
_cell_volume   721.73059749
_cell_formula_units_Z   1
loop_
 _symmetry_equiv_pos_site_id
 _symmetry_equiv_pos_as_xyz
  1  'x, y, z'
loop_
 _atom_site_type_symbol
 _atom_site_label
 _atom_site_symmetry_multiplicity
 _atom_site_fract_x
 _atom_site_fract_y
 _atom_site_fract_z
 _atom_site_occupancy
  Nd  Nd0  1  0.000000  0.000000  0.000000  1
  Nd  Nd1  1  0.599289  0.521382  0.805800  1
  Nd  Nd2  1  0.521382  0.805800  0.599289  1
  Nd  Nd3  1  0.805800  0.599289  0.521382  1
  Nd  Nd4  1  0.400711  0.478618  0.194200  1
  Nd  Nd5  1  0.478618  0.194200  0.400711  1
  Nd  Nd6  1  0.194200  0.400711  0.478618  1
  Co  Co7  1  0.500000  0.500000  0.500000  1
  Br  Br8  1  0.569263  0.180129  0.721507  1
  Br  Br9  1  0.180129  0.721507  0.569263  1
  Br  Br10  1  0.721507  0.569263  0.180129  1
  Br  Br11  1  0.430737  0.819871  0.278493  1
  Br  Br12  1  0.819871  0.278493  0.430737  1
  Br  Br13  1  0.278493  0.430737  0.819871  1
  Br  Br14  1  0.665792  0.883534  0.960689  1
  Br  Br15  1  0.883534  0.960689  0.665792  1
  Br  Br16  1  0.960689  0.665792  0.883534  1
  Br  Br17  1  0.334208  0.116466  0.039311  1
  Br  Br18  1  0.116466  0.039311  0.334208  1
  Br  Br19  1  0.039311  0.334208  0.116466  1
