# generated using pymatgen
data_RbNb8FeSe16
_symmetry_space_group_name_H-M   'P 1'
_cell_length_a   6.97211302
_cell_length_b   6.97196219
_cell_length_c   14.98678110
_cell_angle_alpha   89.99796142
_cell_angle_beta   90.01019232
_cell_angle_gamma   119.99901168
_symmetry_Int_Tables_number   1
_chemical_formula_structural   RbNb8FeSe16
_chemical_formula_sum   'Rb1 Nb8 Fe1 Se16'
_cell_volume   630.90323531
_cell_formula_units_Z   1
loop_
 _symmetry_equiv_pos_site_id
 _symmetry_equiv_pos_as_xyz
  1  'x, y, z'
loop_
 _atom_site_type_symbol
 _atom_site_label
 _atom_site_symmetry_multiplicity
 _atom_site_fract_x
 _atom_site_fract_y
 _atom_site_fract_z
 _atom_site_occupancy
  Rb  Rb0  1  0.000000  0.000000  0.500000  1
  Nb  Nb1  1  0.999982  0.999999  0.206585  1
  Nb  Nb2  1  0.000018  0.000001  0.793415  1
  Nb  Nb3  1  0.507045  0.014125  0.203425  1
  Nb  Nb4  1  0.985788  0.492892  0.203426  1
  Nb  Nb5  1  0.507037  0.492927  0.203423  1
  Nb  Nb6  1  0.492955  0.985875  0.796575  1
  Nb  Nb7  1  0.014212  0.507108  0.796574  1
  Nb  Nb8  1  0.492963  0.507073  0.796577  1
  Fe  Fe9  1  0.000000  0.000000  0.000000  1
  Se  Se10  1  0.333501  0.666729  0.911409  1
  Se  Se11  1  0.666499  0.333271  0.088591  1
  Se  Se12  1  0.666720  0.333347  0.320705  1
  Se  Se13  1  0.333280  0.666653  0.679295  1
  Se  Se14  1  0.168990  0.831078  0.315590  1
  Se  Se15  1  0.168993  0.337893  0.315589  1
  Se  Se16  1  0.662184  0.831076  0.315570  1
  Se  Se17  1  0.831010  0.168922  0.684410  1
  Se  Se18  1  0.831007  0.662107  0.684411  1
  Se  Se19  1  0.337816  0.168924  0.684430  1
  Se  Se20  1  0.835115  0.165030  0.905431  1
  Se  Se21  1  0.835113  0.670060  0.905441  1
  Se  Se22  1  0.330024  0.164997  0.905468  1
  Se  Se23  1  0.164885  0.834970  0.094569  1
  Se  Se24  1  0.164887  0.329940  0.094559  1
  Se  Se25  1  0.669976  0.835003  0.094532  1
