# generated using pymatgen
data_KBa3(CrN3)2
_symmetry_space_group_name_H-M   'P 1'
_cell_length_a   6.56299581
_cell_length_b   6.56299466
_cell_length_c   12.99176419
_cell_angle_alpha   89.30646872
_cell_angle_beta   90.69353017
_cell_angle_gamma   127.45973047
_symmetry_Int_Tables_number   1
_chemical_formula_structural   KBa3(CrN3)2
_chemical_formula_sum   'K2 Ba6 Cr4 N12'
_cell_volume   444.15385994
_cell_formula_units_Z   2
loop_
 _symmetry_equiv_pos_site_id
 _symmetry_equiv_pos_as_xyz
  1  'x, y, z'
loop_
 _atom_site_type_symbol
 _atom_site_label
 _atom_site_symmetry_multiplicity
 _atom_site_fract_x
 _atom_site_fract_y
 _atom_site_fract_z
 _atom_site_occupancy
  K  K0  1  0.554774  0.445226  0.637008  1
  K  K1  1  0.445226  0.554774  0.362992  1
  Ba  Ba2  1  0.944617  0.055383  0.146573  1
  Ba  Ba3  1  0.055383  0.944617  0.853427  1
  Ba  Ba4  1  0.851287  0.148713  0.582978  1
  Ba  Ba5  1  0.148713  0.851287  0.417022  1
  Ba  Ba6  1  0.645404  0.354596  0.083828  1
  Ba  Ba7  1  0.354596  0.645404  0.916172  1
  Cr  Cr8  1  0.732302  0.267698  0.833850  1
  Cr  Cr9  1  0.267698  0.732302  0.166150  1
  Cr  Cr10  1  0.770119  0.229881  0.330069  1
  Cr  Cr11  1  0.229881  0.770119  0.669931  1
  N  N12  1  0.828311  0.171689  0.939370  1
  N  N13  1  0.171689  0.828311  0.060630  1
  N  N14  1  0.681951  0.318049  0.433262  1
  N  N15  1  0.318049  0.681951  0.566738  1
  N  N16  1  0.593117  0.406883  0.874077  1
  N  N17  1  0.406883  0.593117  0.125923  1
  N  N18  1  0.909918  0.090082  0.368196  1
  N  N19  1  0.090082  0.909918  0.631804  1
  N  N20  1  0.506851  0.993549  0.754347  1
  N  N21  1  0.993549  0.506851  0.245653  1
  N  N22  1  0.493149  0.006451  0.245653  1
  N  N23  1  0.006451  0.493149  0.754347  1
