# generated using pymatgen
data_K2CoBr4
_symmetry_space_group_name_H-M   'P 1'
_cell_length_a   7.66314700
_cell_length_b   7.41874500
_cell_length_c   9.28128090
_cell_angle_alpha   71.46784348
_cell_angle_beta   90.00000000
_cell_angle_gamma   90.00000000
_symmetry_Int_Tables_number   1
_chemical_formula_structural   K2CoBr4
_chemical_formula_sum   'K4 Co2 Br8'
_cell_volume   500.28844212
_cell_formula_units_Z   2
loop_
 _symmetry_equiv_pos_site_id
 _symmetry_equiv_pos_as_xyz
  1  'x, y, z'
loop_
 _atom_site_type_symbol
 _atom_site_label
 _atom_site_symmetry_multiplicity
 _atom_site_fract_x
 _atom_site_fract_y
 _atom_site_fract_z
 _atom_site_occupancy
  K  K0  1  0.757721  0.228533  0.571961  1
  K  K1  1  0.257721  0.771467  0.428039  1
  K  K2  1  0.756660  0.287691  0.047512  1
  K  K3  1  0.256660  0.712309  0.952488  1
  Co  Co4  1  0.742332  0.720063  0.203820  1
  Co  Co5  1  0.242332  0.279937  0.796180  1
  Br  Br6  1  0.729364  0.894361  0.937564  1
  Br  Br7  1  0.229364  0.105639  0.062436  1
  Br  Br8  1  0.732379  0.919966  0.362872  1
  Br  Br9  1  0.232379  0.080034  0.637128  1
  Br  Br10  1  0.994389  0.515379  0.258926  1
  Br  Br11  1  0.494389  0.484621  0.741074  1
  Br  Br12  1  0.502346  0.498017  0.265484  1
  Br  Br13  1  0.002346  0.501983  0.734516  1
