# generated using pymatgen
data_Lu3Sc3Co16(P6Ru)2
_symmetry_space_group_name_H-M   'P 1'
_cell_length_a   3.64646200
_cell_length_b   10.41903360
_cell_length_c   12.09256569
_cell_angle_alpha   90.03883252
_cell_angle_beta   90.00000000
_cell_angle_gamma   90.00000000
_symmetry_Int_Tables_number   1
_chemical_formula_structural   Lu3Sc3Co16(P6Ru)2
_chemical_formula_sum   'Lu3 Sc3 Co16 P12 Ru2'
_cell_volume   459.42802793
_cell_formula_units_Z   1
loop_
 _symmetry_equiv_pos_site_id
 _symmetry_equiv_pos_as_xyz
  1  'x, y, z'
loop_
 _atom_site_type_symbol
 _atom_site_label
 _atom_site_symmetry_multiplicity
 _atom_site_fract_x
 _atom_site_fract_y
 _atom_site_fract_z
 _atom_site_occupancy
  Lu  Lu0  1  0.000000  0.500577  0.526207  1
  Lu  Lu1  1  0.500000  0.999819  0.472823  1
  Lu  Lu2  1  0.000000  0.319110  0.793280  1
  Sc  Sc3  1  0.500000  0.818740  0.207289  1
  Sc  Sc4  1  0.500000  0.181227  0.207255  1
  Sc  Sc5  1  0.000000  0.681840  0.792863  1
  Co  Co6  1  0.500000  0.501361  0.704232  1
  Co  Co7  1  0.000000  0.999866  0.295172  1
  Co  Co8  1  0.000000  0.500610  0.987279  1
  Co  Co9  1  0.500000  0.999023  0.014359  1
  Co  Co10  1  0.500000  0.332481  0.990932  1
  Co  Co11  1  0.500000  0.668260  0.990379  1
  Co  Co12  1  0.000000  0.166977  0.011269  1
  Co  Co13  1  0.000000  0.832316  0.010314  1
  Co  Co14  1  0.500000  0.297216  0.430620  1
  Co  Co15  1  0.500000  0.702822  0.431253  1
  Co  Co16  1  0.000000  0.202170  0.567368  1
  Co  Co17  1  0.000000  0.797211  0.568488  1
  Co  Co18  1  0.500000  0.876291  0.707775  1
  Co  Co19  1  0.500000  0.122220  0.706837  1
  Co  Co20  1  0.000000  0.623636  0.292334  1
  Co  Co21  1  0.000000  0.376452  0.292249  1
  P  P22  1  0.500000  0.501976  0.880455  1
  P  P23  1  0.000000  0.999497  0.120671  1
  P  P24  1  0.500000  0.500038  0.352859  1
  P  P25  1  0.000000  0.999773  0.646785  1
  P  P26  1  0.500000  0.314405  0.616612  1
  P  P27  1  0.500000  0.686597  0.618723  1
  P  P28  1  0.000000  0.185424  0.380105  1
  P  P29  1  0.000000  0.814370  0.380718  1
  P  P30  1  0.500000  0.843391  0.890833  1
  P  P31  1  0.500000  0.154173  0.892452  1
  P  P32  1  0.000000  0.656921  0.109688  1
  P  P33  1  0.000000  0.343525  0.109496  1
  Ru  Ru34  1  0.500000  0.499990  0.160219  1
  Ru  Ru35  1  0.000000  0.999695  0.839807  1
