# generated using pymatgen
data_Y7Ho3(IrOs)2
_symmetry_space_group_name_H-M   'P 1'
_cell_length_a   6.45514808
_cell_length_b   7.31507590
_cell_length_c   8.47427026
_cell_angle_alpha   96.61793756
_cell_angle_beta   112.55679333
_cell_angle_gamma   90.11175051
_symmetry_Int_Tables_number   1
_chemical_formula_structural   Y7Ho3(IrOs)2
_chemical_formula_sum   'Y7 Ho3 Ir2 Os2'
_cell_volume   366.61491681
_cell_formula_units_Z   1
loop_
 _symmetry_equiv_pos_site_id
 _symmetry_equiv_pos_as_xyz
  1  'x, y, z'
loop_
 _atom_site_type_symbol
 _atom_site_label
 _atom_site_symmetry_multiplicity
 _atom_site_fract_x
 _atom_site_fract_y
 _atom_site_fract_z
 _atom_site_occupancy
  Y  Y0  1  0.970351  0.915808  0.180178  1
  Y  Y1  1  0.789435  0.583527  0.819305  1
  Y  Y2  1  0.025728  0.081977  0.815967  1
  Y  Y3  1  0.210096  0.418565  0.183622  1
  Y  Y4  1  0.653021  0.817289  0.439871  1
  Y  Y5  1  0.212412  0.682760  0.560088  1
  Y  Y6  1  0.350157  0.180443  0.562149  1
  Ho  Ho7  1  0.787884  0.319916  0.437240  1
  Ho  Ho8  1  0.426398  0.749724  0.999984  1
  Ho  Ho9  1  0.575288  0.250101  0.000328  1
  Ir  Ir10  1  0.174645  0.424980  0.780453  1
  Ir  Ir11  1  0.395646  0.075944  0.218518  1
  Os  Os12  1  0.822067  0.572213  0.217472  1
  Os  Os13  1  0.606871  0.926753  0.784823  1
