# generated using pymatgen
data_YbCdCu2PdPt
_symmetry_space_group_name_H-M   'P 1'
_cell_length_a   5.20208568
_cell_length_b   5.51070094
_cell_length_c   5.20208570
_cell_angle_alpha   57.89974937
_cell_angle_beta   58.13738679
_cell_angle_gamma   57.89974855
_symmetry_Int_Tables_number   1
_chemical_formula_structural   YbCdCu2PdPt
_chemical_formula_sum   'Yb1 Cd1 Cu2 Pd1 Pt1'
_cell_volume   100.55958315
_cell_formula_units_Z   1
loop_
 _symmetry_equiv_pos_site_id
 _symmetry_equiv_pos_as_xyz
  1  'x, y, z'
loop_
 _atom_site_type_symbol
 _atom_site_label
 _atom_site_symmetry_multiplicity
 _atom_site_fract_x
 _atom_site_fract_y
 _atom_site_fract_z
 _atom_site_occupancy
  Yb  Yb0  1  0.750246  0.750731  0.750246  1
  Cd  Cd1  1  0.996922  0.002696  0.996922  1
  Cu  Cu2  1  0.875126  0.373504  0.377887  1
  Cu  Cu3  1  0.377887  0.373504  0.875126  1
  Pd  Pd4  1  0.374758  0.374198  0.374758  1
  Pt  Pt5  1  0.375061  0.875367  0.375061  1
