# generated using pymatgen
data_Tm2Ga9Tc2Ru3
_symmetry_space_group_name_H-M   'P 1'
_cell_length_a   7.96345239
_cell_length_b   7.96345194
_cell_length_c   7.96345242
_cell_angle_alpha   134.03128756
_cell_angle_beta   134.03128826
_cell_angle_gamma   67.03914701
_symmetry_Int_Tables_number   1
_chemical_formula_structural   Tm2Ga9Tc2Ru3
_chemical_formula_sum   'Tm2 Ga9 Tc2 Ru3'
_cell_volume   256.78496173
_cell_formula_units_Z   1
loop_
 _symmetry_equiv_pos_site_id
 _symmetry_equiv_pos_as_xyz
  1  'x, y, z'
loop_
 _atom_site_type_symbol
 _atom_site_label
 _atom_site_symmetry_multiplicity
 _atom_site_fract_x
 _atom_site_fract_y
 _atom_site_fract_z
 _atom_site_occupancy
  Tm  Tm0  1  0.000000  0.500000  0.500000  1
  Tm  Tm1  1  0.500000  0.000000  0.500000  1
  Ga  Ga2  1  0.435962  0.857975  0.000000  1
  Ga  Ga3  1  0.142025  0.142025  0.577987  1
  Ga  Ga4  1  0.857975  0.435962  0.000000  1
  Ga  Ga5  1  0.857975  0.857975  0.422013  1
  Ga  Ga6  1  0.564038  0.142025  0.000000  1
  Ga  Ga7  1  0.142025  0.564038  0.000000  1
  Ga  Ga8  1  0.564038  0.564038  0.422013  1
  Ga  Ga9  1  0.000000  0.000000  0.000000  1
  Ga  Ga10  1  0.435962  0.435962  0.577987  1
  Tc  Tc11  1  0.183910  0.183910  0.000000  1
  Tc  Tc12  1  0.816090  0.816090  0.000000  1
  Ru  Ru13  1  0.250000  0.750000  0.500000  1
  Ru  Ru14  1  0.750000  0.250000  0.500000  1
  Ru  Ru15  1  0.500000  0.500000  0.000000  1
