# generated using pymatgen
data_Li2Al4IrPd
_symmetry_space_group_name_H-M   'P 1'
_cell_length_a   6.04092600
_cell_length_b   4.32175100
_cell_length_c   8.60973300
_cell_angle_alpha   90.00000000
_cell_angle_beta   90.00003893
_cell_angle_gamma   90.00000000
_symmetry_Int_Tables_number   1
_chemical_formula_structural   Li2Al4IrPd
_chemical_formula_sum   'Li4 Al8 Ir2 Pd2'
_cell_volume   224.77755375
_cell_formula_units_Z   2
loop_
 _symmetry_equiv_pos_site_id
 _symmetry_equiv_pos_as_xyz
  1  'x, y, z'
loop_
 _atom_site_type_symbol
 _atom_site_label
 _atom_site_symmetry_multiplicity
 _atom_site_fract_x
 _atom_site_fract_y
 _atom_site_fract_z
 _atom_site_occupancy
  Li  Li0  1  0.249993  0.250001  0.126656  1
  Li  Li1  1  0.749990  0.750000  0.373349  1
  Li  Li2  1  0.250016  0.250001  0.622897  1
  Li  Li3  1  0.750021  0.750000  0.877097  1
  Al  Al4  1  0.502695  0.750000  0.130610  1
  Al  Al5  1  0.997306  0.750000  0.130619  1
  Al  Al6  1  0.497306  0.250001  0.369381  1
  Al  Al7  1  0.002694  0.250001  0.369390  1
  Al  Al8  1  0.001779  0.750000  0.620726  1
  Al  Al9  1  0.498238  0.750000  0.620733  1
  Al  Al10  1  0.998247  0.250001  0.879268  1
  Al  Al11  1  0.501782  0.250001  0.879275  1
  Ir  Ir12  1  0.750012  0.250001  0.122195  1
  Ir  Ir13  1  0.250007  0.750000  0.377802  1
  Pd  Pd14  1  0.750006  0.250001  0.627487  1
  Pd  Pd15  1  0.250011  0.750000  0.872518  1
