# generated using pymatgen
data_TbPa2TiPd12
_symmetry_space_group_name_H-M   'P 1'
_cell_length_a   5.74882300
_cell_length_b   5.74882432
_cell_length_c   9.58679400
_cell_angle_alpha   90.00000000
_cell_angle_beta   90.00000000
_cell_angle_gamma   119.99999814
_symmetry_Int_Tables_number   1
_chemical_formula_structural   TbPa2TiPd12
_chemical_formula_sum   'Tb1 Pa2 Ti1 Pd12'
_cell_volume   274.38603884
_cell_formula_units_Z   1
loop_
 _symmetry_equiv_pos_site_id
 _symmetry_equiv_pos_as_xyz
  1  'x, y, z'
loop_
 _atom_site_type_symbol
 _atom_site_label
 _atom_site_symmetry_multiplicity
 _atom_site_fract_x
 _atom_site_fract_y
 _atom_site_fract_z
 _atom_site_occupancy
  Tb  Tb0  1  0.000000  0.000000  0.500000  1
  Pa  Pa1  1  0.333333  0.666667  0.248149  1
  Pa  Pa2  1  0.666667  0.333333  0.751851  1
  Ti  Ti3  1  0.000000  0.000000  0.000000  1
  Pd  Pd4  1  0.500000  0.500000  0.500000  1
  Pd  Pd5  1  0.500000  0.000000  0.500000  1
  Pd  Pd6  1  0.000000  0.500000  0.500000  1
  Pd  Pd7  1  0.500000  0.500000  0.000000  1
  Pd  Pd8  1  0.500000  0.000000  0.000000  1
  Pd  Pd9  1  0.000000  0.500000  0.000000  1
  Pd  Pd10  1  0.831861  0.663722  0.241837  1
  Pd  Pd11  1  0.336278  0.168139  0.241837  1
  Pd  Pd12  1  0.831861  0.168139  0.241837  1
  Pd  Pd13  1  0.168139  0.336278  0.758163  1
  Pd  Pd14  1  0.663722  0.831861  0.758163  1
  Pd  Pd15  1  0.168139  0.831861  0.758163  1
