# generated using pymatgen
data_La10In5Sn
_symmetry_space_group_name_H-M   'P 1'
_cell_length_a   9.72042804
_cell_length_b   9.72038829
_cell_length_c   9.61947979
_cell_angle_alpha   96.12477964
_cell_angle_beta   96.12439320
_cell_angle_gamma   142.07638879
_symmetry_Int_Tables_number   1
_chemical_formula_structural   La10In5Sn
_chemical_formula_sum   'La10 In5 Sn1'
_cell_volume   527.65429401
_cell_formula_units_Z   1
loop_
 _symmetry_equiv_pos_site_id
 _symmetry_equiv_pos_as_xyz
  1  'x, y, z'
loop_
 _atom_site_type_symbol
 _atom_site_label
 _atom_site_symmetry_multiplicity
 _atom_site_fract_x
 _atom_site_fract_y
 _atom_site_fract_z
 _atom_site_occupancy
  La  La0  1  0.752091  0.251454  0.499997  1
  La  La1  1  0.248541  0.747907  0.500000  1
  La  La2  1  0.913809  0.219004  0.132810  1
  La  La3  1  0.219287  0.087882  0.307161  1
  La  La4  1  0.780069  0.912261  0.692320  1
  La  La5  1  0.086740  0.780836  0.867594  1
  La  La6  1  0.719151  0.413253  0.132403  1
  La  La7  1  0.281002  0.586192  0.867192  1
  La  La8  1  0.587743  0.719926  0.307676  1
  La  La9  1  0.412122  0.280715  0.692839  1
  In  In10  1  0.749869  0.750129  0.999999  1
  In  In11  1  0.249871  0.250130  0.999999  1
  In  In12  1  0.839960  0.660040  0.500000  1
  In  In13  1  0.660143  0.160217  0.820360  1
  In  In14  1  0.339792  0.839859  0.179652  1
  Sn  Sn15  1  0.159809  0.340193  0.499999  1
