# generated using pymatgen
data_Tm2GaB2IrRh4
_symmetry_space_group_name_H-M   'P 1'
_cell_length_a   9.47275500
_cell_length_b   9.47275500
_cell_length_c   3.18208900
_cell_angle_alpha   90.00000000
_cell_angle_beta   90.00000000
_cell_angle_gamma   90.00000000
_symmetry_Int_Tables_number   1
_chemical_formula_structural   Tm2GaB2IrRh4
_chemical_formula_sum   'Tm4 Ga2 B4 Ir2 Rh8'
_cell_volume   285.53867000
_cell_formula_units_Z   2
loop_
 _symmetry_equiv_pos_site_id
 _symmetry_equiv_pos_as_xyz
  1  'x, y, z'
loop_
 _atom_site_type_symbol
 _atom_site_label
 _atom_site_symmetry_multiplicity
 _atom_site_fract_x
 _atom_site_fract_y
 _atom_site_fract_z
 _atom_site_occupancy
  Tm  Tm0  1  0.822984  0.322984  0.000000  1
  Tm  Tm1  1  0.322984  0.177016  0.000000  1
  Tm  Tm2  1  0.677016  0.822984  0.000000  1
  Tm  Tm3  1  0.177016  0.677016  0.000000  1
  Ga  Ga4  1  0.000000  0.000000  0.000000  1
  Ga  Ga5  1  0.500000  0.500000  0.000000  1
  B  B6  1  0.622042  0.122042  0.000000  1
  B  B7  1  0.122042  0.377958  0.000000  1
  B  B8  1  0.877958  0.622042  0.000000  1
  B  B9  1  0.377958  0.877958  0.000000  1
  Ir  Ir10  1  0.500000  0.000000  0.500000  1
  Ir  Ir11  1  0.000000  0.500000  0.500000  1
  Rh  Rh12  1  0.069900  0.218457  0.500000  1
  Rh  Rh13  1  0.218457  0.930100  0.500000  1
  Rh  Rh14  1  0.781543  0.069900  0.500000  1
  Rh  Rh15  1  0.930100  0.781543  0.500000  1
  Rh  Rh16  1  0.430100  0.718457  0.500000  1
  Rh  Rh17  1  0.569900  0.281543  0.500000  1
  Rh  Rh18  1  0.718457  0.569900  0.500000  1
  Rh  Rh19  1  0.281543  0.430100  0.500000  1
