# generated using pymatgen
data_Dy4Ti3Fe16P12Ru
_symmetry_space_group_name_H-M   'P 1'
_cell_length_a   3.68166500
_cell_length_b   10.34298835
_cell_length_c   12.18799547
_cell_angle_alpha   90.03069113
_cell_angle_beta   90.00000000
_cell_angle_gamma   90.00000000
_symmetry_Int_Tables_number   1
_chemical_formula_structural   Dy4Ti3Fe16P12Ru
_chemical_formula_sum   'Dy4 Ti3 Fe16 P12 Ru1'
_cell_volume   464.11170971
_cell_formula_units_Z   1
loop_
 _symmetry_equiv_pos_site_id
 _symmetry_equiv_pos_as_xyz
  1  'x, y, z'
loop_
 _atom_site_type_symbol
 _atom_site_label
 _atom_site_symmetry_multiplicity
 _atom_site_fract_x
 _atom_site_fract_y
 _atom_site_fract_z
 _atom_site_occupancy
  Dy  Dy0  1  0.250000  0.583322  0.712156  1
  Dy  Dy1  1  0.250000  0.916149  0.209959  1
  Dy  Dy2  1  0.750000  0.417832  0.287683  1
  Dy  Dy3  1  0.750000  0.080209  0.790388  1
  Ti  Ti4  1  0.250000  0.800475  0.493336  1
  Ti  Ti5  1  0.750000  0.299198  0.007647  1
  Ti  Ti6  1  0.750000  0.199844  0.508811  1
  Fe  Fe7  1  0.250000  0.417318  0.490375  1
  Fe  Fe8  1  0.250000  0.082052  0.992242  1
  Fe  Fe9  1  0.750000  0.586090  0.507015  1
  Fe  Fe10  1  0.750000  0.912923  0.008555  1
  Fe  Fe11  1  0.250000  0.216117  0.171190  1
  Fe  Fe12  1  0.250000  0.283967  0.672386  1
  Fe  Fe13  1  0.750000  0.777776  0.830418  1
  Fe  Fe14  1  0.750000  0.718003  0.325170  1
  Fe  Fe15  1  0.250000  0.876840  0.700144  1
  Fe  Fe16  1  0.250000  0.619942  0.196764  1
  Fe  Fe17  1  0.750000  0.124024  0.301061  1
  Fe  Fe18  1  0.750000  0.377036  0.801464  1
  Fe  Fe19  1  0.250000  0.464856  0.934095  1
  Fe  Fe20  1  0.250000  0.035938  0.432600  1
  Fe  Fe21  1  0.750000  0.538322  0.064983  1
  Fe  Fe22  1  0.750000  0.964410  0.567984  1
  P  P23  1  0.250000  0.424656  0.112397  1
  P  P24  1  0.250000  0.073402  0.613279  1
  P  P25  1  0.750000  0.575043  0.888731  1
  P  P26  1  0.750000  0.926347  0.387538  1
  P  P27  1  0.250000  0.270814  0.859226  1
  P  P28  1  0.250000  0.229904  0.359274  1
  P  P29  1  0.750000  0.730027  0.137261  1
  P  P30  1  0.750000  0.771542  0.643816  1
  P  P31  1  0.250000  0.602339  0.377819  1
  P  P32  1  0.250000  0.894168  0.883008  1
  P  P33  1  0.750000  0.401798  0.619331  1
  P  P34  1  0.750000  0.097503  0.119636  1
  Ru  Ru35  1  0.250000  0.709810  0.992257  1
