# generated using pymatgen
data_SrGaPd4
_symmetry_space_group_name_H-M   'P 1'
_cell_length_a   5.31381437
_cell_length_b   5.70503504
_cell_length_c   4.44350600
_cell_angle_alpha   90.00000000
_cell_angle_beta   90.00000000
_cell_angle_gamma   122.46685808
_symmetry_Int_Tables_number   1
_chemical_formula_structural   SrGaPd4
_chemical_formula_sum   'Sr1 Ga1 Pd4'
_cell_volume   113.65265746
_cell_formula_units_Z   1
loop_
 _symmetry_equiv_pos_site_id
 _symmetry_equiv_pos_as_xyz
  1  'x, y, z'
loop_
 _atom_site_type_symbol
 _atom_site_label
 _atom_site_symmetry_multiplicity
 _atom_site_fract_x
 _atom_site_fract_y
 _atom_site_fract_z
 _atom_site_occupancy
  Sr  Sr0  1  0.000000  0.000000  0.000000  1
  Ga  Ga1  1  0.000000  0.500000  0.500000  1
  Pd  Pd2  1  0.683197  0.341598  0.000000  1
  Pd  Pd3  1  0.500000  0.000000  0.500000  1
  Pd  Pd4  1  0.500000  0.500000  0.500000  1
  Pd  Pd5  1  0.316803  0.658402  0.000000  1
