# generated using pymatgen
data_Th5Si10P2Ir19
_symmetry_space_group_name_H-M   'P 1'
_cell_length_a   12.96437734
_cell_length_b   12.94339318
_cell_length_c   4.02284200
_cell_angle_alpha   90.00000000
_cell_angle_beta   90.00000000
_cell_angle_gamma   119.94646798
_symmetry_Int_Tables_number   1
_chemical_formula_structural   Th5Si10P2Ir19
_chemical_formula_sum   'Th5 Si10 P2 Ir19'
_cell_volume   584.92129200
_cell_formula_units_Z   1
loop_
 _symmetry_equiv_pos_site_id
 _symmetry_equiv_pos_as_xyz
  1  'x, y, z'
loop_
 _atom_site_type_symbol
 _atom_site_label
 _atom_site_symmetry_multiplicity
 _atom_site_fract_x
 _atom_site_fract_y
 _atom_site_fract_z
 _atom_site_occupancy
  Th  Th0  1  0.333773  0.667007  0.500000  1
  Th  Th1  1  0.666227  0.333234  0.500000  1
  Th  Th2  1  0.000000  0.814012  0.000000  1
  Th  Th3  1  0.185107  0.185520  0.000000  1
  Th  Th4  1  0.814893  0.000413  0.000000  1
  Si  Si5  1  0.000000  0.631345  0.500000  1
  Si  Si6  1  0.368732  0.368805  0.500000  1
  Si  Si7  1  0.631268  0.000073  0.500000  1
  Si  Si8  1  0.521527  0.686705  0.000000  1
  Si  Si9  1  0.313420  0.834595  0.000000  1
  Si  Si10  1  0.166243  0.478883  0.000000  1
  Si  Si11  1  0.478473  0.165178  0.000000  1
  Si  Si12  1  0.686580  0.521174  0.000000  1
  Si  Si13  1  0.833757  0.312640  0.000000  1
  Si  Si14  1  0.000000  0.180798  0.500000  1
  P  P15  1  0.819076  0.819165  0.500000  1
  P  P16  1  0.180924  0.000089  0.500000  1
  Ir  Ir17  1  0.512325  0.872849  0.000000  1
  Ir  Ir18  1  0.126965  0.639305  0.000000  1
  Ir  Ir19  1  0.361480  0.487536  0.000000  1
  Ir  Ir20  1  0.487675  0.360523  0.000000  1
  Ir  Ir21  1  0.873035  0.512339  0.000000  1
  Ir  Ir22  1  0.638520  0.126055  0.000000  1
  Ir  Ir23  1  0.000000  0.447937  0.500000  1
  Ir  Ir24  1  0.552032  0.551347  0.500000  1
  Ir  Ir25  1  0.447968  0.999316  0.500000  1
  Ir  Ir26  1  0.000000  0.282777  0.000000  1
  Ir  Ir27  1  0.720349  0.720263  0.000000  1
  Ir  Ir28  1  0.279651  0.999914  0.000000  1
  Ir  Ir29  1  0.626688  0.806046  0.500000  1
  Ir  Ir30  1  0.194245  0.820558  0.500000  1
  Ir  Ir31  1  0.181039  0.375833  0.500000  1
  Ir  Ir32  1  0.373312  0.179359  0.500000  1
  Ir  Ir33  1  0.805755  0.626314  0.500000  1
  Ir  Ir34  1  0.818961  0.194793  0.500000  1
  Ir  Ir35  1  0.000000  0.997301  0.500000  1
