# generated using pymatgen
data_TbDy3ScTiAl6
_symmetry_space_group_name_H-M   'P 1'
_cell_length_a   9.66079114
_cell_length_b   9.66079014
_cell_length_c   9.66079077
_cell_angle_alpha   34.69952311
_cell_angle_beta   34.69952984
_cell_angle_gamma   34.69952615
_symmetry_Int_Tables_number   1
_chemical_formula_structural   TbDy3ScTiAl6
_chemical_formula_sum   'Tb1 Dy3 Sc1 Ti1 Al6'
_cell_volume   260.76548288
_cell_formula_units_Z   1
loop_
 _symmetry_equiv_pos_site_id
 _symmetry_equiv_pos_as_xyz
  1  'x, y, z'
loop_
 _atom_site_type_symbol
 _atom_site_label
 _atom_site_symmetry_multiplicity
 _atom_site_fract_x
 _atom_site_fract_y
 _atom_site_fract_z
 _atom_site_occupancy
  Tb  Tb0  1  0.811545  0.811545  0.811545  1
  Dy  Dy1  1  0.314043  0.314043  0.314043  1
  Dy  Dy2  1  0.685832  0.685832  0.685832  1
  Dy  Dy3  1  0.188396  0.188396  0.188396  1
  Sc  Sc4  1  0.500061  0.500061  0.500061  1
  Ti  Ti5  1  0.000060  0.000060  0.000060  1
  Al  Al6  1  0.245687  0.245687  0.752841  1
  Al  Al7  1  0.754335  0.754335  0.247176  1
  Al  Al8  1  0.245687  0.752841  0.245687  1
  Al  Al9  1  0.754335  0.247176  0.754335  1
  Al  Al10  1  0.752841  0.245687  0.245687  1
  Al  Al11  1  0.247176  0.754335  0.754335  1
