# generated using pymatgen
data_Nd2Lu2B12MoRu
_symmetry_space_group_name_H-M   'P 1'
_cell_length_a   3.68392500
_cell_length_b   9.22052719
_cell_length_c   11.68030723
_cell_angle_alpha   89.76640050
_cell_angle_beta   90.00000000
_cell_angle_gamma   90.00000000
_symmetry_Int_Tables_number   1
_chemical_formula_structural   Nd2Lu2B12MoRu
_chemical_formula_sum   'Nd4 Lu4 B24 Mo2 Ru2'
_cell_volume   396.75023211
_cell_formula_units_Z   2
loop_
 _symmetry_equiv_pos_site_id
 _symmetry_equiv_pos_as_xyz
  1  'x, y, z'
loop_
 _atom_site_type_symbol
 _atom_site_label
 _atom_site_symmetry_multiplicity
 _atom_site_fract_x
 _atom_site_fract_y
 _atom_site_fract_z
 _atom_site_occupancy
  Nd  Nd0  1  0.000000  0.322011  0.414662  1
  Nd  Nd1  1  0.000000  0.677989  0.585338  1
  Nd  Nd2  1  0.000000  0.822641  0.085097  1
  Nd  Nd3  1  0.000000  0.177359  0.914903  1
  Lu  Lu4  1  0.000000  0.944927  0.370719  1
  Lu  Lu5  1  0.000000  0.055073  0.629281  1
  Lu  Lu6  1  0.000000  0.442726  0.129026  1
  Lu  Lu7  1  0.000000  0.557274  0.870974  1
  B  B8  1  0.500000  0.554066  0.431588  1
  B  B9  1  0.500000  0.445934  0.568412  1
  B  B10  1  0.500000  0.056731  0.070497  1
  B  B11  1  0.500000  0.943269  0.929503  1
  B  B12  1  0.500000  0.753419  0.417740  1
  B  B13  1  0.500000  0.246581  0.582260  1
  B  B14  1  0.500000  0.251066  0.084262  1
  B  B15  1  0.500000  0.748934  0.915738  1
  B  B16  1  0.500000  0.795596  0.265346  1
  B  B17  1  0.500000  0.204404  0.734654  1
  B  B18  1  0.500000  0.291484  0.233434  1
  B  B19  1  0.500000  0.708516  0.766566  1
  B  B20  1  0.500000  0.629954  0.182660  1
  B  B21  1  0.500000  0.370046  0.817340  1
  B  B22  1  0.500000  0.129381  0.313843  1
  B  B23  1  0.500000  0.870619  0.686157  1
  B  B24  1  0.500000  0.985019  0.213773  1
  B  B25  1  0.500000  0.014981  0.786227  1
  B  B26  1  0.500000  0.480990  0.284783  1
  B  B27  1  0.500000  0.519010  0.715217  1
  B  B28  1  0.500000  0.597502  0.026141  1
  B  B29  1  0.500000  0.402498  0.973859  1
  B  B30  1  0.500000  0.097098  0.473158  1
  B  B31  1  0.500000  0.902902  0.526842  1
  Mo  Mo32  1  0.000000  0.640786  0.317465  1
  Mo  Mo33  1  0.000000  0.359214  0.682535  1
  Ru  Ru34  1  0.000000  0.140323  0.180958  1
  Ru  Ru35  1  0.000000  0.859677  0.819042  1
