# generated using pymatgen
data_Pa4C3N
_symmetry_space_group_name_H-M   'P 1'
_cell_length_a   11.69420553
_cell_length_b   11.69420532
_cell_length_c   11.69420641
_cell_angle_alpha   17.66112856
_cell_angle_beta   17.66113047
_cell_angle_gamma   17.66113037
_symmetry_Int_Tables_number   1
_chemical_formula_structural   Pa4C3N
_chemical_formula_sum   'Pa4 C3 N1'
_cell_volume   128.48737934
_cell_formula_units_Z   1
loop_
 _symmetry_equiv_pos_site_id
 _symmetry_equiv_pos_as_xyz
  1  'x, y, z'
loop_
 _atom_site_type_symbol
 _atom_site_label
 _atom_site_symmetry_multiplicity
 _atom_site_fract_x
 _atom_site_fract_y
 _atom_site_fract_z
 _atom_site_occupancy
  Pa  Pa0  1  0.875894  0.875894  0.875894  1
  Pa  Pa1  1  0.124106  0.124106  0.124106  1
  Pa  Pa2  1  0.374067  0.374067  0.374067  1
  Pa  Pa3  1  0.625933  0.625933  0.625933  1
  C  C4  1  0.251528  0.251528  0.251528  1
  C  C5  1  0.500000  0.500000  0.500000  1
  C  C6  1  0.748472  0.748472  0.748472  1
  N  N7  1  0.000000  0.000000  0.000000  1
