# generated using pymatgen
data_BaNiB2Ru
_symmetry_space_group_name_H-M   'P 1'
_cell_length_a   6.41833755
_cell_length_b   6.41833896
_cell_length_c   6.41833959
_cell_angle_alpha   145.56870519
_cell_angle_beta   145.56872073
_cell_angle_gamma   49.48782823
_symmetry_Int_Tables_number   1
_chemical_formula_structural   BaNiB2Ru
_chemical_formula_sum   'Ba1 Ni1 B2 Ru1'
_cell_volume   84.13864417
_cell_formula_units_Z   1
loop_
 _symmetry_equiv_pos_site_id
 _symmetry_equiv_pos_as_xyz
  1  'x, y, z'
loop_
 _atom_site_type_symbol
 _atom_site_label
 _atom_site_symmetry_multiplicity
 _atom_site_fract_x
 _atom_site_fract_y
 _atom_site_fract_z
 _atom_site_occupancy
  Ba  Ba0  1  0.000000  0.000000  0.000000  1
  Ni  Ni1  1  0.750000  0.250000  0.500000  1
  B  B2  1  0.681568  0.681568  0.000000  1
  B  B3  1  0.318432  0.318432  0.000000  1
  Ru  Ru4  1  0.250000  0.750000  0.500000  1
