# generated using pymatgen
data_Th6P13IrRh19
_symmetry_space_group_name_H-M   'P 1'
_cell_length_a   13.50665300
_cell_length_b   13.50665258
_cell_length_c   3.99793900
_cell_angle_alpha   90.00000000
_cell_angle_beta   90.00000000
_cell_angle_gamma   119.99999368
_symmetry_Int_Tables_number   1
_chemical_formula_structural   Th6P13IrRh19
_chemical_formula_sum   'Th6 P13 Ir1 Rh19'
_cell_volume   631.62933857
_cell_formula_units_Z   1
loop_
 _symmetry_equiv_pos_site_id
 _symmetry_equiv_pos_as_xyz
  1  'x, y, z'
loop_
 _atom_site_type_symbol
 _atom_site_label
 _atom_site_symmetry_multiplicity
 _atom_site_fract_x
 _atom_site_fract_y
 _atom_site_fract_z
 _atom_site_occupancy
  Th  Th0  1  0.529052  0.718554  0.250695  1
  Th  Th1  1  0.281446  0.810497  0.250695  1
  Th  Th2  1  0.189503  0.470948  0.250695  1
  Th  Th3  1  0.471412  0.281611  0.749136  1
  Th  Th4  1  0.718389  0.189801  0.749136  1
  Th  Th5  1  0.810199  0.528588  0.749136  1
  P  P6  1  0.523342  0.136848  0.245605  1
  P  P7  1  0.863152  0.386495  0.245605  1
  P  P8  1  0.613505  0.476658  0.245605  1
  P  P9  1  0.947809  0.719249  0.254964  1
  P  P10  1  0.280751  0.228559  0.254964  1
  P  P11  1  0.771441  0.052191  0.254964  1
  P  P12  1  0.386373  0.523203  0.753422  1
  P  P13  1  0.476797  0.863169  0.753422  1
  P  P14  1  0.136831  0.613627  0.753422  1
  P  P15  1  0.720086  0.771754  0.744532  1
  P  P16  1  0.228246  0.948332  0.744532  1
  P  P17  1  0.051668  0.279914  0.744532  1
  P  P18  1  0.000000  0.000000  0.001667  1
  Ir  Ir19  1  0.333333  0.666667  0.738150  1
  Rh  Rh20  1  0.922050  0.248318  0.252506  1
  Rh  Rh21  1  0.751682  0.673733  0.252506  1
  Rh  Rh22  1  0.326267  0.077950  0.252506  1
  Rh  Rh23  1  0.435627  0.018553  0.750250  1
  Rh  Rh24  1  0.981447  0.417075  0.750250  1
  Rh  Rh25  1  0.582925  0.564373  0.750250  1
  Rh  Rh26  1  0.666667  0.333333  0.264397  1
  Rh  Rh27  1  0.092611  0.184609  0.252563  1
  Rh  Rh28  1  0.815391  0.908002  0.252563  1
  Rh  Rh29  1  0.091998  0.907389  0.252563  1
  Rh  Rh30  1  0.019382  0.582959  0.249789  1
  Rh  Rh31  1  0.417041  0.436423  0.249789  1
  Rh  Rh32  1  0.563577  0.980618  0.249789  1
  Rh  Rh33  1  0.673967  0.922527  0.747382  1
  Rh  Rh34  1  0.077473  0.751441  0.747382  1
  Rh  Rh35  1  0.248559  0.326033  0.747382  1
  Rh  Rh36  1  0.908372  0.816642  0.747753  1
  Rh  Rh37  1  0.183358  0.091729  0.747753  1
  Rh  Rh38  1  0.908271  0.091628  0.747753  1
