# generated using pymatgen
data_Tb4DyScCoTe2
_symmetry_space_group_name_H-M   'P 1'
_cell_length_a   8.21240767
_cell_length_b   8.35872363
_cell_length_c   3.95701300
_cell_angle_alpha   90.00000000
_cell_angle_beta   90.00000000
_cell_angle_gamma   120.59626738
_symmetry_Int_Tables_number   1
_chemical_formula_structural   Tb4DyScCoTe2
_chemical_formula_sum   'Tb4 Dy1 Sc1 Co1 Te2'
_cell_volume   233.81247681
_cell_formula_units_Z   1
loop_
 _symmetry_equiv_pos_site_id
 _symmetry_equiv_pos_as_xyz
  1  'x, y, z'
loop_
 _atom_site_type_symbol
 _atom_site_label
 _atom_site_symmetry_multiplicity
 _atom_site_fract_x
 _atom_site_fract_y
 _atom_site_fract_z
 _atom_site_occupancy
  Tb  Tb0  1  0.999981  0.411748  0.500000  1
  Tb  Tb1  1  0.613700  0.611146  0.500000  1
  Tb  Tb2  1  0.386360  0.997422  0.500000  1
  Tb  Tb3  1  0.229666  0.235672  0.000000  1
  Dy  Dy4  1  0.770377  0.005989  0.000000  1
  Sc  Sc5  1  0.999967  0.767341  0.000000  1
  Co  Co6  1  0.999894  0.962137  0.500000  1
  Te  Te7  1  0.331277  0.669950  0.000000  1
  Te  Te8  1  0.668778  0.338595  0.000000  1
