# generated using pymatgen
data_HfSc5Co16TcP12W
_symmetry_space_group_name_H-M   'P 1'
_cell_length_a   11.95303500
_cell_length_b   11.95284975
_cell_length_c   3.63696100
_cell_angle_alpha   90.00000000
_cell_angle_beta   90.00000000
_cell_angle_gamma   119.99949700
_symmetry_Int_Tables_number   1
_chemical_formula_structural   HfSc5Co16TcP12W
_chemical_formula_sum   'Hf1 Sc5 Co16 Tc1 P12 W1'
_cell_volume   450.00892644
_cell_formula_units_Z   1
loop_
 _symmetry_equiv_pos_site_id
 _symmetry_equiv_pos_as_xyz
  1  'x, y, z'
loop_
 _atom_site_type_symbol
 _atom_site_label
 _atom_site_symmetry_multiplicity
 _atom_site_fract_x
 _atom_site_fract_y
 _atom_site_fract_z
 _atom_site_occupancy
  Hf  Hf0  1  0.999802  0.555934  0.000000  1
  Sc  Sc1  1  0.817252  0.815972  0.500000  1
  Sc  Sc2  1  0.000581  0.178456  0.500000  1
  Sc  Sc3  1  0.334516  0.667587  0.000000  1
  Sc  Sc4  1  0.665137  0.333116  0.000000  1
  Sc  Sc5  1  0.183722  0.999411  0.500000  1
  Co  Co6  1  0.624899  0.824184  0.000000  1
  Co  Co7  1  0.375263  0.197999  0.000000  1
  Co  Co8  1  0.000426  0.721934  0.500000  1
  Co  Co9  1  0.280830  0.278975  0.500000  1
  Co  Co10  1  0.870885  0.349969  0.500000  1
  Co  Co11  1  0.717899  0.998745  0.500000  1
  Co  Co12  1  0.819036  0.627267  0.000000  1
  Co  Co13  1  0.182157  0.808307  0.000000  1
  Co  Co14  1  0.357978  0.877259  0.500000  1
  Co  Co15  1  0.129021  0.479765  0.500000  1
  Co  Co16  1  0.642566  0.518744  0.500000  1
  Co  Co17  1  0.999163  0.999109  0.000000  1
  Co  Co18  1  0.515826  0.647503  0.500000  1
  Co  Co19  1  0.484053  0.130321  0.500000  1
  Co  Co20  1  0.196497  0.369903  0.000000  1
  Co  Co21  1  0.802295  0.172854  0.000000  1
  Tc  Tc22  1  0.552191  0.001974  0.000000  1
  P  P23  1  0.999273  0.344722  0.000000  1
  P  P24  1  0.824811  0.515398  0.500000  1
  P  P25  1  0.684367  0.165688  0.500000  1
  P  P26  1  0.175826  0.173044  0.000000  1
  P  P27  1  0.642577  0.647209  0.000000  1
  P  P28  1  0.823357  0.997531  0.000000  1
  P  P29  1  0.517121  0.834469  0.500000  1
  P  P30  1  0.175490  0.690681  0.500000  1
  P  P31  1  0.359171  0.003942  0.000000  1
  P  P32  1  0.483690  0.316160  0.500000  1
  P  P33  1  0.000311  0.824755  0.000000  1
  P  P34  1  0.314636  0.481982  0.500000  1
  W  W35  1  0.447375  0.449132  0.000000  1
