# generated using pymatgen
data_Yb3CdIn2Pt3
_symmetry_space_group_name_H-M   'P 1'
_cell_length_a   7.54217800
_cell_length_b   7.54500077
_cell_length_c   4.06022100
_cell_angle_alpha   90.00000000
_cell_angle_beta   90.00000000
_cell_angle_gamma   119.98762483
_symmetry_Int_Tables_number   1
_chemical_formula_structural   Yb3CdIn2Pt3
_chemical_formula_sum   'Yb3 Cd1 In2 Pt3'
_cell_volume   200.12000926
_cell_formula_units_Z   1
loop_
 _symmetry_equiv_pos_site_id
 _symmetry_equiv_pos_as_xyz
  1  'x, y, z'
loop_
 _atom_site_type_symbol
 _atom_site_label
 _atom_site_symmetry_multiplicity
 _atom_site_fract_x
 _atom_site_fract_y
 _atom_site_fract_z
 _atom_site_occupancy
  Yb  Yb0  1  0.408014  0.000000  0.000000  1
  Yb  Yb1  1  0.995741  0.400801  0.000000  1
  Yb  Yb2  1  0.594940  0.599199  0.000000  1
  Cd  Cd3  1  0.742509  0.000000  0.500000  1
  In  In4  1  0.998221  0.739398  0.500000  1
  In  In5  1  0.258823  0.260602  0.500000  1
  Pt  Pt6  1  0.325522  0.661716  0.500000  1
  Pt  Pt7  1  0.663807  0.338284  0.500000  1
  Pt  Pt8  1  0.012423  0.000000  0.000000  1
