# generated using pymatgen
data_Yb4SmSn3H
_symmetry_space_group_name_H-M   'P 1'
_cell_length_a   9.37914911
_cell_length_b   9.37914829
_cell_length_c   9.38652897
_cell_angle_alpha   128.75851055
_cell_angle_beta   128.75850818
_cell_angle_gamma   75.34112205
_symmetry_Int_Tables_number   1
_chemical_formula_structural   Yb4SmSn3H
_chemical_formula_sum   'Yb8 Sm2 Sn6 H2'
_cell_volume   488.83107445
_cell_formula_units_Z   2
loop_
 _symmetry_equiv_pos_site_id
 _symmetry_equiv_pos_as_xyz
  1  'x, y, z'
loop_
 _atom_site_type_symbol
 _atom_site_label
 _atom_site_symmetry_multiplicity
 _atom_site_fract_x
 _atom_site_fract_y
 _atom_site_fract_z
 _atom_site_occupancy
  Yb  Yb0  1  0.501933  0.501933  0.000000  1
  Yb  Yb1  1  0.001933  0.001933  0.000000  1
  Yb  Yb2  1  0.008365  0.186050  0.500000  1
  Yb  Yb3  1  0.686050  0.508365  0.500000  1
  Yb  Yb4  1  0.489164  0.989164  0.179328  1
  Yb  Yb5  1  0.809836  0.309836  0.820672  1
  Yb  Yb6  1  0.988174  0.812555  0.500000  1
  Yb  Yb7  1  0.312555  0.488174  0.500000  1
  Sm  Sm8  1  0.518849  0.018849  0.834420  1
  Sm  Sm9  1  0.184430  0.684430  0.165580  1
  Sn  Sn10  1  0.252868  0.252868  0.000000  1
  Sn  Sn11  1  0.752868  0.752868  0.000000  1
  Sn  Sn12  1  0.870835  0.370835  0.243488  1
  Sn  Sn13  1  0.127348  0.627348  0.756512  1
  Sn  Sn14  1  0.367059  0.124514  0.500000  1
  Sn  Sn15  1  0.624514  0.867059  0.500000  1
  H  H16  1  0.255368  0.755368  0.500000  1
  H  H17  1  0.747853  0.247853  0.500000  1
