# generated using pymatgen
data_Y6Mn2Co15TcP12
_symmetry_space_group_name_H-M   'P 1'
_cell_length_a   3.71673200
_cell_length_b   10.56493100
_cell_length_c   12.17017200
_cell_angle_alpha   90.00000000
_cell_angle_beta   90.00000000
_cell_angle_gamma   90.00000000
_symmetry_Int_Tables_number   1
_chemical_formula_structural   Y6Mn2Co15TcP12
_chemical_formula_sum   'Y6 Mn2 Co15 Tc1 P12'
_cell_volume   477.88635234
_cell_formula_units_Z   1
loop_
 _symmetry_equiv_pos_site_id
 _symmetry_equiv_pos_as_xyz
  1  'x, y, z'
loop_
 _atom_site_type_symbol
 _atom_site_label
 _atom_site_symmetry_multiplicity
 _atom_site_fract_x
 _atom_site_fract_y
 _atom_site_fract_z
 _atom_site_occupancy
  Y  Y0  1  0.000000  0.500000  0.524652  1
  Y  Y1  1  0.500000  0.000000  0.476792  1
  Y  Y2  1  0.500000  0.817112  0.204837  1
  Y  Y3  1  0.500000  0.182888  0.204837  1
  Y  Y4  1  0.000000  0.680959  0.796002  1
  Y  Y5  1  0.000000  0.319041  0.796002  1
  Mn  Mn6  1  0.000000  0.000000  0.840808  1
  Mn  Mn7  1  0.000000  0.500000  0.987319  1
  Co  Co8  1  0.500000  0.500000  0.699493  1
  Co  Co9  1  0.000000  0.000000  0.298094  1
  Co  Co10  1  0.500000  0.000000  0.014227  1
  Co  Co11  1  0.500000  0.328839  0.991197  1
  Co  Co12  1  0.500000  0.671161  0.991197  1
  Co  Co13  1  0.000000  0.164984  0.006048  1
  Co  Co14  1  0.000000  0.835016  0.006048  1
  Co  Co15  1  0.500000  0.296161  0.431503  1
  Co  Co16  1  0.500000  0.703839  0.431503  1
  Co  Co17  1  0.000000  0.203551  0.569927  1
  Co  Co18  1  0.000000  0.796449  0.569927  1
  Co  Co19  1  0.500000  0.880108  0.709047  1
  Co  Co20  1  0.500000  0.119892  0.709047  1
  Co  Co21  1  0.000000  0.621194  0.292897  1
  Co  Co22  1  0.000000  0.378806  0.292897  1
  Tc  Tc23  1  0.500000  0.500000  0.156037  1
  P  P24  1  0.500000  0.500000  0.882949  1
  P  P25  1  0.000000  0.000000  0.117663  1
  P  P26  1  0.500000  0.500000  0.347162  1
  P  P27  1  0.000000  0.000000  0.655166  1
  P  P28  1  0.500000  0.310261  0.616746  1
  P  P29  1  0.500000  0.689739  0.616746  1
  P  P30  1  0.000000  0.189118  0.383904  1
  P  P31  1  0.000000  0.810882  0.383904  1
  P  P32  1  0.500000  0.848413  0.893025  1
  P  P33  1  0.500000  0.151587  0.893025  1
  P  P34  1  0.000000  0.654252  0.104683  1
  P  P35  1  0.000000  0.345748  0.104683  1
