# generated using pymatgen
data_Eu3(MnC3)2
_symmetry_space_group_name_H-M   'P 1'
_cell_length_a   8.22308900
_cell_length_b   8.22308864
_cell_length_c   5.18053500
_cell_angle_alpha   90.00000000
_cell_angle_beta   90.00000000
_cell_angle_gamma   119.99998830
_symmetry_Int_Tables_number   1
_chemical_formula_structural   Eu3(MnC3)2
_chemical_formula_sum   'Eu6 Mn4 C12'
_cell_volume   303.37183435
_cell_formula_units_Z   2
loop_
 _symmetry_equiv_pos_site_id
 _symmetry_equiv_pos_as_xyz
  1  'x, y, z'
loop_
 _atom_site_type_symbol
 _atom_site_label
 _atom_site_symmetry_multiplicity
 _atom_site_fract_x
 _atom_site_fract_y
 _atom_site_fract_z
 _atom_site_occupancy
  Eu  Eu0  1  0.608332  0.687808  0.750000  1
  Eu  Eu1  1  0.920524  0.608332  0.250000  1
  Eu  Eu2  1  0.687808  0.079476  0.250000  1
  Eu  Eu3  1  0.312192  0.920524  0.750000  1
  Eu  Eu4  1  0.079476  0.391668  0.750000  1
  Eu  Eu5  1  0.391668  0.312192  0.250000  1
  Mn  Mn6  1  0.000000  0.000000  0.500000  1
  Mn  Mn7  1  0.000000  0.000000  0.000000  1
  Mn  Mn8  1  0.666667  0.333333  0.750000  1
  Mn  Mn9  1  0.333333  0.666667  0.250000  1
  C  C10  1  0.950606  0.772061  0.750000  1
  C  C11  1  0.178545  0.950606  0.250000  1
  C  C12  1  0.772061  0.821455  0.250000  1
  C  C13  1  0.227939  0.178545  0.750000  1
  C  C14  1  0.821455  0.049394  0.750000  1
  C  C15  1  0.049394  0.227939  0.250000  1
  C  C16  1  0.854874  0.580750  0.750000  1
  C  C17  1  0.274122  0.854874  0.250000  1
  C  C18  1  0.580750  0.725878  0.250000  1
  C  C19  1  0.419250  0.274122  0.750000  1
  C  C20  1  0.145126  0.419250  0.250000  1
  C  C21  1  0.725878  0.145126  0.750000  1
