# generated using pymatgen
data_Er5Nb3(Ni4P3)4
_symmetry_space_group_name_H-M   'P 1'
_cell_length_a   12.19852300
_cell_length_b   12.19852205
_cell_length_c   3.73544800
_cell_angle_alpha   90.00000000
_cell_angle_beta   90.00000000
_cell_angle_gamma   119.99999986
_symmetry_Int_Tables_number   1
_chemical_formula_structural   Er5Nb3(Ni4P3)4
_chemical_formula_sum   'Er5 Nb3 Ni16 P12'
_cell_volume   481.37972270
_cell_formula_units_Z   1
loop_
 _symmetry_equiv_pos_site_id
 _symmetry_equiv_pos_as_xyz
  1  'x, y, z'
loop_
 _atom_site_type_symbol
 _atom_site_label
 _atom_site_symmetry_multiplicity
 _atom_site_fract_x
 _atom_site_fract_y
 _atom_site_fract_z
 _atom_site_occupancy
  Er  Er0  1  0.815318  0.000000  0.500000  1
  Er  Er1  1  0.000000  0.815318  0.500000  1
  Er  Er2  1  0.184682  0.184682  0.500000  1
  Er  Er3  1  0.333333  0.666667  0.000000  1
  Er  Er4  1  0.666667  0.333333  0.000000  1
  Nb  Nb5  1  0.440347  0.000000  0.000000  1
  Nb  Nb6  1  0.000000  0.440347  0.000000  1
  Nb  Nb7  1  0.559653  0.559653  0.000000  1
  Ni  Ni8  1  0.276455  0.000000  0.500000  1
  Ni  Ni9  1  0.000000  0.276455  0.500000  1
  Ni  Ni10  1  0.723545  0.723545  0.500000  1
  Ni  Ni11  1  0.625375  0.808671  0.000000  1
  Ni  Ni12  1  0.191329  0.816703  0.000000  1
  Ni  Ni13  1  0.183297  0.374625  0.000000  1
  Ni  Ni14  1  0.374625  0.183297  0.000000  1
  Ni  Ni15  1  0.808671  0.625375  0.000000  1
  Ni  Ni16  1  0.816703  0.191329  0.000000  1
  Ni  Ni17  1  0.515545  0.874051  0.500000  1
  Ni  Ni18  1  0.125949  0.641494  0.500000  1
  Ni  Ni19  1  0.358506  0.484455  0.500000  1
  Ni  Ni20  1  0.484455  0.358506  0.500000  1
  Ni  Ni21  1  0.874051  0.515545  0.500000  1
  Ni  Ni22  1  0.641494  0.125949  0.500000  1
  Ni  Ni23  1  0.000000  0.000000  0.000000  1
  P  P24  1  0.177250  0.000000  0.000000  1
  P  P25  1  0.000000  0.177250  0.000000  1
  P  P26  1  0.822750  0.822750  0.000000  1
  P  P27  1  0.521512  0.689280  0.500000  1
  P  P28  1  0.310720  0.832231  0.500000  1
  P  P29  1  0.167769  0.478488  0.500000  1
  P  P30  1  0.478488  0.167769  0.500000  1
  P  P31  1  0.689280  0.521512  0.500000  1
  P  P32  1  0.832231  0.310720  0.500000  1
  P  P33  1  0.639751  0.000000  0.000000  1
  P  P34  1  0.000000  0.639751  0.000000  1
  P  P35  1  0.360249  0.360249  0.000000  1
