# generated using pymatgen
data_PrSm4(PdO6)2
_symmetry_space_group_name_H-M   'P 1'
_cell_length_a   7.07201784
_cell_length_b   7.07201722
_cell_length_c   7.48862806
_cell_angle_alpha   74.60505867
_cell_angle_beta   74.60505707
_cell_angle_gamma   50.36975318
_symmetry_Int_Tables_number   1
_chemical_formula_structural   PrSm4(PdO6)2
_chemical_formula_sum   'Pr1 Sm4 Pd2 O12'
_cell_volume   275.76452037
_cell_formula_units_Z   1
loop_
 _symmetry_equiv_pos_site_id
 _symmetry_equiv_pos_as_xyz
  1  'x, y, z'
loop_
 _atom_site_type_symbol
 _atom_site_label
 _atom_site_symmetry_multiplicity
 _atom_site_fract_x
 _atom_site_fract_y
 _atom_site_fract_z
 _atom_site_occupancy
  Pr  Pr0  1  0.000000  0.000000  0.500000  1
  Sm  Sm1  1  0.302836  0.302836  0.358146  1
  Sm  Sm2  1  0.697164  0.697164  0.641854  1
  Sm  Sm3  1  0.695359  0.695359  0.164228  1
  Sm  Sm4  1  0.304641  0.304641  0.835772  1
  Pd  Pd5  1  0.752330  0.247670  0.000000  1
  Pd  Pd6  1  0.247670  0.752330  0.000000  1
  O  O7  1  0.095808  0.592804  0.577432  1
  O  O8  1  0.999223  0.999223  0.178014  1
  O  O9  1  0.407196  0.904192  0.422568  1
  O  O10  1  0.500117  0.500117  0.182765  1
  O  O11  1  0.099862  0.571821  0.081030  1
  O  O12  1  0.904192  0.407196  0.422568  1
  O  O13  1  0.000777  0.000777  0.821986  1
  O  O14  1  0.592804  0.095807  0.577432  1
  O  O15  1  0.499883  0.499883  0.817235  1
  O  O16  1  0.571821  0.099862  0.081030  1
  O  O17  1  0.428179  0.900138  0.918970  1
  O  O18  1  0.900138  0.428179  0.918970  1
