# generated using pymatgen
data_Pr3YGeI5
_symmetry_space_group_name_H-M   'P 1'
_cell_length_a   10.03597121
_cell_length_b   10.03596984
_cell_length_c   8.99315943
_cell_angle_alpha   77.82314996
_cell_angle_beta   77.82315105
_cell_angle_gamma   24.86561211
_symmetry_Int_Tables_number   1
_chemical_formula_structural   Pr3YGeI5
_chemical_formula_sum   'Pr3 Y1 Ge1 I5'
_cell_volume   371.88906534
_cell_formula_units_Z   1
loop_
 _symmetry_equiv_pos_site_id
 _symmetry_equiv_pos_as_xyz
  1  'x, y, z'
loop_
 _atom_site_type_symbol
 _atom_site_label
 _atom_site_symmetry_multiplicity
 _atom_site_fract_x
 _atom_site_fract_y
 _atom_site_fract_z
 _atom_site_occupancy
  Pr  Pr0  1  0.850353  0.850353  0.074483  1
  Pr  Pr1  1  0.150240  0.150240  0.922439  1
  Pr  Pr2  1  0.500632  0.500632  0.216596  1
  Y  Y3  1  0.499523  0.499523  0.788580  1
  Ge  Ge4  1  0.000338  0.000338  0.994392  1
  I  I5  1  0.671322  0.671322  0.178432  1
  I  I6  1  0.333155  0.333155  0.815439  1
  I  I7  1  0.661246  0.661246  0.654976  1
  I  I8  1  0.333870  0.333870  0.343516  1
  I  I9  1  0.999322  0.999322  0.511148  1
