# generated using pymatgen
data_LiDy8Y8Cd3Pt4
_symmetry_space_group_name_H-M   'P 1'
_cell_length_a   9.69840138
_cell_length_b   9.69840144
_cell_length_c   9.71029994
_cell_angle_alpha   59.91820096
_cell_angle_beta   59.91820233
_cell_angle_gamma   60.01170514
_symmetry_Int_Tables_number   1
_chemical_formula_structural   LiDy8Y8Cd3Pt4
_chemical_formula_sum   'Li1 Dy8 Y8 Cd3 Pt4'
_cell_volume   645.08687362
_cell_formula_units_Z   1
loop_
 _symmetry_equiv_pos_site_id
 _symmetry_equiv_pos_as_xyz
  1  'x, y, z'
loop_
 _atom_site_type_symbol
 _atom_site_label
 _atom_site_symmetry_multiplicity
 _atom_site_fract_x
 _atom_site_fract_y
 _atom_site_fract_z
 _atom_site_occupancy
  Li  Li0  1  0.571559  0.571559  0.570852  1
  Dy  Dy1  1  0.350851  0.350851  0.351263  1
  Dy  Dy2  1  0.352145  0.352145  0.944500  1
  Dy  Dy3  1  0.352548  0.944523  0.352097  1
  Dy  Dy4  1  0.944523  0.352548  0.352097  1
  Dy  Dy5  1  0.809787  0.192168  0.192311  1
  Dy  Dy6  1  0.188044  0.812530  0.812603  1
  Dy  Dy7  1  0.192168  0.809787  0.192311  1
  Dy  Dy8  1  0.812530  0.188044  0.812603  1
  Y  Y9  1  0.192473  0.192473  0.809505  1
  Y  Y10  1  0.812244  0.812244  0.188010  1
  Y  Y11  1  0.936621  0.564623  0.564707  1
  Y  Y12  1  0.563058  0.936593  0.936425  1
  Y  Y13  1  0.564623  0.936621  0.564707  1
  Y  Y14  1  0.936593  0.563058  0.936425  1
  Y  Y15  1  0.564135  0.564135  0.937534  1
  Y  Y16  1  0.936864  0.936864  0.562765  1
  Cd  Cd17  1  0.582457  0.582457  0.253702  1
  Cd  Cd18  1  0.581994  0.253757  0.582291  1
  Cd  Cd19  1  0.253757  0.581994  0.582291  1
  Pt  Pt20  1  0.143622  0.143622  0.145787  1
  Pt  Pt21  1  0.142314  0.142314  0.570544  1
  Pt  Pt22  1  0.144517  0.570572  0.142335  1
  Pt  Pt23  1  0.570572  0.144517  0.142335  1
