# generated using pymatgen
data_Yb3YReOs7
_symmetry_space_group_name_H-M   'P 1'
_cell_length_a   5.37319300
_cell_length_b   5.37319170
_cell_length_c   8.59423500
_cell_angle_alpha   90.00000000
_cell_angle_beta   90.00000000
_cell_angle_gamma   119.99998955
_symmetry_Int_Tables_number   1
_chemical_formula_structural   Yb3YReOs7
_chemical_formula_sum   'Yb3 Y1 Re1 Os7'
_cell_volume   214.88330629
_cell_formula_units_Z   1
loop_
 _symmetry_equiv_pos_site_id
 _symmetry_equiv_pos_as_xyz
  1  'x, y, z'
loop_
 _atom_site_type_symbol
 _atom_site_label
 _atom_site_symmetry_multiplicity
 _atom_site_fract_x
 _atom_site_fract_y
 _atom_site_fract_z
 _atom_site_occupancy
  Yb  Yb0  1  0.666667  0.333333  0.572214  1
  Yb  Yb1  1  0.666667  0.333333  0.934991  1
  Yb  Yb2  1  0.333333  0.666667  0.059852  1
  Y  Y3  1  0.333333  0.666667  0.429672  1
  Re  Re4  1  0.000000  0.000000  0.500743  1
  Os  Os5  1  0.000000  0.000000  0.001937  1
  Os  Os6  1  0.826554  0.173446  0.251467  1
  Os  Os7  1  0.826554  0.653108  0.251467  1
  Os  Os8  1  0.346892  0.173446  0.251467  1
  Os  Os9  1  0.172513  0.827487  0.748730  1
  Os  Os10  1  0.172513  0.345028  0.748730  1
  Os  Os11  1  0.654972  0.827487  0.748730  1
