# generated using pymatgen
data_Dy5Tc5P12(Ir6Rh)2
_symmetry_space_group_name_H-M   'P 1'
_cell_length_a   12.63729293
_cell_length_b   12.73744969
_cell_length_c   3.97105900
_cell_angle_alpha   90.00000000
_cell_angle_beta   90.00000000
_cell_angle_gamma   120.23568181
_symmetry_Int_Tables_number   1
_chemical_formula_structural   Dy5Tc5P12(Ir6Rh)2
_chemical_formula_sum   'Dy5 Tc5 P12 Ir12 Rh2'
_cell_volume   552.25187470
_cell_formula_units_Z   1
loop_
 _symmetry_equiv_pos_site_id
 _symmetry_equiv_pos_as_xyz
  1  'x, y, z'
loop_
 _atom_site_type_symbol
 _atom_site_label
 _atom_site_symmetry_multiplicity
 _atom_site_fract_x
 _atom_site_fract_y
 _atom_site_fract_z
 _atom_site_occupancy
  Dy  Dy0  1  0.333782  0.668173  0.500000  1
  Dy  Dy1  1  0.666483  0.333053  0.500000  1
  Dy  Dy2  1  0.999676  0.810454  0.000000  1
  Dy  Dy3  1  0.186495  0.185110  0.000000  1
  Dy  Dy4  1  0.810214  0.998424  0.000000  1
  Tc  Tc5  1  0.996559  0.449837  0.500000  1
  Tc  Tc6  1  0.550143  0.545608  0.500000  1
  Tc  Tc7  1  0.457389  0.010606  0.500000  1
  Tc  Tc8  1  0.620208  0.798639  0.500000  1
  Tc  Tc9  1  0.201511  0.822030  0.500000  1
  P  P10  1  0.006737  0.639297  0.500000  1
  P  P11  1  0.364940  0.366322  0.500000  1
  P  P12  1  0.632485  0.993383  0.500000  1
  P  P13  1  0.519929  0.693753  0.000000  1
  P  P14  1  0.308475  0.830416  0.000000  1
  P  P15  1  0.169186  0.482636  0.000000  1
  P  P16  1  0.483041  0.169029  0.000000  1
  P  P17  1  0.685212  0.516288  0.000000  1
  P  P18  1  0.833427  0.315256  0.000000  1
  P  P19  1  0.998742  0.176436  0.500000  1
  P  P20  1  0.817326  0.820333  0.500000  1
  P  P21  1  0.176858  0.993110  0.500000  1
  Ir  Ir22  1  0.508230  0.875510  0.000000  1
  Ir  Ir23  1  0.127433  0.635993  0.000000  1
  Ir  Ir24  1  0.361813  0.492649  0.000000  1
  Ir  Ir25  1  0.489017  0.358486  0.000000  1
  Ir  Ir26  1  0.865632  0.506160  0.000000  1
  Ir  Ir27  1  0.644008  0.137143  0.000000  1
  Ir  Ir28  1  0.000478  0.284282  0.000000  1
  Ir  Ir29  1  0.717277  0.711705  0.000000  1
  Ir  Ir30  1  0.286340  0.005662  0.000000  1
  Ir  Ir31  1  0.807883  0.622815  0.500000  1
  Ir  Ir32  1  0.819143  0.192047  0.500000  1
  Ir  Ir33  1  0.999841  0.999559  0.500000  1
  Rh  Rh34  1  0.180243  0.375925  0.500000  1
  Rh  Rh35  1  0.373841  0.183869  0.500000  1
