# generated using pymatgen
data_TbHo2ZnAg3Ge2
_symmetry_space_group_name_H-M   'P 1'
_cell_length_a   7.21953820
_cell_length_b   7.21953698
_cell_length_c   4.15249100
_cell_angle_alpha   90.00000000
_cell_angle_beta   90.00000000
_cell_angle_gamma   120.04145380
_symmetry_Int_Tables_number   1
_chemical_formula_structural   TbHo2ZnAg3Ge2
_chemical_formula_sum   'Tb1 Ho2 Zn1 Ag3 Ge2'
_cell_volume   187.35985094
_cell_formula_units_Z   1
loop_
 _symmetry_equiv_pos_site_id
 _symmetry_equiv_pos_as_xyz
  1  'x, y, z'
loop_
 _atom_site_type_symbol
 _atom_site_label
 _atom_site_symmetry_multiplicity
 _atom_site_fract_x
 _atom_site_fract_y
 _atom_site_fract_z
 _atom_site_occupancy
  Tb  Tb0  1  0.418145  0.418145  0.000000  1
  Ho  Ho1  1  0.581747  0.000062  0.000000  1
  Ho  Ho2  1  0.000062  0.581747  0.000000  1
  Zn  Zn3  1  0.999393  0.999393  0.000000  1
  Ag  Ag4  1  0.247375  0.999325  0.500000  1
  Ag  Ag5  1  0.999325  0.247375  0.500000  1
  Ag  Ag6  1  0.753249  0.753249  0.500000  1
  Ge  Ge7  1  0.332653  0.668050  0.500000  1
  Ge  Ge8  1  0.668050  0.332653  0.500000  1
