# generated using pymatgen
data_Er4Al2ZnGaIrPt3
_symmetry_space_group_name_H-M   'P 1'
_cell_length_a   4.40512400
_cell_length_b   6.78356268
_cell_length_c   7.74755700
_cell_angle_alpha   89.79913892
_cell_angle_beta   90.00000000
_cell_angle_gamma   90.00000000
_symmetry_Int_Tables_number   1
_chemical_formula_structural   Er4Al2ZnGaIrPt3
_chemical_formula_sum   'Er4 Al2 Zn1 Ga1 Ir1 Pt3'
_cell_volume   231.51444416
_cell_formula_units_Z   1
loop_
 _symmetry_equiv_pos_site_id
 _symmetry_equiv_pos_as_xyz
  1  'x, y, z'
loop_
 _atom_site_type_symbol
 _atom_site_label
 _atom_site_symmetry_multiplicity
 _atom_site_fract_x
 _atom_site_fract_y
 _atom_site_fract_z
 _atom_site_occupancy
  Er  Er0  1  0.250000  0.472387  0.180272  1
  Er  Er1  1  0.750000  0.528998  0.817720  1
  Er  Er2  1  0.750000  0.022400  0.686111  1
  Er  Er3  1  0.250000  0.969600  0.315401  1
  Al  Al4  1  0.750000  0.647423  0.439913  1
  Al  Al5  1  0.250000  0.360604  0.561474  1
  Zn  Zn6  1  0.750000  0.152487  0.065547  1
  Ga  Ga7  1  0.250000  0.847588  0.933770  1
  Ir  Ir8  1  0.250000  0.732986  0.612710  1
  Pt  Pt9  1  0.750000  0.270238  0.390044  1
  Pt  Pt10  1  0.750000  0.762138  0.121571  1
  Pt  Pt11  1  0.250000  0.233150  0.875469  1
