# generated using pymatgen
data_Cs2RbScAs2
_symmetry_space_group_name_H-M   'P 1'
_cell_length_a   9.83869910
_cell_length_b   9.83869817
_cell_length_c   9.83869876
_cell_angle_alpha   130.35528925
_cell_angle_beta   67.46471227
_cell_angle_gamma   137.36867142
_symmetry_Int_Tables_number   1
_chemical_formula_structural   Cs2RbScAs2
_chemical_formula_sum   'Cs4 Rb2 Sc2 As4'
_cell_volume   483.46950083
_cell_formula_units_Z   2
loop_
 _symmetry_equiv_pos_site_id
 _symmetry_equiv_pos_as_xyz
  1  'x, y, z'
loop_
 _atom_site_type_symbol
 _atom_site_label
 _atom_site_symmetry_multiplicity
 _atom_site_fract_x
 _atom_site_fract_y
 _atom_site_fract_z
 _atom_site_occupancy
  Cs  Cs0  1  0.817724  0.223615  0.041339  1
  Cs  Cs1  1  0.682276  0.723615  0.405891  1
  Cs  Cs2  1  0.317724  0.276385  0.594110  1
  Cs  Cs3  1  0.182276  0.776385  0.958661  1
  Rb  Rb4  1  0.749999  0.249999  0.500000  1
  Rb  Rb5  1  0.249999  0.749999  0.500000  1
  Sc  Sc6  1  0.249999  0.249999  0.000000  1
  Sc  Sc7  1  0.750000  0.750000  0.000000  1
  As  As8  1  0.413455  0.678512  0.091966  1
  As  As9  1  0.086545  0.178511  0.265056  1
  As  As10  1  0.913455  0.821489  0.734944  1
  As  As11  1  0.586545  0.321489  0.908034  1
