# generated using pymatgen
data_ScTa2(ReSi)3
_symmetry_space_group_name_H-M   'P 1'
_cell_length_a   6.94343190
_cell_length_b   6.94343117
_cell_length_c   3.31066100
_cell_angle_alpha   90.00000000
_cell_angle_beta   90.00000000
_cell_angle_gamma   120.74541568
_symmetry_Int_Tables_number   1
_chemical_formula_structural   ScTa2(ReSi)3
_chemical_formula_sum   'Sc1 Ta2 Re3 Si3'
_cell_volume   137.17731204
_cell_formula_units_Z   1
loop_
 _symmetry_equiv_pos_site_id
 _symmetry_equiv_pos_as_xyz
  1  'x, y, z'
loop_
 _atom_site_type_symbol
 _atom_site_label
 _atom_site_symmetry_multiplicity
 _atom_site_fract_x
 _atom_site_fract_y
 _atom_site_fract_z
 _atom_site_occupancy
  Sc  Sc0  1  0.401538  0.401538  0.500000  1
  Ta  Ta1  1  0.600180  0.002541  0.500000  1
  Ta  Ta2  1  0.002541  0.600180  0.500000  1
  Re  Re3  1  0.745698  0.745698  0.000000  1
  Re  Re4  1  0.255444  0.993144  0.000000  1
  Re  Re5  1  0.993144  0.255444  0.000000  1
  Si  Si6  1  0.666731  0.333916  0.000000  1
  Si  Si7  1  0.333916  0.666731  0.000000  1
  Si  Si8  1  0.000809  0.000809  0.500000  1
