# generated using pymatgen
data_Tb12Pr8Si15As
_symmetry_space_group_name_H-M   'P 1'
_cell_length_a   7.58518042
_cell_length_b   7.85769809
_cell_length_c   14.93957800
_cell_angle_alpha   90.00000000
_cell_angle_beta   90.00000000
_cell_angle_gamma   90.23662315
_symmetry_Int_Tables_number   1
_chemical_formula_structural   Tb12Pr8Si15As
_chemical_formula_sum   'Tb12 Pr8 Si15 As1'
_cell_volume   890.42199668
_cell_formula_units_Z   1
loop_
 _symmetry_equiv_pos_site_id
 _symmetry_equiv_pos_as_xyz
  1  'x, y, z'
loop_
 _atom_site_type_symbol
 _atom_site_label
 _atom_site_symmetry_multiplicity
 _atom_site_fract_x
 _atom_site_fract_y
 _atom_site_fract_z
 _atom_site_occupancy
  Tb  Tb0  1  0.314964  0.175574  0.623649  1
  Tb  Tb1  1  0.682582  0.822610  0.377439  1
  Tb  Tb2  1  0.651542  0.991086  0.750000  1
  Tb  Tb3  1  0.181283  0.679446  0.377559  1
  Tb  Tb4  1  0.814115  0.323711  0.878396  1
  Tb  Tb5  1  0.814115  0.323711  0.621604  1
  Tb  Tb6  1  0.850727  0.489160  0.250000  1
  Tb  Tb7  1  0.351941  0.012115  0.250000  1
  Tb  Tb8  1  0.314964  0.175574  0.876351  1
  Tb  Tb9  1  0.181283  0.679446  0.122441  1
  Tb  Tb10  1  0.682582  0.822610  0.122561  1
  Tb  Tb11  1  0.147157  0.504035  0.750000  1
  Pr  Pr12  1  0.026328  0.181008  0.401935  1
  Pr  Pr13  1  0.525659  0.319859  0.401657  1
  Pr  Pr14  1  0.478462  0.675308  0.903377  1
  Pr  Pr15  1  0.478462  0.675308  0.596623  1
  Pr  Pr16  1  0.974881  0.820962  0.600859  1
  Pr  Pr17  1  0.974881  0.820962  0.899141  1
  Pr  Pr18  1  0.525659  0.319859  0.098343  1
  Pr  Pr19  1  0.026328  0.181008  0.098065  1
  Si  Si20  1  0.475444  0.612358  0.250000  1
  Si  Si21  1  0.012299  0.128050  0.750000  1
  Si  Si22  1  0.521386  0.385191  0.750000  1
  Si  Si23  1  0.142365  0.470477  0.540532  1
  Si  Si24  1  0.976146  0.889661  0.250000  1
  Si  Si25  1  0.734786  0.120370  0.250000  1
  Si  Si26  1  0.858338  0.532683  0.040077  1
  Si  Si27  1  0.358292  0.969429  0.039429  1
  Si  Si28  1  0.142365  0.470477  0.959468  1
  Si  Si29  1  0.640649  0.028851  0.540846  1
  Si  Si30  1  0.358292  0.969429  0.460571  1
  Si  Si31  1  0.858338  0.532683  0.459923  1
  Si  Si32  1  0.767933  0.623341  0.750000  1
  Si  Si33  1  0.234344  0.381024  0.250000  1
  Si  Si34  1  0.640649  0.028851  0.959154  1
  As  As35  1  0.280455  0.863772  0.750000  1
