# generated using pymatgen
data_TbY(AgO2)4
_symmetry_space_group_name_H-M   'P 1'
_cell_length_a   6.62270948
_cell_length_b   6.62271009
_cell_length_c   6.62270936
_cell_angle_alpha   126.02651986
_cell_angle_beta   126.02652117
_cell_angle_gamma   79.84455503
_symmetry_Int_Tables_number   1
_chemical_formula_structural   TbY(AgO2)4
_chemical_formula_sum   'Tb1 Y1 Ag4 O8'
_cell_volume   183.49052636
_cell_formula_units_Z   1
loop_
 _symmetry_equiv_pos_site_id
 _symmetry_equiv_pos_as_xyz
  1  'x, y, z'
loop_
 _atom_site_type_symbol
 _atom_site_label
 _atom_site_symmetry_multiplicity
 _atom_site_fract_x
 _atom_site_fract_y
 _atom_site_fract_z
 _atom_site_occupancy
  Tb  Tb0  1  0.000000  0.000000  0.000000  1
  Y  Y1  1  0.750000  0.250000  0.500000  1
  Ag  Ag2  1  0.373644  0.125114  0.748232  1
  Ag  Ag3  1  0.376882  0.625411  0.251768  1
  Ag  Ag4  1  0.874886  0.623118  0.248530  1
  Ag  Ag5  1  0.374589  0.626356  0.751470  1
  O  O6  1  0.033718  0.009276  0.656255  1
  O  O7  1  0.622537  0.966282  0.975558  1
  O  O8  1  0.990724  0.646979  0.024442  1
  O  O9  1  0.399282  0.875163  0.161115  1
  O  O10  1  0.761833  0.600718  0.475880  1
  O  O11  1  0.124837  0.285953  0.524120  1
  O  O12  1  0.353021  0.377463  0.343745  1
  O  O13  1  0.714047  0.238167  0.838885  1
