# generated using pymatgen
data_La2Ga5PdPt2
_symmetry_space_group_name_H-M   'P 1'
_cell_length_a   8.74320752
_cell_length_b   8.74294005
_cell_length_c   8.74350300
_cell_angle_alpha   140.18047225
_cell_angle_beta   107.61360129
_cell_angle_gamma   85.94801214
_symmetry_Int_Tables_number   1
_chemical_formula_structural   La2Ga5PdPt2
_chemical_formula_sum   'La4 Ga10 Pd2 Pt4'
_cell_volume   393.35065613
_cell_formula_units_Z   2
loop_
 _symmetry_equiv_pos_site_id
 _symmetry_equiv_pos_as_xyz
  1  'x, y, z'
loop_
 _atom_site_type_symbol
 _atom_site_label
 _atom_site_symmetry_multiplicity
 _atom_site_fract_x
 _atom_site_fract_y
 _atom_site_fract_z
 _atom_site_occupancy
  La  La0  1  0.086034  0.862295  0.223744  1
  La  La1  1  0.638604  0.362345  0.276306  1
  La  La2  1  0.913966  0.137705  0.776256  1
  La  La3  1  0.361396  0.637655  0.723694  1
  Ga  Ga4  1  0.287585  0.037595  0.750029  1
  Ga  Ga5  1  0.287564  0.537573  0.249998  1
  Ga  Ga6  1  0.000023  0.250005  0.249997  1
  Ga  Ga7  1  0.242285  0.402381  0.839967  1
  Ga  Ga8  1  0.757715  0.597619  0.160033  1
  Ga  Ga9  1  0.712436  0.462427  0.750002  1
  Ga  Ga10  1  0.562419  0.902377  0.660059  1
  Ga  Ga11  1  0.712415  0.962405  0.249971  1
  Ga  Ga12  1  0.437581  0.097623  0.339941  1
  Ga  Ga13  1  0.999977  0.749995  0.750003  1
  Pd  Pd14  1  0.500017  0.749986  0.249998  1
  Pd  Pd15  1  0.499983  0.250014  0.750002  1
  Pt  Pt16  1  0.041678  0.643770  0.397928  1
  Pt  Pt17  1  0.754126  0.856250  0.897911  1
  Pt  Pt18  1  0.958322  0.356230  0.602072  1
  Pt  Pt19  1  0.245874  0.143750  0.102089  1
