# generated using pymatgen
data_Y4Tm8Tc3Pt
_symmetry_space_group_name_H-M   'P 1'
_cell_length_a   6.27031612
_cell_length_b   7.39720800
_cell_length_c   9.03887100
_cell_angle_alpha   90.00000000
_cell_angle_beta   90.00000000
_cell_angle_gamma   89.98888623
_symmetry_Int_Tables_number   1
_chemical_formula_structural   Y4Tm8Tc3Pt
_chemical_formula_sum   'Y4 Tm8 Tc3 Pt1'
_cell_volume   419.24843246
_cell_formula_units_Z   1
loop_
 _symmetry_equiv_pos_site_id
 _symmetry_equiv_pos_as_xyz
  1  'x, y, z'
loop_
 _atom_site_type_symbol
 _atom_site_label
 _atom_site_symmetry_multiplicity
 _atom_site_fract_x
 _atom_site_fract_y
 _atom_site_fract_z
 _atom_site_occupancy
  Y  Y0  1  0.875809  0.541481  0.250000  1
  Y  Y1  1  0.620353  0.036721  0.250000  1
  Y  Y2  1  0.125992  0.456682  0.750000  1
  Y  Y3  1  0.373889  0.965541  0.750000  1
  Tm  Tm4  1  0.331804  0.675633  0.066586  1
  Tm  Tm5  1  0.162093  0.176953  0.436282  1
  Tm  Tm6  1  0.664663  0.318859  0.558978  1
  Tm  Tm7  1  0.839936  0.828355  0.940112  1
  Tm  Tm8  1  0.664663  0.318859  0.941022  1
  Tm  Tm9  1  0.839936  0.828355  0.559888  1
  Tm  Tm10  1  0.331804  0.675633  0.433414  1
  Tm  Tm11  1  0.162093  0.176953  0.063718  1
  Tc  Tc12  1  0.042655  0.885262  0.250000  1
  Tc  Tc13  1  0.459687  0.386694  0.250000  1
  Tc  Tc14  1  0.953992  0.114942  0.750000  1
  Pt  Pt15  1  0.550630  0.613078  0.750000  1
