# generated using pymatgen
data_TbDy3(MnAl3)2
_symmetry_space_group_name_H-M   'P 1'
_cell_length_a   9.43071052
_cell_length_b   9.43071028
_cell_length_c   9.43071034
_cell_angle_alpha   34.40366660
_cell_angle_beta   34.40366955
_cell_angle_gamma   34.40366824
_symmetry_Int_Tables_number   1
_chemical_formula_structural   TbDy3(MnAl3)2
_chemical_formula_sum   'Tb1 Dy3 Mn2 Al6'
_cell_volume   238.84433109
_cell_formula_units_Z   1
loop_
 _symmetry_equiv_pos_site_id
 _symmetry_equiv_pos_as_xyz
  1  'x, y, z'
loop_
 _atom_site_type_symbol
 _atom_site_label
 _atom_site_symmetry_multiplicity
 _atom_site_fract_x
 _atom_site_fract_y
 _atom_site_fract_z
 _atom_site_occupancy
  Tb  Tb0  1  0.813138  0.813138  0.813138  1
  Dy  Dy1  1  0.313179  0.313179  0.313179  1
  Dy  Dy2  1  0.686821  0.686821  0.686821  1
  Dy  Dy3  1  0.186809  0.186809  0.186809  1
  Mn  Mn4  1  0.500044  0.500044  0.500044  1
  Mn  Mn5  1  0.000002  0.000002  0.000002  1
  Al  Al6  1  0.249930  0.249930  0.749895  1
  Al  Al7  1  0.750053  0.750053  0.250145  1
  Al  Al8  1  0.249930  0.749895  0.249930  1
  Al  Al9  1  0.750053  0.250145  0.750053  1
  Al  Al10  1  0.749895  0.249930  0.249930  1
  Al  Al11  1  0.250145  0.750053  0.750053  1
