# generated using pymatgen
data_Dy12AlInGa4
_symmetry_space_group_name_H-M   'P 1'
_cell_length_a   8.62585532
_cell_length_b   8.62585453
_cell_length_c   8.62585607
_cell_angle_alpha   112.58805516
_cell_angle_beta   112.22070533
_cell_angle_gamma   103.75211618
_symmetry_Int_Tables_number   1
_chemical_formula_structural   Dy12AlInGa4
_chemical_formula_sum   'Dy12 Al1 In1 Ga4'
_cell_volume   490.41791818
_cell_formula_units_Z   1
loop_
 _symmetry_equiv_pos_site_id
 _symmetry_equiv_pos_as_xyz
  1  'x, y, z'
loop_
 _atom_site_type_symbol
 _atom_site_label
 _atom_site_symmetry_multiplicity
 _atom_site_fract_x
 _atom_site_fract_y
 _atom_site_fract_z
 _atom_site_occupancy
  Dy  Dy0  1  0.433198  0.234188  0.199011  1
  Dy  Dy1  1  0.566802  0.765812  0.800989  1
  Dy  Dy2  1  0.035177  0.234188  0.800989  1
  Dy  Dy3  1  0.964823  0.765812  0.199011  1
  Dy  Dy4  1  0.184340  0.278326  0.462666  1
  Dy  Dy5  1  0.815660  0.721674  0.537334  1
  Dy  Dy6  1  0.184340  0.721674  0.906014  1
  Dy  Dy7  1  0.815660  0.278326  0.093986  1
  Dy  Dy8  1  0.320047  0.615513  0.295465  1
  Dy  Dy9  1  0.679953  0.384487  0.704535  1
  Dy  Dy10  1  0.320047  0.024582  0.704535  1
  Dy  Dy11  1  0.679953  0.975418  0.295465  1
  Al  Al12  1  0.000000  0.000000  0.000000  1
  In  In13  1  0.500000  0.500000  0.000000  1
  Ga  Ga14  1  0.352601  0.000000  0.352601  1
  Ga  Ga15  1  0.647399  0.000000  0.647399  1
  Ga  Ga16  1  0.120888  0.620888  0.500000  1
  Ga  Ga17  1  0.879112  0.379112  0.500000  1
