# generated using pymatgen
data_TbHo3(NbRu3)2
_symmetry_space_group_name_H-M   'P 1'
_cell_length_a   5.69511500
_cell_length_b   5.69511445
_cell_length_c   8.03532000
_cell_angle_alpha   89.99984324
_cell_angle_beta   90.00015892
_cell_angle_gamma   120.00757078
_symmetry_Int_Tables_number   1
_chemical_formula_structural   TbHo3(NbRu3)2
_chemical_formula_sum   'Tb1 Ho3 Nb2 Ru6'
_cell_volume   225.68652333
_cell_formula_units_Z   1
loop_
 _symmetry_equiv_pos_site_id
 _symmetry_equiv_pos_as_xyz
  1  'x, y, z'
loop_
 _atom_site_type_symbol
 _atom_site_label
 _atom_site_symmetry_multiplicity
 _atom_site_fract_x
 _atom_site_fract_y
 _atom_site_fract_z
 _atom_site_occupancy
  Tb  Tb0  1  0.666630  0.333370  0.561034  1
  Ho  Ho1  1  0.333366  0.666634  0.439341  1
  Ho  Ho2  1  0.333369  0.666631  0.060459  1
  Ho  Ho3  1  0.666627  0.333373  0.939236  1
  Nb  Nb4  1  0.000002  0.999998  0.500245  1
  Nb  Nb5  1  0.000006  0.999994  0.000272  1
  Ru  Ru6  1  0.171951  0.343973  0.750215  1
  Ru  Ru7  1  0.171982  0.828018  0.750213  1
  Ru  Ru8  1  0.656027  0.828049  0.750215  1
  Ru  Ru9  1  0.828302  0.656529  0.249590  1
  Ru  Ru10  1  0.828266  0.171734  0.249591  1
  Ru  Ru11  1  0.343471  0.171698  0.249590  1
