# generated using pymatgen
data_Ca20NiRh3
_symmetry_space_group_name_H-M   'P 1'
_cell_length_a   6.84415316
_cell_length_b   7.51810418
_cell_length_c   16.21389100
_cell_angle_alpha   90.00000000
_cell_angle_beta   90.00000000
_cell_angle_gamma   89.97518939
_symmetry_Int_Tables_number   1
_chemical_formula_structural   Ca20NiRh3
_chemical_formula_sum   'Ca20 Ni1 Rh3'
_cell_volume   834.28659859
_cell_formula_units_Z   1
loop_
 _symmetry_equiv_pos_site_id
 _symmetry_equiv_pos_as_xyz
  1  'x, y, z'
loop_
 _atom_site_type_symbol
 _atom_site_label
 _atom_site_symmetry_multiplicity
 _atom_site_fract_x
 _atom_site_fract_y
 _atom_site_fract_z
 _atom_site_occupancy
  Ca  Ca0  1  0.352518  0.309160  0.062249  1
  Ca  Ca1  1  0.645285  0.691037  0.935709  1
  Ca  Ca2  1  0.854291  0.191351  0.935746  1
  Ca  Ca3  1  0.645285  0.691037  0.564291  1
  Ca  Ca4  1  0.146382  0.809139  0.064643  1
  Ca  Ca5  1  0.352518  0.309160  0.437751  1
  Ca  Ca6  1  0.146382  0.809139  0.435357  1
  Ca  Ca7  1  0.854291  0.191351  0.564254  1
  Ca  Ca8  1  0.156141  0.092869  0.250000  1
  Ca  Ca9  1  0.844236  0.905835  0.750000  1
  Ca  Ca10  1  0.655705  0.405725  0.750000  1
  Ca  Ca11  1  0.343175  0.594628  0.250000  1
  Ca  Ca12  1  0.323039  0.035585  0.645636  1
  Ca  Ca13  1  0.676978  0.962832  0.355251  1
  Ca  Ca14  1  0.825197  0.465060  0.355329  1
  Ca  Ca15  1  0.676978  0.962832  0.144749  1
  Ca  Ca16  1  0.176807  0.535747  0.645621  1
  Ca  Ca17  1  0.323039  0.035585  0.854364  1
  Ca  Ca18  1  0.176807  0.535747  0.854379  1
  Ca  Ca19  1  0.825197  0.465060  0.144671  1
  Ni  Ni20  1  0.537535  0.260508  0.250000  1
  Rh  Rh21  1  0.463896  0.740472  0.750000  1
  Rh  Rh22  1  0.036428  0.240094  0.750000  1
  Rh  Rh23  1  0.961890  0.760044  0.250000  1
