# generated using pymatgen
data_DyTh3(Zn5Sn)2
_symmetry_space_group_name_H-M   'P 1'
_cell_length_a   8.52090686
_cell_length_b   8.52090895
_cell_length_c   9.03850250
_cell_angle_alpha   89.11655395
_cell_angle_beta   90.88344756
_cell_angle_gamma   149.52028631
_symmetry_Int_Tables_number   1
_chemical_formula_structural   DyTh3(Zn5Sn)2
_chemical_formula_sum   'Dy1 Th3 Zn10 Sn2'
_cell_volume   332.82848446
_cell_formula_units_Z   1
loop_
 _symmetry_equiv_pos_site_id
 _symmetry_equiv_pos_as_xyz
  1  'x, y, z'
loop_
 _atom_site_type_symbol
 _atom_site_label
 _atom_site_symmetry_multiplicity
 _atom_site_fract_x
 _atom_site_fract_y
 _atom_site_fract_z
 _atom_site_occupancy
  Dy  Dy0  1  0.000000  0.000000  0.000000  1
  Th  Th1  1  0.203756  0.796244  0.248789  1
  Th  Th2  1  0.796244  0.203756  0.751211  1
  Th  Th3  1  0.000000  0.000000  0.500000  1
  Zn  Zn4  1  0.814571  0.185429  0.394741  1
  Zn  Zn5  1  0.185429  0.814571  0.605259  1
  Zn  Zn6  1  0.817952  0.182048  0.110002  1
  Zn  Zn7  1  0.182048  0.817952  0.889998  1
  Zn  Zn8  1  0.656138  0.343862  0.479848  1
  Zn  Zn9  1  0.343862  0.656138  0.520152  1
  Zn  Zn10  1  0.657595  0.342405  0.015570  1
  Zn  Zn11  1  0.342405  0.657595  0.984430  1
  Zn  Zn12  1  0.393625  0.606375  0.254910  1
  Zn  Zn13  1  0.606375  0.393625  0.745090  1
  Sn  Sn14  1  0.553116  0.446884  0.244005  1
  Sn  Sn15  1  0.446884  0.553116  0.755995  1
