# generated using pymatgen
data_La5Pr3MgHgIr2
_symmetry_space_group_name_H-M   'P 1'
_cell_length_a   10.10589899
_cell_length_b   10.10589964
_cell_length_c   10.13188300
_cell_angle_alpha   59.91492176
_cell_angle_beta   59.91491962
_cell_angle_gamma   60.20465592
_symmetry_Int_Tables_number   1
_chemical_formula_structural   La5Pr3MgHgIr2
_chemical_formula_sum   'La10 Pr6 Mg2 Hg2 Ir4'
_cell_volume   731.86485139
_cell_formula_units_Z   2
loop_
 _symmetry_equiv_pos_site_id
 _symmetry_equiv_pos_as_xyz
  1  'x, y, z'
loop_
 _atom_site_type_symbol
 _atom_site_label
 _atom_site_symmetry_multiplicity
 _atom_site_fract_x
 _atom_site_fract_y
 _atom_site_fract_z
 _atom_site_occupancy
  La  La0  1  0.346312  0.346312  0.345458  1
  La  La1  1  0.346312  0.346312  0.961918  1
  La  La2  1  0.347884  0.958198  0.346960  1
  La  La3  1  0.958198  0.347884  0.346960  1
  La  La4  1  0.808949  0.188967  0.191725  1
  La  La5  1  0.188967  0.808949  0.810358  1
  La  La6  1  0.188967  0.808949  0.191725  1
  La  La7  1  0.808949  0.188967  0.810358  1
  La  La8  1  0.188272  0.188272  0.811728  1
  La  La9  1  0.802176  0.802176  0.197824  1
  Pr  Pr10  1  0.937177  0.561688  0.564504  1
  Pr  Pr11  1  0.561688  0.937177  0.936630  1
  Pr  Pr12  1  0.561688  0.937177  0.564504  1
  Pr  Pr13  1  0.937177  0.561688  0.936630  1
  Pr  Pr14  1  0.562551  0.562551  0.937449  1
  Pr  Pr15  1  0.935690  0.935690  0.564310  1
  Mg  Mg16  1  0.580303  0.274240  0.572729  1
  Mg  Mg17  1  0.274240  0.580303  0.572729  1
  Hg  Hg18  1  0.581214  0.581214  0.589007  1
  Hg  Hg19  1  0.581214  0.581214  0.248565  1
  Ir  Ir20  1  0.141330  0.141330  0.139584  1
  Ir  Ir21  1  0.141330  0.141330  0.577755  1
  Ir  Ir22  1  0.141526  0.577882  0.140295  1
  Ir  Ir23  1  0.577882  0.141526  0.140295  1
