# generated using pymatgen
data_Ho2ErTm13(InRh)4
_symmetry_space_group_name_H-M   'P 1'
_cell_length_a   9.55226909
_cell_length_b   9.54972490
_cell_length_c   9.55605400
_cell_angle_alpha   59.99568586
_cell_angle_beta   59.96927790
_cell_angle_gamma   59.98662079
_symmetry_Int_Tables_number   1
_chemical_formula_structural   Ho2ErTm13(InRh)4
_chemical_formula_sum   'Ho2 Er1 Tm13 In4 Rh4'
_cell_volume   616.17206537
_cell_formula_units_Z   1
loop_
 _symmetry_equiv_pos_site_id
 _symmetry_equiv_pos_as_xyz
  1  'x, y, z'
loop_
 _atom_site_type_symbol
 _atom_site_label
 _atom_site_symmetry_multiplicity
 _atom_site_fract_x
 _atom_site_fract_y
 _atom_site_fract_z
 _atom_site_occupancy
  Ho  Ho0  1  0.437573  0.062407  0.437808  1
  Ho  Ho1  1  0.062407  0.437573  0.062211  1
  Er  Er2  1  0.061229  0.061229  0.438771  1
  Tm  Tm3  1  0.049702  0.648996  0.650708  1
  Tm  Tm4  1  0.438349  0.438349  0.061651  1
  Tm  Tm5  1  0.648996  0.049702  0.650596  1
  Tm  Tm6  1  0.189445  0.811169  0.188224  1
  Tm  Tm7  1  0.188630  0.188630  0.811370  1
  Tm  Tm8  1  0.811239  0.811239  0.188761  1
  Tm  Tm9  1  0.438669  0.061188  0.061020  1
  Tm  Tm10  1  0.811314  0.189351  0.188012  1
  Tm  Tm11  1  0.061188  0.438669  0.439123  1
  Tm  Tm12  1  0.811169  0.189445  0.811163  1
  Tm  Tm13  1  0.189351  0.811314  0.811323  1
  Tm  Tm14  1  0.650167  0.650006  0.048141  1
  Tm  Tm15  1  0.650006  0.650167  0.651688  1
  In  In16  1  0.416732  0.417117  0.416586  1
  In  In17  1  0.748698  0.417290  0.417191  1
  In  In18  1  0.417290  0.748698  0.416821  1
  In  In19  1  0.417117  0.416732  0.749564  1
  Rh  Rh20  1  0.858241  0.857377  0.427096  1
  Rh  Rh21  1  0.857377  0.858241  0.857287  1
  Rh  Rh22  1  0.427463  0.857648  0.857895  1
  Rh  Rh23  1  0.857648  0.427463  0.856993  1
