# generated using pymatgen
data_Cs2Mg3Se4
_symmetry_space_group_name_H-M   'P 1'
_cell_length_a   10.21182500
_cell_length_b   10.21182436
_cell_length_c   10.21182435
_cell_angle_alpha   143.49007947
_cell_angle_beta   106.90927383
_cell_angle_gamma   84.57107222
_symmetry_Int_Tables_number   1
_chemical_formula_structural   Cs2Mg3Se4
_chemical_formula_sum   'Cs4 Mg6 Se8'
_cell_volume   587.79025825
_cell_formula_units_Z   2
loop_
 _symmetry_equiv_pos_site_id
 _symmetry_equiv_pos_as_xyz
  1  'x, y, z'
loop_
 _atom_site_type_symbol
 _atom_site_label
 _atom_site_symmetry_multiplicity
 _atom_site_fract_x
 _atom_site_fract_y
 _atom_site_fract_z
 _atom_site_occupancy
  Cs  Cs0  1  0.878428  0.764307  0.642734  1
  Cs  Cs1  1  0.621572  0.264307  0.885879  1
  Cs  Cs2  1  0.378428  0.735693  0.114121  1
  Cs  Cs3  1  0.121572  0.235693  0.357266  1
  Mg  Mg4  1  0.250000  0.750000  0.500000  1
  Mg  Mg5  1  0.750000  0.250000  0.500000  1
  Mg  Mg6  1  0.021496  0.250000  0.771496  1
  Mg  Mg7  1  0.478504  0.250000  0.228504  1
  Mg  Mg8  1  0.978504  0.750000  0.228504  1
  Mg  Mg9  1  0.521496  0.750000  0.771496  1
  Se  Se10  1  0.786233  0.932747  0.415115  1
  Se  Se11  1  0.713767  0.128882  0.146514  1
  Se  Se12  1  0.982368  0.567253  0.853486  1
  Se  Se13  1  0.517632  0.371118  0.584885  1
  Se  Se14  1  0.213767  0.067253  0.584885  1
  Se  Se15  1  0.286233  0.871118  0.853486  1
  Se  Se16  1  0.017632  0.432747  0.146514  1
  Se  Se17  1  0.482368  0.628882  0.415115  1
