# generated using pymatgen
data_Pr3NdBe8(B5O11)4
_symmetry_space_group_name_H-M   'P 1'
_cell_length_a   4.39588542
_cell_length_b   6.81856383
_cell_length_c   26.20965600
_cell_angle_alpha   90.04230866
_cell_angle_beta   90.21317085
_cell_angle_gamma   89.78047720
_symmetry_Int_Tables_number   1
_chemical_formula_structural   Pr3NdBe8(B5O11)4
_chemical_formula_sum   'Pr3 Nd1 Be8 B20 O44'
_cell_volume   785.58700090
_cell_formula_units_Z   1
loop_
 _symmetry_equiv_pos_site_id
 _symmetry_equiv_pos_as_xyz
  1  'x, y, z'
loop_
 _atom_site_type_symbol
 _atom_site_label
 _atom_site_symmetry_multiplicity
 _atom_site_fract_x
 _atom_site_fract_y
 _atom_site_fract_z
 _atom_site_occupancy
  Pr  Pr0  1  0.853225  0.370203  0.919436  1
  Pr  Pr1  1  0.146529  0.869257  0.080975  1
  Pr  Pr2  1  0.358190  0.867717  0.580205  1
  Nd  Nd3  1  0.642402  0.368625  0.419035  1
  Be  Be4  1  0.162018  0.454705  0.788892  1
  Be  Be5  1  0.835901  0.955599  0.211391  1
  Be  Be6  1  0.660975  0.954610  0.710312  1
  Be  Be7  1  0.337176  0.455936  0.289876  1
  Be  Be8  1  0.657205  0.231777  0.790559  1
  Be  Be9  1  0.340507  0.733095  0.209789  1
  Be  Be10  1  0.156536  0.731404  0.708526  1
  Be  Be11  1  0.841575  0.233422  0.291521  1
  B  B12  1  0.374660  0.038378  0.866257  1
  B  B13  1  0.624789  0.538703  0.134269  1
  B  B14  1  0.876872  0.536288  0.632616  1
  B  B15  1  0.123845  0.038638  0.367112  1
  B  B16  1  0.153789  0.711429  0.867599  1
  B  B17  1  0.845908  0.211205  0.132813  1
  B  B18  1  0.654724  0.210364  0.631374  1
  B  B19  1  0.345698  0.711442  0.368657  1
  B  B20  1  0.044022  0.936286  0.940397  1
  B  B21  1  0.955927  0.435878  0.060183  1
  B  B22  1  0.544017  0.433662  0.558285  1
  B  B23  1  0.461326  0.936993  0.440684  1
  B  B24  1  0.553592  0.952335  0.994093  1
  B  B25  1  0.446463  0.451906  0.006490  1
  B  B26  1  0.051722  0.451182  0.504573  1
  B  B27  1  0.952457  0.953180  0.493927  1
  B  B28  1  0.170764  0.091317  0.750994  1
  B  B29  1  0.827280  0.593168  0.249439  1
  B  B30  1  0.670930  0.591425  0.748060  1
  B  B31  1  0.327070  0.093194  0.251954  1
  O  O32  1  0.352015  0.847964  0.846483  1
  O  O33  1  0.648049  0.348489  0.154091  1
  O  O34  1  0.854585  0.346405  0.652556  1
  O  O35  1  0.144126  0.847676  0.347687  1
  O  O36  1  0.646040  0.920556  0.042761  1
  O  O37  1  0.353774  0.420464  0.957783  1
  O  O38  1  0.141203  0.421540  0.455757  1
  O  O39  1  0.859234  0.918908  0.542317  1
  O  O40  1  0.010195  0.746546  0.914195  1
  O  O41  1  0.989872  0.245901  0.086291  1
  O  O42  1  0.512119  0.244299  0.584501  1
  O  O43  1  0.493181  0.746306  0.414985  1
  O  O44  1  0.240503  0.922253  0.986423  1
  O  O45  1  0.760163  0.422622  0.014021  1
  O  O46  1  0.738906  0.420139  0.512211  1
  O  O47  1  0.266461  0.925531  0.486712  1
  O  O48  1  0.169780  0.083980  0.905267  1
  O  O49  1  0.829261  0.583893  0.095329  1
  O  O50  1  0.671585  0.581040  0.593394  1
  O  O51  1  0.333421  0.084104  0.405425  1
  O  O52  1  0.095865  0.532103  0.846964  1
  O  O53  1  0.902932  0.031396  0.153296  1
  O  O54  1  0.594277  0.032413  0.652426  1
  O  O55  1  0.404641  0.532208  0.347910  1
  O  O56  1  0.571971  0.177012  0.849961  1
  O  O57  1  0.425692  0.677469  0.150473  1
  O  O58  1  0.073109  0.675571  0.649113  1
  O  O59  1  0.925725  0.178170  0.350877  1
  O  O60  1  0.740733  0.013091  0.954501  1
  O  O61  1  0.259035  0.511813  0.046204  1
  O  O62  1  0.240418  0.510412  0.544298  1
  O  O63  1  0.764777  0.013928  0.454219  1
  O  O64  1  0.021286  0.228964  0.780901  1
  O  O65  1  0.976522  0.729988  0.219516  1
  O  O66  1  0.520792  0.729068  0.718141  1
  O  O67  1  0.477322  0.230578  0.281768  1
  O  O68  1  0.483526  0.091091  0.750820  1
  O  O69  1  0.514483  0.593331  0.249666  1
  O  O70  1  0.983710  0.591106  0.748326  1
  O  O71  1  0.014306  0.092681  0.251792  1
  O  O72  1  0.020388  0.954075  0.721992  1
  O  O73  1  0.977939  0.455643  0.278393  1
  O  O74  1  0.521176  0.454579  0.777065  1
  O  O75  1  0.476813  0.955809  0.222894  1
