# generated using pymatgen
data_Hf6Al16Cu(PtRh)3
_symmetry_space_group_name_H-M   'P 1'
_cell_length_a   8.68139286
_cell_length_b   8.71359957
_cell_length_c   8.71257758
_cell_angle_alpha   60.24384414
_cell_angle_beta   60.12648475
_cell_angle_gamma   60.11598389
_symmetry_Int_Tables_number   1
_chemical_formula_structural   Hf6Al16Cu(PtRh)3
_chemical_formula_sum   'Hf6 Al16 Cu1 Pt3 Rh3'
_cell_volume   467.74477863
_cell_formula_units_Z   1
loop_
 _symmetry_equiv_pos_site_id
 _symmetry_equiv_pos_as_xyz
  1  'x, y, z'
loop_
 _atom_site_type_symbol
 _atom_site_label
 _atom_site_symmetry_multiplicity
 _atom_site_fract_x
 _atom_site_fract_y
 _atom_site_fract_z
 _atom_site_occupancy
  Hf  Hf0  1  0.676796  0.323196  0.323195  1
  Hf  Hf1  1  0.323204  0.676803  0.676804  1
  Hf  Hf2  1  0.311471  0.687357  0.312649  1
  Hf  Hf3  1  0.313577  0.314560  0.685442  1
  Hf  Hf4  1  0.688528  0.312644  0.687350  1
  Hf  Hf5  1  0.686422  0.685440  0.314558  1
  Al  Al6  1  0.331177  0.334449  0.339321  1
  Al  Al7  1  0.333817  0.336688  0.990835  1
  Al  Al8  1  0.995058  0.339331  0.334418  1
  Al  Al9  1  0.338670  0.990807  0.336695  1
  Al  Al10  1  0.668823  0.665550  0.660678  1
  Al  Al11  1  0.666182  0.663312  0.009165  1
  Al  Al12  1  0.661330  0.009194  0.663305  1
  Al  Al13  1  0.004942  0.660668  0.665582  1
  Al  Al14  1  0.116181  0.123733  0.118802  1
  Al  Al15  1  0.123975  0.113359  0.643878  1
  Al  Al16  1  0.641293  0.118740  0.123802  1
  Al  Al17  1  0.118810  0.643901  0.113329  1
  Al  Al18  1  0.883819  0.876267  0.881197  1
  Al  Al19  1  0.876025  0.886640  0.356123  1
  Al  Al20  1  0.881190  0.356099  0.886671  1
  Al  Al21  1  0.358708  0.881258  0.876198  1
  Cu  Cu22  1  0.000000  0.499999  0.499999  1
  Pt  Pt23  1  0.500000  0.000000  0.000000  1
  Pt  Pt24  1  0.000000  0.000000  0.500000  1
  Pt  Pt25  1  0.500000  0.500000  0.000000  1
  Rh  Rh26  1  0.000000  0.000001  0.000000  1
  Rh  Rh27  1  0.000000  0.500000  0.999999  1
  Rh  Rh28  1  0.500000  0.000000  0.500000  1
