# generated using pymatgen
data_Er6Al24FeNi2Os5
_symmetry_space_group_name_H-M   'P 1'
_cell_length_a   8.79343400
_cell_length_b   8.75580969
_cell_length_c   9.40390058
_cell_angle_alpha   90.44236281
_cell_angle_beta   90.00000000
_cell_angle_gamma   120.14224038
_symmetry_Int_Tables_number   1
_chemical_formula_structural   Er6Al24FeNi2Os5
_chemical_formula_sum   'Er6 Al24 Fe1 Ni2 Os5'
_cell_volume   626.11183063
_cell_formula_units_Z   1
loop_
 _symmetry_equiv_pos_site_id
 _symmetry_equiv_pos_as_xyz
  1  'x, y, z'
loop_
 _atom_site_type_symbol
 _atom_site_label
 _atom_site_symmetry_multiplicity
 _atom_site_fract_x
 _atom_site_fract_y
 _atom_site_fract_z
 _atom_site_occupancy
  Er  Er0  1  0.196049  0.392098  0.247522  1
  Er  Er1  1  0.803951  0.607902  0.752478  1
  Er  Er2  1  0.611972  0.801697  0.250490  1
  Er  Er3  1  0.388028  0.198303  0.749510  1
  Er  Er4  1  0.189725  0.801697  0.250490  1
  Er  Er5  1  0.810275  0.198303  0.749510  1
  Al  Al6  1  0.335677  0.671356  0.016506  1
  Al  Al7  1  0.664323  0.328644  0.983494  1
  Al  Al8  1  0.666530  0.333059  0.516178  1
  Al  Al9  1  0.333470  0.666941  0.483822  1
  Al  Al10  1  0.161020  0.322040  0.576195  1
  Al  Al11  1  0.838980  0.677960  0.423805  1
  Al  Al12  1  0.677682  0.839531  0.578350  1
  Al  Al13  1  0.839917  0.679833  0.075939  1
  Al  Al14  1  0.322318  0.160469  0.421650  1
  Al  Al15  1  0.160083  0.320167  0.924061  1
  Al  Al16  1  0.161849  0.839531  0.578350  1
  Al  Al17  1  0.317135  0.159044  0.076249  1
  Al  Al18  1  0.838151  0.160469  0.421650  1
  Al  Al19  1  0.682865  0.840956  0.923751  1
  Al  Al20  1  0.841910  0.159044  0.076249  1
  Al  Al21  1  0.158090  0.840956  0.923751  1
  Al  Al22  1  0.558256  0.116513  0.244175  1
  Al  Al23  1  0.441744  0.883487  0.755825  1
  Al  Al24  1  0.876639  0.437115  0.248188  1
  Al  Al25  1  0.123361  0.562885  0.751812  1
  Al  Al26  1  0.560476  0.437115  0.248188  1
  Al  Al27  1  0.439524  0.562885  0.751812  1
  Al  Al28  1  0.999724  0.999447  0.248921  1
  Al  Al29  1  0.000276  0.000553  0.751079  1
  Fe  Fe30  1  0.000000  0.000000  0.000000  1
  Ni  Ni31  1  0.500000  0.000000  0.000000  1
  Ni  Ni32  1  0.000000  0.000000  0.500000  1
  Os  Os33  1  0.000000  0.500000  0.000000  1
  Os  Os34  1  0.500000  0.000000  0.500000  1
  Os  Os35  1  0.500000  0.500000  0.000000  1
  Os  Os36  1  0.000000  0.500000  0.500000  1
  Os  Os37  1  0.500000  0.500000  0.500000  1
