# generated using pymatgen
data_Dy2Ho3Mn2P12Ir17
_symmetry_space_group_name_H-M   'P 1'
_cell_length_a   12.62909000
_cell_length_b   12.71758634
_cell_length_c   3.96696600
_cell_angle_alpha   90.00000000
_cell_angle_beta   90.00000000
_cell_angle_gamma   119.76773947
_symmetry_Int_Tables_number   1
_chemical_formula_structural   Dy2Ho3Mn2P12Ir17
_chemical_formula_sum   'Dy2 Ho3 Mn2 P12 Ir17'
_cell_volume   553.06673801
_cell_formula_units_Z   1
loop_
 _symmetry_equiv_pos_site_id
 _symmetry_equiv_pos_as_xyz
  1  'x, y, z'
loop_
 _atom_site_type_symbol
 _atom_site_label
 _atom_site_symmetry_multiplicity
 _atom_site_fract_x
 _atom_site_fract_y
 _atom_site_fract_z
 _atom_site_occupancy
  Dy  Dy0  1  0.188599  0.188614  0.000000  1
  Dy  Dy1  1  0.813548  0.999994  0.000000  1
  Ho  Ho2  1  0.332510  0.663680  0.500000  1
  Ho  Ho3  1  0.668838  0.336312  0.500000  1
  Ho  Ho4  1  0.999944  0.811392  0.000000  1
  Mn  Mn5  1  0.999676  0.457970  0.500000  1
  Mn  Mn6  1  0.541733  0.542057  0.500000  1
  P  P7  1  0.999806  0.635162  0.500000  1
  P  P8  1  0.364811  0.365002  0.500000  1
  P  P9  1  0.643595  0.999999  0.500000  1
  P  P10  1  0.515492  0.684003  0.000000  1
  P  P11  1  0.309217  0.824553  0.000000  1
  P  P12  1  0.166867  0.481335  0.000000  1
  P  P13  1  0.484634  0.175443  0.000000  1
  P  P14  1  0.685516  0.518651  0.000000  1
  P  P15  1  0.831471  0.316008  0.000000  1
  P  P16  1  0.999809  0.177982  0.500000  1
  P  P17  1  0.821868  0.821957  0.500000  1
  P  P18  1  0.179035  0.999905  0.500000  1
  Ir  Ir19  1  0.505672  0.865822  0.000000  1
  Ir  Ir20  1  0.129586  0.638375  0.000000  1
  Ir  Ir21  1  0.358470  0.491916  0.000000  1
  Ir  Ir22  1  0.491239  0.361660  0.000000  1
  Ir  Ir23  1  0.866543  0.508106  0.000000  1
  Ir  Ir24  1  0.639838  0.134180  0.000000  1
  Ir  Ir25  1  0.462244  0.999997  0.500000  1
  Ir  Ir26  1  0.998144  0.282640  0.000000  1
  Ir  Ir27  1  0.715621  0.717407  0.000000  1
  Ir  Ir28  1  0.287093  0.999935  0.000000  1
  Ir  Ir29  1  0.622041  0.803973  0.500000  1
  Ir  Ir30  1  0.198093  0.821421  0.500000  1
  Ir  Ir31  1  0.178135  0.373551  0.500000  1
  Ir  Ir32  1  0.376902  0.178533  0.500000  1
  Ir  Ir33  1  0.804839  0.626683  0.500000  1
  Ir  Ir34  1  0.818041  0.196007  0.500000  1
  Ir  Ir35  1  0.000529  0.999776  0.500000  1
