# generated using pymatgen
data_Er12Cd9Ga3C4
_symmetry_space_group_name_H-M   'P 1'
_cell_length_a   9.41439920
_cell_length_b   9.39365480
_cell_length_c   9.41019202
_cell_angle_alpha   119.94176902
_cell_angle_beta   90.13460401
_cell_angle_gamma   119.92830487
_symmetry_Int_Tables_number   1
_chemical_formula_structural   Er12Cd9Ga3C4
_chemical_formula_sum   'Er12 Cd9 Ga3 C4'
_cell_volume   588.91444579
_cell_formula_units_Z   1
loop_
 _symmetry_equiv_pos_site_id
 _symmetry_equiv_pos_as_xyz
  1  'x, y, z'
loop_
 _atom_site_type_symbol
 _atom_site_label
 _atom_site_symmetry_multiplicity
 _atom_site_fract_x
 _atom_site_fract_y
 _atom_site_fract_z
 _atom_site_occupancy
  Er  Er0  1  0.939550  0.372411  0.185547  1
  Er  Er1  1  0.939571  0.752699  0.185562  1
  Er  Er2  1  0.312705  0.749451  0.186212  1
  Er  Er3  1  0.686045  0.247283  0.432559  1
  Er  Er4  1  0.686051  0.871321  0.432558  1
  Er  Er5  1  0.062083  0.247286  0.432487  1
  Er  Er6  1  0.313371  0.126272  0.559747  1
  Er  Er7  1  0.313371  0.746845  0.559736  1
  Er  Er8  1  0.936636  0.749680  0.562731  1
  Er  Er9  1  0.686204  0.249737  0.813261  1
  Er  Er10  1  0.064751  0.629025  0.813778  1
  Er  Er11  1  0.064743  0.249500  0.813769  1
  Cd  Cd12  1  0.003521  0.005204  0.006887  1
  Cd  Cd13  1  0.499863  0.999972  0.004335  1
  Cd  Cd14  1  0.499859  0.504227  0.004323  1
  Cd  Cd15  1  0.623878  0.416121  0.208351  1
  Cd  Cd16  1  0.494446  0.493976  0.493502  1
  Cd  Cd17  1  0.375183  0.583351  0.791512  1
  Cd  Cd18  1  0.708070  0.584698  0.792486  1
  Cd  Cd19  1  0.708064  0.915865  0.792492  1
  Cd  Cd20  1  0.291884  0.084448  0.877004  1
  Ga  Ga21  1  0.710396  0.920033  0.129707  1
  Ga  Ga22  1  0.290154  0.080536  0.210057  1
  Ga  Ga23  1  0.290139  0.419662  0.210045  1
  C  C24  1  0.000063  0.499996  0.999930  1
  C  C25  1  0.999391  0.000801  0.500544  1
  C  C26  1  0.500631  0.000485  0.500341  1
  C  C27  1  0.999385  0.499129  0.500543  1
