# generated using pymatgen
data_DyEr7CdInNi2
_symmetry_space_group_name_H-M   'P 1'
_cell_length_a   9.46768521
_cell_length_b   9.45988184
_cell_length_c   9.50315429
_cell_angle_alpha   60.19942257
_cell_angle_beta   60.21665279
_cell_angle_gamma   60.44540369
_symmetry_Int_Tables_number   1
_chemical_formula_structural   DyEr7CdInNi2
_chemical_formula_sum   'Dy2 Er14 Cd2 In2 Ni4'
_cell_volume   605.74604126
_cell_formula_units_Z   2
loop_
 _symmetry_equiv_pos_site_id
 _symmetry_equiv_pos_as_xyz
  1  'x, y, z'
loop_
 _atom_site_type_symbol
 _atom_site_label
 _atom_site_symmetry_multiplicity
 _atom_site_fract_x
 _atom_site_fract_y
 _atom_site_fract_z
 _atom_site_occupancy
  Dy  Dy0  1  0.345118  0.345181  0.348485  1
  Dy  Dy1  1  0.347357  0.347664  0.955630  1
  Er  Er2  1  0.352587  0.949850  0.349362  1
  Er  Er3  1  0.950008  0.352509  0.349206  1
  Er  Er4  1  0.811928  0.190864  0.187481  1
  Er  Er5  1  0.189772  0.811893  0.811346  1
  Er  Er6  1  0.190841  0.811954  0.187477  1
  Er  Er7  1  0.811910  0.189795  0.811335  1
  Er  Er8  1  0.187748  0.187688  0.812570  1
  Er  Er9  1  0.811008  0.811130  0.190094  1
  Er  Er10  1  0.937476  0.566754  0.563787  1
  Er  Er11  1  0.564343  0.938062  0.933962  1
  Er  Er12  1  0.566775  0.937409  0.563822  1
  Er  Er13  1  0.937902  0.564390  0.933888  1
  Er  Er14  1  0.564949  0.564918  0.934853  1
  Er  Er15  1  0.940393  0.940355  0.559959  1
  Cd  Cd16  1  0.579996  0.253763  0.582481  1
  Cd  Cd17  1  0.253667  0.580066  0.582412  1
  In  In18  1  0.581526  0.581406  0.584026  1
  In  In19  1  0.581876  0.581607  0.252488  1
  Ni  Ni20  1  0.141230  0.140788  0.146672  1
  Ni  Ni21  1  0.138754  0.138578  0.572003  1
  Ni  Ni22  1  0.138418  0.574666  0.143351  1
  Ni  Ni23  1  0.574419  0.138712  0.143311  1
