# generated using pymatgen
data_DyLu7Ga3Ir
_symmetry_space_group_name_H-M   'P 1'
_cell_length_a   9.87111100
_cell_length_b   9.87110948
_cell_length_c   6.91380000
_cell_angle_alpha   90.00000000
_cell_angle_beta   90.00000000
_cell_angle_gamma   119.99999504
_symmetry_Int_Tables_number   1
_chemical_formula_structural   DyLu7Ga3Ir
_chemical_formula_sum   'Dy2 Lu14 Ga6 Ir2'
_cell_volume   583.41752409
_cell_formula_units_Z   2
loop_
 _symmetry_equiv_pos_site_id
 _symmetry_equiv_pos_as_xyz
  1  'x, y, z'
loop_
 _atom_site_type_symbol
 _atom_site_label
 _atom_site_symmetry_multiplicity
 _atom_site_fract_x
 _atom_site_fract_y
 _atom_site_fract_z
 _atom_site_occupancy
  Dy  Dy0  1  0.000000  0.000000  0.232484  1
  Dy  Dy1  1  0.000000  0.000000  0.732484  1
  Lu  Lu2  1  0.172255  0.827745  0.510938  1
  Lu  Lu3  1  0.655488  0.827745  0.510938  1
  Lu  Lu4  1  0.172255  0.344512  0.510938  1
  Lu  Lu5  1  0.827745  0.172255  0.010938  1
  Lu  Lu6  1  0.344512  0.172255  0.010938  1
  Lu  Lu7  1  0.827745  0.655488  0.010938  1
  Lu  Lu8  1  0.333333  0.666667  0.836677  1
  Lu  Lu9  1  0.666667  0.333333  0.336677  1
  Lu  Lu10  1  0.465536  0.534464  0.204887  1
  Lu  Lu11  1  0.068928  0.534464  0.204887  1
  Lu  Lu12  1  0.465536  0.931072  0.204887  1
  Lu  Lu13  1  0.534464  0.465536  0.704887  1
  Lu  Lu14  1  0.931072  0.465536  0.704887  1
  Lu  Lu15  1  0.534464  0.068928  0.704887  1
  Ga  Ga16  1  0.163876  0.836124  0.959192  1
  Ga  Ga17  1  0.672248  0.836124  0.959192  1
  Ga  Ga18  1  0.163876  0.327752  0.959192  1
  Ga  Ga19  1  0.836124  0.163876  0.459192  1
  Ga  Ga20  1  0.327752  0.163876  0.459192  1
  Ga  Ga21  1  0.836124  0.672248  0.459192  1
  Ir  Ir22  1  0.333333  0.666667  0.443209  1
  Ir  Ir23  1  0.666667  0.333333  0.943209  1
