# generated using pymatgen
data_Tb3AlCd2Ga2Ag
_symmetry_space_group_name_H-M   'P 1'
_cell_length_a   7.33254700
_cell_length_b   7.31218644
_cell_length_c   4.46307700
_cell_angle_alpha   90.00000000
_cell_angle_beta   90.00000000
_cell_angle_gamma   120.09214779
_symmetry_Int_Tables_number   1
_chemical_formula_structural   Tb3AlCd2Ga2Ag
_chemical_formula_sum   'Tb3 Al1 Cd2 Ga2 Ag1'
_cell_volume   207.04422098
_cell_formula_units_Z   1
loop_
 _symmetry_equiv_pos_site_id
 _symmetry_equiv_pos_as_xyz
  1  'x, y, z'
loop_
 _atom_site_type_symbol
 _atom_site_label
 _atom_site_symmetry_multiplicity
 _atom_site_fract_x
 _atom_site_fract_y
 _atom_site_fract_z
 _atom_site_occupancy
  Tb  Tb0  1  0.572638  0.000000  0.000000  1
  Tb  Tb1  1  0.000148  0.579445  0.000000  1
  Tb  Tb2  1  0.420704  0.420555  0.000000  1
  Al  Al3  1  0.245307  0.000000  0.500000  1
  Cd  Cd4  1  0.000492  0.248227  0.500000  1
  Cd  Cd5  1  0.752265  0.751773  0.500000  1
  Ga  Ga6  1  0.333420  0.677304  0.500000  1
  Ga  Ga7  1  0.656117  0.322696  0.500000  1
  Ag  Ag8  1  0.018910  0.000000  0.000000  1
