# generated using pymatgen
data_Er(SiRh2)2
_symmetry_space_group_name_H-M   'P 1'
_cell_length_a   4.11352200
_cell_length_b   9.07323400
_cell_length_c   11.27878000
_cell_angle_alpha   90.00000000
_cell_angle_beta   90.00000000
_cell_angle_gamma   90.00000000
_symmetry_Int_Tables_number   1
_chemical_formula_structural   Er(SiRh2)2
_chemical_formula_sum   'Er4 Si8 Rh16'
_cell_volume   420.95731572
_cell_formula_units_Z   4
loop_
 _symmetry_equiv_pos_site_id
 _symmetry_equiv_pos_as_xyz
  1  'x, y, z'
loop_
 _atom_site_type_symbol
 _atom_site_label
 _atom_site_symmetry_multiplicity
 _atom_site_fract_x
 _atom_site_fract_y
 _atom_site_fract_z
 _atom_site_occupancy
  Er  Er0  1  0.250000  0.148382  0.825769  1
  Er  Er1  1  0.250000  0.351618  0.325769  1
  Er  Er2  1  0.750000  0.851618  0.174231  1
  Er  Er3  1  0.750000  0.648382  0.674231  1
  Si  Si4  1  0.250000  0.412151  0.637513  1
  Si  Si5  1  0.250000  0.087849  0.137513  1
  Si  Si6  1  0.750000  0.587849  0.362487  1
  Si  Si7  1  0.750000  0.912151  0.862487  1
  Si  Si8  1  0.250000  0.616507  0.058399  1
  Si  Si9  1  0.250000  0.883493  0.558399  1
  Si  Si10  1  0.750000  0.383493  0.941601  1
  Si  Si11  1  0.750000  0.116507  0.441601  1
  Rh  Rh12  1  0.250000  0.615108  0.500542  1
  Rh  Rh13  1  0.250000  0.884892  0.000542  1
  Rh  Rh14  1  0.750000  0.384892  0.499458  1
  Rh  Rh15  1  0.750000  0.115108  0.999458  1
  Rh  Rh16  1  0.250000  0.684900  0.268603  1
  Rh  Rh17  1  0.250000  0.815100  0.768603  1
  Rh  Rh18  1  0.750000  0.315100  0.731397  1
  Rh  Rh19  1  0.750000  0.184900  0.231397  1
  Rh  Rh20  1  0.250000  0.172880  0.559175  1
  Rh  Rh21  1  0.250000  0.327120  0.059175  1
  Rh  Rh22  1  0.750000  0.827120  0.440825  1
  Rh  Rh23  1  0.750000  0.672880  0.940825  1
  Rh  Rh24  1  0.250000  0.006513  0.344187  1
  Rh  Rh25  1  0.250000  0.493487  0.844187  1
  Rh  Rh26  1  0.750000  0.993487  0.655813  1
  Rh  Rh27  1  0.750000  0.506513  0.155813  1
