# generated using pymatgen
data_Y5Er5Si5Sn
_symmetry_space_group_name_H-M   'P 1'
_cell_length_a   8.48288964
_cell_length_b   8.51038200
_cell_length_c   6.35516900
_cell_angle_alpha   90.00000000
_cell_angle_beta   90.00000000
_cell_angle_gamma   119.84880239
_symmetry_Int_Tables_number   1
_chemical_formula_structural   Y5Er5Si5Sn
_chemical_formula_sum   'Y5 Er5 Si5 Sn1'
_cell_volume   397.93328734
_cell_formula_units_Z   1
loop_
 _symmetry_equiv_pos_site_id
 _symmetry_equiv_pos_as_xyz
  1  'x, y, z'
loop_
 _atom_site_type_symbol
 _atom_site_label
 _atom_site_symmetry_multiplicity
 _atom_site_fract_x
 _atom_site_fract_y
 _atom_site_fract_z
 _atom_site_occupancy
  Y  Y0  1  0.990339  0.749071  0.750000  1
  Y  Y1  1  0.998561  0.242947  0.250000  1
  Y  Y2  1  0.754883  0.756623  0.250000  1
  Y  Y3  1  0.765290  0.000158  0.750000  1
  Y  Y4  1  0.241806  0.000328  0.250000  1
  Er  Er5  1  0.241500  0.251691  0.750000  1
  Er  Er6  1  0.331080  0.657156  0.497241  1
  Er  Er7  1  0.673623  0.342568  0.002892  1
  Er  Er8  1  0.673623  0.342568  0.497108  1
  Er  Er9  1  0.331080  0.657156  0.002759  1
  Si  Si10  1  0.394066  0.392764  0.250000  1
  Si  Si11  1  0.001298  0.607267  0.250000  1
  Si  Si12  1  0.999217  0.394445  0.750000  1
  Si  Si13  1  0.602975  0.604445  0.750000  1
  Si  Si14  1  0.604477  0.999981  0.250000  1
  Sn  Sn15  1  0.396183  0.000832  0.750000  1
