# generated using pymatgen
data_DyYIn(AsRh2)6
_symmetry_space_group_name_H-M   'P 1'
_cell_length_a   10.04996300
_cell_length_b   10.04996339
_cell_length_c   3.98040800
_cell_angle_alpha   90.00000000
_cell_angle_beta   90.00000000
_cell_angle_gamma   119.99999544
_symmetry_Int_Tables_number   1
_chemical_formula_structural   DyYIn(AsRh2)6
_chemical_formula_sum   'Dy1 Y1 In1 As6 Rh12'
_cell_volume   348.16666259
_cell_formula_units_Z   1
loop_
 _symmetry_equiv_pos_site_id
 _symmetry_equiv_pos_as_xyz
  1  'x, y, z'
loop_
 _atom_site_type_symbol
 _atom_site_label
 _atom_site_symmetry_multiplicity
 _atom_site_fract_x
 _atom_site_fract_y
 _atom_site_fract_z
 _atom_site_occupancy
  Dy  Dy0  1  0.333333  0.666667  0.755803  1
  Y  Y1  1  0.000000  0.000000  0.245620  1
  In  In2  1  0.666667  0.333333  0.588432  1
  As  As3  1  0.954390  0.216141  0.747105  1
  As  As4  1  0.783859  0.738249  0.747105  1
  As  As5  1  0.261751  0.045610  0.747105  1
  As  As6  1  0.378463  0.449102  0.254377  1
  As  As7  1  0.550898  0.929361  0.254377  1
  As  As8  1  0.070639  0.621537  0.254377  1
  Rh  Rh9  1  0.732885  0.949981  0.750037  1
  Rh  Rh10  1  0.050019  0.782903  0.750037  1
  Rh  Rh11  1  0.217097  0.267115  0.750037  1
  Rh  Rh12  1  0.602072  0.719810  0.252049  1
  Rh  Rh13  1  0.280190  0.882262  0.252049  1
  Rh  Rh14  1  0.117738  0.397928  0.252049  1
  Rh  Rh15  1  0.959199  0.462251  0.756831  1
  Rh  Rh16  1  0.537749  0.496948  0.756831  1
  Rh  Rh17  1  0.503052  0.040801  0.756831  1
  Rh  Rh18  1  0.388762  0.209153  0.244375  1
  Rh  Rh19  1  0.790847  0.179608  0.244375  1
  Rh  Rh20  1  0.820392  0.611238  0.244375  1
