# generated using pymatgen
data_Ti8Mo4Pt3Rh
_symmetry_space_group_name_H-M   'P 1'
_cell_length_a   6.26931100
_cell_length_b   4.44660000
_cell_length_c   8.89019800
_cell_angle_alpha   90.00000000
_cell_angle_beta   89.99885065
_cell_angle_gamma   90.00000000
_symmetry_Int_Tables_number   1
_chemical_formula_structural   Ti8Mo4Pt3Rh
_chemical_formula_sum   'Ti8 Mo4 Pt3 Rh1'
_cell_volume   247.83310127
_cell_formula_units_Z   1
loop_
 _symmetry_equiv_pos_site_id
 _symmetry_equiv_pos_as_xyz
  1  'x, y, z'
loop_
 _atom_site_type_symbol
 _atom_site_label
 _atom_site_symmetry_multiplicity
 _atom_site_fract_x
 _atom_site_fract_y
 _atom_site_fract_z
 _atom_site_occupancy
  Ti  Ti0  1  0.501777  0.750000  0.122698  1
  Ti  Ti1  1  0.998465  0.750000  0.122730  1
  Ti  Ti2  1  0.500352  0.249999  0.374986  1
  Ti  Ti3  1  0.999886  0.249999  0.375007  1
  Ti  Ti4  1  0.998219  0.750000  0.627277  1
  Ti  Ti5  1  0.501538  0.750000  0.627294  1
  Ti  Ti6  1  0.996256  0.249999  0.874988  1
  Ti  Ti7  1  0.503495  0.249999  0.875007  1
  Mo  Mo8  1  0.749922  0.249999  0.125948  1
  Mo  Mo9  1  0.250248  0.750000  0.375002  1
  Mo  Mo10  1  0.749745  0.249999  0.624046  1
  Mo  Mo11  1  0.250085  0.750000  0.875006  1
  Pt  Pt12  1  0.250053  0.249999  0.124918  1
  Pt  Pt13  1  0.750102  0.750000  0.374992  1
  Pt  Pt14  1  0.249900  0.249999  0.625099  1
  Rh  Rh15  1  0.749957  0.750000  0.875002  1
