# generated using pymatgen
data_Dy12Ho8Co3Bi8Ru
_symmetry_space_group_name_H-M   'P 1'
_cell_length_a   7.99624592
_cell_length_b   8.89750200
_cell_length_c   12.41527100
_cell_angle_alpha   90.00000000
_cell_angle_beta   90.18831311
_cell_angle_gamma   90.00000000
_symmetry_Int_Tables_number   1
_chemical_formula_structural   Dy12Ho8Co3Bi8Ru
_chemical_formula_sum   'Dy12 Ho8 Co3 Bi8 Ru1'
_cell_volume   883.29972314
_cell_formula_units_Z   1
loop_
 _symmetry_equiv_pos_site_id
 _symmetry_equiv_pos_as_xyz
  1  'x, y, z'
loop_
 _atom_site_type_symbol
 _atom_site_label
 _atom_site_symmetry_multiplicity
 _atom_site_fract_x
 _atom_site_fract_y
 _atom_site_fract_z
 _atom_site_occupancy
  Dy  Dy0  1  0.846743  0.750000  0.800562  1
  Dy  Dy1  1  0.152526  0.250000  0.198188  1
  Dy  Dy2  1  0.347368  0.250000  0.698897  1
  Dy  Dy3  1  0.654023  0.750000  0.296382  1
  Dy  Dy4  1  0.378629  0.750000  0.692743  1
  Dy  Dy5  1  0.618390  0.250000  0.310870  1
  Dy  Dy6  1  0.881151  0.250000  0.811588  1
  Dy  Dy7  1  0.118122  0.750000  0.187029  1
  Dy  Dy8  1  0.949607  0.750000  0.503763  1
  Dy  Dy9  1  0.050443  0.250000  0.496808  1
  Dy  Dy10  1  0.451073  0.250000  0.997253  1
  Dy  Dy11  1  0.549401  0.750000  0.002537  1
  Ho  Ho12  1  0.676194  0.041850  0.564304  1
  Ho  Ho13  1  0.324501  0.965898  0.436421  1
  Ho  Ho14  1  0.174699  0.965493  0.937055  1
  Ho  Ho15  1  0.324501  0.534102  0.436421  1
  Ho  Ho16  1  0.824503  0.036388  0.062952  1
  Ho  Ho17  1  0.676194  0.458150  0.564304  1
  Ho  Ho18  1  0.824503  0.463612  0.062952  1
  Ho  Ho19  1  0.174699  0.534507  0.937055  1
  Co  Co20  1  0.434417  0.250000  0.490995  1
  Co  Co21  1  0.061071  0.250000  0.992028  1
  Co  Co22  1  0.937262  0.750000  0.007388  1
  Bi  Bi23  1  0.570604  0.491832  0.826913  1
  Bi  Bi24  1  0.428834  0.507849  0.173327  1
  Bi  Bi25  1  0.070759  0.507619  0.674426  1
  Bi  Bi26  1  0.428834  0.992151  0.173327  1
  Bi  Bi27  1  0.930585  0.492196  0.326004  1
  Bi  Bi28  1  0.570604  0.008168  0.826913  1
  Bi  Bi29  1  0.930585  0.007804  0.326004  1
  Bi  Bi30  1  0.070759  0.992381  0.674426  1
  Ru  Ru31  1  0.568417  0.750000  0.510165  1
