# generated using pymatgen
data_Hf18FeCoRe7W
_symmetry_space_group_name_H-M   'P 1'
_cell_length_a   8.59871200
_cell_length_b   8.59871061
_cell_length_c   8.45887600
_cell_angle_alpha   90.00000000
_cell_angle_beta   90.00000000
_cell_angle_gamma   119.99999767
_symmetry_Int_Tables_number   1
_chemical_formula_structural   Hf18FeCoRe7W
_chemical_formula_sum   'Hf18 Fe1 Co1 Re7 W1'
_cell_volume   541.63913585
_cell_formula_units_Z   1
loop_
 _symmetry_equiv_pos_site_id
 _symmetry_equiv_pos_as_xyz
  1  'x, y, z'
loop_
 _atom_site_type_symbol
 _atom_site_label
 _atom_site_symmetry_multiplicity
 _atom_site_fract_x
 _atom_site_fract_y
 _atom_site_fract_z
 _atom_site_occupancy
  Hf  Hf0  1  0.201145  0.798855  0.441423  1
  Hf  Hf1  1  0.201145  0.402291  0.441423  1
  Hf  Hf2  1  0.597709  0.798855  0.441423  1
  Hf  Hf3  1  0.799599  0.200401  0.558445  1
  Hf  Hf4  1  0.799599  0.599197  0.558445  1
  Hf  Hf5  1  0.400803  0.200401  0.558445  1
  Hf  Hf6  1  0.800618  0.199382  0.940876  1
  Hf  Hf7  1  0.800618  0.601234  0.940876  1
  Hf  Hf8  1  0.398766  0.199382  0.940876  1
  Hf  Hf9  1  0.200227  0.799773  0.059319  1
  Hf  Hf10  1  0.200227  0.400456  0.059319  1
  Hf  Hf11  1  0.599544  0.799773  0.059319  1
  Hf  Hf12  1  0.540753  0.459247  0.248921  1
  Hf  Hf13  1  0.540753  0.081505  0.248921  1
  Hf  Hf14  1  0.918495  0.459247  0.248921  1
  Hf  Hf15  1  0.458783  0.541217  0.751131  1
  Hf  Hf16  1  0.458783  0.917568  0.751131  1
  Hf  Hf17  1  0.082432  0.541217  0.751131  1
  Fe  Fe18  1  0.333333  0.666667  0.249557  1
  Co  Co19  1  0.666667  0.333333  0.750669  1
  Re  Re20  1  0.888464  0.111536  0.250673  1
  Re  Re21  1  0.888464  0.776927  0.250673  1
  Re  Re22  1  0.223073  0.111536  0.250673  1
  Re  Re23  1  0.111523  0.888477  0.749193  1
  Re  Re24  1  0.111523  0.223045  0.749193  1
  Re  Re25  1  0.776955  0.888477  0.749193  1
  Re  Re26  1  0.000000  0.000000  0.000470  1
  W  W27  1  0.000000  0.000000  0.499364  1
