# generated using pymatgen
data_Sr4TcMoO8
_symmetry_space_group_name_H-M   'P 1'
_cell_length_a   7.06956127
_cell_length_b   7.06956085
_cell_length_c   5.62764100
_cell_angle_alpha   90.00000000
_cell_angle_beta   90.00000000
_cell_angle_gamma   133.09093599
_symmetry_Int_Tables_number   1
_chemical_formula_structural   Sr4TcMoO8
_chemical_formula_sum   'Sr4 Tc1 Mo1 O8'
_cell_volume   205.39740771
_cell_formula_units_Z   1
loop_
 _symmetry_equiv_pos_site_id
 _symmetry_equiv_pos_as_xyz
  1  'x, y, z'
loop_
 _atom_site_type_symbol
 _atom_site_label
 _atom_site_symmetry_multiplicity
 _atom_site_fract_x
 _atom_site_fract_y
 _atom_site_fract_z
 _atom_site_occupancy
  Sr  Sr0  1  0.350809  0.649191  0.000000  1
  Sr  Sr1  1  0.851311  0.148689  0.500000  1
  Sr  Sr2  1  0.148689  0.851311  0.500000  1
  Sr  Sr3  1  0.649191  0.350809  0.000000  1
  Tc  Tc4  1  0.000000  0.000000  0.000000  1
  Mo  Mo5  1  0.500000  0.500000  0.500000  1
  O  O6  1  0.161545  0.838455  0.000000  1
  O  O7  1  0.665813  0.334187  0.500000  1
  O  O8  1  0.334187  0.665813  0.500000  1
  O  O9  1  0.838455  0.161545  0.000000  1
  O  O10  1  0.249348  0.249348  0.248526  1
  O  O11  1  0.750652  0.750652  0.751474  1
  O  O12  1  0.249348  0.249348  0.751474  1
  O  O13  1  0.750652  0.750652  0.248526  1
