# generated using pymatgen
data_Pr16CdIn2HgIr4
_symmetry_space_group_name_H-M   'P 1'
_cell_length_a   10.03793961
_cell_length_b   10.04447536
_cell_length_c   10.03128900
_cell_angle_alpha   60.04342079
_cell_angle_beta   60.02191776
_cell_angle_gamma   60.02414437
_symmetry_Int_Tables_number   1
_chemical_formula_structural   Pr16CdIn2HgIr4
_chemical_formula_sum   'Pr16 Cd1 In2 Hg1 Ir4'
_cell_volume   715.66056758
_cell_formula_units_Z   1
loop_
 _symmetry_equiv_pos_site_id
 _symmetry_equiv_pos_as_xyz
  1  'x, y, z'
loop_
 _atom_site_type_symbol
 _atom_site_label
 _atom_site_symmetry_multiplicity
 _atom_site_fract_x
 _atom_site_fract_y
 _atom_site_fract_z
 _atom_site_occupancy
  Pr  Pr0  1  0.348721  0.348567  0.347287  1
  Pr  Pr1  1  0.348721  0.348567  0.955425  1
  Pr  Pr2  1  0.350035  0.954092  0.347936  1
  Pr  Pr3  1  0.953209  0.350133  0.348329  1
  Pr  Pr4  1  0.808295  0.190911  0.192114  1
  Pr  Pr5  1  0.190199  0.808763  0.809220  1
  Pr  Pr6  1  0.190199  0.808763  0.191818  1
  Pr  Pr7  1  0.808295  0.190911  0.808680  1
  Pr  Pr8  1  0.188526  0.189265  0.811104  1
  Pr  Pr9  1  0.806895  0.807132  0.192986  1
  Pr  Pr10  1  0.941422  0.560951  0.560712  1
  Pr  Pr11  1  0.560326  0.943285  0.936007  1
  Pr  Pr12  1  0.560326  0.943285  0.560383  1
  Pr  Pr13  1  0.941422  0.560951  0.936916  1
  Pr  Pr14  1  0.561108  0.561338  0.938777  1
  Pr  Pr15  1  0.939370  0.941114  0.559758  1
  Cd  Cd16  1  0.260583  0.578902  0.580256  1
  In  In17  1  0.579966  0.580378  0.581697  1
  In  In18  1  0.579966  0.580378  0.257958  1
  Hg  Hg19  1  0.581114  0.251497  0.583694  1
  Ir  Ir20  1  0.141823  0.141689  0.141011  1
  Ir  Ir21  1  0.141823  0.141689  0.575475  1
  Ir  Ir22  1  0.142025  0.575416  0.141280  1
  Ir  Ir23  1  0.575631  0.142019  0.141175  1
