# generated using pymatgen
data_Tm6Zn20Ni3C
_symmetry_space_group_name_H-M   'P 1'
_cell_length_a   8.84551722
_cell_length_b   8.84551832
_cell_length_c   8.82969300
_cell_angle_alpha   59.91080621
_cell_angle_beta   59.91080209
_cell_angle_gamma   59.79940102
_symmetry_Int_Tables_number   1
_chemical_formula_structural   Tm6Zn20Ni3C
_chemical_formula_sum   'Tm6 Zn20 Ni3 C1'
_cell_volume   487.11257108
_cell_formula_units_Z   1
loop_
 _symmetry_equiv_pos_site_id
 _symmetry_equiv_pos_as_xyz
  1  'x, y, z'
loop_
 _atom_site_type_symbol
 _atom_site_label
 _atom_site_symmetry_multiplicity
 _atom_site_fract_x
 _atom_site_fract_y
 _atom_site_fract_z
 _atom_site_occupancy
  Tm  Tm0  1  0.695512  0.301950  0.304689  1
  Tm  Tm1  1  0.304488  0.698050  0.695311  1
  Tm  Tm2  1  0.301950  0.695512  0.304689  1
  Tm  Tm3  1  0.698050  0.304488  0.695311  1
  Tm  Tm4  1  0.305725  0.305725  0.690594  1
  Tm  Tm5  1  0.694275  0.694275  0.309406  1
  Zn  Zn6  1  0.116181  0.116181  0.115459  1
  Zn  Zn7  1  0.883819  0.883819  0.884541  1
  Zn  Zn8  1  0.122335  0.122335  0.646725  1
  Zn  Zn9  1  0.111581  0.648943  0.128360  1
  Zn  Zn10  1  0.877665  0.877665  0.353275  1
  Zn  Zn11  1  0.888419  0.351057  0.871640  1
  Zn  Zn12  1  0.648943  0.111581  0.128360  1
  Zn  Zn13  1  0.351057  0.888419  0.871640  1
  Zn  Zn14  1  0.500000  0.000000  0.000000  1
  Zn  Zn15  1  0.000000  0.500000  0.000000  1
  Zn  Zn16  1  0.000000  0.000000  0.500000  1
  Zn  Zn17  1  0.500000  0.500000  0.000000  1
  Zn  Zn18  1  0.324290  0.324290  0.334385  1
  Zn  Zn19  1  0.675710  0.675710  0.665615  1
  Zn  Zn20  1  0.328624  0.328624  0.014279  1
  Zn  Zn21  1  0.331751  0.016099  0.332561  1
  Zn  Zn22  1  0.671376  0.671376  0.985721  1
  Zn  Zn23  1  0.668249  0.983901  0.667439  1
  Zn  Zn24  1  0.016099  0.331751  0.332561  1
  Zn  Zn25  1  0.983901  0.668249  0.667439  1
  Ni  Ni26  1  0.000000  0.500000  0.500000  1
  Ni  Ni27  1  0.500000  0.000000  0.500000  1
  Ni  Ni28  1  0.000000  0.000000  0.000000  1
  C  C29  1  0.500000  0.500000  0.500000  1
