# generated using pymatgen
data_Ce8Lu12Si15Sn
_symmetry_space_group_name_H-M   'P 1'
_cell_length_a   7.45548567
_cell_length_b   7.75702568
_cell_length_c   14.68937100
_cell_angle_alpha   90.01743169
_cell_angle_beta   89.54154346
_cell_angle_gamma   90.10225197
_symmetry_Int_Tables_number   1
_chemical_formula_structural   Ce8Lu12Si15Sn
_chemical_formula_sum   'Ce8 Lu12 Si15 Sn1'
_cell_volume   849.49290426
_cell_formula_units_Z   1
loop_
 _symmetry_equiv_pos_site_id
 _symmetry_equiv_pos_as_xyz
  1  'x, y, z'
loop_
 _atom_site_type_symbol
 _atom_site_label
 _atom_site_symmetry_multiplicity
 _atom_site_fract_x
 _atom_site_fract_y
 _atom_site_fract_z
 _atom_site_occupancy
  Ce  Ce0  1  0.010450  0.169974  0.399368  1
  Ce  Ce1  1  0.516413  0.322139  0.400131  1
  Ce  Ce2  1  0.484326  0.675737  0.903429  1
  Ce  Ce3  1  0.498132  0.683786  0.600255  1
  Ce  Ce4  1  0.984173  0.829049  0.598850  1
  Ce  Ce5  1  0.983906  0.824956  0.903529  1
  Ce  Ce6  1  0.515832  0.324309  0.097304  1
  Ce  Ce7  1  0.015368  0.175732  0.096706  1
  Lu  Lu8  1  0.336157  0.164127  0.628828  1
  Lu  Lu9  1  0.669631  0.823319  0.374984  1
  Lu  Lu10  1  0.663733  0.987072  0.752478  1
  Lu  Lu11  1  0.167868  0.684956  0.371570  1
  Lu  Lu12  1  0.824678  0.322642  0.877819  1
  Lu  Lu13  1  0.818669  0.323535  0.624249  1
  Lu  Lu14  1  0.838200  0.488431  0.249077  1
  Lu  Lu15  1  0.339314  0.012751  0.248571  1
  Lu  Lu16  1  0.324513  0.176382  0.877509  1
  Lu  Lu17  1  0.174339  0.677494  0.122596  1
  Lu  Lu18  1  0.673356  0.821727  0.122016  1
  Lu  Lu19  1  0.160543  0.510307  0.754612  1
  Si  Si20  1  0.284022  0.871253  0.752046  1
  Si  Si21  1  0.466275  0.612739  0.248677  1
  Si  Si22  1  0.031617  0.115566  0.750809  1
  Si  Si23  1  0.530987  0.388323  0.752048  1
  Si  Si24  1  0.965251  0.888645  0.247315  1
  Si  Si25  1  0.716441  0.124146  0.247953  1
  Si  Si26  1  0.848880  0.530857  0.039401  1
  Si  Si27  1  0.348657  0.969244  0.039366  1
  Si  Si28  1  0.150984  0.468808  0.961219  1
  Si  Si29  1  0.655892  0.034086  0.537252  1
  Si  Si30  1  0.345346  0.967686  0.461223  1
  Si  Si31  1  0.834818  0.534612  0.458867  1
  Si  Si32  1  0.785764  0.624834  0.751610  1
  Si  Si33  1  0.216458  0.376311  0.249328  1
  Si  Si34  1  0.650520  0.031270  0.961005  1
  Sn  Sn35  1  0.168486  0.463195  0.538002  1
