# generated using pymatgen
data_Cs8BeCr3S10
_symmetry_space_group_name_H-M   'P 1'
_cell_length_a   7.90092308
_cell_length_b   8.72827704
_cell_length_c   10.76195964
_cell_angle_alpha   77.13147852
_cell_angle_beta   86.27536838
_cell_angle_gamma   79.77425439
_symmetry_Int_Tables_number   1
_chemical_formula_structural   Cs8BeCr3S10
_chemical_formula_sum   'Cs8 Be1 Cr3 S10'
_cell_volume   711.77749383
_cell_formula_units_Z   1
loop_
 _symmetry_equiv_pos_site_id
 _symmetry_equiv_pos_as_xyz
  1  'x, y, z'
loop_
 _atom_site_type_symbol
 _atom_site_label
 _atom_site_symmetry_multiplicity
 _atom_site_fract_x
 _atom_site_fract_y
 _atom_site_fract_z
 _atom_site_occupancy
  Cs  Cs0  1  0.426506  0.318822  0.095610  1
  Cs  Cs1  1  0.569176  0.690350  0.902855  1
  Cs  Cs2  1  0.194029  0.076448  0.866515  1
  Cs  Cs3  1  0.054598  0.617348  0.744542  1
  Cs  Cs4  1  0.798850  0.919049  0.134844  1
  Cs  Cs5  1  0.943357  0.384028  0.257776  1
  Cs  Cs6  1  0.573864  0.720135  0.507546  1
  Cs  Cs7  1  0.433515  0.274776  0.488375  1
  Be  Be8  1  0.907789  0.088329  0.596389  1
  Cr  Cr9  1  0.093426  0.913566  0.405526  1
  Cr  Cr10  1  0.274817  0.729926  0.218858  1
  Cr  Cr11  1  0.725177  0.269391  0.779849  1
  S  S12  1  0.877778  0.337504  0.602896  1
  S  S13  1  0.172078  0.977981  0.585122  1
  S  S14  1  0.459375  0.392169  0.765994  1
  S  S15  1  0.166442  0.683516  0.046457  1
  S  S16  1  0.833074  0.314038  0.947306  1
  S  S17  1  0.546423  0.602154  0.228418  1
  S  S18  1  0.120862  0.650737  0.398953  1
  S  S19  1  0.250520  0.993777  0.221624  1
  S  S20  1  0.763387  0.012515  0.771697  1
  S  S21  1  0.814957  0.033441  0.432849  1
