# generated using pymatgen
data_Ho5Tm7Co4
_symmetry_space_group_name_H-M   'P 1'
_cell_length_a   6.13601867
_cell_length_b   6.88729701
_cell_length_c   9.25540403
_cell_angle_alpha   90.00706156
_cell_angle_beta   90.05357575
_cell_angle_gamma   90.00143891
_symmetry_Int_Tables_number   1
_chemical_formula_structural   Ho5Tm7Co4
_chemical_formula_sum   'Ho5 Tm7 Co4'
_cell_volume   391.13859672
_cell_formula_units_Z   1
loop_
 _symmetry_equiv_pos_site_id
 _symmetry_equiv_pos_as_xyz
  1  'x, y, z'
loop_
 _atom_site_type_symbol
 _atom_site_label
 _atom_site_symmetry_multiplicity
 _atom_site_fract_x
 _atom_site_fract_y
 _atom_site_fract_z
 _atom_site_occupancy
  Ho  Ho0  1  0.360569  0.541023  0.250160  1
  Ho  Ho1  1  0.139662  0.041430  0.250050  1
  Ho  Ho2  1  0.861297  0.958490  0.749896  1
  Ho  Ho3  1  0.639151  0.458801  0.749887  1
  Ho  Ho4  1  0.823541  0.675793  0.066809  1
  Tm  Tm5  1  0.675973  0.175594  0.067050  1
  Tm  Tm6  1  0.823805  0.675817  0.433514  1
  Tm  Tm7  1  0.323941  0.824381  0.932577  1
  Tm  Tm8  1  0.176134  0.324505  0.567111  1
  Tm  Tm9  1  0.676262  0.175724  0.432888  1
  Tm  Tm10  1  0.176243  0.324147  0.932695  1
  Tm  Tm11  1  0.323772  0.824212  0.567016  1
  Co  Co12  1  0.949270  0.387102  0.250293  1
  Co  Co13  1  0.449162  0.112693  0.750095  1
  Co  Co14  1  0.550334  0.887588  0.250284  1
  Co  Co15  1  0.050884  0.612699  0.749676  1
