# generated using pymatgen
data_TbYb2Ho5(B6Os)4
_symmetry_space_group_name_H-M   'P 1'
_cell_length_a   3.64067800
_cell_length_b   9.13613790
_cell_length_c   11.52730302
_cell_angle_alpha   90.00455011
_cell_angle_beta   90.00000000
_cell_angle_gamma   90.00000000
_symmetry_Int_Tables_number   1
_chemical_formula_structural   TbYb2Ho5(B6Os)4
_chemical_formula_sum   'Tb1 Yb2 Ho5 B24 Os4'
_cell_volume   383.41811161
_cell_formula_units_Z   1
loop_
 _symmetry_equiv_pos_site_id
 _symmetry_equiv_pos_as_xyz
  1  'x, y, z'
loop_
 _atom_site_type_symbol
 _atom_site_label
 _atom_site_symmetry_multiplicity
 _atom_site_fract_x
 _atom_site_fract_y
 _atom_site_fract_z
 _atom_site_occupancy
  Tb  Tb0  1  0.000000  0.324021  0.414496  1
  Yb  Yb1  1  0.000000  0.677129  0.586046  1
  Yb  Yb2  1  0.000000  0.822820  0.085809  1
  Ho  Ho3  1  0.000000  0.175809  0.914490  1
  Ho  Ho4  1  0.000000  0.941037  0.369371  1
  Ho  Ho5  1  0.000000  0.056216  0.629714  1
  Ho  Ho6  1  0.000000  0.443664  0.129488  1
  Ho  Ho7  1  0.000000  0.559039  0.869799  1
  B  B8  1  0.500000  0.554231  0.433350  1
  B  B9  1  0.500000  0.446305  0.568178  1
  B  B10  1  0.500000  0.053701  0.067290  1
  B  B11  1  0.500000  0.946342  0.933262  1
  B  B12  1  0.500000  0.747697  0.418124  1
  B  B13  1  0.500000  0.251478  0.582226  1
  B  B14  1  0.500000  0.248447  0.081272  1
  B  B15  1  0.500000  0.752662  0.918189  1
  B  B16  1  0.500000  0.789595  0.265007  1
  B  B17  1  0.500000  0.208913  0.735115  1
  B  B18  1  0.500000  0.290739  0.234190  1
  B  B19  1  0.500000  0.710546  0.765245  1
  B  B20  1  0.500000  0.630872  0.185717  1
  B  B21  1  0.500000  0.368885  0.814440  1
  B  B22  1  0.500000  0.130692  0.313603  1
  B  B23  1  0.500000  0.869251  0.685843  1
  B  B24  1  0.500000  0.983041  0.211333  1
  B  B25  1  0.500000  0.016742  0.788483  1
  B  B26  1  0.500000  0.483729  0.288234  1
  B  B27  1  0.500000  0.516830  0.712062  1
  B  B28  1  0.500000  0.601285  0.027785  1
  B  B29  1  0.500000  0.398021  0.971526  1
  B  B30  1  0.500000  0.101214  0.471596  1
  B  B31  1  0.500000  0.898972  0.527605  1
  Os  Os32  1  0.000000  0.636979  0.320912  1
  Os  Os33  1  0.000000  0.360664  0.680042  1
  Os  Os34  1  0.000000  0.138916  0.179090  1
  Os  Os35  1  0.000000  0.863515  0.821065  1
