# generated using pymatgen
data_Y4Ho4Tc3B24Os
_symmetry_space_group_name_H-M   'P 1'
_cell_length_a   3.67305500
_cell_length_b   9.14841438
_cell_length_c   11.53700300
_cell_angle_alpha   89.95242073
_cell_angle_beta   90.00000000
_cell_angle_gamma   90.00000000
_symmetry_Int_Tables_number   1
_chemical_formula_structural   Y4Ho4Tc3B24Os
_chemical_formula_sum   'Y4 Ho4 Tc3 B24 Os1'
_cell_volume   387.67350020
_cell_formula_units_Z   1
loop_
 _symmetry_equiv_pos_site_id
 _symmetry_equiv_pos_as_xyz
  1  'x, y, z'
loop_
 _atom_site_type_symbol
 _atom_site_label
 _atom_site_symmetry_multiplicity
 _atom_site_fract_x
 _atom_site_fract_y
 _atom_site_fract_z
 _atom_site_occupancy
  Y  Y0  1  0.000000  0.323599  0.413845  1
  Y  Y1  1  0.000000  0.675497  0.584372  1
  Y  Y2  1  0.000000  0.822866  0.087294  1
  Y  Y3  1  0.000000  0.178019  0.914485  1
  Ho  Ho4  1  0.000000  0.942573  0.370076  1
  Ho  Ho5  1  0.000000  0.058119  0.630034  1
  Ho  Ho6  1  0.000000  0.442958  0.130209  1
  Ho  Ho7  1  0.000000  0.557003  0.869443  1
  Tc  Tc8  1  0.000000  0.638636  0.320389  1
  Tc  Tc9  1  0.000000  0.361443  0.680105  1
  Tc  Tc10  1  0.000000  0.138146  0.178447  1
  B  B11  1  0.500000  0.553234  0.432718  1
  B  B12  1  0.500000  0.446715  0.567028  1
  B  B13  1  0.500000  0.053196  0.067109  1
  B  B14  1  0.500000  0.946140  0.932705  1
  B  B15  1  0.500000  0.748692  0.418559  1
  B  B16  1  0.500000  0.250969  0.581458  1
  B  B17  1  0.500000  0.249226  0.081477  1
  B  B18  1  0.500000  0.751226  0.918234  1
  B  B19  1  0.500000  0.791700  0.265797  1
  B  B20  1  0.500000  0.208510  0.734739  1
  B  B21  1  0.500000  0.291631  0.234433  1
  B  B22  1  0.500000  0.709150  0.765576  1
  B  B23  1  0.500000  0.630920  0.185774  1
  B  B24  1  0.500000  0.368980  0.814738  1
  B  B25  1  0.500000  0.130468  0.313945  1
  B  B26  1  0.500000  0.869076  0.685918  1
  B  B27  1  0.500000  0.982071  0.212000  1
  B  B28  1  0.500000  0.016725  0.788018  1
  B  B29  1  0.500000  0.482364  0.287840  1
  B  B30  1  0.500000  0.517430  0.711965  1
  B  B31  1  0.500000  0.601760  0.028103  1
  B  B32  1  0.500000  0.399258  0.971729  1
  B  B33  1  0.500000  0.101536  0.471814  1
  B  B34  1  0.500000  0.898524  0.528632  1
  Os  Os35  1  0.000000  0.861643  0.820988  1
