# generated using pymatgen
data_Er2Sc3Tl4
_symmetry_space_group_name_H-M   'P 1'
_cell_length_a   7.66741300
_cell_length_b   8.00841800
_cell_length_c   15.09855500
_cell_angle_alpha   90.00000000
_cell_angle_beta   90.00000000
_cell_angle_gamma   90.00000000
_symmetry_Int_Tables_number   1
_chemical_formula_structural   Er2Sc3Tl4
_chemical_formula_sum   'Er8 Sc12 Tl16'
_cell_volume   927.10938051
_cell_formula_units_Z   4
loop_
 _symmetry_equiv_pos_site_id
 _symmetry_equiv_pos_as_xyz
  1  'x, y, z'
loop_
 _atom_site_type_symbol
 _atom_site_label
 _atom_site_symmetry_multiplicity
 _atom_site_fract_x
 _atom_site_fract_y
 _atom_site_fract_z
 _atom_site_occupancy
  Er  Er0  1  0.998492  0.185268  0.092368  1
  Er  Er1  1  0.001508  0.814732  0.907632  1
  Er  Er2  1  0.501508  0.685268  0.907632  1
  Er  Er3  1  0.001508  0.814732  0.592368  1
  Er  Er4  1  0.498492  0.314732  0.092368  1
  Er  Er5  1  0.998492  0.185268  0.407632  1
  Er  Er6  1  0.498492  0.314732  0.407632  1
  Er  Er7  1  0.501508  0.685268  0.592368  1
  Sc  Sc8  1  0.165070  0.496201  0.750000  1
  Sc  Sc9  1  0.834930  0.503799  0.250000  1
  Sc  Sc10  1  0.334930  0.996201  0.250000  1
  Sc  Sc11  1  0.665070  0.003799  0.750000  1
  Sc  Sc12  1  0.334055  0.157283  0.625873  1
  Sc  Sc13  1  0.665945  0.842717  0.374127  1
  Sc  Sc14  1  0.165945  0.657283  0.374127  1
  Sc  Sc15  1  0.665945  0.842717  0.125873  1
  Sc  Sc16  1  0.834055  0.342717  0.625873  1
  Sc  Sc17  1  0.334055  0.157283  0.874127  1
  Sc  Sc18  1  0.834055  0.342717  0.874127  1
  Sc  Sc19  1  0.165945  0.657283  0.125873  1
  Tl  Tl20  1  0.025070  0.121995  0.750000  1
  Tl  Tl21  1  0.974930  0.878005  0.250000  1
  Tl  Tl22  1  0.474930  0.621995  0.250000  1
  Tl  Tl23  1  0.525070  0.378005  0.750000  1
  Tl  Tl24  1  0.299426  0.851695  0.750000  1
  Tl  Tl25  1  0.700574  0.148305  0.250000  1
  Tl  Tl26  1  0.200574  0.351695  0.250000  1
  Tl  Tl27  1  0.799426  0.648305  0.750000  1
  Tl  Tl28  1  0.184025  0.457206  0.542299  1
  Tl  Tl29  1  0.815975  0.542794  0.457701  1
  Tl  Tl30  1  0.315975  0.957206  0.457701  1
  Tl  Tl31  1  0.815975  0.542794  0.042299  1
  Tl  Tl32  1  0.684025  0.042794  0.542299  1
  Tl  Tl33  1  0.184025  0.457206  0.957701  1
  Tl  Tl34  1  0.684025  0.042794  0.957701  1
  Tl  Tl35  1  0.315975  0.957206  0.042299  1
