# generated using pymatgen
data_Ho6Tm10Cd4NiRu3
_symmetry_space_group_name_H-M   'P 1'
_cell_length_a   9.49129650
_cell_length_b   9.54868674
_cell_length_c   9.54913933
_cell_angle_alpha   59.63309169
_cell_angle_beta   59.45020764
_cell_angle_gamma   59.44949295
_symmetry_Int_Tables_number   1
_chemical_formula_structural   Ho6Tm10Cd4NiRu3
_chemical_formula_sum   'Ho6 Tm10 Cd4 Ni1 Ru3'
_cell_volume   605.14314829
_cell_formula_units_Z   1
loop_
 _symmetry_equiv_pos_site_id
 _symmetry_equiv_pos_as_xyz
  1  'x, y, z'
loop_
 _atom_site_type_symbol
 _atom_site_label
 _atom_site_symmetry_multiplicity
 _atom_site_fract_x
 _atom_site_fract_y
 _atom_site_fract_z
 _atom_site_occupancy
  Ho  Ho0  1  0.939642  0.559795  0.559805  1
  Ho  Ho1  1  0.558471  0.937546  0.937550  1
  Ho  Ho2  1  0.557770  0.938401  0.565775  1
  Ho  Ho3  1  0.940273  0.559312  0.940350  1
  Ho  Ho4  1  0.557778  0.565777  0.938404  1
  Ho  Ho5  1  0.940268  0.940358  0.559308  1
  Tm  Tm6  1  0.350200  0.345919  0.345887  1
  Tm  Tm7  1  0.351219  0.345672  0.959601  1
  Tm  Tm8  1  0.351232  0.959588  0.345652  1
  Tm  Tm9  1  0.959188  0.346990  0.346960  1
  Tm  Tm10  1  0.811083  0.187548  0.187544  1
  Tm  Tm11  1  0.185060  0.811941  0.811970  1
  Tm  Tm12  1  0.187144  0.811294  0.188230  1
  Tm  Tm13  1  0.810454  0.188526  0.811565  1
  Tm  Tm14  1  0.187144  0.188230  0.811308  1
  Tm  Tm15  1  0.810464  0.811550  0.188530  1
  Cd  Cd16  1  0.578916  0.580983  0.580986  1
  Cd  Cd17  1  0.579549  0.580886  0.258034  1
  Cd  Cd18  1  0.579550  0.258035  0.580888  1
  Cd  Cd19  1  0.256936  0.580958  0.580958  1
  Ni  Ni20  1  0.578282  0.142180  0.142172  1
  Ru  Ru21  1  0.142459  0.139651  0.139655  1
  Ru  Ru22  1  0.143460  0.141228  0.577636  1
  Ru  Ru23  1  0.143458  0.577632  0.141232  1
