# generated using pymatgen
data_Ta2Be8FeIr
_symmetry_space_group_name_H-M   'P 1'
_cell_length_a   4.40299600
_cell_length_b   4.40299516
_cell_length_c   7.34564900
_cell_angle_alpha   90.00000000
_cell_angle_beta   90.00000000
_cell_angle_gamma   119.99999126
_symmetry_Int_Tables_number   1
_chemical_formula_structural   Ta2Be8FeIr
_chemical_formula_sum   'Ta2 Be8 Fe1 Ir1'
_cell_volume   123.32676559
_cell_formula_units_Z   1
loop_
 _symmetry_equiv_pos_site_id
 _symmetry_equiv_pos_as_xyz
  1  'x, y, z'
loop_
 _atom_site_type_symbol
 _atom_site_label
 _atom_site_symmetry_multiplicity
 _atom_site_fract_x
 _atom_site_fract_y
 _atom_site_fract_z
 _atom_site_occupancy
  Ta  Ta0  1  0.666667  0.333333  0.556880  1
  Ta  Ta1  1  0.666667  0.333333  0.941304  1
  Be  Be2  1  0.000000  0.000000  0.005509  1
  Be  Be3  1  0.000000  0.000000  0.490918  1
  Be  Be4  1  0.832193  0.664386  0.252281  1
  Be  Be5  1  0.167657  0.832343  0.746686  1
  Be  Be6  1  0.664685  0.832343  0.746686  1
  Be  Be7  1  0.335614  0.167807  0.252281  1
  Be  Be8  1  0.832193  0.167807  0.252281  1
  Be  Be9  1  0.167657  0.335315  0.746686  1
  Fe  Fe10  1  0.333333  0.666667  0.443455  1
  Ir  Ir11  1  0.333333  0.666667  0.065036  1
