# generated using pymatgen
data_V4ZnFe8Si3
_symmetry_space_group_name_H-M   'P 1'
_cell_length_a   13.25121710
_cell_length_b   13.25121738
_cell_length_c   13.25121617
_cell_angle_alpha   17.35072355
_cell_angle_beta   17.35072079
_cell_angle_gamma   17.35071819
_symmetry_Int_Tables_number   1
_chemical_formula_structural   V4ZnFe8Si3
_chemical_formula_sum   'V4 Zn1 Fe8 Si3'
_cell_volume   180.58308986
_cell_formula_units_Z   1
loop_
 _symmetry_equiv_pos_site_id
 _symmetry_equiv_pos_as_xyz
  1  'x, y, z'
loop_
 _atom_site_type_symbol
 _atom_site_label
 _atom_site_symmetry_multiplicity
 _atom_site_fract_x
 _atom_site_fract_y
 _atom_site_fract_z
 _atom_site_occupancy
  V  V0  1  0.874779  0.874779  0.874779  1
  V  V1  1  0.125221  0.125221  0.125221  1
  V  V2  1  0.374546  0.374546  0.374546  1
  V  V3  1  0.625454  0.625454  0.625454  1
  Zn  Zn4  1  0.000000  0.000000  0.000000  1
  Fe  Fe5  1  0.187685  0.187685  0.187685  1
  Fe  Fe6  1  0.437667  0.437667  0.437667  1
  Fe  Fe7  1  0.689384  0.689384  0.689384  1
  Fe  Fe8  1  0.935487  0.935487  0.935487  1
  Fe  Fe9  1  0.812315  0.812315  0.812315  1
  Fe  Fe10  1  0.064513  0.064513  0.064513  1
  Fe  Fe11  1  0.310616  0.310616  0.310616  1
  Fe  Fe12  1  0.562333  0.562333  0.562333  1
  Si  Si13  1  0.249667  0.249667  0.249667  1
  Si  Si14  1  0.500000  0.500000  0.500000  1
  Si  Si15  1  0.750333  0.750333  0.750333  1
