# generated using pymatgen
data_Ti8SiAs15
_symmetry_space_group_name_H-M   'P 1'
_cell_length_a   13.17153100
_cell_length_b   8.96957477
_cell_length_c   3.51328900
_cell_angle_alpha   90.00000000
_cell_angle_beta   90.00000000
_cell_angle_gamma   90.30717907
_symmetry_Int_Tables_number   1
_chemical_formula_structural   Ti8SiAs15
_chemical_formula_sum   'Ti8 Si1 As15'
_cell_volume   415.06465000
_cell_formula_units_Z   1
loop_
 _symmetry_equiv_pos_site_id
 _symmetry_equiv_pos_as_xyz
  1  'x, y, z'
loop_
 _atom_site_type_symbol
 _atom_site_label
 _atom_site_symmetry_multiplicity
 _atom_site_fract_x
 _atom_site_fract_y
 _atom_site_fract_z
 _atom_site_occupancy
  Ti  Ti0  1  0.255988  0.019175  0.499999  1
  Ti  Ti1  1  0.747701  0.980883  0.499999  1
  Ti  Ti2  1  0.752816  0.482534  0.000000  1
  Ti  Ti3  1  0.243628  0.517585  0.000000  1
  Ti  Ti4  1  0.006240  0.329855  0.000000  1
  Ti  Ti5  1  0.993819  0.674781  0.000000  1
  Ti  Ti6  1  0.506384  0.172355  0.499999  1
  Ti  Ti7  1  0.493680  0.827477  0.499999  1
  Si  Si8  1  0.197617  0.225185  0.000000  1
  As  As9  1  0.803153  0.773925  0.000000  1
  As  As10  1  0.698658  0.272744  0.499999  1
  As  As11  1  0.301533  0.725752  0.499999  1
  As  As12  1  0.327201  0.323925  0.499999  1
  As  As13  1  0.660876  0.661297  0.499999  1
  As  As14  1  0.839743  0.161021  0.000000  1
  As  As15  1  0.162715  0.837536  0.000000  1
  As  As16  1  0.066396  0.124390  0.499999  1
  As  As17  1  0.945929  0.889405  0.499999  1
  As  As18  1  0.556708  0.385394  0.000000  1
  As  As19  1  0.439859  0.613822  0.000000  1
  As  As20  1  0.400113  0.012860  0.000000  1
  As  As21  1  0.599774  0.988838  0.000000  1
  As  As22  1  0.900003  0.490805  0.499999  1
  As  As23  1  0.099470  0.508459  0.499999  1
