# generated using pymatgen
data_Ho3Al3Si2Os
_symmetry_space_group_name_H-M   'P 1'
_cell_length_a   6.88099600
_cell_length_b   6.88099707
_cell_length_c   4.24730300
_cell_angle_alpha   90.00000000
_cell_angle_beta   90.00000000
_cell_angle_gamma   120.00000446
_symmetry_Int_Tables_number   1
_chemical_formula_structural   Ho3Al3Si2Os
_chemical_formula_sum   'Ho3 Al3 Si2 Os1'
_cell_volume   174.15924568
_cell_formula_units_Z   1
loop_
 _symmetry_equiv_pos_site_id
 _symmetry_equiv_pos_as_xyz
  1  'x, y, z'
loop_
 _atom_site_type_symbol
 _atom_site_label
 _atom_site_symmetry_multiplicity
 _atom_site_fract_x
 _atom_site_fract_y
 _atom_site_fract_z
 _atom_site_occupancy
  Ho  Ho0  1  0.419650  0.000000  0.000000  1
  Ho  Ho1  1  0.000000  0.419649  0.000000  1
  Ho  Ho2  1  0.580350  0.580351  0.000000  1
  Al  Al3  1  0.769941  0.000000  0.500001  1
  Al  Al4  1  0.230059  0.230059  0.500001  1
  Al  Al5  1  0.000000  0.769941  0.500001  1
  Si  Si6  1  0.666666  0.333333  0.500001  1
  Si  Si7  1  0.333333  0.666667  0.500001  1
  Os  Os8  1  0.000000  0.000000  0.000000  1
