# generated using pymatgen
data_Ca4TaCr2SbO12
_symmetry_space_group_name_H-M   'P 1'
_cell_length_a   5.46630028
_cell_length_b   5.58934852
_cell_length_c   7.79580808
_cell_angle_alpha   90.19896426
_cell_angle_beta   89.78331819
_cell_angle_gamma   90.07211848
_symmetry_Int_Tables_number   1
_chemical_formula_structural   Ca4TaCr2SbO12
_chemical_formula_sum   'Ca4 Ta1 Cr2 Sb1 O12'
_cell_volume   238.18244735
_cell_formula_units_Z   1
loop_
 _symmetry_equiv_pos_site_id
 _symmetry_equiv_pos_as_xyz
  1  'x, y, z'
loop_
 _atom_site_type_symbol
 _atom_site_label
 _atom_site_symmetry_multiplicity
 _atom_site_fract_x
 _atom_site_fract_y
 _atom_site_fract_z
 _atom_site_occupancy
  Ca  Ca0  1  0.987139  0.951788  0.249769  1
  Ca  Ca1  1  0.509965  0.452305  0.252353  1
  Ca  Ca2  1  0.490036  0.547696  0.747646  1
  Ca  Ca3  1  0.012862  0.048213  0.750232  1
  Ta  Ta4  1  0.000000  0.500000  0.500000  1
  Cr  Cr5  1  0.000000  0.500000  0.000000  1
  Cr  Cr6  1  0.500000  0.000000  0.500000  1
  Sb  Sb7  1  0.500000  0.000000  0.000000  1
  O  O8  1  0.795795  0.202921  0.048573  1
  O  O9  1  0.700515  0.707135  0.050698  1
  O  O10  1  0.406064  0.029313  0.248221  1
  O  O11  1  0.085388  0.525572  0.250986  1
  O  O12  1  0.796208  0.208707  0.454374  1
  O  O13  1  0.706408  0.705056  0.457437  1
  O  O14  1  0.293591  0.294944  0.542563  1
  O  O15  1  0.203791  0.791293  0.545625  1
  O  O16  1  0.914613  0.474426  0.749014  1
  O  O17  1  0.593937  0.970688  0.751778  1
  O  O18  1  0.299486  0.292864  0.949303  1
  O  O19  1  0.204204  0.797079  0.951426  1
