# generated using pymatgen
data_NdAl10ReIr
_symmetry_space_group_name_H-M   'P 1'
_cell_length_a   6.91514757
_cell_length_b   6.91496796
_cell_length_c   9.24447500
_cell_angle_alpha   90.00000000
_cell_angle_beta   90.00000000
_cell_angle_gamma   96.43342805
_symmetry_Int_Tables_number   1
_chemical_formula_structural   NdAl10ReIr
_chemical_formula_sum   'Nd2 Al20 Re2 Ir2'
_cell_volume   439.26879559
_cell_formula_units_Z   2
loop_
 _symmetry_equiv_pos_site_id
 _symmetry_equiv_pos_as_xyz
  1  'x, y, z'
loop_
 _atom_site_type_symbol
 _atom_site_label
 _atom_site_symmetry_multiplicity
 _atom_site_fract_x
 _atom_site_fract_y
 _atom_site_fract_z
 _atom_site_occupancy
  Nd  Nd0  1  0.878931  0.132059  0.750000  1
  Nd  Nd1  1  0.121069  0.867941  0.250000  1
  Al  Al2  1  0.623879  0.380394  0.548368  1
  Al  Al3  1  0.376121  0.619606  0.451632  1
  Al  Al4  1  0.376121  0.619606  0.048368  1
  Al  Al5  1  0.623879  0.380394  0.951632  1
  Al  Al6  1  0.224255  0.225373  0.501060  1
  Al  Al7  1  0.775745  0.774627  0.498940  1
  Al  Al8  1  0.775745  0.774627  0.001060  1
  Al  Al9  1  0.224255  0.225373  0.998940  1
  Al  Al10  1  0.840045  0.159875  0.102068  1
  Al  Al11  1  0.159955  0.840125  0.897932  1
  Al  Al12  1  0.159955  0.840125  0.602068  1
  Al  Al13  1  0.840045  0.159875  0.397932  1
  Al  Al14  1  0.858029  0.590187  0.750000  1
  Al  Al15  1  0.141971  0.409813  0.250000  1
  Al  Al16  1  0.408812  0.141442  0.750000  1
  Al  Al17  1  0.591188  0.858558  0.250000  1
  Al  Al18  1  0.219469  0.482727  0.750000  1
  Al  Al19  1  0.780531  0.517273  0.250000  1
  Al  Al20  1  0.518299  0.778837  0.750000  1
  Al  Al21  1  0.481701  0.221163  0.250000  1
  Re  Re22  1  0.000000  0.500000  0.500000  1
  Re  Re23  1  0.000000  0.500000  0.000000  1
  Ir  Ir24  1  0.500000  0.000000  0.000000  1
  Ir  Ir25  1  0.500000  0.000000  0.500000  1
