# generated using pymatgen
data_Ce3Al2GaNi3
_symmetry_space_group_name_H-M   'P 1'
_cell_length_a   6.92605600
_cell_length_b   6.89855941
_cell_length_c   4.03947700
_cell_angle_alpha   90.00000000
_cell_angle_beta   90.00000000
_cell_angle_gamma   120.13193851
_symmetry_Int_Tables_number   1
_chemical_formula_structural   Ce3Al2GaNi3
_chemical_formula_sum   'Ce3 Al2 Ga1 Ni3'
_cell_volume   166.92494733
_cell_formula_units_Z   1
loop_
 _symmetry_equiv_pos_site_id
 _symmetry_equiv_pos_as_xyz
  1  'x, y, z'
loop_
 _atom_site_type_symbol
 _atom_site_label
 _atom_site_symmetry_multiplicity
 _atom_site_fract_x
 _atom_site_fract_y
 _atom_site_fract_z
 _atom_site_occupancy
  Ce  Ce0  1  0.000917  0.578910  0.500000  1
  Ce  Ce1  1  0.573104  0.000000  0.500000  1
  Ce  Ce2  1  0.422007  0.421090  0.500000  1
  Al  Al3  1  0.767868  0.768074  0.000000  1
  Al  Al4  1  0.999794  0.231926  0.000000  1
  Ga  Ga5  1  0.235416  0.000000  0.000000  1
  Ni  Ni6  1  0.334959  0.664787  0.000000  1
  Ni  Ni7  1  0.670173  0.335213  0.000000  1
  Ni  Ni8  1  0.995763  0.000000  0.500000  1
