# generated using pymatgen
data_TbTh3(Al3Rh)6
_symmetry_space_group_name_H-M   'P 1'
_cell_length_a   7.64694376
_cell_length_b   7.65191901
_cell_length_c   9.53730600
_cell_angle_alpha   90.00000000
_cell_angle_beta   90.00000000
_cell_angle_gamma   119.46940645
_symmetry_Int_Tables_number   1
_chemical_formula_structural   TbTh3(Al3Rh)6
_chemical_formula_sum   'Tb1 Th3 Al18 Rh6'
_cell_volume   485.86081190
_cell_formula_units_Z   1
loop_
 _symmetry_equiv_pos_site_id
 _symmetry_equiv_pos_as_xyz
  1  'x, y, z'
loop_
 _atom_site_type_symbol
 _atom_site_label
 _atom_site_symmetry_multiplicity
 _atom_site_fract_x
 _atom_site_fract_y
 _atom_site_fract_z
 _atom_site_occupancy
  Tb  Tb0  1  0.328574  0.005936  0.750000  1
  Th  Th1  1  0.994751  0.671416  0.250000  1
  Th  Th2  1  0.004529  0.328991  0.750000  1
  Th  Th3  1  0.670548  0.994390  0.250000  1
  Al  Al4  1  0.134671  0.132748  0.250000  1
  Al  Al5  1  0.870449  0.869399  0.750000  1
  Al  Al6  1  0.005683  0.335725  0.074104  1
  Al  Al7  1  0.999905  0.669082  0.923046  1
  Al  Al8  1  0.999905  0.669082  0.576954  1
  Al  Al9  1  0.335216  0.004335  0.430695  1
  Al  Al10  1  0.005683  0.335725  0.425896  1
  Al  Al11  1  0.660022  0.995234  0.576997  1
  Al  Al12  1  0.660022  0.995234  0.923003  1
  Al  Al13  1  0.335216  0.004335  0.069305  1
  Al  Al14  1  0.336271  0.333054  0.550986  1
  Al  Al15  1  0.663305  0.663298  0.455492  1
  Al  Al16  1  0.663305  0.663298  0.044508  1
  Al  Al17  1  0.336271  0.333054  0.949014  1
  Al  Al18  1  0.341523  0.545249  0.250000  1
  Al  Al19  1  0.656932  0.450182  0.750000  1
  Al  Al20  1  0.544888  0.339459  0.250000  1
  Al  Al21  1  0.452800  0.661444  0.750000  1
  Rh  Rh22  1  0.673759  0.328196  0.000340  1
  Rh  Rh23  1  0.327251  0.671588  0.000304  1
  Rh  Rh24  1  0.327251  0.671588  0.499696  1
  Rh  Rh25  1  0.673759  0.328196  0.499660  1
  Rh  Rh26  1  0.998755  0.999881  0.000367  1
  Rh  Rh27  1  0.998755  0.999881  0.499633  1
