# generated using pymatgen
data_NiTe5
_symmetry_space_group_name_H-M   'P 1'
_cell_length_a   4.06471800
_cell_length_b   5.15256517
_cell_length_c   8.13536610
_cell_angle_alpha   89.65836162
_cell_angle_beta   90.00000000
_cell_angle_gamma   90.00000000
_symmetry_Int_Tables_number   1
_chemical_formula_structural   NiTe5
_chemical_formula_sum   'Ni1 Te5'
_cell_volume   170.38183654
_cell_formula_units_Z   1
loop_
 _symmetry_equiv_pos_site_id
 _symmetry_equiv_pos_as_xyz
  1  'x, y, z'
loop_
 _atom_site_type_symbol
 _atom_site_label
 _atom_site_symmetry_multiplicity
 _atom_site_fract_x
 _atom_site_fract_y
 _atom_site_fract_z
 _atom_site_occupancy
  Ni  Ni0  1  0.500000  0.000000  0.500000  1
  Te  Te1  1  0.500000  0.261730  0.225168  1
  Te  Te2  1  0.000000  0.279761  0.610190  1
  Te  Te3  1  0.500000  0.738270  0.774832  1
  Te  Te4  1  0.000000  0.720239  0.389810  1
  Te  Te5  1  0.000000  0.000000  0.000000  1
