# generated using pymatgen
data_LaBi(IO4)2
_symmetry_space_group_name_H-M   'P 1'
_cell_length_a   5.72445866
_cell_length_b   5.79446000
_cell_length_c   11.20674400
_cell_angle_alpha   90.00000000
_cell_angle_beta   89.28265033
_cell_angle_gamma   90.00000000
_symmetry_Int_Tables_number   1
_chemical_formula_structural   LaBi(IO4)2
_chemical_formula_sum   'La2 Bi2 I4 O16'
_cell_volume   371.70020816
_cell_formula_units_Z   2
loop_
 _symmetry_equiv_pos_site_id
 _symmetry_equiv_pos_as_xyz
  1  'x, y, z'
loop_
 _atom_site_type_symbol
 _atom_site_label
 _atom_site_symmetry_multiplicity
 _atom_site_fract_x
 _atom_site_fract_y
 _atom_site_fract_z
 _atom_site_occupancy
  La  La0  1  0.500665  0.311693  0.880830  1
  La  La1  1  0.499335  0.811693  0.119170  1
  Bi  Bi2  1  0.013234  0.812941  0.900884  1
  Bi  Bi3  1  0.986766  0.312941  0.099116  1
  I  I4  1  0.003882  0.331089  0.633763  1
  I  I5  1  0.996118  0.831089  0.366237  1
  I  I6  1  0.496386  0.826156  0.634199  1
  I  I7  1  0.503614  0.326156  0.365801  1
  O  O8  1  0.239167  0.064412  0.005653  1
  O  O9  1  0.760833  0.564412  0.994347  1
  O  O10  1  0.249345  0.568529  0.003065  1
  O  O11  1  0.750655  0.068529  0.996935  1
  O  O12  1  0.131147  0.419160  0.777167  1
  O  O13  1  0.868853  0.919160  0.222833  1
  O  O14  1  0.378983  0.930133  0.778979  1
  O  O15  1  0.621017  0.430133  0.221021  1
  O  O16  1  0.828847  0.100116  0.708626  1
  O  O17  1  0.171153  0.600116  0.291374  1
  O  O18  1  0.644453  0.577698  0.707243  1
  O  O19  1  0.355547  0.077698  0.292757  1
  O  O20  1  0.245245  0.163515  0.564073  1
  O  O21  1  0.754755  0.663515  0.435927  1
  O  O22  1  0.248029  0.671380  0.567535  1
  O  O23  1  0.751971  0.171380  0.432465  1
