# generated using pymatgen
data_Tb7Dy(Si4W3)4
_symmetry_space_group_name_H-M   'P 1'
_cell_length_a   6.80294280
_cell_length_b   6.96030176
_cell_length_c   12.94213680
_cell_angle_alpha   90.00337404
_cell_angle_beta   89.99124086
_cell_angle_gamma   90.01802832
_symmetry_Int_Tables_number   1
_chemical_formula_structural   Tb7Dy(Si4W3)4
_chemical_formula_sum   'Tb7 Dy1 Si16 W12'
_cell_volume   612.81705965
_cell_formula_units_Z   1
loop_
 _symmetry_equiv_pos_site_id
 _symmetry_equiv_pos_as_xyz
  1  'x, y, z'
loop_
 _atom_site_type_symbol
 _atom_site_label
 _atom_site_symmetry_multiplicity
 _atom_site_fract_x
 _atom_site_fract_y
 _atom_site_fract_z
 _atom_site_occupancy
  Tb  Tb0  1  0.495722  0.667171  0.593466  1
  Tb  Tb1  1  0.995991  0.832902  0.906578  1
  Tb  Tb2  1  0.504399  0.332809  0.093582  1
  Tb  Tb3  1  0.004039  0.167392  0.406730  1
  Tb  Tb4  1  0.504045  0.332822  0.406768  1
  Tb  Tb5  1  0.004136  0.167331  0.093543  1
  Tb  Tb6  1  0.495756  0.667183  0.906275  1
  Dy  Dy7  1  0.995448  0.832286  0.593429  1
  Si  Si8  1  0.661072  0.957055  0.453071  1
  Si  Si9  1  0.161094  0.543045  0.047269  1
  Si  Si10  1  0.339520  0.043191  0.952521  1
  Si  Si11  1  0.839098  0.457173  0.547293  1
  Si  Si12  1  0.338275  0.042514  0.547241  1
  Si  Si13  1  0.839134  0.457007  0.952638  1
  Si  Si14  1  0.660824  0.956765  0.047342  1
  Si  Si15  1  0.160890  0.543432  0.452970  1
  Si  Si16  1  0.463561  0.368898  0.749981  1
  Si  Si17  1  0.963896  0.130062  0.749488  1
  Si  Si18  1  0.536483  0.630976  0.250076  1
  Si  Si19  1  0.036370  0.869582  0.250157  1
  Si  Si20  1  0.696781  0.867798  0.749760  1
  Si  Si21  1  0.195817  0.632077  0.749614  1
  Si  Si22  1  0.303651  0.132182  0.250124  1
  Si  Si23  1  0.803645  0.368449  0.250278  1
  W  W24  1  0.667740  0.163026  0.625836  1
  W  W25  1  0.167458  0.336351  0.873889  1
  W  W26  1  0.332158  0.836892  0.125754  1
  W  W27  1  0.832254  0.663730  0.374517  1
  W  W28  1  0.332140  0.836714  0.374215  1
  W  W29  1  0.832539  0.663569  0.126009  1
  W  W30  1  0.668369  0.163131  0.874139  1
  W  W31  1  0.167847  0.336657  0.625637  1
  W  W32  1  0.833938  0.498340  0.749758  1
  W  W33  1  0.333786  0.001071  0.749636  1
  W  W34  1  0.166083  0.501826  0.250136  1
  W  W35  1  0.666044  0.998586  0.250281  1
