# generated using pymatgen
data_U2Ta3Si7Pt9
_symmetry_space_group_name_H-M   'P 1'
_cell_length_a   9.88237000
_cell_length_b   9.88237096
_cell_length_c   4.02103300
_cell_angle_alpha   90.00000000
_cell_angle_beta   90.00000000
_cell_angle_gamma   120.00000348
_symmetry_Int_Tables_number   1
_chemical_formula_structural   U2Ta3Si7Pt9
_chemical_formula_sum   'U2 Ta3 Si7 Pt9'
_cell_volume   340.08737967
_cell_formula_units_Z   1
loop_
 _symmetry_equiv_pos_site_id
 _symmetry_equiv_pos_as_xyz
  1  'x, y, z'
loop_
 _atom_site_type_symbol
 _atom_site_label
 _atom_site_symmetry_multiplicity
 _atom_site_fract_x
 _atom_site_fract_y
 _atom_site_fract_z
 _atom_site_occupancy
  U  U0  1  0.000000  0.000000  0.000000  1
  U  U1  1  0.333333  0.666667  0.500000  1
  Ta  Ta2  1  0.879138  0.453839  0.500000  1
  Ta  Ta3  1  0.574702  0.120862  0.500000  1
  Ta  Ta4  1  0.546161  0.425298  0.500000  1
  Si  Si5  1  0.255109  0.210699  0.500000  1
  Si  Si6  1  0.789301  0.044411  0.500000  1
  Si  Si7  1  0.955589  0.744891  0.500000  1
  Si  Si8  1  0.554241  0.636551  0.000000  1
  Si  Si9  1  0.363449  0.917687  0.000000  1
  Si  Si10  1  0.082313  0.445759  0.000000  1
  Si  Si11  1  0.666667  0.333333  0.000000  1
  Pt  Pt12  1  0.227938  0.943194  0.500000  1
  Pt  Pt13  1  0.056806  0.284745  0.500000  1
  Pt  Pt14  1  0.715255  0.772062  0.500000  1
  Pt  Pt15  1  0.306536  0.406973  0.000000  1
  Pt  Pt16  1  0.593027  0.899564  0.000000  1
  Pt  Pt17  1  0.100436  0.693464  0.000000  1
  Pt  Pt18  1  0.388056  0.175563  0.000000  1
  Pt  Pt19  1  0.824437  0.212492  0.000000  1
  Pt  Pt20  1  0.787508  0.611944  0.000000  1
