# generated using pymatgen
data_Tm3Th(Sc3Sn4)2
_symmetry_space_group_name_H-M   'P 1'
_cell_length_a   7.72465149
_cell_length_b   7.93721580
_cell_length_c   14.82767766
_cell_angle_alpha   90.14388016
_cell_angle_beta   89.99958379
_cell_angle_gamma   90.04133368
_symmetry_Int_Tables_number   1
_chemical_formula_structural   Tm3Th(Sc3Sn4)2
_chemical_formula_sum   'Tm6 Th2 Sc12 Sn16'
_cell_volume   909.11481867
_cell_formula_units_Z   2
loop_
 _symmetry_equiv_pos_site_id
 _symmetry_equiv_pos_as_xyz
  1  'x, y, z'
loop_
 _atom_site_type_symbol
 _atom_site_label
 _atom_site_symmetry_multiplicity
 _atom_site_fract_x
 _atom_site_fract_y
 _atom_site_fract_z
 _atom_site_occupancy
  Tm  Tm0  1  0.509288  0.678258  0.905350  1
  Tm  Tm1  1  0.008351  0.821837  0.594611  1
  Tm  Tm2  1  0.490712  0.321742  0.094650  1
  Tm  Tm3  1  0.991649  0.178163  0.405389  1
  Tm  Tm4  1  0.493293  0.322700  0.408819  1
  Tm  Tm5  1  0.506707  0.677300  0.591181  1
  Th  Th6  1  0.993737  0.174642  0.092601  1
  Th  Th7  1  0.006263  0.825358  0.907399  1
  Sc  Sc8  1  0.166131  0.497507  0.749728  1
  Sc  Sc9  1  0.833869  0.502493  0.250272  1
  Sc  Sc10  1  0.332555  0.995664  0.250339  1
  Sc  Sc11  1  0.667445  0.004336  0.749661  1
  Sc  Sc12  1  0.338495  0.160230  0.626918  1
  Sc  Sc13  1  0.661505  0.839770  0.373082  1
  Sc  Sc14  1  0.161058  0.661026  0.373483  1
  Sc  Sc15  1  0.662836  0.839918  0.128288  1
  Sc  Sc16  1  0.838942  0.338974  0.626517  1
  Sc  Sc17  1  0.337164  0.160082  0.871712  1
  Sc  Sc18  1  0.839712  0.341317  0.872571  1
  Sc  Sc19  1  0.160288  0.658683  0.127429  1
  Sn  Sn20  1  0.030383  0.125503  0.748964  1
  Sn  Sn21  1  0.969617  0.874497  0.251036  1
  Sn  Sn22  1  0.471083  0.623567  0.250625  1
  Sn  Sn23  1  0.528917  0.376433  0.749375  1
  Sn  Sn24  1  0.314486  0.847174  0.747760  1
  Sn  Sn25  1  0.685514  0.152826  0.252240  1
  Sn  Sn26  1  0.195377  0.350688  0.253692  1
  Sn  Sn27  1  0.804623  0.649312  0.746308  1
  Sn  Sn28  1  0.183421  0.457249  0.542821  1
  Sn  Sn29  1  0.816579  0.542751  0.457179  1
  Sn  Sn30  1  0.315290  0.959196  0.456997  1
  Sn  Sn31  1  0.810097  0.542783  0.042956  1
  Sn  Sn32  1  0.684710  0.040804  0.543003  1
  Sn  Sn33  1  0.189903  0.457217  0.957044  1
  Sn  Sn34  1  0.674753  0.046704  0.957155  1
  Sn  Sn35  1  0.325247  0.953296  0.042845  1
