# generated using pymatgen
data_Er7U(Nb3Si4)4
_symmetry_space_group_name_H-M   'P 1'
_cell_length_a   7.02786335
_cell_length_b   7.03332077
_cell_length_c   12.99093604
_cell_angle_alpha   89.98240557
_cell_angle_beta   89.89301916
_cell_angle_gamma   90.00897606
_symmetry_Int_Tables_number   1
_chemical_formula_structural   Er7U(Nb3Si4)4
_chemical_formula_sum   'Er7 U1 Nb12 Si16'
_cell_volume   642.13064293
_cell_formula_units_Z   1
loop_
 _symmetry_equiv_pos_site_id
 _symmetry_equiv_pos_as_xyz
  1  'x, y, z'
loop_
 _atom_site_type_symbol
 _atom_site_label
 _atom_site_symmetry_multiplicity
 _atom_site_fract_x
 _atom_site_fract_y
 _atom_site_fract_z
 _atom_site_occupancy
  Er  Er0  1  0.997403  0.339374  0.217842  1
  Er  Er1  1  0.001037  0.659606  0.717217  1
  Er  Er2  1  0.159831  0.499975  0.467758  1
  Er  Er3  1  0.500646  0.840835  0.031965  1
  Er  Er4  1  0.841508  0.501416  0.967308  1
  Er  Er5  1  0.499469  0.158946  0.532418  1
  Er  Er6  1  0.341175  0.997821  0.782401  1
  U  U7  1  0.659680  0.999552  0.283666  1
  Nb  Nb8  1  0.170755  0.170899  0.999514  1
  Nb  Nb9  1  0.827517  0.831848  0.498101  1
  Nb  Nb10  1  0.333167  0.673979  0.250787  1
  Nb  Nb11  1  0.671484  0.329722  0.749914  1
  Nb  Nb12  1  0.151999  0.992788  0.375677  1
  Nb  Nb13  1  0.847147  0.006141  0.876086  1
  Nb  Nb14  1  0.506365  0.652956  0.625647  1
  Nb  Nb15  1  0.346736  0.493185  0.874251  1
  Nb  Nb16  1  0.495357  0.343792  0.126861  1
  Nb  Nb17  1  0.652421  0.504053  0.373997  1
  Nb  Nb18  1  0.992736  0.154386  0.624255  1
  Nb  Nb19  1  0.003247  0.849449  0.125509  1
  Si  Si20  1  0.294789  0.043872  0.185209  1
  Si  Si21  1  0.705603  0.955102  0.686623  1
  Si  Si22  1  0.455210  0.795244  0.437328  1
  Si  Si23  1  0.205958  0.545327  0.064035  1
  Si  Si24  1  0.544640  0.205555  0.936206  1
  Si  Si25  1  0.795628  0.456990  0.562937  1
  Si  Si26  1  0.044683  0.295634  0.813096  1
  Si  Si27  1  0.955312  0.703382  0.313494  1
  Si  Si28  1  0.367210  0.292030  0.318149  1
  Si  Si29  1  0.634329  0.703789  0.817765  1
  Si  Si30  1  0.204610  0.867033  0.568221  1
  Si  Si31  1  0.132958  0.795248  0.932219  1
  Si  Si32  1  0.793606  0.132981  0.068308  1
  Si  Si33  1  0.866625  0.206954  0.431823  1
  Si  Si34  1  0.295125  0.366402  0.681873  1
  Si  Si35  1  0.704032  0.633733  0.181541  1
