# generated using pymatgen
data_Tb4YbHfH18
_symmetry_space_group_name_H-M   'P 1'
_cell_length_a   6.24624474
_cell_length_b   6.24842033
_cell_length_c   6.52414400
_cell_angle_alpha   89.91859189
_cell_angle_beta   89.84882231
_cell_angle_gamma   119.72072205
_symmetry_Int_Tables_number   1
_chemical_formula_structural   Tb4YbHfH18
_chemical_formula_sum   'Tb4 Yb1 Hf1 H18'
_cell_volume   221.13376912
_cell_formula_units_Z   1
loop_
 _symmetry_equiv_pos_site_id
 _symmetry_equiv_pos_as_xyz
  1  'x, y, z'
loop_
 _atom_site_type_symbol
 _atom_site_label
 _atom_site_symmetry_multiplicity
 _atom_site_fract_x
 _atom_site_fract_y
 _atom_site_fract_z
 _atom_site_occupancy
  Tb  Tb0  1  0.003764  0.331505  0.751705  1
  Tb  Tb1  1  0.332271  0.329386  0.255113  1
  Tb  Tb2  1  0.666582  0.998083  0.247839  1
  Tb  Tb3  1  0.999365  0.671341  0.249767  1
  Yb  Yb4  1  0.332652  0.002439  0.751129  1
  Hf  Hf5  1  0.679935  0.680154  0.752909  1
  H  H6  1  0.291928  0.303211  0.589493  1
  H  H7  1  0.713763  0.977145  0.596488  1
  H  H8  1  0.970936  0.700178  0.598025  1
  H  H9  1  0.693475  0.691067  0.079078  1
  H  H10  1  0.309931  0.003389  0.094267  1
  H  H11  1  0.001508  0.305138  0.091992  1
  H  H12  1  0.380141  0.393218  0.901619  1
  H  H13  1  0.652744  0.975722  0.901936  1
  H  H14  1  0.973382  0.637716  0.904696  1
  H  H15  1  0.643007  0.641688  0.427877  1
  H  H16  1  0.355026  0.998465  0.407146  1
  H  H17  1  0.989929  0.353032  0.409919  1
  H  H18  1  0.979200  0.980263  0.823493  1
  H  H19  1  0.999823  0.001324  0.314081  1
  H  H20  1  0.359669  0.667325  0.699320  1
  H  H21  1  0.671737  0.359917  0.704223  1
  H  H22  1  0.667943  0.333293  0.200686  1
  H  H23  1  0.331289  0.665003  0.203214  1
