# generated using pymatgen
data_Tb5Dy2Er13Pb16
_symmetry_space_group_name_H-M   'P 1'
_cell_length_a   8.18219081
_cell_length_b   8.25655745
_cell_length_c   15.58392123
_cell_angle_alpha   90.00593366
_cell_angle_beta   90.04706967
_cell_angle_gamma   89.97668320
_symmetry_Int_Tables_number   1
_chemical_formula_structural   Tb5Dy2Er13Pb16
_chemical_formula_sum   'Tb5 Dy2 Er13 Pb16'
_cell_volume   1052.79828795
_cell_formula_units_Z   1
loop_
 _symmetry_equiv_pos_site_id
 _symmetry_equiv_pos_as_xyz
  1  'x, y, z'
loop_
 _atom_site_type_symbol
 _atom_site_label
 _atom_site_symmetry_multiplicity
 _atom_site_fract_x
 _atom_site_fract_y
 _atom_site_fract_z
 _atom_site_occupancy
  Tb  Tb0  1  0.036406  0.176826  0.600043  1
  Tb  Tb1  1  0.463585  0.676738  0.400018  1
  Tb  Tb2  1  0.963471  0.823333  0.100001  1
  Tb  Tb3  1  0.463511  0.676682  0.099952  1
  Tb  Tb4  1  0.963580  0.823240  0.400000  1
  Dy  Dy5  1  0.536458  0.323317  0.599970  1
  Dy  Dy6  1  0.036535  0.176788  0.899950  1
  Er  Er7  1  0.376509  0.841447  0.878950  1
  Er  Er8  1  0.876412  0.658582  0.621077  1
  Er  Er9  1  0.623542  0.158721  0.379063  1
  Er  Er10  1  0.123378  0.341168  0.120919  1
  Er  Er11  1  0.623391  0.158836  0.120805  1
  Er  Er12  1  0.123550  0.341254  0.379022  1
  Er  Er13  1  0.376487  0.841408  0.621095  1
  Er  Er14  1  0.876426  0.658514  0.878950  1
  Er  Er15  1  0.536739  0.323582  0.899925  1
  Er  Er16  1  0.208415  0.504456  0.750134  1
  Er  Er17  1  0.708121  0.995447  0.750106  1
  Er  Er18  1  0.791735  0.495275  0.249945  1
  Er  Er19  1  0.291775  0.004719  0.249962  1
  Pb  Pb20  1  0.281641  0.033471  0.042841  1
  Pb  Pb21  1  0.781736  0.466440  0.457197  1
  Pb  Pb22  1  0.718069  0.966582  0.542924  1
  Pb  Pb23  1  0.218835  0.532799  0.956963  1
  Pb  Pb24  1  0.717942  0.967035  0.957007  1
  Pb  Pb25  1  0.218256  0.533438  0.542927  1
  Pb  Pb26  1  0.281862  0.033483  0.457145  1
  Pb  Pb27  1  0.781384  0.466126  0.042515  1
  Pb  Pb28  1  0.571181  0.626846  0.750008  1
  Pb  Pb29  1  0.071235  0.872892  0.750024  1
  Pb  Pb30  1  0.428777  0.372848  0.249989  1
  Pb  Pb31  1  0.928769  0.127211  0.250026  1
  Pb  Pb32  1  0.347862  0.153929  0.750372  1
  Pb  Pb33  1  0.847195  0.346627  0.750190  1
  Pb  Pb34  1  0.652622  0.846728  0.249985  1
  Pb  Pb35  1  0.152608  0.653213  0.249999  1
