# generated using pymatgen
data_Dy5GaTcTe2
_symmetry_space_group_name_H-M   'P 1'
_cell_length_a   8.81924840
_cell_length_b   8.81924991
_cell_length_c   7.89453400
_cell_angle_alpha   88.90131284
_cell_angle_beta   88.90131266
_cell_angle_gamma   126.67234854
_symmetry_Int_Tables_number   1
_chemical_formula_structural   Dy5GaTcTe2
_chemical_formula_sum   'Dy10 Ga2 Tc2 Te4'
_cell_volume   492.04171296
_cell_formula_units_Z   2
loop_
 _symmetry_equiv_pos_site_id
 _symmetry_equiv_pos_as_xyz
  1  'x, y, z'
loop_
 _atom_site_type_symbol
 _atom_site_label
 _atom_site_symmetry_multiplicity
 _atom_site_fract_x
 _atom_site_fract_y
 _atom_site_fract_z
 _atom_site_occupancy
  Dy  Dy0  1  0.000000  0.000000  0.000000  1
  Dy  Dy1  1  0.500000  0.500000  0.500000  1
  Dy  Dy2  1  0.782867  0.536212  0.159210  1
  Dy  Dy3  1  0.463788  0.217133  0.840790  1
  Dy  Dy4  1  0.936890  0.695997  0.682222  1
  Dy  Dy5  1  0.304003  0.063110  0.317778  1
  Dy  Dy6  1  0.217133  0.463788  0.840790  1
  Dy  Dy7  1  0.536212  0.782867  0.159210  1
  Dy  Dy8  1  0.063110  0.304003  0.317778  1
  Dy  Dy9  1  0.695997  0.936890  0.682222  1
  Ga  Ga10  1  0.874113  0.874113  0.375604  1
  Ga  Ga11  1  0.125887  0.125887  0.624396  1
  Tc  Tc12  1  0.617378  0.617378  0.885574  1
  Tc  Tc13  1  0.382622  0.382622  0.114426  1
  Te  Te14  1  0.206351  0.793649  0.000000  1
  Te  Te15  1  0.710553  0.289447  0.500000  1
  Te  Te16  1  0.793649  0.206351  0.000000  1
  Te  Te17  1  0.289447  0.710553  0.500000  1
