# generated using pymatgen
data_Tm6Zn20Ni3P
_symmetry_space_group_name_H-M   'P 1'
_cell_length_a   8.92615651
_cell_length_b   8.92615634
_cell_length_c   8.89048100
_cell_angle_alpha   59.64422171
_cell_angle_beta   59.64422236
_cell_angle_gamma   59.63443500
_symmetry_Int_Tables_number   1
_chemical_formula_structural   Tm6Zn20Ni3P
_chemical_formula_sum   'Tm6 Zn20 Ni3 P1'
_cell_volume   496.79990537
_cell_formula_units_Z   1
loop_
 _symmetry_equiv_pos_site_id
 _symmetry_equiv_pos_as_xyz
  1  'x, y, z'
loop_
 _atom_site_type_symbol
 _atom_site_label
 _atom_site_symmetry_multiplicity
 _atom_site_fract_x
 _atom_site_fract_y
 _atom_site_fract_z
 _atom_site_occupancy
  Tm  Tm0  1  0.711935  0.284772  0.287937  1
  Tm  Tm1  1  0.288065  0.715228  0.712063  1
  Tm  Tm2  1  0.284772  0.711935  0.287937  1
  Tm  Tm3  1  0.715228  0.288065  0.712063  1
  Tm  Tm4  1  0.289227  0.289227  0.706739  1
  Tm  Tm5  1  0.710773  0.710773  0.293261  1
  Zn  Zn6  1  0.118061  0.118061  0.117643  1
  Zn  Zn7  1  0.881939  0.881939  0.882357  1
  Zn  Zn8  1  0.124102  0.124102  0.640181  1
  Zn  Zn9  1  0.114016  0.642371  0.129569  1
  Zn  Zn10  1  0.875898  0.875898  0.359819  1
  Zn  Zn11  1  0.885984  0.357629  0.870431  1
  Zn  Zn12  1  0.642371  0.114016  0.129569  1
  Zn  Zn13  1  0.357629  0.885984  0.870431  1
  Zn  Zn14  1  0.500000  0.000000  0.000000  1
  Zn  Zn15  1  0.000000  0.500000  0.000000  1
  Zn  Zn16  1  0.000000  0.000000  0.500000  1
  Zn  Zn17  1  0.500000  0.500000  0.000000  1
  Zn  Zn18  1  0.325303  0.325303  0.336019  1
  Zn  Zn19  1  0.674697  0.674697  0.663981  1
  Zn  Zn20  1  0.330295  0.330295  0.009280  1
  Zn  Zn21  1  0.333561  0.011626  0.334557  1
  Zn  Zn22  1  0.669705  0.669705  0.990720  1
  Zn  Zn23  1  0.666439  0.988374  0.665443  1
  Zn  Zn24  1  0.011626  0.333561  0.334557  1
  Zn  Zn25  1  0.988374  0.666439  0.665443  1
  Ni  Ni26  1  0.000000  0.500000  0.500000  1
  Ni  Ni27  1  0.500000  0.000000  0.500000  1
  Ni  Ni28  1  0.000000  0.000000  0.000000  1
  P  P29  1  0.500000  0.500000  0.500000  1
