# generated using pymatgen
data_Hf8Co2Rh2N
_symmetry_space_group_name_H-M   'P 1'
_cell_length_a   8.60053808
_cell_length_b   8.60053986
_cell_length_c   8.60054000
_cell_angle_alpha   120.14571091
_cell_angle_beta   119.82074189
_cell_angle_gamma   90.02928074
_symmetry_Int_Tables_number   1
_chemical_formula_structural   Hf8Co2Rh2N
_chemical_formula_sum   'Hf16 Co4 Rh4 N2'
_cell_volume   449.95361509
_cell_formula_units_Z   2
loop_
 _symmetry_equiv_pos_site_id
 _symmetry_equiv_pos_as_xyz
  1  'x, y, z'
loop_
 _atom_site_type_symbol
 _atom_site_label
 _atom_site_symmetry_multiplicity
 _atom_site_fract_x
 _atom_site_fract_y
 _atom_site_fract_z
 _atom_site_occupancy
  Hf  Hf0  1  0.940845  0.190932  0.749900  1
  Hf  Hf1  1  0.317036  0.567006  0.749998  1
  Hf  Hf2  1  0.936636  0.565192  0.755028  1
  Hf  Hf3  1  0.310188  0.181564  0.744844  1
  Hf  Hf4  1  0.936639  0.181587  0.371421  1
  Hf  Hf5  1  0.310188  0.565318  0.128603  1
  Hf  Hf6  1  0.058374  0.808359  0.250013  1
  Hf  Hf7  1  0.687694  0.437675  0.249972  1
  Hf  Hf8  1  0.060656  0.437874  0.246386  1
  Hf  Hf9  1  0.691533  0.814236  0.253611  1
  Hf  Hf10  1  0.060654  0.814253  0.622738  1
  Hf  Hf11  1  0.691508  0.437881  0.877257  1
  Hf  Hf12  1  0.484703  0.015508  0.031079  1
  Hf  Hf13  1  0.484744  0.453739  0.469277  1
  Hf  Hf14  1  0.484442  0.015844  0.468603  1
  Hf  Hf15  1  0.047061  0.015695  0.031373  1
  Co  Co16  1  0.272909  0.231902  0.458964  1
  Co  Co17  1  0.272888  0.813926  0.041015  1
  Co  Co18  1  0.276282  0.229595  0.046713  1
  Co  Co19  1  0.682689  0.229495  0.453214  1
  Rh  Rh20  1  0.708266  0.784878  0.576581  1
  Rh  Rh21  1  0.708274  0.131678  0.923419  1
  Rh  Rh22  1  0.705697  0.789342  0.916393  1
  Rh  Rh23  1  0.372948  0.789322  0.583626  1
  N  N24  1  0.998558  0.499616  0.001010  1
  N  N25  1  0.998590  0.997583  0.498960  1
