# generated using pymatgen
data_TbHoEr4(RuI3)2
_symmetry_space_group_name_H-M   'P 1'
_cell_length_a   4.19702900
_cell_length_b   8.85889046
_cell_length_c   12.31025600
_cell_angle_alpha   94.10162286
_cell_angle_beta   90.00000000
_cell_angle_gamma   90.00000000
_symmetry_Int_Tables_number   1
_chemical_formula_structural   TbHoEr4(RuI3)2
_chemical_formula_sum   'Tb1 Ho1 Er4 Ru2 I6'
_cell_volume   456.53557564
_cell_formula_units_Z   1
loop_
 _symmetry_equiv_pos_site_id
 _symmetry_equiv_pos_as_xyz
  1  'x, y, z'
loop_
 _atom_site_type_symbol
 _atom_site_label
 _atom_site_symmetry_multiplicity
 _atom_site_fract_x
 _atom_site_fract_y
 _atom_site_fract_z
 _atom_site_occupancy
  Tb  Tb0  1  0.750000  0.264288  0.602802  1
  Ho  Ho1  1  0.250000  0.740048  0.397452  1
  Er  Er2  1  0.750000  0.871900  0.625570  1
  Er  Er3  1  0.250000  0.128405  0.373540  1
  Er  Er4  1  0.750000  0.896982  0.187537  1
  Er  Er5  1  0.250000  0.100845  0.812808  1
  Ru  Ru6  1  0.750000  0.945683  0.407771  1
  Ru  Ru7  1  0.250000  0.054710  0.591897  1
  I  I8  1  0.750000  0.424622  0.366113  1
  I  I9  1  0.250000  0.577231  0.633363  1
  I  I10  1  0.750000  0.861694  0.890035  1
  I  I11  1  0.250000  0.135724  0.109451  1
  I  I12  1  0.750000  0.353454  0.865306  1
  I  I13  1  0.250000  0.644412  0.136356  1
