# generated using pymatgen
data_La10Cd4PdRu5
_symmetry_space_group_name_H-M   'P 1'
_cell_length_a   8.80458657
_cell_length_b   8.88886632
_cell_length_c   8.88863400
_cell_angle_alpha   109.92538436
_cell_angle_beta   109.65048015
_cell_angle_gamma   109.22077889
_symmetry_Int_Tables_number   1
_chemical_formula_structural   La10Cd4PdRu5
_chemical_formula_sum   'La10 Cd4 Pd1 Ru5'
_cell_volume   532.94965642
_cell_formula_units_Z   1
loop_
 _symmetry_equiv_pos_site_id
 _symmetry_equiv_pos_as_xyz
  1  'x, y, z'
loop_
 _atom_site_type_symbol
 _atom_site_label
 _atom_site_symmetry_multiplicity
 _atom_site_fract_x
 _atom_site_fract_y
 _atom_site_fract_z
 _atom_site_occupancy
  La  La0  1  0.250023  0.685080  0.435069  1
  La  La1  1  0.749936  0.811462  0.061488  1
  La  La2  1  0.443701  0.253435  0.678371  1
  La  La3  1  0.690419  0.437108  0.252956  1
  La  La4  1  0.056271  0.734659  0.809738  1
  La  La5  1  0.809625  0.062505  0.746695  1
  La  La6  1  0.202610  0.211320  0.217550  1
  La  La7  1  0.499651  0.003257  0.288285  1
  La  La8  1  0.297395  0.514853  0.008657  1
  La  La9  1  0.000384  0.288593  0.503501  1
  Cd  Cd10  1  0.500122  0.996216  0.908575  1
  Cd  Cd11  1  0.588690  0.591663  0.588941  1
  Cd  Cd12  1  0.911310  0.500260  0.003011  1
  Cd  Cd13  1  0.999865  0.908445  0.496098  1
  Pd  Pd14  1  0.250006  0.133710  0.883722  1
  Ru  Ru15  1  0.749956  0.362102  0.612117  1
  Ru  Ru16  1  0.891937  0.252545  0.140358  1
  Ru  Ru17  1  0.141645  0.896500  0.249574  1
  Ru  Ru18  1  0.608023  0.748423  0.360558  1
  Ru  Ru19  1  0.358434  0.607866  0.754738  1
