# generated using pymatgen
data_TlInAg2(IO3)8
_symmetry_space_group_name_H-M   'P 1'
_cell_length_a   5.15747386
_cell_length_b   7.37086338
_cell_length_c   16.00975355
_cell_angle_alpha   78.68286614
_cell_angle_beta   89.88988074
_cell_angle_gamma   90.36514162
_symmetry_Int_Tables_number   1
_chemical_formula_structural   TlInAg2(IO3)8
_chemical_formula_sum   'Tl1 In1 Ag2 I8 O24'
_cell_volume   596.76227470
_cell_formula_units_Z   1
loop_
 _symmetry_equiv_pos_site_id
 _symmetry_equiv_pos_as_xyz
  1  'x, y, z'
loop_
 _atom_site_type_symbol
 _atom_site_label
 _atom_site_symmetry_multiplicity
 _atom_site_fract_x
 _atom_site_fract_y
 _atom_site_fract_z
 _atom_site_occupancy
  Tl  Tl0  1  0.500000  0.000000  0.000000  1
  In  In1  1  0.000000  0.000000  0.500000  1
  Ag  Ag2  1  0.500000  0.500000  0.000000  1
  Ag  Ag3  1  0.000000  0.500000  0.500000  1
  I  I4  1  0.904115  0.663722  0.167503  1
  I  I5  1  0.400874  0.334640  0.335907  1
  I  I6  1  0.095885  0.336278  0.832497  1
  I  I7  1  0.599126  0.665360  0.664093  1
  I  I8  1  0.989540  0.183627  0.140706  1
  I  I9  1  0.493831  0.820537  0.363513  1
  I  I10  1  0.010460  0.816373  0.859294  1
  I  I11  1  0.506169  0.179463  0.636487  1
  O  O12  1  0.680445  0.732098  0.074361  1
  O  O13  1  0.171284  0.255047  0.427051  1
  O  O14  1  0.319555  0.267902  0.925639  1
  O  O15  1  0.828716  0.744953  0.572949  1
  O  O16  1  0.790949  0.827135  0.232411  1
  O  O17  1  0.298821  0.170812  0.269228  1
  O  O18  1  0.209051  0.172865  0.767589  1
  O  O19  1  0.701179  0.829188  0.730772  1
  O  O20  1  0.731611  0.447568  0.212055  1
  O  O21  1  0.227185  0.548320  0.292447  1
  O  O22  1  0.268389  0.552432  0.787945  1
  O  O23  1  0.772815  0.451680  0.707553  1
  O  O24  1  0.743111  0.206927  0.052630  1
  O  O25  1  0.240988  0.806554  0.448910  1
  O  O26  1  0.256889  0.793073  0.947370  1
  O  O27  1  0.759012  0.193446  0.551090  1
  O  O28  1  0.197652  0.002943  0.109016  1
  O  O29  1  0.711708  0.995455  0.396994  1
  O  O30  1  0.802348  0.997057  0.890984  1
  O  O31  1  0.288292  0.004545  0.603006  1
  O  O32  1  0.159191  0.397778  0.095774  1
  O  O33  1  0.648911  0.602714  0.408380  1
  O  O34  1  0.840809  0.602222  0.904226  1
  O  O35  1  0.351089  0.397286  0.591620  1
