# generated using pymatgen
data_BaRhIO6
_symmetry_space_group_name_H-M   'P 1'
_cell_length_a   5.32048400
_cell_length_b   5.32048374
_cell_length_c   5.81377600
_cell_angle_alpha   90.00000000
_cell_angle_beta   90.00000000
_cell_angle_gamma   120.00000164
_symmetry_Int_Tables_number   1
_chemical_formula_structural   BaRhIO6
_chemical_formula_sum   'Ba1 Rh1 I1 O6'
_cell_volume   142.52504302
_cell_formula_units_Z   1
loop_
 _symmetry_equiv_pos_site_id
 _symmetry_equiv_pos_as_xyz
  1  'x, y, z'
loop_
 _atom_site_type_symbol
 _atom_site_label
 _atom_site_symmetry_multiplicity
 _atom_site_fract_x
 _atom_site_fract_y
 _atom_site_fract_z
 _atom_site_occupancy
  Ba  Ba0  1  0.000000  0.000000  0.000000  1
  Rh  Rh1  1  0.333333  0.666667  0.500000  1
  I  I2  1  0.666667  0.333333  0.500000  1
  O  O3  1  0.382406  0.013799  0.688889  1
  O  O4  1  0.986201  0.368606  0.688889  1
  O  O5  1  0.631394  0.617594  0.688889  1
  O  O6  1  0.986201  0.617594  0.311111  1
  O  O7  1  0.631394  0.013799  0.311111  1
  O  O8  1  0.382406  0.368606  0.311111  1
