# generated using pymatgen
data_Th3TlFe
_symmetry_space_group_name_H-M   'P 1'
_cell_length_a   12.70103392
_cell_length_b   12.70103460
_cell_length_c   5.87060200
_cell_angle_alpha   90.00000000
_cell_angle_beta   90.00000000
_cell_angle_gamma   120.01297672
_symmetry_Int_Tables_number   1
_chemical_formula_structural   Th3TlFe
_chemical_formula_sum   'Th18 Tl6 Fe6'
_cell_volume   820.03925154
_cell_formula_units_Z   6
loop_
 _symmetry_equiv_pos_site_id
 _symmetry_equiv_pos_as_xyz
  1  'x, y, z'
loop_
 _atom_site_type_symbol
 _atom_site_label
 _atom_site_symmetry_multiplicity
 _atom_site_fract_x
 _atom_site_fract_y
 _atom_site_fract_z
 _atom_site_occupancy
  Th  Th0  1  0.667213  0.156366  0.255980  1
  Th  Th1  1  0.156366  0.667213  0.255980  1
  Th  Th2  1  0.844206  0.510777  0.255963  1
  Th  Th3  1  0.510777  0.844206  0.255963  1
  Th  Th4  1  0.489395  0.332968  0.255778  1
  Th  Th5  1  0.332968  0.489396  0.255778  1
  Th  Th6  1  0.822685  0.999915  0.273411  1
  Th  Th7  1  0.999914  0.822685  0.273411  1
  Th  Th8  1  0.177115  0.177115  0.273437  1
  Th  Th9  1  0.843634  0.332788  0.755980  1
  Th  Th10  1  0.332787  0.843634  0.755980  1
  Th  Th11  1  0.489223  0.155794  0.755965  1
  Th  Th12  1  0.155794  0.489223  0.755965  1
  Th  Th13  1  0.667032  0.510604  0.755778  1
  Th  Th14  1  0.510604  0.667032  0.755778  1
  Th  Th15  1  0.000085  0.177314  0.773411  1
  Th  Th16  1  0.177315  0.000085  0.773411  1
  Th  Th17  1  0.822885  0.822884  0.773437  1
  Tl  Tl18  1  0.665559  0.665559  0.261451  1
  Tl  Tl19  1  0.334052  0.000007  0.261677  1
  Tl  Tl20  1  0.000007  0.334052  0.261677  1
  Tl  Tl21  1  0.334441  0.334441  0.761451  1
  Tl  Tl22  1  0.999992  0.665948  0.761679  1
  Tl  Tl23  1  0.665947  0.999992  0.761679  1
  Fe  Fe24  1  0.000029  0.000030  0.021414  1
  Fe  Fe25  1  0.666722  0.333290  0.506541  1
  Fe  Fe26  1  0.333291  0.666721  0.506541  1
  Fe  Fe27  1  0.999971  0.999971  0.521414  1
  Fe  Fe28  1  0.666710  0.333279  0.006541  1
  Fe  Fe29  1  0.333279  0.666710  0.006541  1
