# generated using pymatgen
data_Er12AlFe4Bi
_symmetry_space_group_name_H-M   'P 1'
_cell_length_a   8.32379715
_cell_length_b   8.32379607
_cell_length_c   8.32379747
_cell_angle_alpha   110.28430792
_cell_angle_beta   111.09270660
_cell_angle_gamma   107.06420649
_symmetry_Int_Tables_number   1
_chemical_formula_structural   Er12AlFe4Bi
_chemical_formula_sum   'Er12 Al1 Fe4 Bi1'
_cell_volume   443.35102555
_cell_formula_units_Z   1
loop_
 _symmetry_equiv_pos_site_id
 _symmetry_equiv_pos_as_xyz
  1  'x, y, z'
loop_
 _atom_site_type_symbol
 _atom_site_label
 _atom_site_symmetry_multiplicity
 _atom_site_fract_x
 _atom_site_fract_y
 _atom_site_fract_z
 _atom_site_occupancy
  Er  Er0  1  0.282174  0.183786  0.465960  1
  Er  Er1  1  0.717826  0.816214  0.534040  1
  Er  Er2  1  0.282174  0.816214  0.098390  1
  Er  Er3  1  0.717826  0.183786  0.901610  1
  Er  Er4  1  0.611535  0.309588  0.301946  1
  Er  Er5  1  0.388465  0.690412  0.698054  1
  Er  Er6  1  0.007643  0.309588  0.698054  1
  Er  Er7  1  0.992357  0.690412  0.301946  1
  Er  Er8  1  0.225183  0.438108  0.212925  1
  Er  Er9  1  0.774817  0.561892  0.787075  1
  Er  Er10  1  0.225183  0.012258  0.787075  1
  Er  Er11  1  0.774817  0.987742  0.212925  1
  Al  Al12  1  0.000000  0.000000  0.000000  1
  Fe  Fe13  1  0.000000  0.385665  0.385665  1
  Fe  Fe14  1  0.000000  0.614335  0.614335  1
  Fe  Fe15  1  0.392054  0.892054  0.500000  1
  Fe  Fe16  1  0.607946  0.107946  0.500000  1
  Bi  Bi17  1  0.500000  0.500000  0.000000  1
