# generated using pymatgen
data_Li4CeTh3Pt4
_symmetry_space_group_name_H-M   'P 1'
_cell_length_a   4.05667700
_cell_length_b   7.18201768
_cell_length_c   8.41630971
_cell_angle_alpha   89.61138990
_cell_angle_beta   90.00000000
_cell_angle_gamma   90.00000000
_symmetry_Int_Tables_number   1
_chemical_formula_structural   Li4CeTh3Pt4
_chemical_formula_sum   'Li4 Ce1 Th3 Pt4'
_cell_volume   245.20460312
_cell_formula_units_Z   1
loop_
 _symmetry_equiv_pos_site_id
 _symmetry_equiv_pos_as_xyz
  1  'x, y, z'
loop_
 _atom_site_type_symbol
 _atom_site_label
 _atom_site_symmetry_multiplicity
 _atom_site_fract_x
 _atom_site_fract_y
 _atom_site_fract_z
 _atom_site_occupancy
  Li  Li0  1  0.250000  0.628636  0.558996  1
  Li  Li1  1  0.250000  0.128025  0.940093  1
  Li  Li2  1  0.750000  0.372444  0.438305  1
  Li  Li3  1  0.750000  0.868359  0.059953  1
  Ce  Ce4  1  0.250000  0.544616  0.195383  1
  Th  Th5  1  0.750000  0.453872  0.808284  1
  Th  Th6  1  0.250000  0.045234  0.304154  1
  Th  Th7  1  0.750000  0.955671  0.692750  1
  Pt  Pt8  1  0.250000  0.740803  0.882024  1
  Pt  Pt9  1  0.250000  0.240923  0.616800  1
  Pt  Pt10  1  0.750000  0.763247  0.385313  1
  Pt  Pt11  1  0.750000  0.258170  0.117944  1
