# generated using pymatgen
data_Nd3Dy7GaSi3Sb4
_symmetry_space_group_name_H-M   'P 1'
_cell_length_a   8.85532035
_cell_length_b   8.37442388
_cell_length_c   7.96583385
_cell_angle_alpha   89.60320562
_cell_angle_beta   89.77407050
_cell_angle_gamma   125.21653764
_symmetry_Int_Tables_number   1
_chemical_formula_structural   Nd3Dy7GaSi3Sb4
_chemical_formula_sum   'Nd3 Dy7 Ga1 Si3 Sb4'
_cell_volume   482.58094464
_cell_formula_units_Z   1
loop_
 _symmetry_equiv_pos_site_id
 _symmetry_equiv_pos_as_xyz
  1  'x, y, z'
loop_
 _atom_site_type_symbol
 _atom_site_label
 _atom_site_symmetry_multiplicity
 _atom_site_fract_x
 _atom_site_fract_y
 _atom_site_fract_z
 _atom_site_occupancy
  Nd  Nd0  1  0.054788  0.331624  0.323460  1
  Nd  Nd1  1  0.946114  0.675733  0.677450  1
  Nd  Nd2  1  0.443276  0.165955  0.822197  1
  Dy  Dy3  1  0.775346  0.529905  0.164169  1
  Dy  Dy4  1  0.555752  0.822090  0.172949  1
  Dy  Dy5  1  0.222955  0.470574  0.833247  1
  Dy  Dy6  1  0.727549  0.969955  0.663369  1
  Dy  Dy7  1  0.274188  0.030744  0.336635  1
  Dy  Dy8  1  0.997778  0.997048  0.999127  1
  Dy  Dy9  1  0.501753  0.501819  0.501793  1
  Ga  Ga10  1  0.373970  0.376720  0.125679  1
  Si  Si11  1  0.624337  0.625408  0.875595  1
  Si  Si12  1  0.130728  0.131754  0.627835  1
  Si  Si13  1  0.868412  0.873115  0.367169  1
  Sb  Sb14  1  0.808752  0.221491  0.976275  1
  Sb  Sb15  1  0.186772  0.766482  0.033588  1
  Sb  Sb16  1  0.686791  0.274702  0.475744  1
  Sb  Sb17  1  0.320741  0.734883  0.523718  1
