# generated using pymatgen
data_Ta5NbRe5Si6Rh
_symmetry_space_group_name_H-M   'P 1'
_cell_length_a   7.54834311
_cell_length_b   7.51057135
_cell_length_c   7.51457358
_cell_angle_alpha   127.65762795
_cell_angle_beta   122.62074828
_cell_angle_gamma   81.28189311
_symmetry_Int_Tables_number   1
_chemical_formula_structural   Ta5NbRe5Si6Rh
_chemical_formula_sum   'Ta5 Nb1 Re5 Si6 Rh1'
_cell_volume   273.78554537
_cell_formula_units_Z   1
loop_
 _symmetry_equiv_pos_site_id
 _symmetry_equiv_pos_as_xyz
  1  'x, y, z'
loop_
 _atom_site_type_symbol
 _atom_site_label
 _atom_site_symmetry_multiplicity
 _atom_site_fract_x
 _atom_site_fract_y
 _atom_site_fract_z
 _atom_site_occupancy
  Ta  Ta0  1  0.555288  0.094624  0.050624  1
  Ta  Ta1  1  0.444134  0.495232  0.539557  1
  Ta  Ta2  1  0.980980  0.501266  0.044174  1
  Ta  Ta3  1  0.018577  0.063468  0.520463  1
  Ta  Ta4  1  0.758392  0.911124  0.663736  1
  Nb  Nb5  1  0.240632  0.905170  0.152365  1
  Re  Re6  1  0.999460  0.243573  0.242828  1
  Re  Re7  1  0.162732  0.749229  0.659418  1
  Re  Re8  1  0.836827  0.497061  0.586198  1
  Re  Re9  1  0.594558  0.748906  0.092080  1
  Re  Re10  1  0.406904  0.498628  0.155867  1
  Si  Si11  1  0.776957  0.523362  0.246333  1
  Si  Si12  1  0.223375  0.469515  0.746567  1
  Si  Si13  1  0.339381  0.838947  0.507299  1
  Si  Si14  1  0.660439  0.167965  0.499514  1
  Si  Si15  1  0.828374  0.824292  0.988365  1
  Si  Si16  1  0.171686  0.160286  0.995969  1
  Rh  Rh17  1  0.501305  0.249554  0.750844  1
