# generated using pymatgen
data_Ca(HoCu6)2
_symmetry_space_group_name_H-M   'P 1'
_cell_length_a   5.04528980
_cell_length_b   5.04529019
_cell_length_c   10.62364143
_cell_angle_alpha   94.78280746
_cell_angle_beta   94.78280859
_cell_angle_gamma   119.97294023
_symmetry_Int_Tables_number   1
_chemical_formula_structural   Ca(HoCu6)2
_chemical_formula_sum   'Ca1 Ho2 Cu12'
_cell_volume   230.98071991
_cell_formula_units_Z   1
loop_
 _symmetry_equiv_pos_site_id
 _symmetry_equiv_pos_as_xyz
  1  'x, y, z'
loop_
 _atom_site_type_symbol
 _atom_site_label
 _atom_site_symmetry_multiplicity
 _atom_site_fract_x
 _atom_site_fract_y
 _atom_site_fract_z
 _atom_site_occupancy
  Ca  Ca0  1  0.000000  0.000000  0.000000  1
  Ho  Ho1  1  0.133381  0.133381  0.357841  1
  Ho  Ho2  1  0.866619  0.866619  0.642159  1
  Cu  Cu3  1  0.663299  0.336702  0.000000  1
  Cu  Cu4  1  0.336702  0.663299  0.000000  1
  Cu  Cu5  1  0.569814  0.068499  0.196985  1
  Cu  Cu6  1  0.068499  0.569814  0.196985  1
  Cu  Cu7  1  0.571871  0.571871  0.202423  1
  Cu  Cu8  1  0.808494  0.472387  0.406326  1
  Cu  Cu9  1  0.472387  0.808494  0.406326  1
  Cu  Cu10  1  0.527615  0.191507  0.593674  1
  Cu  Cu11  1  0.191507  0.527615  0.593674  1
  Cu  Cu12  1  0.428128  0.428128  0.797577  1
  Cu  Cu13  1  0.931500  0.430185  0.803016  1
  Cu  Cu14  1  0.430185  0.931500  0.803016  1
