# generated using pymatgen
data_Nd3Sm5Sc12Ga11Si5
_symmetry_space_group_name_H-M   'P 1'
_cell_length_a   7.33099068
_cell_length_b   7.57860123
_cell_length_c   14.48334924
_cell_angle_alpha   90.03091429
_cell_angle_beta   89.92649117
_cell_angle_gamma   90.10300294
_symmetry_Int_Tables_number   1
_chemical_formula_structural   Nd3Sm5Sc12Ga11Si5
_chemical_formula_sum   'Nd3 Sm5 Sc12 Ga11 Si5'
_cell_volume   804.67332429
_cell_formula_units_Z   1
loop_
 _symmetry_equiv_pos_site_id
 _symmetry_equiv_pos_as_xyz
  1  'x, y, z'
loop_
 _atom_site_type_symbol
 _atom_site_label
 _atom_site_symmetry_multiplicity
 _atom_site_fract_x
 _atom_site_fract_y
 _atom_site_fract_z
 _atom_site_occupancy
  Nd  Nd0  1  0.013140  0.175369  0.096380  1
  Nd  Nd1  1  0.989522  0.821615  0.904390  1
  Nd  Nd2  1  0.488225  0.678444  0.904011  1
  Sm  Sm3  1  0.988588  0.822397  0.597407  1
  Sm  Sm4  1  0.511297  0.321139  0.097291  1
  Sm  Sm5  1  0.011123  0.177626  0.402297  1
  Sm  Sm6  1  0.511079  0.322182  0.402158  1
  Sm  Sm7  1  0.488719  0.677774  0.597441  1
  Sc  Sc8  1  0.163038  0.505889  0.749299  1
  Sc  Sc9  1  0.837956  0.494450  0.250068  1
  Sc  Sc10  1  0.337148  0.006453  0.248721  1
  Sc  Sc11  1  0.661839  0.994286  0.749347  1
  Sc  Sc12  1  0.329065  0.170665  0.623783  1
  Sc  Sc13  1  0.670158  0.829162  0.375759  1
  Sc  Sc14  1  0.170349  0.670763  0.375811  1
  Sc  Sc15  1  0.667156  0.828275  0.124403  1
  Sc  Sc16  1  0.829324  0.328927  0.624052  1
  Sc  Sc17  1  0.328266  0.170753  0.877365  1
  Sc  Sc18  1  0.829030  0.330534  0.876125  1
  Sc  Sc19  1  0.175040  0.672776  0.122918  1
  Ga  Ga20  1  0.031908  0.118953  0.750886  1
  Ga  Ga21  1  0.967114  0.879665  0.249587  1
  Ga  Ga22  1  0.467334  0.617777  0.249389  1
  Ga  Ga23  1  0.532061  0.380560  0.750145  1
  Ga  Ga24  1  0.158211  0.462985  0.541411  1
  Ga  Ga25  1  0.841373  0.536918  0.458418  1
  Ga  Ga26  1  0.341157  0.963280  0.458171  1
  Ga  Ga27  1  0.841572  0.536931  0.042728  1
  Ga  Ga28  1  0.658406  0.036802  0.541217  1
  Ga  Ga29  1  0.157366  0.462629  0.958899  1
  Ga  Ga30  1  0.656384  0.038422  0.959581  1
  Si  Si31  1  0.285501  0.880408  0.749825  1
  Si  Si32  1  0.714200  0.120530  0.249536  1
  Si  Si33  1  0.214870  0.379868  0.249724  1
  Si  Si34  1  0.785231  0.619647  0.749713  1
  Si  Si35  1  0.347251  0.965147  0.041744  1
