# generated using pymatgen
data_TmZr7(Si4W3)4
_symmetry_space_group_name_H-M   'P 1'
_cell_length_a   6.63048556
_cell_length_b   6.78983459
_cell_length_c   12.72374605
_cell_angle_alpha   89.92896529
_cell_angle_beta   90.02776480
_cell_angle_gamma   89.99939300
_symmetry_Int_Tables_number   1
_chemical_formula_structural   TmZr7(Si4W3)4
_chemical_formula_sum   'Tm1 Zr7 Si16 W12'
_cell_volume   572.82127011
_cell_formula_units_Z   1
loop_
 _symmetry_equiv_pos_site_id
 _symmetry_equiv_pos_as_xyz
  1  'x, y, z'
loop_
 _atom_site_type_symbol
 _atom_site_label
 _atom_site_symmetry_multiplicity
 _atom_site_fract_x
 _atom_site_fract_y
 _atom_site_fract_z
 _atom_site_occupancy
  Tm  Tm0  1  0.995649  0.830995  0.590922  1
  Zr  Zr1  1  0.495985  0.670827  0.591858  1
  Zr  Zr2  1  0.995005  0.827876  0.908037  1
  Zr  Zr3  1  0.505794  0.327576  0.092292  1
  Zr  Zr4  1  0.005938  0.173869  0.405858  1
  Zr  Zr5  1  0.505964  0.328613  0.407096  1
  Zr  Zr6  1  0.005471  0.171614  0.092679  1
  Zr  Zr7  1  0.493962  0.671797  0.908938  1
  Si  Si8  1  0.666440  0.959698  0.456133  1
  Si  Si9  1  0.167047  0.541390  0.043275  1
  Si  Si10  1  0.332254  0.041889  0.957637  1
  Si  Si11  1  0.832452  0.456969  0.542738  1
  Si  Si12  1  0.335594  0.042689  0.542407  1
  Si  Si13  1  0.832615  0.458415  0.957677  1
  Si  Si14  1  0.667254  0.958356  0.042873  1
  Si  Si15  1  0.167672  0.539830  0.455831  1
  Si  Si16  1  0.465434  0.379715  0.750504  1
  Si  Si17  1  0.965408  0.122174  0.750923  1
  Si  Si18  1  0.533752  0.619355  0.249279  1
  Si  Si19  1  0.034206  0.878941  0.250608  1
  Si  Si20  1  0.697528  0.858212  0.750659  1
  Si  Si21  1  0.199989  0.640694  0.750828  1
  Si  Si22  1  0.301099  0.140240  0.249561  1
  Si  Si23  1  0.800143  0.359282  0.249636  1
  W  W24  1  0.665195  0.164742  0.625007  1
  W  W25  1  0.167910  0.337442  0.876206  1
  W  W26  1  0.332107  0.836272  0.124117  1
  W  W27  1  0.830781  0.662661  0.375007  1
  W  W28  1  0.334669  0.835737  0.375376  1
  W  W29  1  0.832305  0.663924  0.124293  1
  W  W30  1  0.666283  0.163889  0.876276  1
  W  W31  1  0.167414  0.336661  0.624452  1
  W  W32  1  0.833843  0.505569  0.751105  1
  W  W33  1  0.333755  0.993432  0.750857  1
  W  W34  1  0.166416  0.490648  0.249985  1
  W  W35  1  0.666670  0.008008  0.249067  1
