# generated using pymatgen
data_TbHo(PPt)2
_symmetry_space_group_name_H-M   'P 1'
_cell_length_a   4.11537400
_cell_length_b   4.11537499
_cell_length_c   15.72995400
_cell_angle_alpha   90.00000000
_cell_angle_beta   90.00000000
_cell_angle_gamma   120.00000809
_symmetry_Int_Tables_number   1
_chemical_formula_structural   TbHo(PPt)2
_chemical_formula_sum   'Tb2 Ho2 P4 Pt4'
_cell_volume   230.71550015
_cell_formula_units_Z   2
loop_
 _symmetry_equiv_pos_site_id
 _symmetry_equiv_pos_as_xyz
  1  'x, y, z'
loop_
 _atom_site_type_symbol
 _atom_site_label
 _atom_site_symmetry_multiplicity
 _atom_site_fract_x
 _atom_site_fract_y
 _atom_site_fract_z
 _atom_site_occupancy
  Tb  Tb0  1  0.000000  0.000000  0.500000  1
  Tb  Tb1  1  0.000000  0.000000  0.000000  1
  Ho  Ho2  1  0.000000  0.000000  0.250000  1
  Ho  Ho3  1  0.000000  0.000000  0.750000  1
  P  P4  1  0.333333  0.666667  0.881579  1
  P  P5  1  0.666667  0.333333  0.118421  1
  P  P6  1  0.666667  0.333333  0.381579  1
  P  P7  1  0.333333  0.666667  0.618421  1
  Pt  Pt8  1  0.333333  0.666667  0.366653  1
  Pt  Pt9  1  0.666667  0.333333  0.633347  1
  Pt  Pt10  1  0.666667  0.333333  0.866653  1
  Pt  Pt11  1  0.333333  0.666667  0.133347  1
