# generated using pymatgen
data_AcPtN3
_symmetry_space_group_name_H-M   'P 1'
_cell_length_a   6.57835208
_cell_length_b   6.57835139
_cell_length_c   8.27997276
_cell_angle_alpha   107.19537146
_cell_angle_beta   107.19536922
_cell_angle_gamma   35.91050735
_symmetry_Int_Tables_number   1
_chemical_formula_structural   AcPtN3
_chemical_formula_sum   'Ac2 Pt2 N6'
_cell_volume   199.75263814
_cell_formula_units_Z   2
loop_
 _symmetry_equiv_pos_site_id
 _symmetry_equiv_pos_as_xyz
  1  'x, y, z'
loop_
 _atom_site_type_symbol
 _atom_site_label
 _atom_site_symmetry_multiplicity
 _atom_site_fract_x
 _atom_site_fract_y
 _atom_site_fract_z
 _atom_site_occupancy
  Ac  Ac0  1  0.116424  0.116424  0.364581  1
  Ac  Ac1  1  0.883577  0.883577  0.635420  1
  Pt  Pt2  1  0.374460  0.374460  0.253673  1
  Pt  Pt3  1  0.625540  0.625540  0.746326  1
  N  N4  1  0.383527  0.383527  0.034796  1
  N  N5  1  0.627617  0.627617  0.109716  1
  N  N6  1  0.331378  0.331378  0.455911  1
  N  N7  1  0.668622  0.668622  0.544088  1
  N  N8  1  0.372383  0.372383  0.890285  1
  N  N9  1  0.616472  0.616472  0.965203  1
