# generated using pymatgen
data_La4Zn3HgPd3Rh
_symmetry_space_group_name_H-M   'P 1'
_cell_length_a   4.10512600
_cell_length_b   7.68759136
_cell_length_c   17.05309611
_cell_angle_alpha   91.42758952
_cell_angle_beta   90.00000000
_cell_angle_gamma   90.00000000
_symmetry_Int_Tables_number   1
_chemical_formula_structural   La4Zn3HgPd3Rh
_chemical_formula_sum   'La8 Zn6 Hg2 Pd6 Rh2'
_cell_volume   538.00362174
_cell_formula_units_Z   2
loop_
 _symmetry_equiv_pos_site_id
 _symmetry_equiv_pos_as_xyz
  1  'x, y, z'
loop_
 _atom_site_type_symbol
 _atom_site_label
 _atom_site_symmetry_multiplicity
 _atom_site_fract_x
 _atom_site_fract_y
 _atom_site_fract_z
 _atom_site_occupancy
  La  La0  1  0.750000  0.326071  0.443872  1
  La  La1  1  0.250000  0.052255  0.712143  1
  La  La2  1  0.250000  0.559349  0.778625  1
  La  La3  1  0.250000  0.678333  0.561385  1
  La  La4  1  0.750000  0.822621  0.059663  1
  La  La5  1  0.250000  0.182335  0.945334  1
  La  La6  1  0.750000  0.440699  0.213938  1
  La  La7  1  0.750000  0.940364  0.288365  1
  Zn  Zn8  1  0.250000  0.998543  0.441765  1
  Zn  Zn9  1  0.750000  0.000502  0.560254  1
  Zn  Zn10  1  0.250000  0.501064  0.061539  1
  Zn  Zn11  1  0.750000  0.386701  0.649256  1
  Zn  Zn12  1  0.750000  0.499189  0.938295  1
  Zn  Zn13  1  0.250000  0.614049  0.350540  1
  Hg  Hg14  1  0.250000  0.111761  0.151761  1
  Hg  Hg15  1  0.750000  0.887821  0.846513  1
  Pd  Pd16  1  0.750000  0.270663  0.810469  1
  Pd  Pd17  1  0.250000  0.244287  0.321751  1
  Pd  Pd18  1  0.250000  0.726662  0.939413  1
  Pd  Pd19  1  0.250000  0.238820  0.567369  1
  Pd  Pd20  1  0.250000  0.731010  0.188828  1
  Pd  Pd21  1  0.750000  0.760736  0.433299  1
  Rh  Rh22  1  0.750000  0.276705  0.059361  1
  Rh  Rh23  1  0.750000  0.749459  0.676258  1
