# generated using pymatgen
data_Eu2Zr(SiO3)4
_symmetry_space_group_name_H-M   'P 1'
_cell_length_a   14.03100400
_cell_length_b   5.52560028
_cell_length_c   7.57049068
_cell_angle_alpha   71.77061141
_cell_angle_beta   90.00000000
_cell_angle_gamma   90.00000000
_symmetry_Int_Tables_number   1
_chemical_formula_structural   Eu2Zr(SiO3)4
_chemical_formula_sum   'Eu4 Zr2 Si8 O24'
_cell_volume   557.48061170
_cell_formula_units_Z   2
loop_
 _symmetry_equiv_pos_site_id
 _symmetry_equiv_pos_as_xyz
  1  'x, y, z'
loop_
 _atom_site_type_symbol
 _atom_site_label
 _atom_site_symmetry_multiplicity
 _atom_site_fract_x
 _atom_site_fract_y
 _atom_site_fract_z
 _atom_site_occupancy
  Eu  Eu0  1  0.000000  0.000000  0.500000  1
  Eu  Eu1  1  0.250000  0.165963  0.178460  1
  Eu  Eu2  1  0.750000  0.834037  0.821540  1
  Eu  Eu3  1  0.500000  0.000000  0.500000  1
  Zr  Zr4  1  0.500000  0.000000  0.000000  1
  Zr  Zr5  1  0.000000  0.000000  0.000000  1
  Si  Si6  1  0.640170  0.419334  0.617142  1
  Si  Si7  1  0.863647  0.430917  0.184231  1
  Si  Si8  1  0.859830  0.419334  0.617142  1
  Si  Si9  1  0.136353  0.569083  0.815769  1
  Si  Si10  1  0.140170  0.580666  0.382858  1
  Si  Si11  1  0.636353  0.430917  0.184231  1
  Si  Si12  1  0.363647  0.569083  0.815769  1
  Si  Si13  1  0.359830  0.580666  0.382858  1
  O  O14  1  0.072855  0.797530  0.846567  1
  O  O15  1  0.868086  0.702875  0.626245  1
  O  O16  1  0.889045  0.719595  0.056544  1
  O  O17  1  0.121744  0.605403  0.592421  1
  O  O18  1  0.929104  0.197145  0.748153  1
  O  O19  1  0.750000  0.305393  0.679591  1
  O  O20  1  0.878256  0.394597  0.407579  1
  O  O21  1  0.250000  0.694607  0.320409  1
  O  O22  1  0.368086  0.297125  0.373755  1
  O  O23  1  0.750000  0.391211  0.139148  1
  O  O24  1  0.250000  0.608789  0.860852  1
  O  O25  1  0.621744  0.394597  0.407579  1
  O  O26  1  0.110955  0.280405  0.943456  1
  O  O27  1  0.427145  0.797530  0.846567  1
  O  O28  1  0.070896  0.802855  0.251847  1
  O  O29  1  0.927145  0.202470  0.153433  1
  O  O30  1  0.570896  0.197145  0.748153  1
  O  O31  1  0.610955  0.719595  0.056544  1
  O  O32  1  0.631914  0.702875  0.626245  1
  O  O33  1  0.378256  0.605403  0.592421  1
  O  O34  1  0.131914  0.297125  0.373755  1
  O  O35  1  0.429104  0.802855  0.251847  1
  O  O36  1  0.389045  0.280405  0.943456  1
  O  O37  1  0.572855  0.202470  0.153433  1
