# generated using pymatgen
data_K2AlCoF7
_symmetry_space_group_name_H-M   'P 1'
_cell_length_a   7.57777756
_cell_length_b   7.57777791
_cell_length_c   7.57777772
_cell_angle_alpha   120.42668826
_cell_angle_beta   116.83908614
_cell_angle_gamma   92.41162360
_symmetry_Int_Tables_number   1
_chemical_formula_structural   K2AlCoF7
_chemical_formula_sum   'K4 Al2 Co2 F14'
_cell_volume   313.37999997
_cell_formula_units_Z   2
loop_
 _symmetry_equiv_pos_site_id
 _symmetry_equiv_pos_as_xyz
  1  'x, y, z'
loop_
 _atom_site_type_symbol
 _atom_site_label
 _atom_site_symmetry_multiplicity
 _atom_site_fract_x
 _atom_site_fract_y
 _atom_site_fract_z
 _atom_site_occupancy
  K  K0  1  0.000000  0.000000  0.000000  1
  K  K1  1  0.500000  0.500000  0.000000  1
  K  K2  1  0.500000  0.000000  0.000000  1
  K  K3  1  0.500000  0.500000  0.500000  1
  Al  Al4  1  0.500000  0.000000  0.500000  1
  Al  Al5  1  0.000000  0.500000  0.500000  1
  Co  Co6  1  0.000000  0.000000  0.500000  1
  Co  Co7  1  0.000000  0.500000  0.000000  1
  F  F8  1  0.380875  0.081105  0.299770  1
  F  F9  1  0.718665  0.418895  0.299770  1
  F  F10  1  0.683786  0.288183  0.749856  1
  F  F11  1  0.961672  0.211817  0.395603  1
  F  F12  1  0.961672  0.566070  0.749856  1
  F  F13  1  0.683786  0.933930  0.395603  1
  F  F14  1  0.316214  0.066070  0.604397  1
  F  F15  1  0.038328  0.433930  0.250144  1
  F  F16  1  0.038328  0.788183  0.604397  1
  F  F17  1  0.316214  0.711817  0.250144  1
  F  F18  1  0.888948  0.750000  0.138948  1
  F  F19  1  0.619125  0.918895  0.700230  1
  F  F20  1  0.281335  0.581105  0.700230  1
  F  F21  1  0.111052  0.250000  0.861052  1
