# generated using pymatgen
data_Ce2Lu2Co3Ru5
_symmetry_space_group_name_H-M   'P 1'
_cell_length_a   5.14235229
_cell_length_b   5.10233602
_cell_length_c   8.79771272
_cell_angle_alpha   89.99999854
_cell_angle_beta   90.12487065
_cell_angle_gamma   119.74289288
_symmetry_Int_Tables_number   1
_chemical_formula_structural   Ce2Lu2Co3Ru5
_chemical_formula_sum   'Ce2 Lu2 Co3 Ru5'
_cell_volume   200.42378705
_cell_formula_units_Z   1
loop_
 _symmetry_equiv_pos_site_id
 _symmetry_equiv_pos_as_xyz
  1  'x, y, z'
loop_
 _atom_site_type_symbol
 _atom_site_label
 _atom_site_symmetry_multiplicity
 _atom_site_fract_x
 _atom_site_fract_y
 _atom_site_fract_z
 _atom_site_occupancy
  Ce  Ce0  1  0.331361  0.665681  0.437591  1
  Ce  Ce1  1  0.659956  0.329977  0.570227  1
  Lu  Lu2  1  0.665639  0.332819  0.930854  1
  Lu  Lu3  1  0.331160  0.665581  0.064929  1
  Co  Co4  1  0.169364  0.338432  0.758383  1
  Co  Co5  1  0.169364  0.830933  0.758383  1
  Co  Co6  1  0.335235  0.167617  0.239596  1
  Ru  Ru7  1  0.829979  0.659879  0.244447  1
  Ru  Ru8  1  0.660762  0.830382  0.752900  1
  Ru  Ru9  1  0.003298  0.001649  0.995926  1
  Ru  Ru10  1  0.829979  0.170100  0.244447  1
  Ru  Ru11  1  0.013903  0.006952  0.502318  1
