# generated using pymatgen
data_Ti5Co16Si7Ru
_symmetry_space_group_name_H-M   'P 1'
_cell_length_a   7.81682163
_cell_length_b   7.83503163
_cell_length_c   7.83503211
_cell_angle_alpha   59.84629091
_cell_angle_beta   60.07684922
_cell_angle_gamma   60.07684927
_symmetry_Int_Tables_number   1
_chemical_formula_structural   Ti5Co16Si7Ru
_chemical_formula_sum   'Ti5 Co16 Si7 Ru1'
_cell_volume   339.30637779
_cell_formula_units_Z   1
loop_
 _symmetry_equiv_pos_site_id
 _symmetry_equiv_pos_as_xyz
  1  'x, y, z'
loop_
 _atom_site_type_symbol
 _atom_site_label
 _atom_site_symmetry_multiplicity
 _atom_site_fract_x
 _atom_site_fract_y
 _atom_site_fract_z
 _atom_site_occupancy
  Ti  Ti0  1  0.803439  0.794393  0.196561  1
  Ti  Ti1  1  0.789787  0.210213  0.210213  1
  Ti  Ti2  1  0.205607  0.196561  0.794393  1
  Ti  Ti3  1  0.803439  0.196561  0.794393  1
  Ti  Ti4  1  0.205607  0.794393  0.196561  1
  Co  Co5  1  0.620239  0.616579  0.142942  1
  Co  Co6  1  0.166104  0.490257  0.177534  1
  Co  Co7  1  0.857058  0.379761  0.379761  1
  Co  Co8  1  0.509743  0.833896  0.833896  1
  Co  Co9  1  0.512327  0.164585  0.164585  1
  Co  Co10  1  0.835415  0.841498  0.487673  1
  Co  Co11  1  0.166104  0.177534  0.490257  1
  Co  Co12  1  0.144227  0.618898  0.618898  1
  Co  Co13  1  0.158502  0.164585  0.164585  1
  Co  Co14  1  0.381102  0.382023  0.855773  1
  Co  Co15  1  0.617977  0.618898  0.618898  1
  Co  Co16  1  0.381102  0.855773  0.382023  1
  Co  Co17  1  0.383421  0.379761  0.379761  1
  Co  Co18  1  0.822466  0.833896  0.833896  1
  Co  Co19  1  0.620239  0.142942  0.616579  1
  Co  Co20  1  0.835415  0.487673  0.841498  1
  Si  Si21  1  0.492102  0.992770  0.507898  1
  Si  Si22  1  0.492102  0.507898  0.992770  1
  Si  Si23  1  0.501511  0.498489  0.498489  1
  Si  Si24  1  0.007230  0.992770  0.507898  1
  Si  Si25  1  0.007230  0.507898  0.992770  1
  Si  Si26  1  0.995415  0.504585  0.504585  1
  Si  Si27  1  0.495415  0.004585  0.004585  1
  Ru  Ru28  1  0.189673  0.810327  0.810327  1
