# generated using pymatgen
data_Tm12InNi5
_symmetry_space_group_name_H-M   'P 1'
_cell_length_a   8.19947751
_cell_length_b   8.19947845
_cell_length_c   8.19947724
_cell_angle_alpha   111.40681783
_cell_angle_beta   110.04884311
_cell_angle_gamma   106.98919514
_symmetry_Int_Tables_number   1
_chemical_formula_structural   Tm12InNi5
_chemical_formula_sum   'Tm12 In1 Ni5'
_cell_volume   423.70581508
_cell_formula_units_Z   1
loop_
 _symmetry_equiv_pos_site_id
 _symmetry_equiv_pos_as_xyz
  1  'x, y, z'
loop_
 _atom_site_type_symbol
 _atom_site_label
 _atom_site_symmetry_multiplicity
 _atom_site_fract_x
 _atom_site_fract_y
 _atom_site_fract_z
 _atom_site_occupancy
  Tm  Tm0  1  0.404113  0.213141  0.190972  1
  Tm  Tm1  1  0.595887  0.786859  0.809028  1
  Tm  Tm2  1  0.022169  0.213141  0.809028  1
  Tm  Tm3  1  0.977831  0.786859  0.190972  1
  Tm  Tm4  1  0.184292  0.294721  0.479013  1
  Tm  Tm5  1  0.815708  0.705279  0.520987  1
  Tm  Tm6  1  0.184292  0.705279  0.889571  1
  Tm  Tm7  1  0.815708  0.294721  0.110429  1
  Tm  Tm8  1  0.321834  0.626506  0.304670  1
  Tm  Tm9  1  0.678166  0.373494  0.695330  1
  Tm  Tm10  1  0.321834  0.017164  0.695330  1
  Tm  Tm11  1  0.678166  0.982836  0.304670  1
  In  In12  1  0.500000  0.500000  0.000000  1
  Ni  Ni13  1  0.363263  0.000000  0.363263  1
  Ni  Ni14  1  0.636737  0.000000  0.636737  1
  Ni  Ni15  1  0.124196  0.624196  0.500000  1
  Ni  Ni16  1  0.875804  0.375804  0.500000  1
  Ni  Ni17  1  0.000000  0.000000  0.000000  1
