# generated using pymatgen
data_Ta5Nb7Ga8(CoC)4
_symmetry_space_group_name_H-M   'P 1'
_cell_length_a   8.21696161
_cell_length_b   8.21745869
_cell_length_c   8.22152744
_cell_angle_alpha   59.98437187
_cell_angle_beta   59.97902758
_cell_angle_gamma   59.98077665
_symmetry_Int_Tables_number   1
_chemical_formula_structural   Ta5Nb7Ga8(CoC)4
_chemical_formula_sum   'Ta5 Nb7 Ga8 Co4 C4'
_cell_volume   392.37652263
_cell_formula_units_Z   1
loop_
 _symmetry_equiv_pos_site_id
 _symmetry_equiv_pos_as_xyz
  1  'x, y, z'
loop_
 _atom_site_type_symbol
 _atom_site_label
 _atom_site_symmetry_multiplicity
 _atom_site_fract_x
 _atom_site_fract_y
 _atom_site_fract_z
 _atom_site_occupancy
  Ta  Ta0  1  0.940746  0.559676  0.559843  1
  Ta  Ta1  1  0.559641  0.940128  0.940546  1
  Ta  Ta2  1  0.940130  0.939419  0.560244  1
  Ta  Ta3  1  0.690881  0.309415  0.690711  1
  Ta  Ta4  1  0.939368  0.560686  0.939076  1
  Nb  Nb5  1  0.561171  0.938898  0.561283  1
  Nb  Nb6  1  0.311290  0.689292  0.689167  1
  Nb  Nb7  1  0.689364  0.310619  0.310864  1
  Nb  Nb8  1  0.310121  0.690172  0.309699  1
  Nb  Nb9  1  0.690443  0.690451  0.309935  1
  Nb  Nb10  1  0.310692  0.310040  0.689679  1
  Nb  Nb11  1  0.559935  0.559930  0.940450  1
  Ga  Ga12  1  0.917935  0.915464  0.916657  1
  Ga  Ga13  1  0.999888  0.333408  0.332242  1
  Ga  Ga14  1  0.333307  0.000365  0.334195  1
  Ga  Ga15  1  0.332226  0.334259  0.000170  1
  Ga  Ga16  1  0.916816  0.249780  0.917865  1
  Ga  Ga17  1  0.915929  0.917880  0.249624  1
  Ga  Ga18  1  0.249571  0.916837  0.915890  1
  Ga  Ga19  1  0.334201  0.331952  0.333295  1
  Co  Co20  1  0.125790  0.124576  0.125173  1
  Co  Co21  1  0.625844  0.124721  0.119237  1
  Co  Co22  1  0.122049  0.624859  0.127252  1
  Co  Co23  1  0.117889  0.128676  0.625346  1
  C  C24  1  0.627907  0.622563  0.625292  1
  C  C25  1  0.122691  0.625820  0.625989  1
  C  C26  1  0.627332  0.123785  0.627078  1
  C  C27  1  0.626845  0.626326  0.123194  1
