# generated using pymatgen
data_Cs2ThF6
_symmetry_space_group_name_H-M   'P 1'
_cell_length_a   7.47128963
_cell_length_b   7.47128923
_cell_length_c   7.89560300
_cell_angle_alpha   90.00000000
_cell_angle_beta   90.00000000
_cell_angle_gamma   120.35332090
_symmetry_Int_Tables_number   1
_chemical_formula_structural   Cs2ThF6
_chemical_formula_sum   'Cs4 Th2 F12'
_cell_volume   380.32055958
_cell_formula_units_Z   2
loop_
 _symmetry_equiv_pos_site_id
 _symmetry_equiv_pos_as_xyz
  1  'x, y, z'
loop_
 _atom_site_type_symbol
 _atom_site_label
 _atom_site_symmetry_multiplicity
 _atom_site_fract_x
 _atom_site_fract_y
 _atom_site_fract_z
 _atom_site_occupancy
  Cs  Cs0  1  0.343480  0.656520  0.500894  1
  Cs  Cs1  1  0.656520  0.343480  0.000894  1
  Cs  Cs2  1  0.656520  0.343480  0.499106  1
  Cs  Cs3  1  0.343480  0.656520  0.999106  1
  Th  Th4  1  0.952341  0.047659  0.250000  1
  Th  Th5  1  0.047659  0.952341  0.750000  1
  F  F6  1  0.096021  0.903979  0.041913  1
  F  F7  1  0.903979  0.096021  0.541913  1
  F  F8  1  0.903979  0.096021  0.958087  1
  F  F9  1  0.096021  0.903979  0.458087  1
  F  F10  1  0.007076  0.623645  0.750000  1
  F  F11  1  0.992924  0.376355  0.250000  1
  F  F12  1  0.278259  0.298707  0.750000  1
  F  F13  1  0.721741  0.701293  0.250000  1
  F  F14  1  0.298707  0.278259  0.250000  1
  F  F15  1  0.701293  0.721741  0.750000  1
  F  F16  1  0.376355  0.992924  0.750000  1
  F  F17  1  0.623645  0.007076  0.250000  1
