# generated using pymatgen
data_La20Si3TcSb8
_symmetry_space_group_name_H-M   'P 1'
_cell_length_a   8.34406103
_cell_length_b   9.50666100
_cell_length_c   12.73545505
_cell_angle_alpha   90.00000000
_cell_angle_beta   89.98995732
_cell_angle_gamma   90.00000000
_symmetry_Int_Tables_number   1
_chemical_formula_structural   La20Si3TcSb8
_chemical_formula_sum   'La20 Si3 Tc1 Sb8'
_cell_volume   1010.22925330
_cell_formula_units_Z   1
loop_
 _symmetry_equiv_pos_site_id
 _symmetry_equiv_pos_as_xyz
  1  'x, y, z'
loop_
 _atom_site_type_symbol
 _atom_site_label
 _atom_site_symmetry_multiplicity
 _atom_site_fract_x
 _atom_site_fract_y
 _atom_site_fract_z
 _atom_site_occupancy
  La  La0  1  0.036937  0.750000  0.503166  1
  La  La1  1  0.972152  0.250000  0.497536  1
  La  La2  1  0.534104  0.250000  0.000715  1
  La  La3  1  0.463069  0.750000  0.999149  1
  La  La4  1  0.874705  0.750000  0.801856  1
  La  La5  1  0.135500  0.250000  0.207357  1
  La  La6  1  0.363574  0.250000  0.708081  1
  La  La7  1  0.632752  0.750000  0.293324  1
  La  La8  1  0.694946  0.541271  0.561110  1
  La  La9  1  0.306427  0.455964  0.438377  1
  La  La10  1  0.184875  0.473383  0.940145  1
  La  La11  1  0.306427  0.044036  0.438377  1
  La  La12  1  0.813295  0.541748  0.059957  1
  La  La13  1  0.694946  0.958729  0.561110  1
  La  La14  1  0.813295  0.958252  0.059957  1
  La  La15  1  0.184875  0.026617  0.940145  1
  La  La16  1  0.337588  0.750000  0.714922  1
  La  La17  1  0.657949  0.250000  0.289849  1
  La  La18  1  0.839402  0.250000  0.785032  1
  La  La19  1  0.149007  0.750000  0.202682  1
  Si  Si20  1  0.926710  0.250000  0.016628  1
  Si  Si21  1  0.572884  0.250000  0.519472  1
  Si  Si22  1  0.427495  0.750000  0.485536  1
  Tc  Tc23  1  0.087787  0.750000  0.977844  1
  Sb  Sb24  1  0.575134  0.507118  0.826096  1
  Sb  Sb25  1  0.424194  0.491528  0.174584  1
  Sb  Sb26  1  0.073376  0.489823  0.673083  1
  Sb  Sb27  1  0.424194  0.008472  0.174584  1
  Sb  Sb28  1  0.921945  0.509186  0.325073  1
  Sb  Sb29  1  0.575134  0.992882  0.826096  1
  Sb  Sb30  1  0.921945  0.990814  0.325073  1
  Sb  Sb31  1  0.073376  0.010177  0.673083  1
