# generated using pymatgen
data_Ce3Al12CoSi2
_symmetry_space_group_name_H-M   'P 1'
_cell_length_a   9.59855300
_cell_length_b   9.59855175
_cell_length_c   4.05021300
_cell_angle_alpha   90.00000000
_cell_angle_beta   90.00000000
_cell_angle_gamma   120.00000777
_symmetry_Int_Tables_number   1
_chemical_formula_structural   Ce3Al12CoSi2
_chemical_formula_sum   'Ce3 Al12 Co1 Si2'
_cell_volume   323.16174066
_cell_formula_units_Z   1
loop_
 _symmetry_equiv_pos_site_id
 _symmetry_equiv_pos_as_xyz
  1  'x, y, z'
loop_
 _atom_site_type_symbol
 _atom_site_label
 _atom_site_symmetry_multiplicity
 _atom_site_fract_x
 _atom_site_fract_y
 _atom_site_fract_z
 _atom_site_occupancy
  Ce  Ce0  1  0.000000  0.406665  0.000000  1
  Ce  Ce1  1  0.593335  0.593335  0.000000  1
  Ce  Ce2  1  0.406665  0.000000  0.000000  1
  Al  Al3  1  0.000000  0.752996  0.000000  1
  Al  Al4  1  0.247004  0.247004  0.000000  1
  Al  Al5  1  0.752996  0.000000  0.000000  1
  Al  Al6  1  0.000000  0.163191  0.500000  1
  Al  Al7  1  0.836809  0.836809  0.500000  1
  Al  Al8  1  0.163191  0.000000  0.500000  1
  Al  Al9  1  0.291969  0.467710  0.500000  1
  Al  Al10  1  0.175740  0.708031  0.500000  1
  Al  Al11  1  0.532290  0.824260  0.500000  1
  Al  Al12  1  0.824260  0.532290  0.500000  1
  Al  Al13  1  0.708031  0.175740  0.500000  1
  Al  Al14  1  0.467710  0.291969  0.500000  1
  Co  Co15  1  0.000000  0.000000  0.000000  1
  Si  Si16  1  0.666667  0.333333  0.000000  1
  Si  Si17  1  0.333333  0.666667  0.000000  1
