# generated using pymatgen
data_LaNd3Ga8(GeRh3)2
_symmetry_space_group_name_H-M   'P 1'
_cell_length_a   8.69483913
_cell_length_b   8.68540227
_cell_length_c   8.68540303
_cell_angle_alpha   141.03352737
_cell_angle_beta   108.30456725
_cell_angle_gamma   84.73146706
_symmetry_Int_Tables_number   1
_chemical_formula_structural   LaNd3Ga8(GeRh3)2
_chemical_formula_sum   'La1 Nd3 Ga8 Ge2 Rh6'
_cell_volume   378.63821020
_cell_formula_units_Z   1
loop_
 _symmetry_equiv_pos_site_id
 _symmetry_equiv_pos_as_xyz
  1  'x, y, z'
loop_
 _atom_site_type_symbol
 _atom_site_label
 _atom_site_symmetry_multiplicity
 _atom_site_fract_x
 _atom_site_fract_y
 _atom_site_fract_z
 _atom_site_occupancy
  La  La0  1  0.906063  0.635602  0.270461  1
  Nd  Nd1  1  0.365295  0.134942  0.230353  1
  Nd  Nd2  1  0.637834  0.864822  0.773013  1
  Nd  Nd3  1  0.091970  0.364690  0.727279  1
  Ga  Ga4  1  0.002367  0.250038  0.250981  1
  Ga  Ga5  1  0.002367  0.751387  0.752329  1
  Ga  Ga6  1  0.709895  0.962286  0.249613  1
  Ga  Ga7  1  0.290771  0.539484  0.249710  1
  Ga  Ga8  1  0.290771  0.041061  0.751287  1
  Ga  Ga9  1  0.709895  0.460282  0.747609  1
  Ga  Ga10  1  0.575413  0.405923  0.169490  1
  Ga  Ga11  1  0.237066  0.906683  0.330383  1
  Ge  Ge12  1  0.755817  0.090564  0.665254  1
  Ge  Ge13  1  0.423583  0.590585  0.832998  1
  Rh  Rh14  1  0.948025  0.854230  0.093795  1
  Rh  Rh15  1  0.499488  0.750001  0.249473  1
  Rh  Rh16  1  0.761919  0.355565  0.406355  1
  Rh  Rh17  1  0.246035  0.646311  0.599722  1
  Rh  Rh18  1  0.045935  0.145530  0.900406  1
  Rh  Rh19  1  0.499488  0.250014  0.749487  1
