# generated using pymatgen
data_Zr19Si16Tc
_symmetry_space_group_name_H-M   'P 1'
_cell_length_a   7.11840062
_cell_length_b   7.11840062
_cell_length_c   12.99384151
_cell_angle_alpha   89.85604246
_cell_angle_beta   90.14395754
_cell_angle_gamma   90.00021922
_symmetry_Int_Tables_number   1
_chemical_formula_structural   Zr19Si16Tc
_chemical_formula_sum   'Zr19 Si16 Tc1'
_cell_volume   658.41493816
_cell_formula_units_Z   1
loop_
 _symmetry_equiv_pos_site_id
 _symmetry_equiv_pos_as_xyz
  1  'x, y, z'
loop_
 _atom_site_type_symbol
 _atom_site_label
 _atom_site_symmetry_multiplicity
 _atom_site_fract_x
 _atom_site_fract_y
 _atom_site_fract_z
 _atom_site_occupancy
  Zr  Zr0  1  0.356363  0.503667  0.379569  1
  Zr  Zr1  1  0.855080  0.999214  0.373664  1
  Zr  Zr2  1  0.001375  0.145414  0.128154  1
  Zr  Zr3  1  0.999214  0.855080  0.626336  1
  Zr  Zr4  1  0.644354  0.499174  0.873728  1
  Zr  Zr5  1  0.503667  0.356363  0.620431  1
  Zr  Zr6  1  0.499174  0.644354  0.126272  1
  Zr  Zr7  1  0.145414  0.001375  0.871846  1
  Zr  Zr8  1  0.997888  0.649750  0.035608  1
  Zr  Zr9  1  0.001303  0.348150  0.533886  1
  Zr  Zr10  1  0.649750  0.997888  0.964392  1
  Zr  Zr11  1  0.149659  0.502582  0.782469  1
  Zr  Zr12  1  0.849546  0.498507  0.284928  1
  Zr  Zr13  1  0.502582  0.149659  0.217531  1
  Zr  Zr14  1  0.498507  0.849546  0.715072  1
  Zr  Zr15  1  0.348150  0.001303  0.466114  1
  Zr  Zr16  1  0.823639  0.176402  0.747353  1
  Zr  Zr17  1  0.176402  0.823639  0.252647  1
  Zr  Zr18  1  0.324148  0.324148  0.000000  1
  Si  Si19  1  0.042182  0.697475  0.438489  1
  Si  Si20  1  0.947691  0.300761  0.937279  1
  Si  Si21  1  0.697475  0.042182  0.561511  1
  Si  Si22  1  0.199314  0.448603  0.188543  1
  Si  Si23  1  0.796016  0.557234  0.682086  1
  Si  Si24  1  0.448603  0.199314  0.811457  1
  Si  Si25  1  0.557234  0.796016  0.317914  1
  Si  Si26  1  0.300761  0.947691  0.062721  1
  Si  Si27  1  0.853023  0.794295  0.821622  1
  Si  Si28  1  0.148675  0.205609  0.323143  1
  Si  Si29  1  0.794295  0.853023  0.178378  1
  Si  Si30  1  0.297436  0.647796  0.572938  1
  Si  Si31  1  0.705309  0.353785  0.072159  1
  Si  Si32  1  0.647796  0.297436  0.427062  1
  Si  Si33  1  0.353785  0.705309  0.927841  1
  Si  Si34  1  0.205609  0.148675  0.676857  1
  Tc  Tc35  1  0.678582  0.678582  0.500000  1
