# generated using pymatgen
data_Tm2Si4Os3
_symmetry_space_group_name_H-M   'P 1'
_cell_length_a   10.21444655
_cell_length_b   10.21444650
_cell_length_c   13.75732995
_cell_angle_alpha   52.91041148
_cell_angle_beta   52.91041070
_cell_angle_gamma   30.82732859
_symmetry_Int_Tables_number   1
_chemical_formula_structural   Tm2Si4Os3
_chemical_formula_sum   'Tm8 Si16 Os12'
_cell_volume   573.86350923
_cell_formula_units_Z   4
loop_
 _symmetry_equiv_pos_site_id
 _symmetry_equiv_pos_as_xyz
  1  'x, y, z'
loop_
 _atom_site_type_symbol
 _atom_site_label
 _atom_site_symmetry_multiplicity
 _atom_site_fract_x
 _atom_site_fract_y
 _atom_site_fract_z
 _atom_site_occupancy
  Tm  Tm0  1  0.037830  0.290492  0.639280  1
  Tm  Tm1  1  0.709508  0.962170  0.860720  1
  Tm  Tm2  1  0.962170  0.709508  0.360720  1
  Tm  Tm3  1  0.290492  0.037830  0.139280  1
  Tm  Tm4  1  0.300805  0.555257  0.645358  1
  Tm  Tm5  1  0.444743  0.699195  0.854642  1
  Tm  Tm6  1  0.699195  0.444743  0.354642  1
  Tm  Tm7  1  0.555257  0.300805  0.145358  1
  Si  Si8  1  0.980761  0.245956  0.893054  1
  Si  Si9  1  0.754044  0.019239  0.606946  1
  Si  Si10  1  0.019239  0.754044  0.106946  1
  Si  Si11  1  0.245956  0.980761  0.393054  1
  Si  Si12  1  0.140164  0.383029  0.901053  1
  Si  Si13  1  0.616971  0.859836  0.598947  1
  Si  Si14  1  0.859836  0.616971  0.098947  1
  Si  Si15  1  0.383029  0.140164  0.401053  1
  Si  Si16  1  0.084298  0.573340  0.568245  1
  Si  Si17  1  0.426660  0.915702  0.931755  1
  Si  Si18  1  0.915702  0.426660  0.431755  1
  Si  Si19  1  0.573340  0.084298  0.068245  1
  Si  Si20  1  0.621786  0.378214  0.750000  1
  Si  Si21  1  0.378214  0.621786  0.250000  1
  Si  Si22  1  0.130258  0.869742  0.750000  1
  Si  Si23  1  0.869742  0.130258  0.250000  1
  Os  Os24  1  0.897400  0.138764  0.587794  1
  Os  Os25  1  0.861236  0.102600  0.912206  1
  Os  Os26  1  0.102600  0.861236  0.412206  1
  Os  Os27  1  0.138764  0.897400  0.087794  1
  Os  Os28  1  0.837367  0.638648  0.784784  1
  Os  Os29  1  0.361352  0.162633  0.715216  1
  Os  Os30  1  0.162633  0.361352  0.215216  1
  Os  Os31  1  0.638648  0.837367  0.284784  1
  Os  Os32  1  0.248545  0.502288  0.930060  1
  Os  Os33  1  0.497712  0.751455  0.569940  1
  Os  Os34  1  0.751455  0.497712  0.069940  1
  Os  Os35  1  0.502288  0.248545  0.430060  1
