# generated using pymatgen
data_PaCo4Si
_symmetry_space_group_name_H-M   'P 1'
_cell_length_a   4.63606485
_cell_length_b   4.63606448
_cell_length_c   4.05491900
_cell_angle_alpha   90.00000000
_cell_angle_beta   90.00000000
_cell_angle_gamma   114.63080817
_symmetry_Int_Tables_number   1
_chemical_formula_structural   PaCo4Si
_chemical_formula_sum   'Pa1 Co4 Si1'
_cell_volume   79.22291861
_cell_formula_units_Z   1
loop_
 _symmetry_equiv_pos_site_id
 _symmetry_equiv_pos_as_xyz
  1  'x, y, z'
loop_
 _atom_site_type_symbol
 _atom_site_label
 _atom_site_symmetry_multiplicity
 _atom_site_fract_x
 _atom_site_fract_y
 _atom_site_fract_z
 _atom_site_occupancy
  Pa  Pa0  1  0.500000  0.500000  0.000000  1
  Co  Co1  1  0.172595  0.827405  0.000000  1
  Co  Co2  1  0.827405  0.172595  0.000000  1
  Co  Co3  1  0.000000  0.500000  0.500000  1
  Co  Co4  1  0.500000  0.000000  0.500000  1
  Si  Si5  1  0.000000  0.000000  0.500000  1
