# generated using pymatgen
data_Sm3U5TaNb11Si16
_symmetry_space_group_name_H-M   'P 1'
_cell_length_a   7.08478528
_cell_length_b   7.09245801
_cell_length_c   13.07608245
_cell_angle_alpha   90.17516106
_cell_angle_beta   89.92688369
_cell_angle_gamma   89.90136313
_symmetry_Int_Tables_number   1
_chemical_formula_structural   Sm3U5TaNb11Si16
_chemical_formula_sum   'Sm3 U5 Ta1 Nb11 Si16'
_cell_volume   657.04949567
_cell_formula_units_Z   1
loop_
 _symmetry_equiv_pos_site_id
 _symmetry_equiv_pos_as_xyz
  1  'x, y, z'
loop_
 _atom_site_type_symbol
 _atom_site_label
 _atom_site_symmetry_multiplicity
 _atom_site_fract_x
 _atom_site_fract_y
 _atom_site_fract_z
 _atom_site_occupancy
  Sm  Sm0  1  0.998096  0.337619  0.216890  1
  Sm  Sm1  1  0.002296  0.662268  0.717772  1
  Sm  Sm2  1  0.162636  0.496837  0.467295  1
  U  U3  1  0.506981  0.833236  0.030679  1
  U  U4  1  0.830614  0.506722  0.968440  1
  U  U5  1  0.500366  0.159344  0.531772  1
  U  U6  1  0.340372  0.001441  0.782197  1
  U  U7  1  0.658781  0.998689  0.282604  1
  Ta  Ta8  1  0.158518  0.995101  0.375919  1
  Nb  Nb9  1  0.170979  0.167984  0.998286  1
  Nb  Nb10  1  0.825966  0.834930  0.498334  1
  Nb  Nb11  1  0.334964  0.674525  0.248912  1
  Nb  Nb12  1  0.667915  0.328305  0.750585  1
  Nb  Nb13  1  0.842968  0.001674  0.877255  1
  Nb  Nb14  1  0.504562  0.658477  0.626342  1
  Nb  Nb15  1  0.348491  0.495656  0.876759  1
  Nb  Nb16  1  0.496358  0.345702  0.124575  1
  Nb  Nb17  1  0.653608  0.502794  0.376166  1
  Nb  Nb18  1  0.997313  0.154846  0.626627  1
  Nb  Nb19  1  0.000228  0.844665  0.124574  1
  Si  Si20  1  0.295629  0.039957  0.184025  1
  Si  Si21  1  0.705692  0.959898  0.685808  1
  Si  Si22  1  0.458219  0.794344  0.435999  1
  Si  Si23  1  0.205077  0.544452  0.062953  1
  Si  Si24  1  0.542521  0.204039  0.936026  1
  Si  Si25  1  0.790571  0.455168  0.563649  1
  Si  Si26  1  0.041254  0.293523  0.815803  1
  Si  Si27  1  0.955795  0.709922  0.313534  1
  Si  Si28  1  0.373615  0.290885  0.316361  1
  Si  Si29  1  0.627960  0.708327  0.817029  1
  Si  Si30  1  0.207566  0.873377  0.566576  1
  Si  Si31  1  0.131769  0.794438  0.932837  1
  Si  Si32  1  0.791659  0.130071  0.066542  1
  Si  Si33  1  0.867973  0.201328  0.433226  1
  Si  Si34  1  0.298730  0.367909  0.684073  1
  Si  Si35  1  0.703958  0.631552  0.183572  1
