# generated using pymatgen
data_Dy2Ho3AlSb2
_symmetry_space_group_name_H-M   'P 1'
_cell_length_a   8.87651911
_cell_length_b   8.87800229
_cell_length_c   6.39701700
_cell_angle_alpha   90.00000000
_cell_angle_beta   90.00000000
_cell_angle_gamma   120.00552626
_symmetry_Int_Tables_number   1
_chemical_formula_structural   Dy2Ho3AlSb2
_chemical_formula_sum   'Dy4 Ho6 Al2 Sb4'
_cell_volume   436.55794363
_cell_formula_units_Z   2
loop_
 _symmetry_equiv_pos_site_id
 _symmetry_equiv_pos_as_xyz
  1  'x, y, z'
loop_
 _atom_site_type_symbol
 _atom_site_label
 _atom_site_symmetry_multiplicity
 _atom_site_fract_x
 _atom_site_fract_y
 _atom_site_fract_z
 _atom_site_occupancy
  Dy  Dy0  1  0.755879  0.998911  0.750000  1
  Dy  Dy1  1  0.755879  0.756969  0.250000  1
  Dy  Dy2  1  0.008507  0.242748  0.250000  1
  Dy  Dy3  1  0.008507  0.765758  0.750000  1
  Ho  Ho4  1  0.335749  0.667875  0.000000  1
  Ho  Ho5  1  0.655734  0.327866  0.500000  1
  Ho  Ho6  1  0.655734  0.327866  0.000000  1
  Ho  Ho7  1  0.335749  0.667875  0.500000  1
  Ho  Ho8  1  0.241590  0.232237  0.750000  1
  Ho  Ho9  1  0.241590  0.009352  0.250000  1
  Al  Al10  1  0.398121  0.997119  0.750000  1
  Al  Al11  1  0.398121  0.401002  0.250000  1
  Sb  Sb12  1  0.998784  0.606530  0.250000  1
  Sb  Sb13  1  0.998784  0.392254  0.750000  1
  Sb  Sb14  1  0.605636  0.604760  0.750000  1
  Sb  Sb15  1  0.605636  0.000876  0.250000  1
