# generated using pymatgen
data_Tb7Y9(TmSn4)4
_symmetry_space_group_name_H-M   'P 1'
_cell_length_a   8.02086700
_cell_length_b   8.18122400
_cell_length_c   15.47744901
_cell_angle_alpha   90.00193265
_cell_angle_beta   90.00318848
_cell_angle_gamma   89.99978077
_symmetry_Int_Tables_number   1
_chemical_formula_structural   Tb7Y9(TmSn4)4
_chemical_formula_sum   'Tb7 Y9 Tm4 Sn16'
_cell_volume   1015.63808963
_cell_formula_units_Z   1
loop_
 _symmetry_equiv_pos_site_id
 _symmetry_equiv_pos_as_xyz
  1  'x, y, z'
loop_
 _atom_site_type_symbol
 _atom_site_label
 _atom_site_symmetry_multiplicity
 _atom_site_fract_x
 _atom_site_fract_y
 _atom_site_fract_z
 _atom_site_occupancy
  Tb  Tb0  1  0.019869  0.179547  0.597383  1
  Tb  Tb1  1  0.480129  0.679541  0.402622  1
  Tb  Tb2  1  0.980125  0.820465  0.097379  1
  Tb  Tb3  1  0.480126  0.679541  0.097373  1
  Tb  Tb4  1  0.980130  0.820457  0.402620  1
  Tb  Tb5  1  0.519866  0.320462  0.597368  1
  Tb  Tb6  1  0.019864  0.179549  0.902623  1
  Y  Y7  1  0.366897  0.837144  0.877922  1
  Y  Y8  1  0.866895  0.662855  0.622085  1
  Y  Y9  1  0.633107  0.162860  0.377921  1
  Y  Y10  1  0.133111  0.337134  0.122076  1
  Y  Y11  1  0.633107  0.162853  0.122078  1
  Y  Y12  1  0.133106  0.337137  0.377922  1
  Y  Y13  1  0.366893  0.837143  0.622087  1
  Y  Y14  1  0.866898  0.662848  0.877918  1
  Y  Y15  1  0.519904  0.320472  0.902625  1
  Tm  Tm16  1  0.198317  0.502661  0.750010  1
  Tm  Tm17  1  0.698317  0.997327  0.750003  1
  Tm  Tm18  1  0.801676  0.497331  0.250001  1
  Tm  Tm19  1  0.301678  0.002669  0.249995  1
  Sn  Sn20  1  0.293091  0.035835  0.042572  1
  Sn  Sn21  1  0.793097  0.464156  0.457436  1
  Sn  Sn22  1  0.706902  0.964157  0.542564  1
  Sn  Sn23  1  0.206912  0.535833  0.957429  1
  Sn  Sn24  1  0.706896  0.964164  0.957436  1
  Sn  Sn25  1  0.206896  0.535847  0.542564  1
  Sn  Sn26  1  0.293100  0.035843  0.457437  1
  Sn  Sn27  1  0.793074  0.464143  0.042558  1
  Sn  Sn28  1  0.563802  0.618323  0.749989  1
  Sn  Sn29  1  0.063794  0.881676  0.750000  1
  Sn  Sn30  1  0.436206  0.381674  0.249996  1
  Sn  Sn31  1  0.936199  0.118329  0.250000  1
  Sn  Sn32  1  0.328929  0.148375  0.750008  1
  Sn  Sn33  1  0.828916  0.351645  0.750000  1
  Sn  Sn34  1  0.671088  0.851645  0.249998  1
  Sn  Sn35  1  0.171084  0.648361  0.250001  1
