# generated using pymatgen
data_Y3Al7AgPd
_symmetry_space_group_name_H-M   'P 1'
_cell_length_a   9.23436446
_cell_length_b   9.23436511
_cell_length_c   9.23436524
_cell_angle_alpha   34.81276448
_cell_angle_beta   34.81275772
_cell_angle_gamma   34.81276066
_symmetry_Int_Tables_number   1
_chemical_formula_structural   Y3Al7AgPd
_chemical_formula_sum   'Y3 Al7 Ag1 Pd1'
_cell_volume   229.08180460
_cell_formula_units_Z   1
loop_
 _symmetry_equiv_pos_site_id
 _symmetry_equiv_pos_as_xyz
  1  'x, y, z'
loop_
 _atom_site_type_symbol
 _atom_site_label
 _atom_site_symmetry_multiplicity
 _atom_site_fract_x
 _atom_site_fract_y
 _atom_site_fract_z
 _atom_site_occupancy
  Y  Y0  1  0.999860  0.999860  0.999860  1
  Y  Y1  1  0.857409  0.857409  0.857409  1
  Y  Y2  1  0.143008  0.143008  0.143008  1
  Al  Al3  1  0.416685  0.416685  0.921682  1
  Al  Al4  1  0.921682  0.416685  0.416685  1
  Al  Al5  1  0.416685  0.921682  0.416685  1
  Al  Al6  1  0.499521  0.499521  0.499521  1
  Al  Al7  1  0.586696  0.071879  0.586696  1
  Al  Al8  1  0.071879  0.586696  0.586696  1
  Al  Al9  1  0.586696  0.586696  0.071879  1
  Ag  Ag10  1  0.335378  0.335378  0.335378  1
  Pd  Pd11  1  0.664500  0.664500  0.664500  1
