# generated using pymatgen
data_GdV(SO4)3
_symmetry_space_group_name_H-M   'P 1'
_cell_length_a   8.60051573
_cell_length_b   8.60051521
_cell_length_c   9.21207000
_cell_angle_alpha   65.27660710
_cell_angle_beta   65.27660869
_cell_angle_gamma   65.53676226
_symmetry_Int_Tables_number   1
_chemical_formula_structural   GdV(SO4)3
_chemical_formula_sum   'Gd2 V2 S6 O24'
_cell_volume   538.07032571
_cell_formula_units_Z   2
loop_
 _symmetry_equiv_pos_site_id
 _symmetry_equiv_pos_as_xyz
  1  'x, y, z'
loop_
 _atom_site_type_symbol
 _atom_site_label
 _atom_site_symmetry_multiplicity
 _atom_site_fract_x
 _atom_site_fract_y
 _atom_site_fract_z
 _atom_site_occupancy
  Gd  Gd0  1  0.362525  0.855434  0.422924  1
  Gd  Gd1  1  0.855434  0.362525  0.922924  1
  V  V2  1  0.152621  0.649868  0.041984  1
  V  V3  1  0.649868  0.152621  0.541984  1
  S  S4  1  0.782541  0.521305  0.257604  1
  S  S5  1  0.521305  0.782541  0.757604  1
  S  S6  1  0.997095  0.968070  0.248708  1
  S  S7  1  0.968070  0.997095  0.748708  1
  S  S8  1  0.439591  0.288925  0.247935  1
  S  S9  1  0.288925  0.439591  0.747935  1
  O  O10  1  0.824629  0.986166  0.386189  1
  O  O11  1  0.986166  0.824629  0.886189  1
  O  O12  1  0.964005  0.529814  0.223786  1
  O  O13  1  0.641321  0.679564  0.303021  1
  O  O14  1  0.769335  0.514462  0.106088  1
  O  O15  1  0.529814  0.964005  0.723786  1
  O  O16  1  0.149197  0.911782  0.313946  1
  O  O17  1  0.761902  0.355768  0.399549  1
  O  O18  1  0.679564  0.641321  0.803021  1
  O  O19  1  0.514462  0.769335  0.606088  1
  O  O20  1  0.911782  0.149197  0.813946  1
  O  O21  1  0.607277  0.280250  0.107845  1
  O  O22  1  0.355768  0.761902  0.899549  1
  O  O23  1  0.021696  0.827360  0.181491  1
  O  O24  1  0.472851  0.257790  0.407952  1
  O  O25  1  0.307877  0.466629  0.211541  1
  O  O26  1  0.280250  0.607277  0.607845  1
  O  O27  1  0.827360  0.021696  0.681491  1
  O  O28  1  0.371352  0.143793  0.274303  1
  O  O29  1  0.257790  0.472851  0.907952  1
  O  O30  1  0.466629  0.307877  0.711541  1
  O  O31  1  0.143793  0.371352  0.774303  1
  O  O32  1  0.996907  0.140301  0.115132  1
  O  O33  1  0.140301  0.996907  0.615132  1
