# generated using pymatgen
data_Sc5P12Ru10Rh9
_symmetry_space_group_name_H-M   'P 1'
_cell_length_a   12.49727828
_cell_length_b   12.46913992
_cell_length_c   3.88290500
_cell_angle_alpha   90.00000000
_cell_angle_beta   90.00000000
_cell_angle_gamma   119.81913109
_symmetry_Int_Tables_number   1
_chemical_formula_structural   Sc5P12Ru10Rh9
_chemical_formula_sum   'Sc5 P12 Ru10 Rh9'
_cell_volume   524.96213519
_cell_formula_units_Z   1
loop_
 _symmetry_equiv_pos_site_id
 _symmetry_equiv_pos_as_xyz
  1  'x, y, z'
loop_
 _atom_site_type_symbol
 _atom_site_label
 _atom_site_symmetry_multiplicity
 _atom_site_fract_x
 _atom_site_fract_y
 _atom_site_fract_z
 _atom_site_occupancy
  Sc  Sc0  1  0.666900  0.332102  0.000000  1
  Sc  Sc1  1  0.333510  0.667073  0.000000  1
  Sc  Sc2  1  0.812289  0.001470  0.500000  1
  Sc  Sc3  1  0.185038  0.187047  0.500000  1
  Sc  Sc4  1  0.000033  0.813616  0.500000  1
  P  P5  1  0.633372  0.997818  0.000000  1
  P  P6  1  0.364507  0.369504  0.000000  1
  P  P7  1  0.005504  0.635680  0.000000  1
  P  P8  1  0.686983  0.518522  0.500000  1
  P  P9  1  0.830663  0.308875  0.500000  1
  P  P10  1  0.314736  0.831188  0.500000  1
  P  P11  1  0.516749  0.685366  0.500000  1
  P  P12  1  0.178254  0.001639  0.000000  1
  P  P13  1  0.821973  0.821573  0.000000  1
  P  P14  1  0.995819  0.177766  0.000000  1
  P  P15  1  0.479900  0.166115  0.500000  1
  P  P16  1  0.169354  0.484040  0.500000  1
  Ru  Ru17  1  0.128432  0.642000  0.500000  1
  Ru  Ru18  1  0.359799  0.487839  0.500000  1
  Ru  Ru19  1  0.511524  0.870020  0.500000  1
  Ru  Ru20  1  0.719685  0.717821  0.500000  1
  Ru  Ru21  1  0.001317  0.282696  0.500000  1
  Ru  Ru22  1  0.450495  0.002765  0.000000  1
  Ru  Ru23  1  0.553450  0.547975  0.000000  1
  Ru  Ru24  1  0.999757  0.449079  0.000000  1
  Ru  Ru25  1  0.816414  0.192744  0.000000  1
  Ru  Ru26  1  0.281372  0.001673  0.500000  1
  Rh  Rh27  1  0.626263  0.805945  0.000000  1
  Rh  Rh28  1  0.181013  0.373438  0.000000  1
  Rh  Rh29  1  0.373121  0.184598  0.000000  1
  Rh  Rh30  1  0.193574  0.821094  0.000000  1
  Rh  Rh31  1  0.811284  0.626131  0.000000  1
  Rh  Rh32  1  0.868189  0.506365  0.500000  1
  Rh  Rh33  1  0.491639  0.359110  0.500000  1
  Rh  Rh34  1  0.637668  0.129223  0.500000  1
  Rh  Rh35  1  0.999420  0.000088  0.000000  1
