# generated using pymatgen
data_Eu2LuNi7B2
_symmetry_space_group_name_H-M   'P 1'
_cell_length_a   5.05146300
_cell_length_b   5.05146437
_cell_length_c   14.60360100
_cell_angle_alpha   90.00000000
_cell_angle_beta   90.00000000
_cell_angle_gamma   120.00001068
_symmetry_Int_Tables_number   1
_chemical_formula_structural   Eu2LuNi7B2
_chemical_formula_sum   'Eu4 Lu2 Ni14 B4'
_cell_volume   322.71935582
_cell_formula_units_Z   2
loop_
 _symmetry_equiv_pos_site_id
 _symmetry_equiv_pos_as_xyz
  1  'x, y, z'
loop_
 _atom_site_type_symbol
 _atom_site_label
 _atom_site_symmetry_multiplicity
 _atom_site_fract_x
 _atom_site_fract_y
 _atom_site_fract_z
 _atom_site_occupancy
  Eu  Eu0  1  0.333333  0.666667  0.532211  1
  Eu  Eu1  1  0.666667  0.333333  0.032211  1
  Eu  Eu2  1  0.666667  0.333333  0.467789  1
  Eu  Eu3  1  0.333333  0.666667  0.967789  1
  Lu  Lu4  1  0.333333  0.666667  0.750000  1
  Lu  Lu5  1  0.666667  0.333333  0.250000  1
  Ni  Ni6  1  0.000000  0.000000  0.000000  1
  Ni  Ni7  1  0.000000  0.000000  0.500000  1
  Ni  Ni8  1  0.165262  0.330525  0.153575  1
  Ni  Ni9  1  0.834738  0.669475  0.653575  1
  Ni  Ni10  1  0.669475  0.834738  0.153575  1
  Ni  Ni11  1  0.165262  0.834738  0.153575  1
  Ni  Ni12  1  0.834738  0.165262  0.653575  1
  Ni  Ni13  1  0.330525  0.165262  0.653575  1
  Ni  Ni14  1  0.834738  0.669475  0.846425  1
  Ni  Ni15  1  0.834738  0.165262  0.846425  1
  Ni  Ni16  1  0.330525  0.165262  0.846425  1
  Ni  Ni17  1  0.669475  0.834738  0.346425  1
  Ni  Ni18  1  0.165262  0.834738  0.346425  1
  Ni  Ni19  1  0.165262  0.330525  0.346425  1
  B  B20  1  0.333333  0.666667  0.250000  1
  B  B21  1  0.666667  0.333333  0.750000  1
  B  B22  1  0.000000  0.000000  0.250000  1
  B  B23  1  0.000000  0.000000  0.750000  1
