# generated using pymatgen
data_Y3Tm(P3Rh4)2
_symmetry_space_group_name_H-M   'P 1'
_cell_length_a   3.96907400
_cell_length_b   11.32760800
_cell_length_c   12.98504900
_cell_angle_alpha   90.00000000
_cell_angle_beta   90.00000000
_cell_angle_gamma   90.00000000
_symmetry_Int_Tables_number   1
_chemical_formula_structural   Y3Tm(P3Rh4)2
_chemical_formula_sum   'Y6 Tm2 P12 Rh16'
_cell_volume   583.80928846
_cell_formula_units_Z   2
loop_
 _symmetry_equiv_pos_site_id
 _symmetry_equiv_pos_as_xyz
  1  'x, y, z'
loop_
 _atom_site_type_symbol
 _atom_site_label
 _atom_site_symmetry_multiplicity
 _atom_site_fract_x
 _atom_site_fract_y
 _atom_site_fract_z
 _atom_site_occupancy
  Y  Y0  1  0.000000  0.500000  0.522707  1
  Y  Y1  1  0.500000  0.000000  0.477293  1
  Y  Y2  1  0.500000  0.820856  0.203672  1
  Y  Y3  1  0.500000  0.179144  0.203672  1
  Y  Y4  1  0.000000  0.679144  0.796328  1
  Y  Y5  1  0.000000  0.320856  0.796328  1
  Tm  Tm6  1  0.500000  0.500000  0.159965  1
  Tm  Tm7  1  0.000000  0.000000  0.840035  1
  P  P8  1  0.500000  0.500000  0.880741  1
  P  P9  1  0.000000  0.000000  0.119259  1
  P  P10  1  0.500000  0.500000  0.364783  1
  P  P11  1  0.000000  0.000000  0.635217  1
  P  P12  1  0.500000  0.312614  0.616567  1
  P  P13  1  0.500000  0.687386  0.616567  1
  P  P14  1  0.000000  0.187386  0.383433  1
  P  P15  1  0.000000  0.812614  0.383433  1
  P  P16  1  0.500000  0.838655  0.889144  1
  P  P17  1  0.500000  0.161345  0.889144  1
  P  P18  1  0.000000  0.661345  0.110856  1
  P  P19  1  0.000000  0.338655  0.110856  1
  Rh  Rh20  1  0.500000  0.500000  0.701957  1
  Rh  Rh21  1  0.000000  0.000000  0.298043  1
  Rh  Rh22  1  0.000000  0.500000  0.983966  1
  Rh  Rh23  1  0.500000  0.000000  0.016034  1
  Rh  Rh24  1  0.500000  0.331240  0.990716  1
  Rh  Rh25  1  0.500000  0.668760  0.990716  1
  Rh  Rh26  1  0.000000  0.168760  0.009284  1
  Rh  Rh27  1  0.000000  0.831240  0.009284  1
  Rh  Rh28  1  0.500000  0.289905  0.432443  1
  Rh  Rh29  1  0.500000  0.710095  0.432443  1
  Rh  Rh30  1  0.000000  0.210095  0.567557  1
  Rh  Rh31  1  0.000000  0.789905  0.567557  1
  Rh  Rh32  1  0.500000  0.873151  0.704673  1
  Rh  Rh33  1  0.500000  0.126849  0.704673  1
  Rh  Rh34  1  0.000000  0.626849  0.295327  1
  Rh  Rh35  1  0.000000  0.373151  0.295327  1
