# generated using pymatgen
data_Zr4Ta6BeSi7
_symmetry_space_group_name_H-M   'P 1'
_cell_length_a   6.86278066
_cell_length_b   6.86125766
_cell_length_c   12.66270800
_cell_angle_alpha   90.00000000
_cell_angle_beta   90.00000000
_cell_angle_gamma   89.80772309
_symmetry_Int_Tables_number   1
_chemical_formula_structural   Zr4Ta6BeSi7
_chemical_formula_sum   'Zr8 Ta12 Be2 Si14'
_cell_volume   596.24945363
_cell_formula_units_Z   2
loop_
 _symmetry_equiv_pos_site_id
 _symmetry_equiv_pos_as_xyz
  1  'x, y, z'
loop_
 _atom_site_type_symbol
 _atom_site_label
 _atom_site_symmetry_multiplicity
 _atom_site_fract_x
 _atom_site_fract_y
 _atom_site_fract_z
 _atom_site_occupancy
  Zr  Zr0  1  0.000849  0.656218  0.029692  1
  Zr  Zr1  1  0.999151  0.343782  0.529692  1
  Zr  Zr2  1  0.659746  0.001173  0.968699  1
  Zr  Zr3  1  0.155001  0.494864  0.783614  1
  Zr  Zr4  1  0.844999  0.505136  0.283614  1
  Zr  Zr5  1  0.501946  0.159737  0.218278  1
  Zr  Zr6  1  0.498054  0.840263  0.718278  1
  Zr  Zr7  1  0.340254  0.998827  0.468699  1
  Ta  Ta8  1  0.346809  0.504657  0.376008  1
  Ta  Ta9  1  0.850666  0.989178  0.375800  1
  Ta  Ta10  1  0.006276  0.152922  0.125215  1
  Ta  Ta11  1  0.993724  0.847078  0.625215  1
  Ta  Ta12  1  0.653191  0.495343  0.876008  1
  Ta  Ta13  1  0.502380  0.349727  0.623807  1
  Ta  Ta14  1  0.497620  0.650273  0.123807  1
  Ta  Ta15  1  0.149334  0.010822  0.875800  1
  Ta  Ta16  1  0.671735  0.670061  0.500343  1
  Ta  Ta17  1  0.830654  0.170286  0.751317  1
  Ta  Ta18  1  0.169346  0.829714  0.251317  1
  Ta  Ta19  1  0.328265  0.329939  0.000343  1
  Be  Be20  1  0.048739  0.701563  0.438556  1
  Be  Be21  1  0.951261  0.298437  0.938556  1
  Si  Si22  1  0.701076  0.046245  0.563807  1
  Si  Si23  1  0.200640  0.455822  0.186603  1
  Si  Si24  1  0.799360  0.544178  0.686603  1
  Si  Si25  1  0.455299  0.201747  0.813834  1
  Si  Si26  1  0.544701  0.798253  0.313834  1
  Si  Si27  1  0.298924  0.953755  0.063807  1
  Si  Si28  1  0.865689  0.792583  0.822998  1
  Si  Si29  1  0.134311  0.207417  0.322998  1
  Si  Si30  1  0.794341  0.863619  0.177492  1
  Si  Si31  1  0.285372  0.636945  0.567212  1
  Si  Si32  1  0.714628  0.363055  0.067212  1
  Si  Si33  1  0.636991  0.292200  0.426726  1
  Si  Si34  1  0.363009  0.707800  0.926726  1
  Si  Si35  1  0.205659  0.136381  0.677492  1
