# generated using pymatgen
data_PrNd15(HoSn4)4
_symmetry_space_group_name_H-M   'P 1'
_cell_length_a   8.23915507
_cell_length_b   8.39272005
_cell_length_c   15.92089407
_cell_angle_alpha   90.00437900
_cell_angle_beta   89.99025265
_cell_angle_gamma   89.98880414
_symmetry_Int_Tables_number   1
_chemical_formula_structural   PrNd15(HoSn4)4
_chemical_formula_sum   'Pr1 Nd15 Ho4 Sn16'
_cell_volume   1100.91262060
_cell_formula_units_Z   1
loop_
 _symmetry_equiv_pos_site_id
 _symmetry_equiv_pos_as_xyz
  1  'x, y, z'
loop_
 _atom_site_type_symbol
 _atom_site_label
 _atom_site_symmetry_multiplicity
 _atom_site_fract_x
 _atom_site_fract_y
 _atom_site_fract_z
 _atom_site_occupancy
  Pr  Pr0  1  0.017780  0.181035  0.401326  1
  Nd  Nd1  1  0.368161  0.837099  0.120720  1
  Nd  Nd2  1  0.131858  0.337155  0.620767  1
  Nd  Nd3  1  0.482233  0.680980  0.901217  1
  Nd  Nd4  1  0.868166  0.662883  0.120703  1
  Nd  Nd5  1  0.131841  0.337125  0.879273  1
  Nd  Nd6  1  0.482238  0.680991  0.598786  1
  Nd  Nd7  1  0.631839  0.162873  0.620746  1
  Nd  Nd8  1  0.868110  0.662903  0.379280  1
  Nd  Nd9  1  0.017774  0.180991  0.098810  1
  Nd  Nd10  1  0.982248  0.819010  0.901217  1
  Nd  Nd11  1  0.631840  0.162888  0.879270  1
  Nd  Nd12  1  0.517765  0.319034  0.098764  1
  Nd  Nd13  1  0.368212  0.837043  0.379268  1
  Nd  Nd14  1  0.982245  0.818978  0.598808  1
  Nd  Nd15  1  0.517788  0.319062  0.401220  1
  Ho  Ho16  1  0.199409  0.502054  0.249950  1
  Ho  Ho17  1  0.699299  0.997951  0.249948  1
  Ho  Ho18  1  0.300632  0.001982  0.749992  1
  Ho  Ho19  1  0.800639  0.498004  0.750007  1
  Sn  Sn20  1  0.791682  0.464732  0.543571  1
  Sn  Sn21  1  0.707924  0.964431  0.456537  1
  Sn  Sn22  1  0.675678  0.854237  0.750001  1
  Sn  Sn23  1  0.208401  0.535553  0.456492  1
  Sn  Sn24  1  0.291734  0.035326  0.956462  1
  Sn  Sn25  1  0.824059  0.354457  0.249821  1
  Sn  Sn26  1  0.791743  0.464660  0.956456  1
  Sn  Sn27  1  0.565015  0.616439  0.249994  1
  Sn  Sn28  1  0.208265  0.535334  0.043534  1
  Sn  Sn29  1  0.434990  0.383547  0.750003  1
  Sn  Sn30  1  0.175693  0.645765  0.750001  1
  Sn  Sn31  1  0.934989  0.116455  0.750000  1
  Sn  Sn32  1  0.291969  0.035188  0.543659  1
  Sn  Sn33  1  0.708274  0.964679  0.043540  1
  Sn  Sn34  1  0.324480  0.145747  0.249921  1
  Sn  Sn35  1  0.065028  0.883404  0.249937  1
