# generated using pymatgen
data_Pr2Sc3BiPb3
_symmetry_space_group_name_H-M   'P 1'
_cell_length_a   8.12204300
_cell_length_b   8.17506200
_cell_length_c   15.43580800
_cell_angle_alpha   90.00000000
_cell_angle_beta   90.00000000
_cell_angle_gamma   90.00000000
_symmetry_Int_Tables_number   1
_chemical_formula_structural   Pr2Sc3BiPb3
_chemical_formula_sum   'Pr8 Sc12 Bi4 Pb12'
_cell_volume   1024.90994534
_cell_formula_units_Z   4
loop_
 _symmetry_equiv_pos_site_id
 _symmetry_equiv_pos_as_xyz
  1  'x, y, z'
loop_
 _atom_site_type_symbol
 _atom_site_label
 _atom_site_symmetry_multiplicity
 _atom_site_fract_x
 _atom_site_fract_y
 _atom_site_fract_z
 _atom_site_occupancy
  Pr  Pr0  1  0.469985  0.675908  0.598447  1
  Pr  Pr1  1  0.969985  0.824092  0.901553  1
  Pr  Pr2  1  0.530015  0.324092  0.098447  1
  Pr  Pr3  1  0.030015  0.175908  0.401553  1
  Pr  Pr4  1  0.523807  0.322840  0.402505  1
  Pr  Pr5  1  0.023807  0.177160  0.097495  1
  Pr  Pr6  1  0.476193  0.677160  0.902505  1
  Pr  Pr7  1  0.976193  0.822840  0.597495  1
  Sc  Sc8  1  0.633006  0.156610  0.625862  1
  Sc  Sc9  1  0.133006  0.343390  0.874138  1
  Sc  Sc10  1  0.366994  0.843390  0.125862  1
  Sc  Sc11  1  0.866994  0.656610  0.374138  1
  Sc  Sc12  1  0.360714  0.841443  0.375403  1
  Sc  Sc13  1  0.860714  0.658557  0.124597  1
  Sc  Sc14  1  0.639286  0.158557  0.875403  1
  Sc  Sc15  1  0.139286  0.341443  0.624597  1
  Sc  Sc16  1  0.805748  0.494289  0.752159  1
  Sc  Sc17  1  0.305748  0.005711  0.747841  1
  Sc  Sc18  1  0.194252  0.505711  0.252159  1
  Sc  Sc19  1  0.694252  0.994289  0.247841  1
  Bi  Bi20  1  0.700452  0.953772  0.454304  1
  Bi  Bi21  1  0.200452  0.546228  0.045696  1
  Bi  Bi22  1  0.299548  0.046228  0.954304  1
  Bi  Bi23  1  0.799548  0.453772  0.545696  1
  Pb  Pb24  1  0.297212  0.044075  0.545423  1
  Pb  Pb25  1  0.797212  0.455925  0.954577  1
  Pb  Pb26  1  0.702788  0.955925  0.045423  1
  Pb  Pb27  1  0.202788  0.544075  0.454577  1
  Pb  Pb28  1  0.442583  0.363681  0.751052  1
  Pb  Pb29  1  0.942583  0.136319  0.748948  1
  Pb  Pb30  1  0.557417  0.636319  0.251052  1
  Pb  Pb31  1  0.057417  0.863681  0.248948  1
  Pb  Pb32  1  0.662821  0.854446  0.749368  1
  Pb  Pb33  1  0.162821  0.645554  0.750632  1
  Pb  Pb34  1  0.337179  0.145554  0.249368  1
  Pb  Pb35  1  0.837179  0.354446  0.250632  1
