# generated using pymatgen
data_Y12Co4RuPb
_symmetry_space_group_name_H-M   'P 1'
_cell_length_a   8.38558931
_cell_length_b   8.38558987
_cell_length_c   8.38558961
_cell_angle_alpha   110.62064277
_cell_angle_beta   111.25950702
_cell_angle_gamma   106.57250272
_symmetry_Int_Tables_number   1
_chemical_formula_structural   Y12Co4RuPb
_chemical_formula_sum   'Y12 Co4 Ru1 Pb1'
_cell_volume   453.03893108
_cell_formula_units_Z   1
loop_
 _symmetry_equiv_pos_site_id
 _symmetry_equiv_pos_as_xyz
  1  'x, y, z'
loop_
 _atom_site_type_symbol
 _atom_site_label
 _atom_site_symmetry_multiplicity
 _atom_site_fract_x
 _atom_site_fract_y
 _atom_site_fract_z
 _atom_site_occupancy
  Y  Y0  1  0.288047  0.184273  0.472321  1
  Y  Y1  1  0.711953  0.815727  0.527679  1
  Y  Y2  1  0.288047  0.815727  0.103775  1
  Y  Y3  1  0.711953  0.184273  0.896225  1
  Y  Y4  1  0.618587  0.311584  0.307002  1
  Y  Y5  1  0.381413  0.688416  0.692998  1
  Y  Y6  1  0.004582  0.311584  0.692998  1
  Y  Y7  1  0.995418  0.688416  0.307002  1
  Y  Y8  1  0.210704  0.405163  0.194460  1
  Y  Y9  1  0.789296  0.594837  0.805540  1
  Y  Y10  1  0.210704  0.016245  0.805540  1
  Y  Y11  1  0.789296  0.983755  0.194460  1
  Co  Co12  1  0.000000  0.381804  0.381804  1
  Co  Co13  1  0.000000  0.618196  0.618196  1
  Co  Co14  1  0.390316  0.890316  0.500000  1
  Co  Co15  1  0.609684  0.109684  0.500000  1
  Ru  Ru16  1  0.000000  0.000000  0.000000  1
  Pb  Pb17  1  0.500000  0.500000  0.000000  1
