# generated using pymatgen
data_Dy18Sc2Si15Ir
_symmetry_space_group_name_H-M   'P 1'
_cell_length_a   7.37653788
_cell_length_b   7.64998422
_cell_length_c   14.52341929
_cell_angle_alpha   89.76332418
_cell_angle_beta   89.69708565
_cell_angle_gamma   90.15792086
_symmetry_Int_Tables_number   1
_chemical_formula_structural   Dy18Sc2Si15Ir
_chemical_formula_sum   'Dy18 Sc2 Si15 Ir1'
_cell_volume   819.54072744
_cell_formula_units_Z   1
loop_
 _symmetry_equiv_pos_site_id
 _symmetry_equiv_pos_as_xyz
  1  'x, y, z'
loop_
 _atom_site_type_symbol
 _atom_site_label
 _atom_site_symmetry_multiplicity
 _atom_site_fract_x
 _atom_site_fract_y
 _atom_site_fract_z
 _atom_site_occupancy
  Dy  Dy0  1  0.848212  0.487682  0.758510  1
  Dy  Dy1  1  0.353811  0.009963  0.752703  1
  Dy  Dy2  1  0.974794  0.814072  0.099359  1
  Dy  Dy3  1  0.472281  0.683522  0.399512  1
  Dy  Dy4  1  0.529802  0.323149  0.902536  1
  Dy  Dy5  1  0.029138  0.184582  0.598186  1
  Dy  Dy6  1  0.028079  0.186755  0.903449  1
  Dy  Dy7  1  0.529136  0.317853  0.597373  1
  Dy  Dy8  1  0.475183  0.682217  0.101393  1
  Dy  Dy9  1  0.970795  0.816909  0.398741  1
  Dy  Dy10  1  0.684935  0.812239  0.883756  1
  Dy  Dy11  1  0.178689  0.682034  0.620735  1
  Dy  Dy12  1  0.817305  0.334331  0.120945  1
  Dy  Dy13  1  0.314460  0.175920  0.373636  1
  Dy  Dy14  1  0.319442  0.177688  0.126404  1
  Dy  Dy15  1  0.818435  0.320969  0.374429  1
  Dy  Dy16  1  0.176109  0.675081  0.879690  1
  Dy  Dy17  1  0.682717  0.819461  0.621393  1
  Sc  Sc18  1  0.649098  0.990733  0.248484  1
  Sc  Sc19  1  0.149808  0.512992  0.247717  1
  Si  Si20  1  0.768988  0.636269  0.251627  1
  Si  Si21  1  0.269579  0.864652  0.250344  1
  Si  Si22  1  0.734046  0.123124  0.748338  1
  Si  Si23  1  0.236580  0.373681  0.746087  1
  Si  Si24  1  0.011891  0.099253  0.248354  1
  Si  Si25  1  0.515828  0.402391  0.251348  1
  Si  Si26  1  0.471448  0.606629  0.745833  1
  Si  Si27  1  0.977474  0.898574  0.747934  1
  Si  Si28  1  0.354243  0.973007  0.538537  1
  Si  Si29  1  0.646237  0.025949  0.045722  1
  Si  Si30  1  0.147726  0.471112  0.457611  1
  Si  Si31  1  0.155525  0.473794  0.044481  1
  Si  Si32  1  0.644415  0.028079  0.456899  1
  Si  Si33  1  0.353838  0.969425  0.963432  1
  Si  Si34  1  0.853723  0.528321  0.537517  1
  Ir  Ir35  1  0.856232  0.517590  0.956982  1
