# generated using pymatgen
data_LaTb6Nd(WO6)4
_symmetry_space_group_name_H-M   'P 1'
_cell_length_a   5.47694500
_cell_length_b   7.81040339
_cell_length_c   11.61902828
_cell_angle_alpha   75.65184138
_cell_angle_beta   90.00000000
_cell_angle_gamma   90.00000000
_symmetry_Int_Tables_number   1
_chemical_formula_structural   LaTb6Nd(WO6)4
_chemical_formula_sum   'La1 Tb6 Nd1 W4 O24'
_cell_volume   481.52547823
_cell_formula_units_Z   1
loop_
 _symmetry_equiv_pos_site_id
 _symmetry_equiv_pos_as_xyz
  1  'x, y, z'
loop_
 _atom_site_type_symbol
 _atom_site_label
 _atom_site_symmetry_multiplicity
 _atom_site_fract_x
 _atom_site_fract_y
 _atom_site_fract_z
 _atom_site_occupancy
  La  La0  1  0.685336  0.500000  0.750000  1
  Tb  Tb1  1  0.740655  0.000000  0.750000  1
  Tb  Tb2  1  0.259724  0.000000  0.250000  1
  Tb  Tb3  1  0.186999  0.797802  0.575807  1
  Tb  Tb4  1  0.813488  0.796486  0.076784  1
  Tb  Tb5  1  0.186999  0.202198  0.924193  1
  Tb  Tb6  1  0.813488  0.203514  0.423216  1
  Nd  Nd7  1  0.315876  0.500000  0.250000  1
  W  W8  1  0.252762  0.728294  0.884692  1
  W  W9  1  0.747189  0.727614  0.383501  1
  W  W10  1  0.252762  0.271706  0.615308  1
  W  W11  1  0.747189  0.272386  0.116499  1
  O  O12  1  0.041925  0.940314  0.896384  1
  O  O13  1  0.530797  0.846655  0.930363  1
  O  O14  1  0.957435  0.940896  0.395161  1
  O  O15  1  0.452779  0.794748  0.728415  1
  O  O16  1  0.470264  0.846792  0.430099  1
  O  O17  1  0.986803  0.720211  0.770349  1
  O  O18  1  0.545129  0.793051  0.227950  1
  O  O19  1  0.854587  0.641907  0.543442  1
  O  O20  1  0.346289  0.494785  0.887723  1
  O  O21  1  0.015138  0.717157  0.270752  1
  O  O22  1  0.346289  0.505215  0.612277  1
  O  O23  1  0.854587  0.358093  0.956558  1
  O  O24  1  0.148152  0.642059  0.045711  1
  O  O25  1  0.649468  0.494674  0.386618  1
  O  O26  1  0.986803  0.279789  0.729651  1
  O  O27  1  0.649468  0.505326  0.113382  1
  O  O28  1  0.148152  0.357941  0.454289  1
  O  O29  1  0.452779  0.205252  0.771585  1
  O  O30  1  0.015138  0.282843  0.229248  1
  O  O31  1  0.530797  0.153345  0.569637  1
  O  O32  1  0.545129  0.206949  0.272050  1
  O  O33  1  0.041925  0.059686  0.603616  1
  O  O34  1  0.470264  0.153208  0.069901  1
  O  O35  1  0.957435  0.059104  0.104839  1
