# generated using pymatgen
data_Nb(BiO2)7
_symmetry_space_group_name_H-M   'P 1'
_cell_length_a   6.75160712
_cell_length_b   6.94622984
_cell_length_c   7.83332184
_cell_angle_alpha   73.03314526
_cell_angle_beta   89.45109669
_cell_angle_gamma   78.12584711
_symmetry_Int_Tables_number   1
_chemical_formula_structural   Nb(BiO2)7
_chemical_formula_sum   'Nb1 Bi7 O14'
_cell_volume   343.35964014
_cell_formula_units_Z   1
loop_
 _symmetry_equiv_pos_site_id
 _symmetry_equiv_pos_as_xyz
  1  'x, y, z'
loop_
 _atom_site_type_symbol
 _atom_site_label
 _atom_site_symmetry_multiplicity
 _atom_site_fract_x
 _atom_site_fract_y
 _atom_site_fract_z
 _atom_site_occupancy
  Nb  Nb0  1  0.000000  0.000000  0.000000  1
  Bi  Bi1  1  0.740465  0.516760  0.114311  1
  Bi  Bi2  1  0.477584  0.004364  0.251366  1
  Bi  Bi3  1  0.269912  0.507580  0.380421  1
  Bi  Bi4  1  0.000000  0.000000  0.500000  1
  Bi  Bi5  1  0.730088  0.492420  0.619578  1
  Bi  Bi6  1  0.522416  0.995635  0.748635  1
  Bi  Bi7  1  0.259535  0.483241  0.885689  1
  O  O8  1  0.089338  0.696369  0.023384  1
  O  O9  1  0.723708  0.949846  0.062982  1
  O  O10  1  0.469254  0.371934  0.182516  1
  O  O11  1  0.104368  0.920237  0.262451  1
  O  O12  1  0.531988  0.655059  0.362800  1
  O  O13  1  0.897280  0.327095  0.376563  1
  O  O14  1  0.710483  0.922417  0.482575  1
  O  O15  1  0.289518  0.077584  0.517424  1
  O  O16  1  0.102719  0.672904  0.623437  1
  O  O17  1  0.468011  0.344941  0.637201  1
  O  O18  1  0.895632  0.079762  0.737548  1
  O  O19  1  0.530747  0.628065  0.817485  1
  O  O20  1  0.276293  0.050154  0.937019  1
  O  O21  1  0.910661  0.303630  0.976616  1
