# generated using pymatgen
data_Tb4Dy3Er(SiBr6)2
_symmetry_space_group_name_H-M   'P 1'
_cell_length_a   4.05995800
_cell_length_b   13.25164705
_cell_length_c   14.02350917
_cell_angle_alpha   90.06376296
_cell_angle_beta   90.00000000
_cell_angle_gamma   90.00000000
_symmetry_Int_Tables_number   1
_chemical_formula_structural   Tb4Dy3Er(SiBr6)2
_chemical_formula_sum   'Tb4 Dy3 Er1 Si2 Br12'
_cell_volume   754.48017921
_cell_formula_units_Z   1
loop_
 _symmetry_equiv_pos_site_id
 _symmetry_equiv_pos_as_xyz
  1  'x, y, z'
loop_
 _atom_site_type_symbol
 _atom_site_label
 _atom_site_symmetry_multiplicity
 _atom_site_fract_x
 _atom_site_fract_y
 _atom_site_fract_z
 _atom_site_occupancy
  Tb  Tb0  1  0.000000  0.118747  0.579010  1
  Tb  Tb1  1  0.000000  0.881373  0.421089  1
  Tb  Tb2  1  0.000000  0.618534  0.921232  1
  Tb  Tb3  1  0.000000  0.381508  0.078839  1
  Dy  Dy4  1  0.500000  0.117961  0.341351  1
  Dy  Dy5  1  0.500000  0.882055  0.658677  1
  Dy  Dy6  1  0.500000  0.617732  0.158372  1
  Er  Er7  1  0.500000  0.382344  0.841682  1
  Si  Si8  1  0.500000  0.000072  0.500064  1
  Si  Si9  1  0.500000  0.499531  0.999361  1
  Br  Br10  1  0.500000  0.243199  0.163671  1
  Br  Br11  1  0.500000  0.756682  0.836184  1
  Br  Br12  1  0.500000  0.743168  0.336142  1
  Br  Br13  1  0.500000  0.257472  0.664819  1
  Br  Br14  1  0.000000  0.255284  0.410246  1
  Br  Br15  1  0.000000  0.744691  0.589804  1
  Br  Br16  1  0.000000  0.755220  0.089840  1
  Br  Br17  1  0.000000  0.246051  0.908914  1
  Br  Br18  1  0.000000  0.003029  0.242636  1
  Br  Br19  1  0.000000  0.996973  0.757391  1
  Br  Br20  1  0.000000  0.503082  0.257336  1
  Br  Br21  1  0.000000  0.495292  0.743338  1
