# generated using pymatgen
data_Nd6Y10Cd4Ir3Pt
_symmetry_space_group_name_H-M   'P 1'
_cell_length_a   9.78229211
_cell_length_b   9.78229339
_cell_length_c   9.78229230
_cell_angle_alpha   60.12901913
_cell_angle_beta   60.12901754
_cell_angle_gamma   60.12901883
_symmetry_Int_Tables_number   1
_chemical_formula_structural   Nd6Y10Cd4Ir3Pt
_chemical_formula_sum   'Nd6 Y10 Cd4 Ir3 Pt1'
_cell_volume   663.85685885
_cell_formula_units_Z   1
loop_
 _symmetry_equiv_pos_site_id
 _symmetry_equiv_pos_as_xyz
  1  'x, y, z'
loop_
 _atom_site_type_symbol
 _atom_site_label
 _atom_site_symmetry_multiplicity
 _atom_site_fract_x
 _atom_site_fract_y
 _atom_site_fract_z
 _atom_site_occupancy
  Nd  Nd0  1  0.940522  0.559986  0.559986  1
  Nd  Nd1  1  0.560684  0.940321  0.940321  1
  Nd  Nd2  1  0.559986  0.940522  0.559986  1
  Nd  Nd3  1  0.940321  0.560684  0.940321  1
  Nd  Nd4  1  0.559986  0.559986  0.940522  1
  Nd  Nd5  1  0.940321  0.940321  0.560684  1
  Y  Y6  1  0.347477  0.347477  0.347477  1
  Y  Y7  1  0.351048  0.351048  0.952631  1
  Y  Y8  1  0.351048  0.952631  0.351048  1
  Y  Y9  1  0.952631  0.351048  0.351048  1
  Y  Y10  1  0.806970  0.189403  0.189403  1
  Y  Y11  1  0.185509  0.811796  0.811796  1
  Y  Y12  1  0.189403  0.806970  0.189403  1
  Y  Y13  1  0.811796  0.185509  0.811796  1
  Y  Y14  1  0.189403  0.189403  0.806970  1
  Y  Y15  1  0.811796  0.811796  0.185509  1
  Cd  Cd16  1  0.579496  0.579496  0.579496  1
  Cd  Cd17  1  0.579920  0.579920  0.260608  1
  Cd  Cd18  1  0.579920  0.260608  0.579920  1
  Cd  Cd19  1  0.260608  0.579920  0.579920  1
  Ir  Ir20  1  0.141702  0.141702  0.575713  1
  Ir  Ir21  1  0.141702  0.575713  0.141702  1
  Ir  Ir22  1  0.575713  0.141702  0.141702  1
  Pt  Pt23  1  0.142040  0.142040  0.142040  1
