# generated using pymatgen
data_Ho8TiRe2Si16Tc9
_symmetry_space_group_name_H-M   'P 1'
_cell_length_a   6.77275500
_cell_length_b   6.77062555
_cell_length_c   12.79530656
_cell_angle_alpha   89.84708826
_cell_angle_beta   89.85839332
_cell_angle_gamma   89.79880340
_symmetry_Int_Tables_number   1
_chemical_formula_structural   Ho8TiRe2Si16Tc9
_chemical_formula_sum   'Ho8 Ti1 Re2 Si16 Tc9'
_cell_volume   586.73138037
_cell_formula_units_Z   1
loop_
 _symmetry_equiv_pos_site_id
 _symmetry_equiv_pos_as_xyz
  1  'x, y, z'
loop_
 _atom_site_type_symbol
 _atom_site_label
 _atom_site_symmetry_multiplicity
 _atom_site_fract_x
 _atom_site_fract_y
 _atom_site_fract_z
 _atom_site_occupancy
  Ho  Ho0  1  0.340088  0.993809  0.468088  1
  Ho  Ho1  1  0.510175  0.829582  0.717698  1
  Ho  Ho2  1  0.487239  0.165458  0.217938  1
  Ho  Ho3  1  0.834616  0.513081  0.282116  1
  Ho  Ho4  1  0.170256  0.490164  0.782254  1
  Ho  Ho5  1  0.661229  0.999824  0.972449  1
  Ho  Ho6  1  0.999707  0.339094  0.527444  1
  Ho  Ho7  1  0.006340  0.660087  0.032311  1
  Ti  Ti8  1  0.839178  0.161094  0.750059  1
  Re  Re9  1  0.160314  0.839347  0.250731  1
  Re  Re10  1  0.667191  0.663794  0.501071  1
  Si  Si11  1  0.207204  0.119989  0.682952  1
  Si  Si12  1  0.388035  0.688524  0.935352  1
  Si  Si13  1  0.611098  0.309972  0.435965  1
  Si  Si14  1  0.689747  0.388889  0.063436  1
  Si  Si15  1  0.310714  0.611977  0.565002  1
  Si  Si16  1  0.801890  0.888528  0.182365  1
  Si  Si17  1  0.111516  0.198167  0.317495  1
  Si  Si18  1  0.880161  0.792838  0.817096  1
  Si  Si19  1  0.260448  0.984472  0.060869  1
  Si  Si20  1  0.517205  0.780247  0.309823  1
  Si  Si21  1  0.470855  0.205184  0.817064  1
  Si  Si22  1  0.794477  0.529320  0.682468  1
  Si  Si23  1  0.219884  0.483056  0.190500  1
  Si  Si24  1  0.732798  0.016999  0.555771  1
  Si  Si25  1  0.984083  0.267323  0.944474  1
  Si  Si26  1  0.015737  0.740331  0.438875  1
  Tc  Tc27  1  0.336373  0.332189  0.998787  1
  Tc  Tc28  1  0.177541  0.980688  0.867065  1
  Tc  Tc29  1  0.508875  0.685300  0.121101  1
  Tc  Tc30  1  0.507336  0.313446  0.627706  1
  Tc  Tc31  1  0.686220  0.491687  0.871816  1
  Tc  Tc32  1  0.314596  0.490620  0.379114  1
  Tc  Tc33  1  0.803861  0.026522  0.364246  1
  Tc  Tc34  1  0.973915  0.195599  0.135599  1
  Tc  Tc35  1  0.019102  0.822803  0.632900  1
