# generated using pymatgen
data_Dy19Y(Cd3Ru)2
_symmetry_space_group_name_H-M   'P 1'
_cell_length_a   9.60943400
_cell_length_b   9.60959714
_cell_length_c   9.84957100
_cell_angle_alpha   90.00000000
_cell_angle_beta   90.00000000
_cell_angle_gamma   120.00056342
_symmetry_Int_Tables_number   1
_chemical_formula_structural   Dy19Y(Cd3Ru)2
_chemical_formula_sum   'Dy19 Y1 Cd6 Ru2'
_cell_volume   787.67755601
_cell_formula_units_Z   1
loop_
 _symmetry_equiv_pos_site_id
 _symmetry_equiv_pos_as_xyz
  1  'x, y, z'
loop_
 _atom_site_type_symbol
 _atom_site_label
 _atom_site_symmetry_multiplicity
 _atom_site_fract_x
 _atom_site_fract_y
 _atom_site_fract_z
 _atom_site_occupancy
  Dy  Dy0  1  0.999992  0.999996  0.500016  1
  Dy  Dy1  1  0.999992  0.999996  0.999984  1
  Dy  Dy2  1  0.209909  0.790154  0.439747  1
  Dy  Dy3  1  0.209909  0.419757  0.439747  1
  Dy  Dy4  1  0.580214  0.790107  0.439796  1
  Dy  Dy5  1  0.790070  0.209846  0.560203  1
  Dy  Dy6  1  0.790070  0.580223  0.560203  1
  Dy  Dy7  1  0.419774  0.209887  0.560233  1
  Dy  Dy8  1  0.790070  0.209846  0.939797  1
  Dy  Dy9  1  0.790070  0.580223  0.939797  1
  Dy  Dy10  1  0.419774  0.209887  0.939767  1
  Dy  Dy11  1  0.209909  0.790154  0.060253  1
  Dy  Dy12  1  0.209909  0.419757  0.060253  1
  Dy  Dy13  1  0.580214  0.790107  0.060204  1
  Dy  Dy14  1  0.541274  0.458724  0.250000  1
  Dy  Dy15  1  0.541274  0.082550  0.250000  1
  Dy  Dy16  1  0.917443  0.458721  0.250000  1
  Dy  Dy17  1  0.458761  0.541253  0.750000  1
  Dy  Dy18  1  0.458761  0.917509  0.750000  1
  Y  Y19  1  0.082598  0.541299  0.750000  1
  Cd  Cd20  1  0.885415  0.114598  0.250000  1
  Cd  Cd21  1  0.885415  0.770818  0.250000  1
  Cd  Cd22  1  0.229183  0.114592  0.250000  1
  Cd  Cd23  1  0.114612  0.885444  0.750000  1
  Cd  Cd24  1  0.114612  0.229167  0.750000  1
  Cd  Cd25  1  0.770807  0.885403  0.750000  1
  Ru  Ru26  1  0.333343  0.666672  0.250000  1
  Ru  Ru27  1  0.666625  0.333312  0.750000  1
