# generated using pymatgen
data_Sr4CrMoO8
_symmetry_space_group_name_H-M   'P 1'
_cell_length_a   6.97745058
_cell_length_b   6.97745021
_cell_length_c   5.62094000
_cell_angle_alpha   90.00000000
_cell_angle_beta   90.00000000
_cell_angle_gamma   133.05384029
_symmetry_Int_Tables_number   1
_chemical_formula_structural   Sr4CrMoO8
_chemical_formula_sum   'Sr4 Cr1 Mo1 O8'
_cell_volume   199.96270739
_cell_formula_units_Z   1
loop_
 _symmetry_equiv_pos_site_id
 _symmetry_equiv_pos_as_xyz
  1  'x, y, z'
loop_
 _atom_site_type_symbol
 _atom_site_label
 _atom_site_symmetry_multiplicity
 _atom_site_fract_x
 _atom_site_fract_y
 _atom_site_fract_z
 _atom_site_occupancy
  Sr  Sr0  1  0.351089  0.648911  0.000000  1
  Sr  Sr1  1  0.854123  0.145877  0.500000  1
  Sr  Sr2  1  0.145877  0.854123  0.500000  1
  Sr  Sr3  1  0.648911  0.351089  0.000000  1
  Cr  Cr4  1  0.000000  0.000000  0.000000  1
  Mo  Mo5  1  0.500000  0.500000  0.500000  1
  O  O6  1  0.160593  0.839407  0.000000  1
  O  O7  1  0.661397  0.338603  0.500000  1
  O  O8  1  0.338603  0.661397  0.500000  1
  O  O9  1  0.839407  0.160593  0.000000  1
  O  O10  1  0.253857  0.253857  0.250512  1
  O  O11  1  0.746143  0.746143  0.749488  1
  O  O12  1  0.253857  0.253857  0.749488  1
  O  O13  1  0.746143  0.746143  0.250512  1
