# generated using pymatgen
data_Tm2LuZr2Sn3
_symmetry_space_group_name_H-M   'P 1'
_cell_length_a   8.76235953
_cell_length_b   8.76235986
_cell_length_c   6.07896700
_cell_angle_alpha   90.00000000
_cell_angle_beta   90.00000000
_cell_angle_gamma   120.03975333
_symmetry_Int_Tables_number   1
_chemical_formula_structural   Tm2LuZr2Sn3
_chemical_formula_sum   'Tm4 Lu2 Zr4 Sn6'
_cell_volume   404.04381384
_cell_formula_units_Z   2
loop_
 _symmetry_equiv_pos_site_id
 _symmetry_equiv_pos_as_xyz
  1  'x, y, z'
loop_
 _atom_site_type_symbol
 _atom_site_label
 _atom_site_symmetry_multiplicity
 _atom_site_fract_x
 _atom_site_fract_y
 _atom_site_fract_z
 _atom_site_occupancy
  Tm  Tm0  1  0.760323  0.760323  0.750000  1
  Tm  Tm1  1  0.239774  0.999902  0.750000  1
  Tm  Tm2  1  0.999902  0.239774  0.750000  1
  Tm  Tm3  1  0.239653  0.239653  0.250000  1
  Lu  Lu4  1  0.760233  0.999950  0.250000  1
  Lu  Lu5  1  0.999950  0.760233  0.250000  1
  Zr  Zr6  1  0.666660  0.333365  0.999994  1
  Zr  Zr7  1  0.333365  0.666660  0.999994  1
  Zr  Zr8  1  0.333365  0.666660  0.500006  1
  Zr  Zr9  1  0.666660  0.333365  0.500006  1
  Sn  Sn10  1  0.398875  0.398875  0.750000  1
  Sn  Sn11  1  0.601151  0.000029  0.750000  1
  Sn  Sn12  1  0.000029  0.601151  0.750000  1
  Sn  Sn13  1  0.601436  0.601436  0.250000  1
  Sn  Sn14  1  0.398790  0.999835  0.250000  1
  Sn  Sn15  1  0.999835  0.398790  0.250000  1
