# generated using pymatgen
data_YHo2Mg(AlPt)4
_symmetry_space_group_name_H-M   'P 1'
_cell_length_a   4.34184900
_cell_length_b   6.83574116
_cell_length_c   7.72918393
_cell_angle_alpha   92.55771995
_cell_angle_beta   90.00000000
_cell_angle_gamma   90.00000000
_symmetry_Int_Tables_number   1
_chemical_formula_structural   YHo2Mg(AlPt)4
_chemical_formula_sum   'Y1 Ho2 Mg1 Al4 Pt4'
_cell_volume   229.17175741
_cell_formula_units_Z   1
loop_
 _symmetry_equiv_pos_site_id
 _symmetry_equiv_pos_as_xyz
  1  'x, y, z'
loop_
 _atom_site_type_symbol
 _atom_site_label
 _atom_site_symmetry_multiplicity
 _atom_site_fract_x
 _atom_site_fract_y
 _atom_site_fract_z
 _atom_site_occupancy
  Y  Y0  1  0.250000  0.528010  0.817126  1
  Ho  Ho1  1  0.750000  0.974174  0.330170  1
  Ho  Ho2  1  0.750000  0.469242  0.179599  1
  Mg  Mg3  1  0.250000  0.027980  0.677008  1
  Al  Al4  1  0.250000  0.138202  0.054604  1
  Al  Al5  1  0.250000  0.649119  0.440311  1
  Al  Al6  1  0.750000  0.859599  0.936844  1
  Al  Al7  1  0.750000  0.355558  0.563461  1
  Pt  Pt8  1  0.250000  0.272536  0.382458  1
  Pt  Pt9  1  0.250000  0.773749  0.126173  1
  Pt  Pt10  1  0.750000  0.730747  0.619908  1
  Pt  Pt11  1  0.750000  0.221083  0.872340  1
