# generated using pymatgen
data_Hf4OsRh
_symmetry_space_group_name_H-M   'P 1'
_cell_length_a   8.72953828
_cell_length_b   8.72953900
_cell_length_c   8.72954000
_cell_angle_alpha   60.00000379
_cell_angle_beta   60.00000108
_cell_angle_gamma   60.00000125
_symmetry_Int_Tables_number   1
_chemical_formula_structural   Hf4OsRh
_chemical_formula_sum   'Hf16 Os4 Rh4'
_cell_volume   470.39095820
_cell_formula_units_Z   4
loop_
 _symmetry_equiv_pos_site_id
 _symmetry_equiv_pos_as_xyz
  1  'x, y, z'
loop_
 _atom_site_type_symbol
 _atom_site_label
 _atom_site_symmetry_multiplicity
 _atom_site_fract_x
 _atom_site_fract_y
 _atom_site_fract_z
 _atom_site_occupancy
  Hf  Hf0  1  0.600831  0.133056  0.133056  1
  Hf  Hf1  1  0.133056  0.600831  0.133056  1
  Hf  Hf2  1  0.133056  0.133056  0.600831  1
  Hf  Hf3  1  0.133056  0.133056  0.133056  1
  Hf  Hf4  1  0.304360  0.304360  0.695640  1
  Hf  Hf5  1  0.695640  0.695640  0.304360  1
  Hf  Hf6  1  0.304360  0.695640  0.304360  1
  Hf  Hf7  1  0.695640  0.304360  0.695640  1
  Hf  Hf8  1  0.695640  0.304360  0.304360  1
  Hf  Hf9  1  0.304360  0.695640  0.695640  1
  Hf  Hf10  1  0.934128  0.934128  0.565872  1
  Hf  Hf11  1  0.565872  0.565872  0.934128  1
  Hf  Hf12  1  0.934128  0.565872  0.934128  1
  Hf  Hf13  1  0.565872  0.934128  0.565872  1
  Hf  Hf14  1  0.565872  0.934128  0.934128  1
  Hf  Hf15  1  0.934128  0.565872  0.565872  1
  Os  Os16  1  0.258409  0.913864  0.913864  1
  Os  Os17  1  0.913864  0.258409  0.913864  1
  Os  Os18  1  0.913864  0.913864  0.258409  1
  Os  Os19  1  0.913864  0.913864  0.913864  1
  Rh  Rh20  1  0.945220  0.351593  0.351593  1
  Rh  Rh21  1  0.351593  0.945220  0.351593  1
  Rh  Rh22  1  0.351593  0.351593  0.945220  1
  Rh  Rh23  1  0.351593  0.351593  0.351593  1
