# generated using pymatgen
data_La6Yb2GePd24
_symmetry_space_group_name_H-M   'P 1'
_cell_length_a   8.48708824
_cell_length_b   8.48708824
_cell_length_c   8.48708824
_cell_angle_alpha   89.94114375
_cell_angle_beta   90.05885625
_cell_angle_gamma   90.05885625
_symmetry_Int_Tables_number   1
_chemical_formula_structural   La6Yb2GePd24
_chemical_formula_sum   'La6 Yb2 Ge1 Pd24'
_cell_volume   611.32965762
_cell_formula_units_Z   1
loop_
 _symmetry_equiv_pos_site_id
 _symmetry_equiv_pos_as_xyz
  1  'x, y, z'
loop_
 _atom_site_type_symbol
 _atom_site_label
 _atom_site_symmetry_multiplicity
 _atom_site_fract_x
 _atom_site_fract_y
 _atom_site_fract_z
 _atom_site_occupancy
  La  La0  1  0.253175  0.253404  0.253404  1
  La  La1  1  0.746825  0.746596  0.746596  1
  La  La2  1  0.746596  0.746825  0.253404  1
  La  La3  1  0.746596  0.253404  0.746825  1
  La  La4  1  0.253404  0.253175  0.746596  1
  La  La5  1  0.253404  0.746596  0.253175  1
  Yb  Yb6  1  0.251748  0.748252  0.748252  1
  Yb  Yb7  1  0.748252  0.251748  0.251748  1
  Ge  Ge8  1  0.000000  0.000000  0.000000  1
  Pd  Pd9  1  0.260929  0.502734  0.996742  1
  Pd  Pd10  1  0.739071  0.497266  0.003258  1
  Pd  Pd11  1  0.996742  0.260929  0.497266  1
  Pd  Pd12  1  0.502734  0.260929  0.003258  1
  Pd  Pd13  1  0.003258  0.739071  0.502734  1
  Pd  Pd14  1  0.497266  0.739071  0.996742  1
  Pd  Pd15  1  0.502734  0.003258  0.260929  1
  Pd  Pd16  1  0.260929  0.996742  0.502734  1
  Pd  Pd17  1  0.497266  0.996742  0.739071  1
  Pd  Pd18  1  0.739071  0.003258  0.497266  1
  Pd  Pd19  1  0.996742  0.497266  0.260929  1
  Pd  Pd20  1  0.003258  0.502734  0.739071  1
  Pd  Pd21  1  0.253567  0.503182  0.503182  1
  Pd  Pd22  1  0.746433  0.496818  0.496818  1
  Pd  Pd23  1  0.503182  0.253567  0.496818  1
  Pd  Pd24  1  0.496818  0.746433  0.503182  1
  Pd  Pd25  1  0.503182  0.496818  0.253567  1
  Pd  Pd26  1  0.496818  0.503182  0.746433  1
  Pd  Pd27  1  0.292564  0.996429  0.996429  1
  Pd  Pd28  1  0.707436  0.003571  0.003571  1
  Pd  Pd29  1  0.996429  0.292564  0.003571  1
  Pd  Pd30  1  0.003571  0.707436  0.996429  1
  Pd  Pd31  1  0.996429  0.003571  0.292564  1
  Pd  Pd32  1  0.003571  0.996429  0.707436  1
