# generated using pymatgen
data_CaHo2Er4PtI12
_symmetry_space_group_name_H-M   'P 1'
_cell_length_a   9.75814154
_cell_length_b   9.75596212
_cell_length_c   9.75237900
_cell_angle_alpha   106.86508066
_cell_angle_beta   106.84676538
_cell_angle_gamma   106.88572987
_symmetry_Int_Tables_number   1
_chemical_formula_structural   CaHo2Er4PtI12
_chemical_formula_sum   'Ca1 Ho2 Er4 Pt1 I12'
_cell_volume   776.01481067
_cell_formula_units_Z   1
loop_
 _symmetry_equiv_pos_site_id
 _symmetry_equiv_pos_as_xyz
  1  'x, y, z'
loop_
 _atom_site_type_symbol
 _atom_site_label
 _atom_site_symmetry_multiplicity
 _atom_site_fract_x
 _atom_site_fract_y
 _atom_site_fract_z
 _atom_site_occupancy
  Ca  Ca0  1  0.999946  0.999782  0.000088  1
  Ho  Ho1  1  0.800281  0.597363  0.525228  1
  Ho  Ho2  1  0.525519  0.800200  0.597575  1
  Er  Er3  1  0.402379  0.474468  0.200881  1
  Er  Er4  1  0.201210  0.402495  0.474486  1
  Er  Er5  1  0.474415  0.201046  0.402661  1
  Er  Er6  1  0.596888  0.525540  0.798955  1
  Pt  Pt7  1  0.500152  0.500081  0.499907  1
  I  I8  1  0.042533  0.349172  0.120442  1
  I  I9  1  0.120435  0.042451  0.349463  1
  I  I10  1  0.349129  0.120418  0.042507  1
  I  I11  1  0.957048  0.650508  0.880449  1
  I  I12  1  0.880332  0.958297  0.651188  1
  I  I13  1  0.651063  0.879635  0.958292  1
  I  I14  1  0.721460  0.572272  0.175210  1
  I  I15  1  0.176266  0.721856  0.572701  1
  I  I16  1  0.572757  0.176989  0.722603  1
  I  I17  1  0.277533  0.427348  0.823732  1
  I  I18  1  0.823691  0.276460  0.427075  1
  I  I19  1  0.426962  0.823620  0.276556  1
