# generated using pymatgen
data_Ba4NaAg
_symmetry_space_group_name_H-M   'P 1'
_cell_length_a   11.95043723
_cell_length_b   11.95043537
_cell_length_c   11.95043700
_cell_angle_alpha   59.99999271
_cell_angle_beta   59.99999786
_cell_angle_gamma   59.99999822
_symmetry_Int_Tables_number   1
_chemical_formula_structural   Ba4NaAg
_chemical_formula_sum   'Ba16 Na4 Ag4'
_cell_volume   1206.80270321
_cell_formula_units_Z   4
loop_
 _symmetry_equiv_pos_site_id
 _symmetry_equiv_pos_as_xyz
  1  'x, y, z'
loop_
 _atom_site_type_symbol
 _atom_site_label
 _atom_site_symmetry_multiplicity
 _atom_site_fract_x
 _atom_site_fract_y
 _atom_site_fract_z
 _atom_site_occupancy
  Ba  Ba0  1  0.344405  0.344405  0.344405  1
  Ba  Ba1  1  0.344405  0.344405  0.966784  1
  Ba  Ba2  1  0.344405  0.966784  0.344405  1
  Ba  Ba3  1  0.966784  0.344405  0.344405  1
  Ba  Ba4  1  0.813030  0.186970  0.186970  1
  Ba  Ba5  1  0.186970  0.813030  0.813030  1
  Ba  Ba6  1  0.186970  0.813030  0.186970  1
  Ba  Ba7  1  0.813030  0.186970  0.813030  1
  Ba  Ba8  1  0.186970  0.186970  0.813030  1
  Ba  Ba9  1  0.813030  0.813030  0.186970  1
  Ba  Ba10  1  0.938621  0.561379  0.561379  1
  Ba  Ba11  1  0.561379  0.938621  0.938621  1
  Ba  Ba12  1  0.561379  0.938621  0.561379  1
  Ba  Ba13  1  0.938621  0.561379  0.938621  1
  Ba  Ba14  1  0.561379  0.561379  0.938621  1
  Ba  Ba15  1  0.938621  0.938621  0.561379  1
  Na  Na16  1  0.577560  0.577560  0.577560  1
  Na  Na17  1  0.577560  0.577560  0.267322  1
  Na  Na18  1  0.577560  0.267322  0.577560  1
  Na  Na19  1  0.267322  0.577560  0.577560  1
  Ag  Ag20  1  0.141688  0.141688  0.141688  1
  Ag  Ag21  1  0.141688  0.141688  0.574936  1
  Ag  Ag22  1  0.141688  0.574936  0.141688  1
  Ag  Ag23  1  0.574936  0.141688  0.141688  1
