# generated using pymatgen
data_Y5AlSe4
_symmetry_space_group_name_H-M   'P 1'
_cell_length_a   7.18225620
_cell_length_b   7.18225719
_cell_length_c   7.18225717
_cell_angle_alpha   99.44564252
_cell_angle_beta   99.44563903
_cell_angle_gamma   132.20431121
_symmetry_Int_Tables_number   1
_chemical_formula_structural   Y5AlSe4
_chemical_formula_sum   'Y5 Al1 Se4'
_cell_volume   250.91749362
_cell_formula_units_Z   1
loop_
 _symmetry_equiv_pos_site_id
 _symmetry_equiv_pos_as_xyz
  1  'x, y, z'
loop_
 _atom_site_type_symbol
 _atom_site_label
 _atom_site_symmetry_multiplicity
 _atom_site_fract_x
 _atom_site_fract_y
 _atom_site_fract_z
 _atom_site_occupancy
  Y  Y0  1  0.402085  0.795829  0.197913  1
  Y  Y1  1  0.000000  0.000000  0.000000  1
  Y  Y2  1  0.597915  0.204171  0.802087  1
  Y  Y3  1  0.204171  0.402085  0.606256  1
  Y  Y4  1  0.795829  0.597915  0.393744  1
  Al  Al5  1  0.500000  0.500000  0.000000  1
  Se  Se6  1  0.098753  0.696924  0.795676  1
  Se  Se7  1  0.696924  0.901247  0.598171  1
  Se  Se8  1  0.303076  0.098753  0.401829  1
  Se  Se9  1  0.901247  0.303076  0.204324  1
