# generated using pymatgen
data_Tb2HgPdAu
_symmetry_space_group_name_H-M   'P 1'
_cell_length_a   7.88264700
_cell_length_b   7.85086800
_cell_length_c   3.74495800
_cell_angle_alpha   90.00000000
_cell_angle_beta   90.00000000
_cell_angle_gamma   90.00000000
_symmetry_Int_Tables_number   1
_chemical_formula_structural   Tb2HgPdAu
_chemical_formula_sum   'Tb4 Hg2 Pd2 Au2'
_cell_volume   231.75905178
_cell_formula_units_Z   2
loop_
 _symmetry_equiv_pos_site_id
 _symmetry_equiv_pos_as_xyz
  1  'x, y, z'
loop_
 _atom_site_type_symbol
 _atom_site_label
 _atom_site_symmetry_multiplicity
 _atom_site_fract_x
 _atom_site_fract_y
 _atom_site_fract_z
 _atom_site_occupancy
  Tb  Tb0  1  0.681160  0.170212  0.500000  1
  Tb  Tb1  1  0.160557  0.324827  0.500000  1
  Tb  Tb2  1  0.818840  0.670212  0.500000  1
  Tb  Tb3  1  0.339443  0.824827  0.500000  1
  Hg  Hg4  1  0.992997  0.002631  0.000000  1
  Hg  Hg5  1  0.507003  0.502631  0.000000  1
  Pd  Pd6  1  0.628404  0.874262  0.000000  1
  Pd  Pd7  1  0.871596  0.374262  0.000000  1
  Au  Au8  1  0.375806  0.128068  0.000000  1
  Au  Au9  1  0.124194  0.628068  0.000000  1
