# generated using pymatgen
data_Zr2Co2SiP
_symmetry_space_group_name_H-M   'P 1'
_cell_length_a   3.76826300
_cell_length_b   6.42969400
_cell_length_c   7.20573100
_cell_angle_alpha   90.00000000
_cell_angle_beta   90.00000000
_cell_angle_gamma   90.00000000
_symmetry_Int_Tables_number   1
_chemical_formula_structural   Zr2Co2SiP
_chemical_formula_sum   'Zr4 Co4 Si2 P2'
_cell_volume   174.58605674
_cell_formula_units_Z   2
loop_
 _symmetry_equiv_pos_site_id
 _symmetry_equiv_pos_as_xyz
  1  'x, y, z'
loop_
 _atom_site_type_symbol
 _atom_site_label
 _atom_site_symmetry_multiplicity
 _atom_site_fract_x
 _atom_site_fract_y
 _atom_site_fract_z
 _atom_site_occupancy
  Zr  Zr0  1  0.250000  0.513300  0.687996  1
  Zr  Zr1  1  0.250000  0.013300  0.812004  1
  Zr  Zr2  1  0.750000  0.981854  0.183002  1
  Zr  Zr3  1  0.750000  0.481854  0.316998  1
  Co  Co4  1  0.750000  0.361578  0.935098  1
  Co  Co5  1  0.250000  0.143575  0.441912  1
  Co  Co6  1  0.750000  0.861578  0.564902  1
  Co  Co7  1  0.250000  0.643575  0.058088  1
  Si  Si8  1  0.250000  0.778703  0.390015  1
  Si  Si9  1  0.250000  0.278703  0.109985  1
  P  P10  1  0.750000  0.220990  0.611115  1
  P  P11  1  0.750000  0.720990  0.888885  1
