# generated using pymatgen
data_Tm3Nb(Co4As3)2
_symmetry_space_group_name_H-M   'P 1'
_cell_length_a   3.81592700
_cell_length_b   11.00169600
_cell_length_c   12.73241600
_cell_angle_alpha   90.00000000
_cell_angle_beta   90.00000000
_cell_angle_gamma   90.00000000
_symmetry_Int_Tables_number   1
_chemical_formula_structural   Tm3Nb(Co4As3)2
_chemical_formula_sum   'Tm6 Nb2 Co16 As12'
_cell_volume   534.52807169
_cell_formula_units_Z   2
loop_
 _symmetry_equiv_pos_site_id
 _symmetry_equiv_pos_as_xyz
  1  'x, y, z'
loop_
 _atom_site_type_symbol
 _atom_site_label
 _atom_site_symmetry_multiplicity
 _atom_site_fract_x
 _atom_site_fract_y
 _atom_site_fract_z
 _atom_site_occupancy
  Tm  Tm0  1  0.000000  0.500000  0.529184  1
  Tm  Tm1  1  0.500000  0.000000  0.470816  1
  Tm  Tm2  1  0.500000  0.822035  0.205762  1
  Tm  Tm3  1  0.500000  0.177965  0.205762  1
  Tm  Tm4  1  0.000000  0.677965  0.794238  1
  Tm  Tm5  1  0.000000  0.322035  0.794238  1
  Nb  Nb6  1  0.500000  0.500000  0.155403  1
  Nb  Nb7  1  0.000000  0.000000  0.844597  1
  Co  Co8  1  0.500000  0.500000  0.700990  1
  Co  Co9  1  0.000000  0.000000  0.299010  1
  Co  Co10  1  0.000000  0.500000  0.987350  1
  Co  Co11  1  0.500000  0.000000  0.012650  1
  Co  Co12  1  0.500000  0.333334  0.994227  1
  Co  Co13  1  0.500000  0.666666  0.994227  1
  Co  Co14  1  0.000000  0.166666  0.005773  1
  Co  Co15  1  0.000000  0.833334  0.005773  1
  Co  Co16  1  0.500000  0.296924  0.431867  1
  Co  Co17  1  0.500000  0.703076  0.431867  1
  Co  Co18  1  0.000000  0.203076  0.568133  1
  Co  Co19  1  0.000000  0.796924  0.568133  1
  Co  Co20  1  0.500000  0.878312  0.704929  1
  Co  Co21  1  0.500000  0.121688  0.704929  1
  Co  Co22  1  0.000000  0.621688  0.295071  1
  Co  Co23  1  0.000000  0.378312  0.295071  1
  As  As24  1  0.500000  0.500000  0.880026  1
  As  As25  1  0.000000  0.000000  0.119974  1
  As  As26  1  0.500000  0.500000  0.358738  1
  As  As27  1  0.000000  0.000000  0.641262  1
  As  As28  1  0.500000  0.313128  0.616526  1
  As  As29  1  0.500000  0.686872  0.616526  1
  As  As30  1  0.000000  0.186872  0.383474  1
  As  As31  1  0.000000  0.813128  0.383474  1
  As  As32  1  0.500000  0.838692  0.889661  1
  As  As33  1  0.500000  0.161308  0.889661  1
  As  As34  1  0.000000  0.661308  0.110339  1
  As  As35  1  0.000000  0.338692  0.110339  1
