# generated using pymatgen
data_Hf2Th6Sn7Sb3
_symmetry_space_group_name_H-M   'P 1'
_cell_length_a   9.42330700
_cell_length_b   9.41279492
_cell_length_c   6.27547700
_cell_angle_alpha   90.00000000
_cell_angle_beta   90.00000000
_cell_angle_gamma   120.11434194
_symmetry_Int_Tables_number   1
_chemical_formula_structural   Hf2Th6Sn7Sb3
_chemical_formula_sum   'Hf2 Th6 Sn7 Sb3'
_cell_volume   481.50163794
_cell_formula_units_Z   1
loop_
 _symmetry_equiv_pos_site_id
 _symmetry_equiv_pos_as_xyz
  1  'x, y, z'
loop_
 _atom_site_type_symbol
 _atom_site_label
 _atom_site_symmetry_multiplicity
 _atom_site_fract_x
 _atom_site_fract_y
 _atom_site_fract_z
 _atom_site_occupancy
  Hf  Hf0  1  0.000806  0.000301  0.498592  1
  Hf  Hf1  1  0.000806  0.000301  0.001408  1
  Th  Th2  1  0.619910  0.001136  0.750000  1
  Th  Th3  1  0.379973  0.000489  0.250000  1
  Th  Th4  1  0.001760  0.618907  0.750000  1
  Th  Th5  1  0.997449  0.378553  0.250000  1
  Th  Th6  1  0.385317  0.384429  0.750000  1
  Th  Th7  1  0.614265  0.616388  0.250000  1
  Sn  Sn8  1  0.998190  0.730367  0.250000  1
  Sn  Sn9  1  0.733884  0.732488  0.750000  1
  Sn  Sn10  1  0.267679  0.268306  0.250000  1
  Sn  Sn11  1  0.333138  0.665929  0.499346  1
  Sn  Sn12  1  0.666779  0.335186  0.499305  1
  Sn  Sn13  1  0.666779  0.335186  0.000695  1
  Sn  Sn14  1  0.333138  0.665929  0.000654  1
  Sb  Sb15  1  0.267099  0.000672  0.750000  1
  Sb  Sb16  1  0.731512  0.998627  0.250000  1
  Sb  Sb17  1  0.001516  0.266808  0.750000  1
