# generated using pymatgen
data_Pr5NdTm10(CdIr)4
_symmetry_space_group_name_H-M   'P 1'
_cell_length_a   9.70232891
_cell_length_b   9.69867333
_cell_length_c   9.69867346
_cell_angle_alpha   59.96803129
_cell_angle_beta   59.98752616
_cell_angle_gamma   59.98752649
_symmetry_Int_Tables_number   1
_chemical_formula_structural   Pr5NdTm10(CdIr)4
_chemical_formula_sum   'Pr5 Nd1 Tm10 Cd4 Ir4'
_cell_volume   645.05799155
_cell_formula_units_Z   1
loop_
 _symmetry_equiv_pos_site_id
 _symmetry_equiv_pos_as_xyz
  1  'x, y, z'
loop_
 _atom_site_type_symbol
 _atom_site_label
 _atom_site_symmetry_multiplicity
 _atom_site_fract_x
 _atom_site_fract_y
 _atom_site_fract_z
 _atom_site_occupancy
  Pr  Pr0  1  0.558226  0.941774  0.941774  1
  Pr  Pr1  1  0.558545  0.941319  0.558285  1
  Pr  Pr2  1  0.941852  0.558285  0.941319  1
  Pr  Pr3  1  0.558545  0.558285  0.941319  1
  Pr  Pr4  1  0.941852  0.941319  0.558285  1
  Nd  Nd5  1  0.941802  0.558198  0.558198  1
  Tm  Tm6  1  0.345791  0.346619  0.346619  1
  Tm  Tm7  1  0.346147  0.346802  0.960903  1
  Tm  Tm8  1  0.346147  0.960903  0.346802  1
  Tm  Tm9  1  0.960972  0.346619  0.346619  1
  Tm  Tm10  1  0.813614  0.186386  0.186386  1
  Tm  Tm11  1  0.186341  0.813659  0.813659  1
  Tm  Tm12  1  0.186696  0.813163  0.186105  1
  Tm  Tm13  1  0.814036  0.186105  0.813163  1
  Tm  Tm14  1  0.186696  0.186105  0.813163  1
  Tm  Tm15  1  0.814036  0.813163  0.186105  1
  Cd  Cd16  1  0.579197  0.578980  0.578980  1
  Cd  Cd17  1  0.579016  0.579163  0.262803  1
  Cd  Cd18  1  0.579016  0.262803  0.579163  1
  Cd  Cd19  1  0.262841  0.578980  0.578980  1
  Ir  Ir20  1  0.140620  0.141312  0.141312  1
  Ir  Ir21  1  0.140628  0.141790  0.576954  1
  Ir  Ir22  1  0.140628  0.576954  0.141790  1
  Ir  Ir23  1  0.576755  0.141312  0.141312  1
