# generated using pymatgen
data_Tb3DyGe2As4Ir7
_symmetry_space_group_name_H-M   'P 1'
_cell_length_a   7.30286644
_cell_length_b   7.30286489
_cell_length_c   7.31396600
_cell_angle_alpha   109.21449792
_cell_angle_beta   109.21450072
_cell_angle_gamma   109.92619714
_symmetry_Int_Tables_number   1
_chemical_formula_structural   Tb3DyGe2As4Ir7
_chemical_formula_sum   'Tb3 Dy1 Ge2 As4 Ir7'
_cell_volume   300.47881047
_cell_formula_units_Z   1
loop_
 _symmetry_equiv_pos_site_id
 _symmetry_equiv_pos_as_xyz
  1  'x, y, z'
loop_
 _atom_site_type_symbol
 _atom_site_label
 _atom_site_symmetry_multiplicity
 _atom_site_fract_x
 _atom_site_fract_y
 _atom_site_fract_z
 _atom_site_occupancy
  Tb  Tb0  1  0.000598  0.000598  0.500153  1
  Tb  Tb1  1  0.000601  0.500600  0.001260  1
  Tb  Tb2  1  0.500600  0.000601  0.001260  1
  Dy  Dy3  1  0.499760  0.499760  0.500281  1
  Ge  Ge4  1  0.680924  0.997900  0.679238  1
  Ge  Ge5  1  0.997900  0.680924  0.679238  1
  As  As6  1  0.680799  0.680799  0.997270  1
  As  As7  1  0.323955  0.999343  0.322904  1
  As  As8  1  0.999343  0.323955  0.322904  1
  As  As9  1  0.316778  0.316778  0.997952  1
  Ir  Ir10  1  0.751839  0.252244  0.504163  1
  Ir  Ir11  1  0.748631  0.501968  0.251005  1
  Ir  Ir12  1  0.502436  0.250935  0.752967  1
  Ir  Ir13  1  0.250935  0.502436  0.752967  1
  Ir  Ir14  1  0.252244  0.751839  0.504163  1
  Ir  Ir15  1  0.501968  0.748631  0.251005  1
  Ir  Ir16  1  0.990688  0.990688  0.981270  1
