# generated using pymatgen
data_LaNdTh2(CoB10)2
_symmetry_space_group_name_H-M   'P 1'
_cell_length_a   4.18821500
_cell_length_b   5.63160292
_cell_length_c   11.24116368
_cell_angle_alpha   90.11657241
_cell_angle_beta   90.00000000
_cell_angle_gamma   90.00000000
_symmetry_Int_Tables_number   1
_chemical_formula_structural   LaNdTh2(CoB10)2
_chemical_formula_sum   'La1 Nd1 Th2 Co2 B20'
_cell_volume   265.13762752
_cell_formula_units_Z   1
loop_
 _symmetry_equiv_pos_site_id
 _symmetry_equiv_pos_as_xyz
  1  'x, y, z'
loop_
 _atom_site_type_symbol
 _atom_site_label
 _atom_site_symmetry_multiplicity
 _atom_site_fract_x
 _atom_site_fract_y
 _atom_site_fract_z
 _atom_site_occupancy
  La  La0  1  0.500000  0.302406  0.865754  1
  Nd  Nd1  1  0.500000  0.698536  0.134428  1
  Th  Th2  1  0.500000  0.801420  0.634605  1
  Th  Th3  1  0.500000  0.197884  0.364844  1
  Co  Co4  1  0.000000  0.499920  0.499717  1
  Co  Co5  1  0.000000  0.999524  0.000660  1
  B  B6  1  0.000000  0.126760  0.539633  1
  B  B7  1  0.000000  0.873006  0.459663  1
  B  B8  1  0.000000  0.627618  0.959493  1
  B  B9  1  0.000000  0.373110  0.041571  1
  B  B10  1  0.000000  0.152533  0.696475  1
  B  B11  1  0.000000  0.847024  0.302979  1
  B  B12  1  0.299322  0.201744  0.113692  1
  B  B13  1  0.299085  0.799805  0.886800  1
  B  B14  1  0.699928  0.701535  0.386504  1
  B  B15  1  0.700082  0.298362  0.612566  1
  B  B16  1  0.700915  0.799805  0.886800  1
  B  B17  1  0.700678  0.201744  0.113692  1
  B  B18  1  0.299918  0.298362  0.612566  1
  B  B19  1  0.300072  0.701535  0.386504  1
  B  B20  1  0.000000  0.035093  0.187503  1
  B  B21  1  0.000000  0.964125  0.812377  1
  B  B22  1  0.000000  0.534477  0.313481  1
  B  B23  1  0.000000  0.464690  0.686675  1
  B  B24  1  0.000000  0.345131  0.198091  1
  B  B25  1  0.000000  0.653854  0.802927  1
