# generated using pymatgen
data_Ca(GdSi)2
_symmetry_space_group_name_H-M   'P 1'
_cell_length_a   7.59572500
_cell_length_b   7.59572500
_cell_length_c   4.30660600
_cell_angle_alpha   90.00000000
_cell_angle_beta   90.00000000
_cell_angle_gamma   90.00037716
_symmetry_Int_Tables_number   1
_chemical_formula_structural   Ca(GdSi)2
_chemical_formula_sum   'Ca2 Gd4 Si4'
_cell_volume   248.46979801
_cell_formula_units_Z   2
loop_
 _symmetry_equiv_pos_site_id
 _symmetry_equiv_pos_as_xyz
  1  'x, y, z'
loop_
 _atom_site_type_symbol
 _atom_site_label
 _atom_site_symmetry_multiplicity
 _atom_site_fract_x
 _atom_site_fract_y
 _atom_site_fract_z
 _atom_site_occupancy
  Ca  Ca0  1  0.000000  0.000000  0.000000  1
  Ca  Ca1  1  0.500001  0.500001  0.000000  1
  Gd  Gd2  1  0.323123  0.176876  0.500000  1
  Gd  Gd3  1  0.823123  0.323122  0.500000  1
  Gd  Gd4  1  0.176877  0.676878  0.500000  1
  Gd  Gd5  1  0.676877  0.823124  0.500000  1
  Si  Si6  1  0.612654  0.112654  0.000000  1
  Si  Si7  1  0.112654  0.387346  0.000000  1
  Si  Si8  1  0.887346  0.612654  0.000000  1
  Si  Si9  1  0.387346  0.887346  0.000000  1
