# generated using pymatgen
data_LaNd6Er9(CdPt)4
_symmetry_space_group_name_H-M   'P 1'
_cell_length_a   9.76408024
_cell_length_b   9.76408071
_cell_length_c   9.76408054
_cell_angle_alpha   60.35799099
_cell_angle_beta   60.35799210
_cell_angle_gamma   60.35798938
_symmetry_Int_Tables_number   1
_chemical_formula_structural   LaNd6Er9(CdPt)4
_chemical_formula_sum   'La1 Nd6 Er9 Cd4 Pt4'
_cell_volume   663.56247579
_cell_formula_units_Z   1
loop_
 _symmetry_equiv_pos_site_id
 _symmetry_equiv_pos_as_xyz
  1  'x, y, z'
loop_
 _atom_site_type_symbol
 _atom_site_label
 _atom_site_symmetry_multiplicity
 _atom_site_fract_x
 _atom_site_fract_y
 _atom_site_fract_z
 _atom_site_occupancy
  La  La0  1  0.350625  0.350625  0.350625  1
  Nd  Nd1  1  0.938630  0.562268  0.562268  1
  Nd  Nd2  1  0.560817  0.938148  0.938148  1
  Nd  Nd3  1  0.562268  0.938630  0.562268  1
  Nd  Nd4  1  0.938148  0.560817  0.938148  1
  Nd  Nd5  1  0.562268  0.562268  0.938630  1
  Nd  Nd6  1  0.938148  0.938148  0.560817  1
  Er  Er7  1  0.350812  0.350812  0.946497  1
  Er  Er8  1  0.350812  0.946497  0.350812  1
  Er  Er9  1  0.946497  0.350812  0.350812  1
  Er  Er10  1  0.815642  0.186435  0.186435  1
  Er  Er11  1  0.187727  0.812423  0.812423  1
  Er  Er12  1  0.186435  0.815642  0.186435  1
  Er  Er13  1  0.812423  0.187727  0.812423  1
  Er  Er14  1  0.186435  0.186435  0.815642  1
  Er  Er15  1  0.812423  0.812423  0.187727  1
  Cd  Cd16  1  0.579782  0.579782  0.579782  1
  Cd  Cd17  1  0.582084  0.582084  0.260119  1
  Cd  Cd18  1  0.582084  0.260119  0.582084  1
  Cd  Cd19  1  0.260119  0.582084  0.582084  1
  Pt  Pt20  1  0.143184  0.143184  0.143184  1
  Pt  Pt21  1  0.138726  0.138726  0.575185  1
  Pt  Pt22  1  0.138726  0.575185  0.138726  1
  Pt  Pt23  1  0.575185  0.138726  0.138726  1
