# generated using pymatgen
data_YHo5(FeCo3)4
_symmetry_space_group_name_H-M   'P 1'
_cell_length_a   7.60301759
_cell_length_b   7.60315768
_cell_length_c   7.60266729
_cell_angle_alpha   109.50129711
_cell_angle_beta   109.45460201
_cell_angle_gamma   109.45721040
_symmetry_Int_Tables_number   1
_chemical_formula_structural   YHo5(FeCo3)4
_chemical_formula_sum   'Y1 Ho5 Fe4 Co12'
_cell_volume   338.31945997
_cell_formula_units_Z   1
loop_
 _symmetry_equiv_pos_site_id
 _symmetry_equiv_pos_as_xyz
  1  'x, y, z'
loop_
 _atom_site_type_symbol
 _atom_site_label
 _atom_site_symmetry_multiplicity
 _atom_site_fract_x
 _atom_site_fract_y
 _atom_site_fract_z
 _atom_site_occupancy
  Y  Y0  1  0.000000  0.282724  0.282715  1
  Ho  Ho1  1  0.715878  0.715749  0.999840  1
  Ho  Ho2  1  0.715763  0.999801  0.715759  1
  Ho  Ho3  1  0.284237  0.284038  0.999996  1
  Ho  Ho4  1  0.000000  0.716115  0.716155  1
  Ho  Ho5  1  0.284122  0.999871  0.283962  1
  Fe  Fe6  1  0.500408  0.500231  0.500190  1
  Fe  Fe7  1  0.000000  0.500199  0.999784  1
  Fe  Fe8  1  0.499592  0.999823  0.999782  1
  Fe  Fe9  1  0.000000  0.999823  0.500231  1
  Co  Co10  1  0.664573  0.664594  0.329205  1
  Co  Co11  1  0.664598  0.329224  0.664620  1
  Co  Co12  1  0.335751  0.671147  0.335445  1
  Co  Co13  1  0.335427  0.000022  0.664634  1
  Co  Co14  1  0.670079  0.335418  0.335407  1
  Co  Co15  1  0.335402  0.664626  0.000023  1
  Co  Co16  1  0.000000  0.335425  0.665313  1
  Co  Co17  1  0.664293  0.999689  0.335402  1
  Co  Co18  1  0.329921  0.665339  0.665328  1
  Co  Co19  1  0.335707  0.335396  0.671112  1
  Co  Co20  1  0.000000  0.665350  0.335402  1
  Co  Co21  1  0.664249  0.335395  0.999693  1
