# generated using pymatgen
data_Tb3Dy(Er2Ni)4
_symmetry_space_group_name_H-M   'P 1'
_cell_length_a   6.33197102
_cell_length_b   6.80598519
_cell_length_c   9.47601600
_cell_angle_alpha   90.00000000
_cell_angle_beta   90.00000000
_cell_angle_gamma   90.00866490
_symmetry_Int_Tables_number   1
_chemical_formula_structural   Tb3Dy(Er2Ni)4
_chemical_formula_sum   'Tb3 Dy1 Er8 Ni4'
_cell_volume   408.37175729
_cell_formula_units_Z   1
loop_
 _symmetry_equiv_pos_site_id
 _symmetry_equiv_pos_as_xyz
  1  'x, y, z'
loop_
 _atom_site_type_symbol
 _atom_site_label
 _atom_site_symmetry_multiplicity
 _atom_site_fract_x
 _atom_site_fract_y
 _atom_site_fract_z
 _atom_site_occupancy
  Tb  Tb0  1  0.862070  0.531481  0.250000  1
  Tb  Tb1  1  0.637851  0.031681  0.250000  1
  Tb  Tb2  1  0.138187  0.468507  0.750000  1
  Dy  Dy3  1  0.361964  0.967857  0.750000  1
  Er  Er4  1  0.321003  0.678397  0.065676  1
  Er  Er5  1  0.179161  0.177856  0.434429  1
  Er  Er6  1  0.678874  0.321734  0.565939  1
  Er  Er7  1  0.820662  0.822085  0.934181  1
  Er  Er8  1  0.678874  0.321734  0.934061  1
  Er  Er9  1  0.820662  0.822085  0.565819  1
  Er  Er10  1  0.321003  0.678397  0.434324  1
  Er  Er11  1  0.179161  0.177856  0.065571  1
  Ni  Ni12  1  0.056932  0.892126  0.250000  1
  Ni  Ni13  1  0.442630  0.392192  0.250000  1
  Ni  Ni14  1  0.944421  0.107374  0.750000  1
  Ni  Ni15  1  0.556545  0.608637  0.750000  1
