# generated using pymatgen
data_BaSr3(WO4)4
_symmetry_space_group_name_H-M   'P 1'
_cell_length_a   5.14626165
_cell_length_b   5.72698489
_cell_length_c   14.19720642
_cell_angle_alpha   68.29915006
_cell_angle_beta   89.60590099
_cell_angle_gamma   89.49348221
_symmetry_Int_Tables_number   1
_chemical_formula_structural   BaSr3(WO4)4
_chemical_formula_sum   'Ba1 Sr3 W4 O16'
_cell_volume   388.75471541
_cell_formula_units_Z   1
loop_
 _symmetry_equiv_pos_site_id
 _symmetry_equiv_pos_as_xyz
  1  'x, y, z'
loop_
 _atom_site_type_symbol
 _atom_site_label
 _atom_site_symmetry_multiplicity
 _atom_site_fract_x
 _atom_site_fract_y
 _atom_site_fract_z
 _atom_site_occupancy
  Ba  Ba0  1  0.784926  0.147193  0.844559  1
  Sr  Sr1  1  0.724365  0.154707  0.344591  1
  Sr  Sr2  1  0.227100  0.843756  0.157995  1
  Sr  Sr3  1  0.269604  0.844256  0.654764  1
  W  W4  1  0.246973  0.587162  0.421483  1
  W  W5  1  0.751282  0.412885  0.080650  1
  W  W6  1  0.747960  0.418406  0.570616  1
  W  W7  1  0.253938  0.580963  0.928123  1
  O  O8  1  0.551452  0.731882  0.460230  1
  O  O9  1  0.054226  0.263350  0.038161  1
  O  O10  1  0.443513  0.270759  0.532624  1
  O  O11  1  0.951545  0.718401  0.972881  1
  O  O12  1  0.940413  0.373975  0.445863  1
  O  O13  1  0.448229  0.635893  0.052004  1
  O  O14  1  0.055908  0.632337  0.547188  1
  O  O15  1  0.561433  0.371158  0.954992  1
  O  O16  1  0.118455  0.888428  0.333006  1
  O  O17  1  0.618580  0.113839  0.168669  1
  O  O18  1  0.875424  0.114206  0.657465  1
  O  O19  1  0.358228  0.889177  0.837258  1
  O  O20  1  0.381389  0.489108  0.321829  1
  O  O21  1  0.884143  0.507305  0.180506  1
  O  O22  1  0.616110  0.519935  0.669638  1
  O  O23  1  0.134808  0.490921  0.824903  1
