# generated using pymatgen
data_Ho5Er2Tm5Os4
_symmetry_space_group_name_H-M   'P 1'
_cell_length_a   7.37390230
_cell_length_b   8.93965997
_cell_length_c   6.26564207
_cell_angle_alpha   89.91637885
_cell_angle_beta   89.95909296
_cell_angle_gamma   89.98490998
_symmetry_Int_Tables_number   1
_chemical_formula_structural   Ho5Er2Tm5Os4
_chemical_formula_sum   'Ho5 Er2 Tm5 Os4'
_cell_volume   413.03168883
_cell_formula_units_Z   1
loop_
 _symmetry_equiv_pos_site_id
 _symmetry_equiv_pos_as_xyz
  1  'x, y, z'
loop_
 _atom_site_type_symbol
 _atom_site_label
 _atom_site_symmetry_multiplicity
 _atom_site_fract_x
 _atom_site_fract_y
 _atom_site_fract_z
 _atom_site_occupancy
  Ho  Ho0  1  0.039857  0.250522  0.630305  1
  Ho  Ho1  1  0.959790  0.749518  0.369935  1
  Ho  Ho2  1  0.460190  0.749488  0.130109  1
  Ho  Ho3  1  0.540225  0.250382  0.869746  1
  Ho  Ho4  1  0.174896  0.062806  0.167029  1
  Er  Er5  1  0.825009  0.937003  0.832844  1
  Er  Er6  1  0.325540  0.936997  0.666707  1
  Tm  Tm7  1  0.825452  0.562689  0.833129  1
  Tm  Tm8  1  0.674550  0.063008  0.333278  1
  Tm  Tm9  1  0.174406  0.437620  0.166875  1
  Tm  Tm10  1  0.674591  0.437134  0.333206  1
  Tm  Tm11  1  0.325513  0.562660  0.666798  1
  Os  Os12  1  0.383261  0.250603  0.459929  1
  Os  Os13  1  0.617242  0.749884  0.540317  1
  Os  Os14  1  0.117079  0.749149  0.959269  1
  Os  Os15  1  0.882400  0.250536  0.040522  1
