# generated using pymatgen
data_Hf6SiPb2
_symmetry_space_group_name_H-M   'P 1'
_cell_length_a   3.84755900
_cell_length_b   7.67235086
_cell_length_c   7.67235100
_cell_angle_alpha   119.99999629
_cell_angle_beta   90.00000000
_cell_angle_gamma   90.00000000
_symmetry_Int_Tables_number   1
_chemical_formula_structural   Hf6SiPb2
_chemical_formula_sum   'Hf6 Si1 Pb2'
_cell_volume   196.14301839
_cell_formula_units_Z   1
loop_
 _symmetry_equiv_pos_site_id
 _symmetry_equiv_pos_as_xyz
  1  'x, y, z'
loop_
 _atom_site_type_symbol
 _atom_site_label
 _atom_site_symmetry_multiplicity
 _atom_site_fract_x
 _atom_site_fract_y
 _atom_site_fract_z
 _atom_site_occupancy
  Hf  Hf0  1  0.500000  0.239180  0.000000  1
  Hf  Hf1  1  0.000000  0.618730  0.000000  1
  Hf  Hf2  1  0.500000  0.000000  0.239180  1
  Hf  Hf3  1  0.000000  0.381271  0.381271  1
  Hf  Hf4  1  0.000000  0.000000  0.618730  1
  Hf  Hf5  1  0.500000  0.760820  0.760820  1
  Si  Si6  1  0.000000  0.000000  0.000000  1
  Pb  Pb7  1  0.500000  0.666668  0.333334  1
  Pb  Pb8  1  0.500000  0.333334  0.666668  1
