# generated using pymatgen
data_SmY2ZnGa7Ag3
_symmetry_space_group_name_H-M   'P 1'
_cell_length_a   4.32266461
_cell_length_b   8.38429909
_cell_length_c   8.37710030
_cell_angle_alpha   69.98286532
_cell_angle_beta   75.04827985
_cell_angle_gamma   75.06143104
_symmetry_Int_Tables_number   1
_chemical_formula_structural   SmY2ZnGa7Ag3
_chemical_formula_sum   'Sm1 Y2 Zn1 Ga7 Ag3'
_cell_volume   270.76305916
_cell_formula_units_Z   1
loop_
 _symmetry_equiv_pos_site_id
 _symmetry_equiv_pos_as_xyz
  1  'x, y, z'
loop_
 _atom_site_type_symbol
 _atom_site_label
 _atom_site_symmetry_multiplicity
 _atom_site_fract_x
 _atom_site_fract_y
 _atom_site_fract_z
 _atom_site_occupancy
  Sm  Sm0  1  0.999217  0.000564  0.001003  1
  Y  Y1  1  0.300412  0.697301  0.701876  1
  Y  Y2  1  0.700566  0.300129  0.298737  1
  Zn  Zn3  1  0.338980  0.295002  0.027038  1
  Ga  Ga4  1  0.660125  0.707740  0.972010  1
  Ga  Ga5  1  0.341120  0.032271  0.285489  1
  Ga  Ga6  1  0.659212  0.972173  0.709403  1
  Ga  Ga7  1  0.144857  0.573133  0.137153  1
  Ga  Ga8  1  0.857608  0.418471  0.866312  1
  Ga  Ga9  1  0.143405  0.138216  0.574974  1
  Ga  Ga10  1  0.856455  0.862543  0.424545  1
  Ag  Ag11  1  0.499439  0.304999  0.696123  1
  Ag  Ag12  1  0.499480  0.696590  0.304450  1
  Ag  Ag13  1  0.999124  0.500867  0.500885  1
