# generated using pymatgen
data_SbBr13
_symmetry_space_group_name_H-M   'P 1'
_cell_length_a   12.09393912
_cell_length_b   10.56914903
_cell_length_c   15.08259569
_cell_angle_alpha   126.27349844
_cell_angle_beta   84.95518326
_cell_angle_gamma   106.18512991
_symmetry_Int_Tables_number   1
_chemical_formula_structural   SbBr13
_chemical_formula_sum   'Sb2 Br26'
_cell_volume   1485.27649878
_cell_formula_units_Z   2
loop_
 _symmetry_equiv_pos_site_id
 _symmetry_equiv_pos_as_xyz
  1  'x, y, z'
loop_
 _atom_site_type_symbol
 _atom_site_label
 _atom_site_symmetry_multiplicity
 _atom_site_fract_x
 _atom_site_fract_y
 _atom_site_fract_z
 _atom_site_occupancy
  Sb  Sb0  1  0.319307  0.849287  0.936351  1
  Sb  Sb1  1  0.680693  0.150713  0.063649  1
  Br  Br2  1  0.367927  0.648120  0.977476  1
  Br  Br3  1  0.632073  0.351880  0.022524  1
  Br  Br4  1  0.595916  0.801043  0.383376  1
  Br  Br5  1  0.404084  0.198957  0.616624  1
  Br  Br6  1  0.735866  0.706399  0.018267  1
  Br  Br7  1  0.264134  0.293601  0.981733  1
  Br  Br8  1  0.727381  0.979987  0.158485  1
  Br  Br9  1  0.272619  0.020013  0.841515  1
  Br  Br10  1  0.409599  0.119593  0.128642  1
  Br  Br11  1  0.590401  0.880407  0.871358  1
  Br  Br12  1  0.209539  0.622709  0.684491  1
  Br  Br13  1  0.790461  0.377291  0.315509  1
  Br  Br14  1  0.111351  0.817583  0.993667  1
  Br  Br15  1  0.888649  0.182417  0.006333  1
  Br  Br16  1  0.083459  0.095393  0.219730  1
  Br  Br17  1  0.916541  0.904607  0.780270  1
  Br  Br18  1  0.287276  0.927876  0.460026  1
  Br  Br19  1  0.712724  0.072124  0.539974  1
  Br  Br20  1  0.304698  0.418653  0.648751  1
  Br  Br21  1  0.695302  0.581347  0.351249  1
  Br  Br22  1  0.833749  0.367148  0.710626  1
  Br  Br23  1  0.166251  0.632852  0.289374  1
  Br  Br24  1  0.958448  0.699164  0.604138  1
  Br  Br25  1  0.041552  0.300836  0.395862  1
  Br  Br26  1  0.259332  0.636931  0.135814  1
  Br  Br27  1  0.740668  0.363069  0.864186  1
