# generated using pymatgen
data_Tm6Lu10MgCo4Ag3
_symmetry_space_group_name_H-M   'P 1'
_cell_length_a   9.26625985
_cell_length_b   9.27205115
_cell_length_c   9.27205100
_cell_angle_alpha   60.00000410
_cell_angle_beta   59.97932750
_cell_angle_gamma   59.97932373
_symmetry_Int_Tables_number   1
_chemical_formula_structural   Tm6Lu10MgCo4Ag3
_chemical_formula_sum   'Tm6 Lu10 Mg1 Co4 Ag3'
_cell_volume   563.12568409
_cell_formula_units_Z   1
loop_
 _symmetry_equiv_pos_site_id
 _symmetry_equiv_pos_as_xyz
  1  'x, y, z'
loop_
 _atom_site_type_symbol
 _atom_site_label
 _atom_site_symmetry_multiplicity
 _atom_site_fract_x
 _atom_site_fract_y
 _atom_site_fract_z
 _atom_site_occupancy
  Tm  Tm0  1  0.935448  0.562452  0.562452  1
  Tm  Tm1  1  0.561612  0.937514  0.937514  1
  Tm  Tm2  1  0.561612  0.937514  0.563361  1
  Tm  Tm3  1  0.935448  0.562452  0.939647  1
  Tm  Tm4  1  0.561612  0.563361  0.937514  1
  Tm  Tm5  1  0.935448  0.939647  0.562452  1
  Lu  Lu6  1  0.346297  0.345206  0.345206  1
  Lu  Lu7  1  0.346297  0.345206  0.963293  1
  Lu  Lu8  1  0.346297  0.963293  0.345206  1
  Lu  Lu9  1  0.952896  0.349035  0.349035  1
  Lu  Lu10  1  0.809990  0.188850  0.188850  1
  Lu  Lu11  1  0.185480  0.813999  0.813999  1
  Lu  Lu12  1  0.185480  0.813999  0.186522  1
  Lu  Lu13  1  0.809990  0.188850  0.812309  1
  Lu  Lu14  1  0.185480  0.186522  0.813999  1
  Lu  Lu15  1  0.809990  0.812309  0.188850  1
  Mg  Mg16  1  0.287503  0.570832  0.570832  1
  Co  Co17  1  0.138638  0.142506  0.142506  1
  Co  Co18  1  0.138638  0.142506  0.576349  1
  Co  Co19  1  0.138638  0.576349  0.142506  1
  Co  Co20  1  0.576249  0.141250  0.141250  1
  Ag  Ag21  1  0.583653  0.582874  0.582874  1
  Ag  Ag22  1  0.583653  0.582874  0.250598  1
  Ag  Ag23  1  0.583653  0.250598  0.582874  1
