# generated using pymatgen
data_Tb18Dy2Si15Ag
_symmetry_space_group_name_H-M   'P 1'
_cell_length_a   7.49299272
_cell_length_b   7.72738359
_cell_length_c   14.71416884
_cell_angle_alpha   89.79742278
_cell_angle_beta   89.42862881
_cell_angle_gamma   90.16507110
_symmetry_Int_Tables_number   1
_chemical_formula_structural   Tb18Dy2Si15Ag
_chemical_formula_sum   'Tb18 Dy2 Si15 Ag1'
_cell_volume   851.91714836
_cell_formula_units_Z   1
loop_
 _symmetry_equiv_pos_site_id
 _symmetry_equiv_pos_as_xyz
  1  'x, y, z'
loop_
 _atom_site_type_symbol
 _atom_site_label
 _atom_site_symmetry_multiplicity
 _atom_site_fract_x
 _atom_site_fract_y
 _atom_site_fract_z
 _atom_site_occupancy
  Tb  Tb0  1  0.648201  0.991098  0.250038  1
  Tb  Tb1  1  0.149704  0.511642  0.248034  1
  Tb  Tb2  1  0.848270  0.488827  0.749612  1
  Tb  Tb3  1  0.349601  0.011702  0.750045  1
  Tb  Tb4  1  0.976085  0.823079  0.101476  1
  Tb  Tb5  1  0.471180  0.684068  0.401211  1
  Tb  Tb6  1  0.520246  0.314342  0.898302  1
  Tb  Tb7  1  0.030038  0.182707  0.598874  1
  Tb  Tb8  1  0.030294  0.175945  0.899427  1
  Tb  Tb9  1  0.529928  0.316077  0.598662  1
  Tb  Tb10  1  0.473105  0.683217  0.100984  1
  Tb  Tb11  1  0.969021  0.816327  0.399925  1
  Tb  Tb12  1  0.675294  0.826054  0.876011  1
  Tb  Tb13  1  0.181858  0.680301  0.621521  1
  Tb  Tb14  1  0.820549  0.324072  0.124160  1
  Tb  Tb15  1  0.317271  0.178260  0.377710  1
  Tb  Tb16  1  0.323170  0.178602  0.123360  1
  Tb  Tb17  1  0.819144  0.320391  0.377687  1
  Dy  Dy18  1  0.182474  0.675746  0.877686  1
  Dy  Dy19  1  0.682243  0.821255  0.622332  1
  Si  Si20  1  0.764855  0.627887  0.251597  1
  Si  Si21  1  0.265522  0.873816  0.251327  1
  Si  Si22  1  0.734776  0.124967  0.748467  1
  Si  Si23  1  0.232120  0.374425  0.747637  1
  Si  Si24  1  0.023136  0.104453  0.250484  1
  Si  Si25  1  0.524475  0.396948  0.252364  1
  Si  Si26  1  0.474697  0.604291  0.748087  1
  Si  Si27  1  0.975996  0.892218  0.748490  1
  Si  Si28  1  0.356645  0.971366  0.540145  1
  Si  Si29  1  0.649461  0.028271  0.041096  1
  Si  Si30  1  0.145409  0.470789  0.460234  1
  Si  Si31  1  0.158328  0.471145  0.041818  1
  Si  Si32  1  0.644781  0.028015  0.459921  1
  Si  Si33  1  0.351455  0.968576  0.961255  1
  Si  Si34  1  0.855827  0.529915  0.538865  1
  Ag  Ag35  1  0.844839  0.529204  0.961157  1
