# generated using pymatgen
data_PrTh3Ge4PtRh3
_symmetry_space_group_name_H-M   'P 1'
_cell_length_a   4.45328800
_cell_length_b   7.74187079
_cell_length_c   14.59082153
_cell_angle_alpha   90.78208560
_cell_angle_beta   90.00000000
_cell_angle_gamma   90.00000000
_symmetry_Int_Tables_number   1
_chemical_formula_structural   PrTh3Ge4PtRh3
_chemical_formula_sum   'Pr2 Th6 Ge8 Pt2 Rh6'
_cell_volume   502.99768442
_cell_formula_units_Z   2
loop_
 _symmetry_equiv_pos_site_id
 _symmetry_equiv_pos_as_xyz
  1  'x, y, z'
loop_
 _atom_site_type_symbol
 _atom_site_label
 _atom_site_symmetry_multiplicity
 _atom_site_fract_x
 _atom_site_fract_y
 _atom_site_fract_z
 _atom_site_occupancy
  Pr  Pr0  1  0.500000  0.698936  0.498130  1
  Pr  Pr1  1  0.000000  0.301064  0.001870  1
  Th  Th2  1  0.500000  0.790235  0.747255  1
  Th  Th3  1  0.000000  0.209765  0.752745  1
  Th  Th4  1  0.500000  0.796870  0.253540  1
  Th  Th5  1  0.000000  0.203130  0.246460  1
  Th  Th6  1  0.500000  0.729128  0.002137  1
  Th  Th7  1  0.000000  0.270872  0.497863  1
  Ge  Ge8  1  0.500000  0.403524  0.641321  1
  Ge  Ge9  1  0.000000  0.596476  0.858679  1
  Ge  Ge10  1  0.500000  0.403912  0.359061  1
  Ge  Ge11  1  0.000000  0.596088  0.140939  1
  Ge  Ge12  1  0.500000  0.101728  0.097582  1
  Ge  Ge13  1  0.000000  0.898272  0.402418  1
  Ge  Ge14  1  0.500000  0.094271  0.904458  1
  Ge  Ge15  1  0.000000  0.905729  0.595542  1
  Pt  Pt16  1  0.500000  0.424287  0.849493  1
  Pt  Pt17  1  0.000000  0.575713  0.650507  1
  Rh  Rh18  1  0.500000  0.071882  0.617982  1
  Rh  Rh19  1  0.000000  0.928118  0.882018  1
  Rh  Rh20  1  0.500000  0.070824  0.383690  1
  Rh  Rh21  1  0.000000  0.929176  0.116310  1
  Rh  Rh22  1  0.500000  0.432743  0.174875  1
  Rh  Rh23  1  0.000000  0.567257  0.325125  1
