# generated using pymatgen
data_Pr16Mg3CdIr3Os
_symmetry_space_group_name_H-M   'P 1'
_cell_length_a   10.10537065
_cell_length_b   10.10005589
_cell_length_c   10.10005617
_cell_angle_alpha   59.78177586
_cell_angle_beta   59.67874839
_cell_angle_gamma   59.67874775
_symmetry_Int_Tables_number   1
_chemical_formula_structural   Pr16Mg3CdIr3Os
_chemical_formula_sum   'Pr16 Mg3 Cd1 Ir3 Os1'
_cell_volume   724.17660423
_cell_formula_units_Z   1
loop_
 _symmetry_equiv_pos_site_id
 _symmetry_equiv_pos_as_xyz
  1  'x, y, z'
loop_
 _atom_site_type_symbol
 _atom_site_label
 _atom_site_symmetry_multiplicity
 _atom_site_fract_x
 _atom_site_fract_y
 _atom_site_fract_z
 _atom_site_occupancy
  Pr  Pr0  1  0.345928  0.347062  0.347062  1
  Pr  Pr1  1  0.345806  0.346039  0.960537  1
  Pr  Pr2  1  0.345806  0.960537  0.346039  1
  Pr  Pr3  1  0.961889  0.345889  0.345889  1
  Pr  Pr4  1  0.811872  0.188874  0.188874  1
  Pr  Pr5  1  0.190273  0.808955  0.808955  1
  Pr  Pr6  1  0.190058  0.810957  0.190088  1
  Pr  Pr7  1  0.810510  0.188452  0.810328  1
  Pr  Pr8  1  0.190058  0.190088  0.810957  1
  Pr  Pr9  1  0.810510  0.810328  0.188452  1
  Pr  Pr10  1  0.939651  0.561436  0.561436  1
  Pr  Pr11  1  0.558171  0.939688  0.939688  1
  Pr  Pr12  1  0.562338  0.937673  0.561696  1
  Pr  Pr13  1  0.941904  0.557349  0.938906  1
  Pr  Pr14  1  0.562338  0.561696  0.937673  1
  Pr  Pr15  1  0.941904  0.938906  0.557349  1
  Mg  Mg16  1  0.576373  0.578453  0.578453  1
  Mg  Mg17  1  0.575976  0.578517  0.265271  1
  Mg  Mg18  1  0.575976  0.265271  0.578517  1
  Cd  Cd19  1  0.258993  0.579925  0.579925  1
  Ir  Ir20  1  0.142688  0.142537  0.577874  1
  Ir  Ir21  1  0.142688  0.577874  0.142537  1
  Ir  Ir22  1  0.577667  0.142790  0.142790  1
  Os  Os23  1  0.140622  0.140702  0.140702  1
