# generated using pymatgen
data_Sr2NiH4
_symmetry_space_group_name_H-M   'P 1'
_cell_length_a   5.33488400
_cell_length_b   7.51370100
_cell_length_c   9.47846300
_cell_angle_alpha   90.00000000
_cell_angle_beta   90.00000000
_cell_angle_gamma   90.00000000
_symmetry_Int_Tables_number   1
_chemical_formula_structural   Sr2NiH4
_chemical_formula_sum   'Sr8 Ni4 H16'
_cell_volume   379.94156615
_cell_formula_units_Z   4
loop_
 _symmetry_equiv_pos_site_id
 _symmetry_equiv_pos_as_xyz
  1  'x, y, z'
loop_
 _atom_site_type_symbol
 _atom_site_label
 _atom_site_symmetry_multiplicity
 _atom_site_fract_x
 _atom_site_fract_y
 _atom_site_fract_z
 _atom_site_occupancy
  Sr  Sr0  1  0.250000  0.354219  0.905937  1
  Sr  Sr1  1  0.250000  0.854219  0.594063  1
  Sr  Sr2  1  0.750000  0.645781  0.094063  1
  Sr  Sr3  1  0.750000  0.145781  0.405937  1
  Sr  Sr4  1  0.250000  0.508858  0.334267  1
  Sr  Sr5  1  0.250000  0.008858  0.165733  1
  Sr  Sr6  1  0.750000  0.491142  0.665733  1
  Sr  Sr7  1  0.750000  0.991142  0.834267  1
  Ni  Ni8  1  0.250000  0.757697  0.917113  1
  Ni  Ni9  1  0.250000  0.257697  0.582887  1
  Ni  Ni10  1  0.750000  0.242303  0.082887  1
  Ni  Ni11  1  0.750000  0.742303  0.417113  1
  H  H12  1  0.250000  0.678584  0.078150  1
  H  H13  1  0.250000  0.178584  0.421850  1
  H  H14  1  0.750000  0.321416  0.921850  1
  H  H15  1  0.750000  0.821416  0.578150  1
  H  H16  1  0.250000  0.972283  0.897297  1
  H  H17  1  0.250000  0.472283  0.602703  1
  H  H18  1  0.750000  0.027717  0.102703  1
  H  H19  1  0.750000  0.527717  0.397297  1
  H  H20  1  0.999798  0.679977  0.843612  1
  H  H21  1  0.500202  0.179977  0.656388  1
  H  H22  1  0.499798  0.320023  0.156388  1
  H  H23  1  0.000202  0.820023  0.343612  1
  H  H24  1  0.000202  0.320023  0.156388  1
  H  H25  1  0.499798  0.820023  0.343612  1
  H  H26  1  0.500202  0.679977  0.843612  1
  H  H27  1  0.999798  0.179977  0.656388  1
