# generated using pymatgen
data_Cs8V7MoN16
_symmetry_space_group_name_H-M   'P 1'
_cell_length_a   5.97464435
_cell_length_b   8.45246050
_cell_length_c   11.94900100
_cell_angle_alpha   90.00000000
_cell_angle_beta   90.00000000
_cell_angle_gamma   90.03943345
_symmetry_Int_Tables_number   1
_chemical_formula_structural   Cs8V7MoN16
_chemical_formula_sum   'Cs8 V7 Mo1 N16'
_cell_volume   603.42972972
_cell_formula_units_Z   1
loop_
 _symmetry_equiv_pos_site_id
 _symmetry_equiv_pos_as_xyz
  1  'x, y, z'
loop_
 _atom_site_type_symbol
 _atom_site_label
 _atom_site_symmetry_multiplicity
 _atom_site_fract_x
 _atom_site_fract_y
 _atom_site_fract_z
 _atom_site_occupancy
  Cs  Cs0  1  0.748781  0.125099  0.999661  1
  Cs  Cs1  1  0.248310  0.870884  0.494286  1
  Cs  Cs2  1  0.248310  0.870884  0.005714  1
  Cs  Cs3  1  0.748781  0.125099  0.500339  1
  Cs  Cs4  1  0.738506  0.372960  0.250000  1
  Cs  Cs5  1  0.238108  0.622881  0.250000  1
  Cs  Cs6  1  0.264323  0.626456  0.750000  1
  Cs  Cs7  1  0.764348  0.385289  0.750000  1
  V  V8  1  0.248634  0.378610  0.004285  1
  V  V9  1  0.748719  0.625108  0.497469  1
  V  V10  1  0.748719  0.625108  0.002531  1
  V  V11  1  0.248634  0.378610  0.495715  1
  V  V12  1  0.242142  0.125053  0.250000  1
  V  V13  1  0.742124  0.877146  0.250000  1
  V  V14  1  0.760422  0.865619  0.750000  1
  Mo  Mo15  1  0.260465  0.124625  0.750000  1
  N  N16  1  0.987900  0.005173  0.250000  1
  N  N17  1  0.487983  0.996704  0.250000  1
  N  N18  1  0.017746  0.984899  0.750000  1
  N  N19  1  0.523178  0.004160  0.750000  1
  N  N20  1  0.247265  0.251326  0.373648  1
  N  N21  1  0.747338  0.753029  0.124904  1
  N  N22  1  0.750585  0.744302  0.874427  1
  N  N23  1  0.250162  0.253222  0.622279  1
  N  N24  1  0.750585  0.744302  0.625573  1
  N  N25  1  0.250162  0.253222  0.877721  1
  N  N26  1  0.247265  0.251326  0.126352  1
  N  N27  1  0.747338  0.753029  0.375096  1
  N  N28  1  0.497739  0.501834  0.496243  1
  N  N29  1  0.998847  0.501103  0.003777  1
  N  N30  1  0.497739  0.501834  0.003757  1
  N  N31  1  0.998847  0.501103  0.496223  1
