# generated using pymatgen
data_PrDy3Ho4(CdPt)2
_symmetry_space_group_name_H-M   'P 1'
_cell_length_a   9.71825351
_cell_length_b   9.71825311
_cell_length_c   9.69818400
_cell_angle_alpha   60.06828928
_cell_angle_beta   60.06829064
_cell_angle_gamma   59.86340840
_symmetry_Int_Tables_number   1
_chemical_formula_structural   PrDy3Ho4(CdPt)2
_chemical_formula_sum   'Pr2 Dy6 Ho8 Cd4 Pt4'
_cell_volume   647.66155137
_cell_formula_units_Z   2
loop_
 _symmetry_equiv_pos_site_id
 _symmetry_equiv_pos_as_xyz
  1  'x, y, z'
loop_
 _atom_site_type_symbol
 _atom_site_label
 _atom_site_symmetry_multiplicity
 _atom_site_fract_x
 _atom_site_fract_y
 _atom_site_fract_z
 _atom_site_occupancy
  Pr  Pr0  1  0.568202  0.568202  0.931798  1
  Pr  Pr1  1  0.931798  0.931798  0.568202  1
  Dy  Dy2  1  0.189352  0.189352  0.810648  1
  Dy  Dy3  1  0.810648  0.810648  0.189352  1
  Dy  Dy4  1  0.939274  0.560726  0.560726  1
  Dy  Dy5  1  0.560726  0.939274  0.939274  1
  Dy  Dy6  1  0.560726  0.939274  0.560726  1
  Dy  Dy7  1  0.939274  0.560726  0.939274  1
  Ho  Ho8  1  0.352028  0.352028  0.350376  1
  Ho  Ho9  1  0.352028  0.352028  0.945567  1
  Ho  Ho10  1  0.350376  0.945567  0.352028  1
  Ho  Ho11  1  0.945567  0.350376  0.352028  1
  Ho  Ho12  1  0.810675  0.189325  0.189325  1
  Ho  Ho13  1  0.189325  0.810675  0.810675  1
  Ho  Ho14  1  0.189325  0.810675  0.189325  1
  Ho  Ho15  1  0.810675  0.189325  0.810675  1
  Cd  Cd16  1  0.582757  0.582757  0.577439  1
  Cd  Cd17  1  0.582757  0.582757  0.257045  1
  Cd  Cd18  1  0.577439  0.257045  0.582757  1
  Cd  Cd19  1  0.257045  0.577439  0.582757  1
  Pt  Pt20  1  0.144464  0.144464  0.140546  1
  Pt  Pt21  1  0.144464  0.144464  0.570527  1
  Pt  Pt22  1  0.140546  0.570527  0.144464  1
  Pt  Pt23  1  0.570527  0.140546  0.144464  1
