# generated using pymatgen
data_Ca11LaPd12
_symmetry_space_group_name_H-M   'P 1'
_cell_length_a   5.78033235
_cell_length_b   4.51072900
_cell_length_c   22.18211751
_cell_angle_alpha   90.00000000
_cell_angle_beta   96.69624242
_cell_angle_gamma   90.00000000
_symmetry_Int_Tables_number   1
_chemical_formula_structural   Ca11LaPd12
_chemical_formula_sum   'Ca11 La1 Pd12'
_cell_volume   574.42028553
_cell_formula_units_Z   1
loop_
 _symmetry_equiv_pos_site_id
 _symmetry_equiv_pos_as_xyz
  1  'x, y, z'
loop_
 _atom_site_type_symbol
 _atom_site_label
 _atom_site_symmetry_multiplicity
 _atom_site_fract_x
 _atom_site_fract_y
 _atom_site_fract_z
 _atom_site_occupancy
  Ca  Ca0  1  0.176765  0.750000  0.108262  1
  Ca  Ca1  1  0.503558  0.250001  0.228579  1
  Ca  Ca2  1  0.025770  0.750000  0.274432  1
  Ca  Ca3  1  0.809792  0.250001  0.394149  1
  Ca  Ca4  1  0.332124  0.750000  0.439628  1
  Ca  Ca5  1  0.667431  0.250001  0.560501  1
  Ca  Ca6  1  0.190698  0.750000  0.606015  1
  Ca  Ca7  1  0.974466  0.250001  0.726457  1
  Ca  Ca8  1  0.497045  0.750000  0.772906  1
  Ca  Ca9  1  0.823835  0.250001  0.891543  1
  Ca  Ca10  1  0.333321  0.750000  0.936997  1
  La  La11  1  0.663581  0.250001  0.060376  1
  Pd  Pd12  1  0.152716  0.250001  0.014191  1
  Pd  Pd13  1  0.692023  0.750000  0.153408  1
  Pd  Pd14  1  0.985542  0.250001  0.179615  1
  Pd  Pd15  1  0.549870  0.750000  0.321474  1
  Pd  Pd16  1  0.283323  0.250001  0.345625  1
  Pd  Pd17  1  0.854470  0.750000  0.487873  1
  Pd  Pd18  1  0.145217  0.250001  0.512227  1
  Pd  Pd19  1  0.715910  0.750000  0.654289  1
  Pd  Pd20  1  0.450823  0.250001  0.678794  1
  Pd  Pd21  1  0.014718  0.750000  0.819283  1
  Pd  Pd22  1  0.304375  0.250001  0.845173  1
  Pd  Pd23  1  0.852628  0.750000  0.988201  1
