# generated using pymatgen
data_Ca7Th(Si3Pt)4
_symmetry_space_group_name_H-M   'P 1'
_cell_length_a   8.28053100
_cell_length_b   8.28053231
_cell_length_c   8.45126900
_cell_angle_alpha   90.00000000
_cell_angle_beta   90.00000000
_cell_angle_gamma   119.99999079
_symmetry_Int_Tables_number   1
_chemical_formula_structural   Ca7Th(Si3Pt)4
_chemical_formula_sum   'Ca7 Th1 Si12 Pt4'
_cell_volume   501.84435185
_cell_formula_units_Z   1
loop_
 _symmetry_equiv_pos_site_id
 _symmetry_equiv_pos_as_xyz
  1  'x, y, z'
loop_
 _atom_site_type_symbol
 _atom_site_label
 _atom_site_symmetry_multiplicity
 _atom_site_fract_x
 _atom_site_fract_y
 _atom_site_fract_z
 _atom_site_occupancy
  Ca  Ca0  1  0.499801  0.500199  0.750000  1
  Ca  Ca1  1  0.500212  0.499788  0.250000  1
  Ca  Ca2  1  0.000397  0.500199  0.750000  1
  Ca  Ca3  1  0.999577  0.499788  0.250000  1
  Ca  Ca4  1  0.499801  0.999603  0.750000  1
  Ca  Ca5  1  0.500212  0.000423  0.250000  1
  Ca  Ca6  1  0.000000  0.000000  0.750000  1
  Th  Th7  1  0.000000  0.000000  0.250000  1
  Si  Si8  1  0.833903  0.166097  0.001829  1
  Si  Si9  1  0.166080  0.833920  0.002352  1
  Si  Si10  1  0.332194  0.166097  0.001829  1
  Si  Si11  1  0.166080  0.833920  0.497648  1
  Si  Si12  1  0.667837  0.833920  0.002352  1
  Si  Si13  1  0.833903  0.166097  0.498171  1
  Si  Si14  1  0.833903  0.667806  0.001829  1
  Si  Si15  1  0.667837  0.833920  0.497648  1
  Si  Si16  1  0.166080  0.332163  0.002352  1
  Si  Si17  1  0.332194  0.166097  0.498171  1
  Si  Si18  1  0.166080  0.332163  0.497648  1
  Si  Si19  1  0.833903  0.667806  0.498171  1
  Pt  Pt20  1  0.666667  0.333333  0.996916  1
  Pt  Pt21  1  0.333333  0.666667  0.997406  1
  Pt  Pt22  1  0.333333  0.666667  0.502594  1
  Pt  Pt23  1  0.666667  0.333333  0.503084  1
