# generated using pymatgen
data_Ho5Tm7In20
_symmetry_space_group_name_H-M   'P 1'
_cell_length_a   6.47130773
_cell_length_b   10.38464245
_cell_length_c   12.20867325
_cell_angle_alpha   89.92356921
_cell_angle_beta   89.95594772
_cell_angle_gamma   90.00072125
_symmetry_Int_Tables_number   1
_chemical_formula_structural   Ho5Tm7In20
_chemical_formula_sum   'Ho5 Tm7 In20'
_cell_volume   820.44893555
_cell_formula_units_Z   1
loop_
 _symmetry_equiv_pos_site_id
 _symmetry_equiv_pos_as_xyz
  1  'x, y, z'
loop_
 _atom_site_type_symbol
 _atom_site_label
 _atom_site_symmetry_multiplicity
 _atom_site_fract_x
 _atom_site_fract_y
 _atom_site_fract_z
 _atom_site_occupancy
  Ho  Ho0  1  0.390796  0.506448  0.358141  1
  Ho  Ho1  1  0.109198  0.506730  0.858481  1
  Ho  Ho2  1  0.390927  0.993480  0.358735  1
  Ho  Ho3  1  0.890533  0.006756  0.141246  1
  Ho  Ho4  1  0.609534  0.493276  0.642217  1
  Tm  Tm5  1  0.349132  0.750675  0.055184  1
  Tm  Tm6  1  0.150808  0.749306  0.555370  1
  Tm  Tm7  1  0.651130  0.250995  0.944742  1
  Tm  Tm8  1  0.850006  0.249267  0.444875  1
  Tm  Tm9  1  0.891321  0.493408  0.141059  1
  Tm  Tm10  1  0.608570  0.006448  0.641233  1
  Tm  Tm11  1  0.108539  0.993180  0.858963  1
  In  In12  1  0.615856  0.750374  0.505835  1
  In  In13  1  0.884495  0.749726  0.005563  1
  In  In14  1  0.385398  0.249627  0.495646  1
  In  In15  1  0.115328  0.249394  0.994123  1
  In  In16  1  0.649939  0.749565  0.244809  1
  In  In17  1  0.850302  0.751318  0.745267  1
  In  In18  1  0.350281  0.248679  0.755115  1
  In  In19  1  0.148839  0.250338  0.254205  1
  In  In20  1  0.126523  0.750110  0.283972  1
  In  In21  1  0.372246  0.751244  0.784299  1
  In  In22  1  0.872185  0.248700  0.715607  1
  In  In23  1  0.627735  0.250987  0.215780  1
  In  In24  1  0.875908  0.543051  0.400249  1
  In  In25  1  0.624561  0.957384  0.899940  1
  In  In26  1  0.124289  0.042601  0.600236  1
  In  In27  1  0.374981  0.456704  0.098811  1
  In  In28  1  0.124036  0.456134  0.598821  1
  In  In29  1  0.376322  0.043773  0.098603  1
  In  In30  1  0.876265  0.956376  0.401534  1
  In  In31  1  0.624020  0.543946  0.901341  1
