# generated using pymatgen
data_Li2Y4TmP12Ru17
_symmetry_space_group_name_H-M   'P 1'
_cell_length_a   12.71521402
_cell_length_b   12.51227970
_cell_length_c   3.96233900
_cell_angle_alpha   90.00000000
_cell_angle_beta   90.00000000
_cell_angle_gamma   120.53113610
_symmetry_Int_Tables_number   1
_chemical_formula_structural   Li2Y4TmP12Ru17
_chemical_formula_sum   'Li2 Y4 Tm1 P12 Ru17'
_cell_volume   542.99149938
_cell_formula_units_Z   1
loop_
 _symmetry_equiv_pos_site_id
 _symmetry_equiv_pos_as_xyz
  1  'x, y, z'
loop_
 _atom_site_type_symbol
 _atom_site_label
 _atom_site_symmetry_multiplicity
 _atom_site_fract_x
 _atom_site_fract_y
 _atom_site_fract_z
 _atom_site_occupancy
  Li  Li0  1  0.000590  0.562383  0.000000  1
  Li  Li1  1  0.438127  0.437562  0.000000  1
  Y  Y2  1  0.001226  0.182285  0.500000  1
  Y  Y3  1  0.818937  0.817589  0.500000  1
  Y  Y4  1  0.182926  0.000123  0.500000  1
  Y  Y5  1  0.337884  0.675106  0.000000  1
  Tm  Tm6  1  0.663032  0.324593  0.000000  1
  P  P7  1  0.997188  0.807881  0.000000  1
  P  P8  1  0.189938  0.191365  0.000000  1
  P  P9  1  0.819152  0.000527  0.000000  1
  P  P10  1  0.692010  0.170187  0.500000  1
  P  P11  1  0.814930  0.513283  0.500000  1
  P  P12  1  0.478223  0.301140  0.500000  1
  P  P13  1  0.175870  0.699297  0.500000  1
  P  P14  1  0.523148  0.831406  0.500000  1
  P  P15  1  0.301497  0.484894  0.500000  1
  P  P16  1  0.002296  0.371220  0.000000  1
  P  P17  1  0.630913  0.628755  0.000000  1
  P  P18  1  0.376737  0.000029  0.000000  1
  Ru  Ru19  1  0.557299  0.000186  0.000000  1
  Ru  Ru20  1  0.996767  0.710505  0.500000  1
  Ru  Ru21  1  0.286996  0.288718  0.500000  1
  Ru  Ru22  1  0.719048  0.000823  0.500000  1
  Ru  Ru23  1  0.808850  0.186422  0.000000  1
  Ru  Ru24  1  0.810472  0.612479  0.000000  1
  Ru  Ru25  1  0.378338  0.191935  0.000000  1
  Ru  Ru26  1  0.185119  0.808599  0.000000  1
  Ru  Ru27  1  0.623932  0.814748  0.000000  1
  Ru  Ru28  1  0.197219  0.385482  0.000000  1
  Ru  Ru29  1  0.872216  0.366132  0.500000  1
  Ru  Ru30  1  0.628179  0.508553  0.500000  1
  Ru  Ru31  1  0.493185  0.125314  0.500000  1
  Ru  Ru32  1  0.367633  0.876722  0.500000  1
  Ru  Ru33  1  0.507640  0.633844  0.500000  1
  Ru  Ru34  1  0.118342  0.489906  0.500000  1
  Ru  Ru35  1  0.004143  0.000009  0.000000  1
