# generated using pymatgen
data_Re6GeAs13
_symmetry_space_group_name_H-M   'P 1'
_cell_length_a   7.65718921
_cell_length_b   7.65718994
_cell_length_c   7.65718893
_cell_angle_alpha   109.59876975
_cell_angle_beta   109.21640845
_cell_angle_gamma   109.59877652
_symmetry_Int_Tables_number   1
_chemical_formula_structural   Re6GeAs13
_chemical_formula_sum   'Re6 Ge1 As13'
_cell_volume   345.60488391
_cell_formula_units_Z   1
loop_
 _symmetry_equiv_pos_site_id
 _symmetry_equiv_pos_as_xyz
  1  'x, y, z'
loop_
 _atom_site_type_symbol
 _atom_site_label
 _atom_site_symmetry_multiplicity
 _atom_site_fract_x
 _atom_site_fract_y
 _atom_site_fract_z
 _atom_site_occupancy
  Re  Re0  1  0.339622  0.000000  0.339622  1
  Re  Re1  1  0.001914  0.338563  0.340478  1
  Re  Re2  1  0.001914  0.661437  0.663351  1
  Re  Re3  1  0.336649  0.338563  0.998086  1
  Re  Re4  1  0.659522  0.661437  0.998086  1
  Re  Re5  1  0.660378  0.000000  0.660378  1
  Ge  Ge6  1  0.750000  0.500000  0.250000  1
  As  As7  1  0.500514  0.749117  0.249631  1
  As  As8  1  0.500514  0.250883  0.751396  1
  As  As9  1  0.750369  0.250883  0.499486  1
  As  As10  1  0.248604  0.749117  0.499486  1
  As  As11  1  0.250000  0.500000  0.750000  1
  As  As12  1  0.998920  0.998049  0.330799  1
  As  As13  1  0.669201  0.001951  0.001080  1
  As  As14  1  0.998920  0.668120  0.000870  1
  As  As15  1  0.332750  0.331880  0.330799  1
  As  As16  1  0.999130  0.331880  0.001080  1
  As  As17  1  0.669201  0.668120  0.667250  1
  As  As18  1  0.332750  0.001951  0.000870  1
  As  As19  1  0.999130  0.998049  0.667250  1
