# generated using pymatgen
data_Zr3ScFe2Si3Ge
_symmetry_space_group_name_H-M   'P 1'
_cell_length_a   5.34824899
_cell_length_b   5.34824894
_cell_length_c   9.55081467
_cell_angle_alpha   63.54112044
_cell_angle_beta   63.54112127
_cell_angle_gamma   43.13547097
_symmetry_Int_Tables_number   1
_chemical_formula_structural   Zr3ScFe2Si3Ge
_chemical_formula_sum   'Zr3 Sc1 Fe2 Si3 Ge1'
_cell_volume   163.95377213
_cell_formula_units_Z   1
loop_
 _symmetry_equiv_pos_site_id
 _symmetry_equiv_pos_as_xyz
  1  'x, y, z'
loop_
 _atom_site_type_symbol
 _atom_site_label
 _atom_site_symmetry_multiplicity
 _atom_site_fract_x
 _atom_site_fract_y
 _atom_site_fract_z
 _atom_site_occupancy
  Zr  Zr0  1  0.811473  0.811473  0.105747  1
  Zr  Zr1  1  0.002857  0.002857  0.327490  1
  Zr  Zr2  1  0.185477  0.185477  0.899544  1
  Sc  Sc3  1  0.999350  0.999350  0.669803  1
  Fe  Fe4  1  0.728049  0.728049  0.621269  1
  Fe  Fe5  1  0.274305  0.274305  0.374705  1
  Si  Si6  1  0.351646  0.351646  0.569190  1
  Si  Si7  1  0.512334  0.512334  0.127993  1
  Si  Si8  1  0.647636  0.647636  0.431152  1
  Ge  Ge9  1  0.486872  0.486872  0.873108  1
