# generated using pymatgen
data_Er3Be2(PPd5)4
_symmetry_space_group_name_H-M   'P 1'
_cell_length_a   8.65688878
_cell_length_b   8.58313640
_cell_length_c   8.58313604
_cell_angle_alpha   60.56931284
_cell_angle_beta   59.71534199
_cell_angle_gamma   59.71535225
_symmetry_Int_Tables_number   1
_chemical_formula_structural   Er3Be2(PPd5)4
_chemical_formula_sum   'Er3 Be2 P4 Pd20'
_cell_volume   450.89371251
_cell_formula_units_Z   1
loop_
 _symmetry_equiv_pos_site_id
 _symmetry_equiv_pos_as_xyz
  1  'x, y, z'
loop_
 _atom_site_type_symbol
 _atom_site_label
 _atom_site_symmetry_multiplicity
 _atom_site_fract_x
 _atom_site_fract_y
 _atom_site_fract_z
 _atom_site_occupancy
  Er  Er0  1  0.250000  0.250000  0.250000  1
  Er  Er1  1  0.750000  0.750000  0.750000  1
  Er  Er2  1  0.000000  0.000000  0.000000  1
  Be  Be3  1  0.733616  0.266384  0.266384  1
  Be  Be4  1  0.266384  0.733616  0.733616  1
  P  P5  1  0.266362  0.733638  0.266362  1
  P  P6  1  0.733638  0.266362  0.733638  1
  P  P7  1  0.266362  0.266362  0.733638  1
  P  P8  1  0.733638  0.733638  0.266362  1
  Pd  Pd9  1  0.387486  0.382301  0.382301  1
  Pd  Pd10  1  0.612514  0.617699  0.617699  1
  Pd  Pd11  1  0.382301  0.387486  0.847914  1
  Pd  Pd12  1  0.382301  0.847914  0.387486  1
  Pd  Pd13  1  0.617699  0.612514  0.152086  1
  Pd  Pd14  1  0.617699  0.152086  0.612514  1
  Pd  Pd15  1  0.847914  0.382301  0.382301  1
  Pd  Pd16  1  0.152086  0.617699  0.617699  1
  Pd  Pd17  1  0.344356  0.000000  0.000000  1
  Pd  Pd18  1  0.655644  0.000000  0.000000  1
  Pd  Pd19  1  0.000000  0.344356  0.655644  1
  Pd  Pd20  1  0.000000  0.655644  0.344356  1
  Pd  Pd21  1  0.997122  0.343562  0.002878  1
  Pd  Pd22  1  0.656438  0.002878  0.343562  1
  Pd  Pd23  1  0.002878  0.656438  0.997122  1
  Pd  Pd24  1  0.343562  0.997122  0.656438  1
  Pd  Pd25  1  0.997122  0.002878  0.343562  1
  Pd  Pd26  1  0.002878  0.997122  0.656438  1
  Pd  Pd27  1  0.656438  0.343562  0.002878  1
  Pd  Pd28  1  0.343562  0.656438  0.997122  1
