# generated using pymatgen
data_LaYb2(GeIr)2
_symmetry_space_group_name_H-M   'P 1'
_cell_length_a   5.67559800
_cell_length_b   7.96174400
_cell_length_c   13.64421200
_cell_angle_alpha   90.00000000
_cell_angle_beta   90.00000000
_cell_angle_gamma   90.00000000
_symmetry_Int_Tables_number   1
_chemical_formula_structural   LaYb2(GeIr)2
_chemical_formula_sum   'La4 Yb8 Ge8 Ir8'
_cell_volume   616.54998994
_cell_formula_units_Z   4
loop_
 _symmetry_equiv_pos_site_id
 _symmetry_equiv_pos_as_xyz
  1  'x, y, z'
loop_
 _atom_site_type_symbol
 _atom_site_label
 _atom_site_symmetry_multiplicity
 _atom_site_fract_x
 _atom_site_fract_y
 _atom_site_fract_z
 _atom_site_occupancy
  La  La0  1  0.850168  0.099567  0.401872  1
  La  La1  1  0.149832  0.900433  0.901872  1
  La  La2  1  0.850168  0.400433  0.598128  1
  La  La3  1  0.149832  0.599567  0.098128  1
  Yb  Yb4  1  0.149380  0.889548  0.601349  1
  Yb  Yb5  1  0.850620  0.110452  0.101349  1
  Yb  Yb6  1  0.149380  0.610452  0.398651  1
  Yb  Yb7  1  0.850620  0.389548  0.898651  1
  Yb  Yb8  1  0.364581  0.251094  0.749965  1
  Yb  Yb9  1  0.635419  0.748906  0.249965  1
  Yb  Yb10  1  0.364581  0.248906  0.250035  1
  Yb  Yb11  1  0.635419  0.751094  0.750035  1
  Ge  Ge12  1  0.853687  0.098029  0.747777  1
  Ge  Ge13  1  0.146313  0.901971  0.247777  1
  Ge  Ge14  1  0.853687  0.401971  0.252223  1
  Ge  Ge15  1  0.146313  0.598029  0.752223  1
  Ge  Ge16  1  0.365739  0.250000  0.500000  1
  Ge  Ge17  1  0.634261  0.750000  0.000000  1
  Ge  Ge18  1  0.614176  0.750000  0.500000  1
  Ge  Ge19  1  0.385824  0.250000  0.000000  1
  Ir  Ir20  1  0.632588  0.035406  0.590471  1
  Ir  Ir21  1  0.367412  0.964594  0.090471  1
  Ir  Ir22  1  0.632588  0.464594  0.409529  1
  Ir  Ir23  1  0.367412  0.535406  0.909529  1
  Ir  Ir24  1  0.363354  0.967009  0.407695  1
  Ir  Ir25  1  0.636646  0.032991  0.907695  1
  Ir  Ir26  1  0.363354  0.532991  0.592305  1
  Ir  Ir27  1  0.636646  0.467009  0.092305  1
