# generated using pymatgen
data_Sc2Cr3ReSi5
_symmetry_space_group_name_H-M   'P 1'
_cell_length_a   4.90999512
_cell_length_b   7.60861103
_cell_length_c   9.30721366
_cell_angle_alpha   114.12621723
_cell_angle_beta   105.29409555
_cell_angle_gamma   89.99999758
_symmetry_Int_Tables_number   1
_chemical_formula_structural   Sc2Cr3ReSi5
_chemical_formula_sum   'Sc4 Cr6 Re2 Si10'
_cell_volume   303.78585073
_cell_formula_units_Z   2
loop_
 _symmetry_equiv_pos_site_id
 _symmetry_equiv_pos_as_xyz
  1  'x, y, z'
loop_
 _atom_site_type_symbol
 _atom_site_label
 _atom_site_symmetry_multiplicity
 _atom_site_fract_x
 _atom_site_fract_y
 _atom_site_fract_z
 _atom_site_occupancy
  Sc  Sc0  1  0.144458  0.027107  0.288917  1
  Sc  Sc1  1  0.644457  0.261809  0.288917  1
  Sc  Sc2  1  0.358265  0.739601  0.716532  1
  Sc  Sc3  1  0.858264  0.976930  0.716532  1
  Cr  Cr4  1  0.441267  0.691267  0.382535  1
  Cr  Cr5  1  0.941266  0.691267  0.382535  1
  Cr  Cr6  1  0.058071  0.308072  0.616143  1
  Cr  Cr7  1  0.558072  0.308072  0.616143  1
  Cr  Cr8  1  0.436309  0.189736  0.872617  1
  Cr  Cr9  1  0.936308  0.682881  0.872617  1
  Re  Re10  1  0.063113  0.317123  0.126225  1
  Re  Re11  1  0.563112  0.809102  0.126225  1
  Si  Si12  1  0.248152  0.998151  0.996303  1
  Si  Si13  1  0.748150  0.998151  0.996303  1
  Si  Si14  1  0.563113  0.478801  0.126228  1
  Si  Si15  1  0.063114  0.647427  0.126228  1
  Si  Si16  1  0.714110  0.005493  0.428222  1
  Si  Si17  1  0.214111  0.422729  0.428222  1
  Si  Si18  1  0.789305  0.581626  0.578611  1
  Si  Si19  1  0.289306  0.996986  0.578611  1
  Si  Si20  1  0.933832  0.361029  0.867667  1
  Si  Si21  1  0.433833  0.506638  0.867667  1
