# generated using pymatgen
data_Ho12InFe2TcAg
_symmetry_space_group_name_H-M   'P 1'
_cell_length_a   8.31212189
_cell_length_b   8.31211920
_cell_length_c   8.31212060
_cell_angle_alpha   107.00307307
_cell_angle_beta   110.34390848
_cell_angle_gamma   111.09546678
_symmetry_Int_Tables_number   1
_chemical_formula_structural   Ho12InFe2TcAg
_chemical_formula_sum   'Ho12 In1 Fe2 Tc1 Ag1'
_cell_volume   441.46102868
_cell_formula_units_Z   1
loop_
 _symmetry_equiv_pos_site_id
 _symmetry_equiv_pos_as_xyz
  1  'x, y, z'
loop_
 _atom_site_type_symbol
 _atom_site_label
 _atom_site_symmetry_multiplicity
 _atom_site_fract_x
 _atom_site_fract_y
 _atom_site_fract_z
 _atom_site_occupancy
  Ho  Ho0  1  0.446058  0.194813  0.251246  1
  Ho  Ho1  1  0.553942  0.805187  0.748754  1
  Ho  Ho2  1  0.943569  0.194813  0.748754  1
  Ho  Ho3  1  0.191642  0.961539  0.769895  1
  Ho  Ho4  1  0.056431  0.805187  0.251246  1
  Ho  Ho5  1  0.808358  0.038461  0.230105  1
  Ho  Ho6  1  0.191642  0.421744  0.230103  1
  Ho  Ho7  1  0.808358  0.578256  0.769897  1
  Ho  Ho8  1  0.308179  0.309669  0.617846  1
  Ho  Ho9  1  0.691821  0.690331  0.382154  1
  Ho  Ho10  1  0.308178  0.690331  0.998511  1
  Ho  Ho11  1  0.691822  0.309669  0.001489  1
  In  In12  1  0.000000  0.500000  0.500000  1
  Fe  Fe13  1  0.384272  0.384271  0.999999  1
  Fe  Fe14  1  0.615728  0.615729  0.000001  1
  Tc  Tc15  1  0.000000  0.000000  0.000000  1
  Ag  Ag16  1  0.500000  0.000000  0.500000  1
