# generated using pymatgen
data_Tb3Y2Tl15
_symmetry_space_group_name_H-M   'P 1'
_cell_length_a   4.76934500
_cell_length_b   4.76780300
_cell_length_c   24.14199100
_cell_angle_alpha   90.00000000
_cell_angle_beta   90.00000000
_cell_angle_gamma   90.00000000
_symmetry_Int_Tables_number   1
_chemical_formula_structural   Tb3Y2Tl15
_chemical_formula_sum   'Tb3 Y2 Tl15'
_cell_volume   548.97191315
_cell_formula_units_Z   1
loop_
 _symmetry_equiv_pos_site_id
 _symmetry_equiv_pos_as_xyz
  1  'x, y, z'
loop_
 _atom_site_type_symbol
 _atom_site_label
 _atom_site_symmetry_multiplicity
 _atom_site_fract_x
 _atom_site_fract_y
 _atom_site_fract_z
 _atom_site_occupancy
  Tb  Tb0  1  0.000000  0.000000  0.199683  1
  Tb  Tb1  1  0.000000  0.000000  0.399716  1
  Tb  Tb2  1  0.000000  0.000000  0.000122  1
  Y  Y3  1  0.000000  0.000000  0.599974  1
  Y  Y4  1  0.000000  0.000000  0.800480  1
  Tl  Tl5  1  0.500000  0.500000  0.000073  1
  Tl  Tl6  1  0.500000  0.500000  0.199312  1
  Tl  Tl7  1  0.500000  0.500000  0.399703  1
  Tl  Tl8  1  0.500000  0.500000  0.600156  1
  Tl  Tl9  1  0.500000  0.500000  0.800782  1
  Tl  Tl10  1  0.500000  0.000000  0.099629  1
  Tl  Tl11  1  0.500000  0.000000  0.299548  1
  Tl  Tl12  1  0.500000  0.000000  0.499815  1
  Tl  Tl13  1  0.500000  0.000000  0.700416  1
  Tl  Tl14  1  0.500000  0.000000  0.900592  1
  Tl  Tl15  1  0.000000  0.500000  0.099638  1
  Tl  Tl16  1  0.000000  0.500000  0.299552  1
  Tl  Tl17  1  0.000000  0.500000  0.499814  1
  Tl  Tl18  1  0.000000  0.500000  0.700414  1
  Tl  Tl19  1  0.000000  0.500000  0.900583  1
