# generated using pymatgen
data_Ca4Pr11Y5Pb16
_symmetry_space_group_name_H-M   'P 1'
_cell_length_a   8.20977740
_cell_length_b   8.59442426
_cell_length_c   16.14637174
_cell_angle_alpha   90.11655360
_cell_angle_beta   89.97515924
_cell_angle_gamma   90.12235955
_symmetry_Int_Tables_number   1
_chemical_formula_structural   Ca4Pr11Y5Pb16
_chemical_formula_sum   'Ca4 Pr11 Y5 Pb16'
_cell_volume   1139.25564449
_cell_formula_units_Z   1
loop_
 _symmetry_equiv_pos_site_id
 _symmetry_equiv_pos_as_xyz
  1  'x, y, z'
loop_
 _atom_site_type_symbol
 _atom_site_label
 _atom_site_symmetry_multiplicity
 _atom_site_fract_x
 _atom_site_fract_y
 _atom_site_fract_z
 _atom_site_occupancy
  Ca  Ca0  1  0.832731  0.501995  0.749264  1
  Ca  Ca1  1  0.332524  0.997899  0.749897  1
  Ca  Ca2  1  0.167704  0.497684  0.249663  1
  Ca  Ca3  1  0.668361  0.001092  0.251153  1
  Pr  Pr4  1  0.838196  0.667601  0.125037  1
  Pr  Pr5  1  0.659902  0.167589  0.876284  1
  Pr  Pr6  1  0.161070  0.332012  0.621774  1
  Pr  Pr7  1  0.501784  0.681597  0.593712  1
  Pr  Pr8  1  0.002864  0.818934  0.904945  1
  Pr  Pr9  1  0.496714  0.317177  0.096083  1
  Pr  Pr10  1  0.997255  0.182425  0.404389  1
  Pr  Pr11  1  0.497866  0.320401  0.404924  1
  Pr  Pr12  1  0.998220  0.179732  0.095931  1
  Pr  Pr13  1  0.503124  0.681099  0.905124  1
  Pr  Pr14  1  0.002346  0.818111  0.594538  1
  Y  Y15  1  0.666392  0.164399  0.623386  1
  Y  Y16  1  0.165276  0.334812  0.875803  1
  Y  Y17  1  0.335906  0.835559  0.125395  1
  Y  Y18  1  0.835015  0.664496  0.376143  1
  Y  Y19  1  0.336670  0.834298  0.375220  1
  Pb  Pb20  1  0.683135  0.958751  0.460242  1
  Pb  Pb21  1  0.188831  0.540862  0.038721  1
  Pb  Pb22  1  0.310031  0.041006  0.962471  1
  Pb  Pb23  1  0.810336  0.459440  0.537902  1
  Pb  Pb24  1  0.322965  0.037333  0.537685  1
  Pb  Pb25  1  0.824532  0.460138  0.959655  1
  Pb  Pb26  1  0.678568  0.959456  0.040753  1
  Pb  Pb27  1  0.180839  0.544485  0.457898  1
  Pb  Pb28  1  0.468182  0.386205  0.749347  1
  Pb  Pb29  1  0.968478  0.113496  0.749852  1
  Pb  Pb30  1  0.529294  0.617882  0.252240  1
  Pb  Pb31  1  0.034134  0.884724  0.253125  1
  Pb  Pb32  1  0.697814  0.852794  0.749050  1
  Pb  Pb33  1  0.198053  0.646337  0.750264  1
  Pb  Pb34  1  0.303672  0.144925  0.250884  1
  Pb  Pb35  1  0.801214  0.353251  0.251246  1
