# generated using pymatgen
data_Y8BSCl12
_symmetry_space_group_name_H-M   'P 1'
_cell_length_a   3.90447200
_cell_length_b   12.70020182
_cell_length_c   13.17549786
_cell_angle_alpha   89.95869547
_cell_angle_beta   90.00000000
_cell_angle_gamma   90.00000000
_symmetry_Int_Tables_number   1
_chemical_formula_structural   Y8BSCl12
_chemical_formula_sum   'Y8 B1 S1 Cl12'
_cell_volume   653.34091609
_cell_formula_units_Z   1
loop_
 _symmetry_equiv_pos_site_id
 _symmetry_equiv_pos_as_xyz
  1  'x, y, z'
loop_
 _atom_site_type_symbol
 _atom_site_label
 _atom_site_symmetry_multiplicity
 _atom_site_fract_x
 _atom_site_fract_y
 _atom_site_fract_z
 _atom_site_occupancy
  Y  Y0  1  0.000000  0.109303  0.086599  1
  Y  Y1  1  0.000000  0.890697  0.913401  1
  Y  Y2  1  0.000000  0.605230  0.416724  1
  Y  Y3  1  0.000000  0.394770  0.583276  1
  Y  Y4  1  0.500000  0.130217  0.846891  1
  Y  Y5  1  0.500000  0.869783  0.153109  1
  Y  Y6  1  0.500000  0.625587  0.647714  1
  Y  Y7  1  0.500000  0.374413  0.352286  1
  B  B8  1  0.500000  0.500000  0.500000  1
  S  S9  1  0.500000  0.000000  0.000000  1
  Cl  Cl10  1  0.500000  0.267255  0.683345  1
  Cl  Cl11  1  0.500000  0.732745  0.316655  1
  Cl  Cl12  1  0.500000  0.768357  0.818037  1
  Cl  Cl13  1  0.500000  0.231643  0.181963  1
  Cl  Cl14  1  0.000000  0.256408  0.929307  1
  Cl  Cl15  1  0.000000  0.743592  0.070693  1
  Cl  Cl16  1  0.000000  0.478318  0.243382  1
  Cl  Cl17  1  0.000000  0.521682  0.756618  1
  Cl  Cl18  1  0.000000  0.978123  0.256372  1
  Cl  Cl19  1  0.000000  0.021877  0.743628  1
  Cl  Cl20  1  0.000000  0.243267  0.429496  1
  Cl  Cl21  1  0.000000  0.756733  0.570504  1
