# generated using pymatgen
data_TbHo7Hf3Si16Mo9
_symmetry_space_group_name_H-M   'P 1'
_cell_length_a   6.97103684
_cell_length_b   6.97124275
_cell_length_c   12.89075223
_cell_angle_alpha   89.91522241
_cell_angle_beta   90.06075265
_cell_angle_gamma   89.78209006
_symmetry_Int_Tables_number   1
_chemical_formula_structural   TbHo7Hf3Si16Mo9
_chemical_formula_sum   'Tb1 Ho7 Hf3 Si16 Mo9'
_cell_volume   626.44360722
_cell_formula_units_Z   1
loop_
 _symmetry_equiv_pos_site_id
 _symmetry_equiv_pos_as_xyz
  1  'x, y, z'
loop_
 _atom_site_type_symbol
 _atom_site_label
 _atom_site_symmetry_multiplicity
 _atom_site_fract_x
 _atom_site_fract_y
 _atom_site_fract_z
 _atom_site_occupancy
  Tb  Tb0  1  0.660763  0.004984  0.279625  1
  Ho  Ho1  1  0.000364  0.338150  0.216687  1
  Ho  Ho2  1  0.004355  0.660234  0.720540  1
  Ho  Ho3  1  0.160602  0.497447  0.468510  1
  Ho  Ho4  1  0.499719  0.841361  0.030830  1
  Ho  Ho5  1  0.841479  0.499835  0.968927  1
  Ho  Ho6  1  0.497338  0.160644  0.531719  1
  Ho  Ho7  1  0.338009  0.000282  0.783244  1
  Hf  Hf8  1  0.831852  0.831707  0.500129  1
  Hf  Hf9  1  0.330085  0.669009  0.247696  1
  Hf  Hf10  1  0.669019  0.330181  0.752293  1
  Si  Si11  1  0.369703  0.295387  0.317352  1
  Si  Si12  1  0.627991  0.706508  0.817944  1
  Si  Si13  1  0.204680  0.871495  0.568502  1
  Si  Si14  1  0.125952  0.803975  0.934015  1
  Si  Si15  1  0.804243  0.126089  0.065484  1
  Si  Si16  1  0.872328  0.205340  0.432154  1
  Si  Si17  1  0.294820  0.370292  0.682672  1
  Si  Si18  1  0.706520  0.626984  0.181866  1
  Si  Si19  1  0.287106  0.046684  0.182694  1
  Si  Si20  1  0.708167  0.958226  0.688912  1
  Si  Si21  1  0.456382  0.790608  0.438107  1
  Si  Si22  1  0.211350  0.533395  0.058424  1
  Si  Si23  1  0.533361  0.211338  0.941451  1
  Si  Si24  1  0.791165  0.456893  0.562342  1
  Si  Si25  1  0.046577  0.288144  0.817026  1
  Si  Si26  1  0.958617  0.707642  0.311169  1
  Mo  Mo27  1  0.167837  0.167835  0.999923  1
  Mo  Mo28  1  0.160493  0.995512  0.375470  1
  Mo  Mo29  1  0.832733  0.002484  0.877277  1
  Mo  Mo30  1  0.505758  0.659322  0.626781  1
  Mo  Mo31  1  0.344473  0.498788  0.873311  1
  Mo  Mo32  1  0.498376  0.344677  0.126321  1
  Mo  Mo33  1  0.659442  0.505804  0.373478  1
  Mo  Mo34  1  0.995698  0.160368  0.624763  1
  Mo  Mo35  1  0.002645  0.832376  0.122362  1
