# generated using pymatgen
data_Dy2Tm2C7
_symmetry_space_group_name_H-M   'P 1'
_cell_length_a   13.71259200
_cell_length_b   3.67811612
_cell_length_c   6.43336146
_cell_angle_alpha   74.50705653
_cell_angle_beta   90.00000000
_cell_angle_gamma   90.00000000
_symmetry_Int_Tables_number   1
_chemical_formula_structural   Dy2Tm2C7
_chemical_formula_sum   'Dy4 Tm4 C14'
_cell_volume   312.68589389
_cell_formula_units_Z   2
loop_
 _symmetry_equiv_pos_site_id
 _symmetry_equiv_pos_as_xyz
  1  'x, y, z'
loop_
 _atom_site_type_symbol
 _atom_site_label
 _atom_site_symmetry_multiplicity
 _atom_site_fract_x
 _atom_site_fract_y
 _atom_site_fract_z
 _atom_site_occupancy
  Dy  Dy0  1  0.056096  0.633257  0.738520  1
  Dy  Dy1  1  0.943904  0.366743  0.261480  1
  Dy  Dy2  1  0.556096  0.366743  0.761480  1
  Dy  Dy3  1  0.443904  0.633257  0.238520  1
  Tm  Tm4  1  0.339386  0.941246  0.661382  1
  Tm  Tm5  1  0.660614  0.058754  0.338618  1
  Tm  Tm6  1  0.839386  0.058754  0.838618  1
  Tm  Tm7  1  0.160614  0.941246  0.161382  1
  C  C8  1  0.895372  0.735111  0.556253  1
  C  C9  1  0.104628  0.264889  0.443747  1
  C  C10  1  0.395372  0.264889  0.943747  1
  C  C11  1  0.604628  0.735111  0.056253  1
  C  C12  1  0.216353  0.538013  0.931667  1
  C  C13  1  0.783647  0.461987  0.068333  1
  C  C14  1  0.716353  0.461987  0.568333  1
  C  C15  1  0.283647  0.538013  0.431667  1
  C  C16  1  0.803334  0.624276  0.544013  1
  C  C17  1  0.196666  0.375724  0.455987  1
  C  C18  1  0.303334  0.375724  0.955987  1
  C  C19  1  0.696666  0.624276  0.044013  1
  C  C20  1  0.500000  0.000000  0.500000  1
  C  C21  1  0.000000  0.000000  0.000000  1
