# generated using pymatgen
data_Ba2NdPaS6
_symmetry_space_group_name_H-M   'P 1'
_cell_length_a   7.15279709
_cell_length_b   7.48524400
_cell_length_c   12.61402300
_cell_angle_alpha   90.00000000
_cell_angle_beta   124.87109205
_cell_angle_gamma   90.00000000
_symmetry_Int_Tables_number   1
_chemical_formula_structural   Ba2NdPaS6
_chemical_formula_sum   'Ba4 Nd2 Pa2 S12'
_cell_volume   554.09284864
_cell_formula_units_Z   2
loop_
 _symmetry_equiv_pos_site_id
 _symmetry_equiv_pos_as_xyz
  1  'x, y, z'
loop_
 _atom_site_type_symbol
 _atom_site_label
 _atom_site_symmetry_multiplicity
 _atom_site_fract_x
 _atom_site_fract_y
 _atom_site_fract_z
 _atom_site_occupancy
  Ba  Ba0  1  0.232179  0.068777  0.250347  1
  Ba  Ba1  1  0.767821  0.568777  0.249653  1
  Ba  Ba2  1  0.232178  0.431224  0.750346  1
  Ba  Ba3  1  0.767822  0.931224  0.749654  1
  Nd  Nd4  1  0.500000  0.000000  0.000000  1
  Nd  Nd5  1  0.500000  0.500000  0.500000  1
  Pa  Pa6  1  0.000000  0.500000  0.000000  1
  Pa  Pa7  1  0.000000  0.000000  0.500000  1
  S  S8  1  0.864637  0.796369  0.048608  1
  S  S9  1  0.747484  0.311803  0.047213  1
  S  S10  1  0.336485  0.478143  0.243132  1
  S  S11  1  0.663516  0.978143  0.256868  1
  S  S12  1  0.252516  0.811803  0.452787  1
  S  S13  1  0.135363  0.296369  0.451392  1
  S  S14  1  0.864637  0.703631  0.548609  1
  S  S15  1  0.747483  0.188197  0.547213  1
  S  S16  1  0.336485  0.021857  0.743133  1
  S  S17  1  0.663515  0.521857  0.756867  1
  S  S18  1  0.252517  0.688198  0.952787  1
  S  S19  1  0.135364  0.203631  0.951392  1
