# generated using pymatgen
data_RbNdSiSe4
_symmetry_space_group_name_H-M   'P 1'
_cell_length_a   7.11465400
_cell_length_b   6.85466903
_cell_length_c   9.51541863
_cell_angle_alpha   72.10502327
_cell_angle_beta   90.00000000
_cell_angle_gamma   90.00000000
_symmetry_Int_Tables_number   1
_chemical_formula_structural   RbNdSiSe4
_chemical_formula_sum   'Rb2 Nd2 Si2 Se8'
_cell_volume   441.60334075
_cell_formula_units_Z   2
loop_
 _symmetry_equiv_pos_site_id
 _symmetry_equiv_pos_as_xyz
  1  'x, y, z'
loop_
 _atom_site_type_symbol
 _atom_site_label
 _atom_site_symmetry_multiplicity
 _atom_site_fract_x
 _atom_site_fract_y
 _atom_site_fract_z
 _atom_site_occupancy
  Rb  Rb0  1  0.977764  0.733954  0.066087  1
  Rb  Rb1  1  0.477764  0.266046  0.933913  1
  Nd  Nd2  1  0.497880  0.228921  0.451576  1
  Nd  Nd3  1  0.997880  0.771079  0.548424  1
  Si  Si4  1  0.462272  0.782654  0.330352  1
  Si  Si5  1  0.962272  0.217346  0.669648  1
  Se  Se6  1  0.464839  0.586934  0.176235  1
  Se  Se7  1  0.229823  0.027305  0.279982  1
  Se  Se8  1  0.730482  0.979232  0.299937  1
  Se  Se9  1  0.903941  0.417311  0.432442  1
  Se  Se10  1  0.403941  0.582689  0.567558  1
  Se  Se11  1  0.230482  0.020768  0.700063  1
  Se  Se12  1  0.729823  0.972695  0.720018  1
  Se  Se13  1  0.964839  0.413066  0.823765  1
