# generated using pymatgen
data_La5Pr(ClO4)2
_symmetry_space_group_name_H-M   'P 1'
_cell_length_a   6.58127611
_cell_length_b   6.58127657
_cell_length_c   12.41046600
_cell_angle_alpha   90.00000000
_cell_angle_beta   90.00000000
_cell_angle_gamma   142.31103675
_symmetry_Int_Tables_number   1
_chemical_formula_structural   La5Pr(ClO4)2
_chemical_formula_sum   'La5 Pr1 Cl2 O8'
_cell_volume   328.63646196
_cell_formula_units_Z   1
loop_
 _symmetry_equiv_pos_site_id
 _symmetry_equiv_pos_as_xyz
  1  'x, y, z'
loop_
 _atom_site_type_symbol
 _atom_site_label
 _atom_site_symmetry_multiplicity
 _atom_site_fract_x
 _atom_site_fract_y
 _atom_site_fract_z
 _atom_site_occupancy
  La  La0  1  0.827589  0.172411  0.400037  1
  La  La1  1  0.172565  0.827435  0.599320  1
  La  La2  1  0.172565  0.827435  0.900680  1
  La  La3  1  0.827589  0.172411  0.099963  1
  La  La4  1  0.873742  0.126258  0.750000  1
  Pr  Pr5  1  0.128435  0.871565  0.250000  1
  Cl  Cl6  1  0.499053  0.500947  0.998912  1
  Cl  Cl7  1  0.499053  0.500947  0.501088  1
  O  O8  1  0.292674  0.707326  0.750000  1
  O  O9  1  0.706966  0.293034  0.250000  1
  O  O10  1  0.058148  0.941852  0.750000  1
  O  O11  1  0.943258  0.056742  0.250000  1
  O  O12  1  0.764098  0.235902  0.911672  1
  O  O13  1  0.235084  0.764916  0.089422  1
  O  O14  1  0.235084  0.764916  0.410578  1
  O  O15  1  0.764098  0.235902  0.588328  1
