# generated using pymatgen
data_Hf3Zr(Ni3Pt)3
_symmetry_space_group_name_H-M   'P 1'
_cell_length_a   5.39202923
_cell_length_b   5.39203080
_cell_length_c   8.78919823
_cell_angle_alpha   89.97724981
_cell_angle_beta   90.02274889
_cell_angle_gamma   119.08222486
_symmetry_Int_Tables_number   1
_chemical_formula_structural   Hf3Zr(Ni3Pt)3
_chemical_formula_sum   'Hf3 Zr1 Ni9 Pt3'
_cell_volume   223.31968916
_cell_formula_units_Z   1
loop_
 _symmetry_equiv_pos_site_id
 _symmetry_equiv_pos_as_xyz
  1  'x, y, z'
loop_
 _atom_site_type_symbol
 _atom_site_label
 _atom_site_symmetry_multiplicity
 _atom_site_fract_x
 _atom_site_fract_y
 _atom_site_fract_z
 _atom_site_occupancy
  Hf  Hf0  1  0.998322  0.001678  0.493916  1
  Hf  Hf1  1  0.325236  0.674764  0.250192  1
  Hf  Hf2  1  0.674937  0.325063  0.749872  1
  Zr  Zr3  1  0.998088  0.001912  0.006478  1
  Ni  Ni4  1  0.504692  0.003517  0.496224  1
  Ni  Ni5  1  0.996483  0.495308  0.496224  1
  Ni  Ni6  1  0.504065  0.003399  0.003685  1
  Ni  Ni7  1  0.996601  0.495935  0.003685  1
  Ni  Ni8  1  0.826020  0.646537  0.250788  1
  Ni  Ni9  1  0.353463  0.173980  0.250788  1
  Ni  Ni10  1  0.820312  0.179688  0.250958  1
  Ni  Ni11  1  0.171968  0.344036  0.749256  1
  Ni  Ni12  1  0.655964  0.828032  0.749256  1
  Pt  Pt13  1  0.499638  0.500362  0.499033  1
  Pt  Pt14  1  0.499630  0.500370  0.000906  1
  Pt  Pt15  1  0.174585  0.825415  0.748736  1
