# generated using pymatgen
data_Cs2LiErBi2
_symmetry_space_group_name_H-M   'P 1'
_cell_length_a   11.74406806
_cell_length_b   11.74406768
_cell_length_c   7.46766100
_cell_angle_alpha   90.00000000
_cell_angle_beta   90.00000000
_cell_angle_gamma   101.20916511
_symmetry_Int_Tables_number   1
_chemical_formula_structural   Cs2LiErBi2
_chemical_formula_sum   'Cs8 Li4 Er4 Bi8'
_cell_volume   1010.31567688
_cell_formula_units_Z   4
loop_
 _symmetry_equiv_pos_site_id
 _symmetry_equiv_pos_as_xyz
  1  'x, y, z'
loop_
 _atom_site_type_symbol
 _atom_site_label
 _atom_site_symmetry_multiplicity
 _atom_site_fract_x
 _atom_site_fract_y
 _atom_site_fract_z
 _atom_site_occupancy
  Cs  Cs0  1  0.071734  0.428266  0.250000  1
  Cs  Cs1  1  0.428266  0.071734  0.750000  1
  Cs  Cs2  1  0.928266  0.571734  0.750000  1
  Cs  Cs3  1  0.571734  0.928266  0.250000  1
  Cs  Cs4  1  0.674795  0.325205  0.213634  1
  Cs  Cs5  1  0.825205  0.174795  0.713634  1
  Cs  Cs6  1  0.325205  0.674795  0.786366  1
  Cs  Cs7  1  0.174795  0.825205  0.286366  1
  Li  Li8  1  0.378286  0.378286  0.000000  1
  Li  Li9  1  0.121714  0.121714  0.500000  1
  Li  Li10  1  0.621714  0.621714  0.000000  1
  Li  Li11  1  0.878286  0.878286  0.500000  1
  Er  Er12  1  0.129583  0.129583  0.000000  1
  Er  Er13  1  0.370417  0.370417  0.500000  1
  Er  Er14  1  0.870417  0.870417  0.000000  1
  Er  Er15  1  0.629583  0.629583  0.500000  1
  Bi  Bi16  1  0.841018  0.658981  0.250000  1
  Bi  Bi17  1  0.658981  0.841018  0.750000  1
  Bi  Bi18  1  0.158981  0.341018  0.750000  1
  Bi  Bi19  1  0.341018  0.158981  0.250000  1
  Bi  Bi20  1  0.908579  0.091421  0.235333  1
  Bi  Bi21  1  0.591421  0.408579  0.735333  1
  Bi  Bi22  1  0.091421  0.908579  0.764667  1
  Bi  Bi23  1  0.408579  0.591421  0.264667  1
