# generated using pymatgen
data_Dy3ErGaCo4
_symmetry_space_group_name_H-M   'P 1'
_cell_length_a   5.47689129
_cell_length_b   5.47689192
_cell_length_c   8.88024545
_cell_angle_alpha   70.87655541
_cell_angle_beta   70.87655282
_cell_angle_gamma   43.28951738
_symmetry_Int_Tables_number   1
_chemical_formula_structural   Dy3ErGaCo4
_chemical_formula_sum   'Dy3 Er1 Ga1 Co4'
_cell_volume   170.92835469
_cell_formula_units_Z   1
loop_
 _symmetry_equiv_pos_site_id
 _symmetry_equiv_pos_as_xyz
  1  'x, y, z'
loop_
 _atom_site_type_symbol
 _atom_site_label
 _atom_site_symmetry_multiplicity
 _atom_site_fract_x
 _atom_site_fract_y
 _atom_site_fract_z
 _atom_site_occupancy
  Dy  Dy0  1  0.746207  0.746207  0.661840  1
  Dy  Dy1  1  0.253687  0.253687  0.337571  1
  Dy  Dy2  1  0.391204  0.391204  0.885970  1
  Er  Er3  1  0.607651  0.607651  0.114903  1
  Ga  Ga4  1  0.500049  0.500049  0.499723  1
  Co  Co5  1  0.037975  0.037975  0.645609  1
  Co  Co6  1  0.962767  0.962767  0.353711  1
  Co  Co7  1  0.094024  0.094024  0.881089  1
  Co  Co8  1  0.906436  0.906436  0.119584  1
