# generated using pymatgen
data_ScNb3O6
_symmetry_space_group_name_H-M   'P 1'
_cell_length_a   5.10025900
_cell_length_b   5.10025905
_cell_length_c   11.07980400
_cell_angle_alpha   90.00060423
_cell_angle_beta   89.99939497
_cell_angle_gamma   119.99999779
_symmetry_Int_Tables_number   1
_chemical_formula_structural   ScNb3O6
_chemical_formula_sum   'Sc2 Nb6 O12'
_cell_volume   249.60149668
_cell_formula_units_Z   2
loop_
 _symmetry_equiv_pos_site_id
 _symmetry_equiv_pos_as_xyz
  1  'x, y, z'
loop_
 _atom_site_type_symbol
 _atom_site_label
 _atom_site_symmetry_multiplicity
 _atom_site_fract_x
 _atom_site_fract_y
 _atom_site_fract_z
 _atom_site_occupancy
  Sc  Sc0  1  0.333180  0.666614  0.250005  1
  Sc  Sc1  1  0.666613  0.333181  0.749995  1
  Nb  Nb2  1  0.000012  0.000012  0.000000  1
  Nb  Nb3  1  0.666683  0.333349  0.010944  1
  Nb  Nb4  1  0.666670  0.333345  0.489052  1
  Nb  Nb5  1  0.999992  0.999992  0.500000  1
  Nb  Nb6  1  0.333344  0.666670  0.510947  1
  Nb  Nb7  1  0.333349  0.666681  0.989056  1
  O  O8  1  0.326157  0.349673  0.118915  1
  O  O9  1  0.650342  0.976495  0.118916  1
  O  O10  1  0.023513  0.673876  0.118916  1
  O  O11  1  0.326154  0.976499  0.381089  1
  O  O12  1  0.650335  0.673856  0.381087  1
  O  O13  1  0.023502  0.349652  0.381089  1
  O  O14  1  0.673856  0.650336  0.618913  1
  O  O15  1  0.976499  0.326154  0.618911  1
  O  O16  1  0.349652  0.023502  0.618912  1
  O  O17  1  0.673877  0.023513  0.881084  1
  O  O18  1  0.976495  0.650342  0.881084  1
  O  O19  1  0.349673  0.326157  0.881085  1
