# generated using pymatgen
data_LuBi2SbO7
_symmetry_space_group_name_H-M   'P 1'
_cell_length_a   6.51185280
_cell_length_b   6.61518252
_cell_length_c   7.66563700
_cell_angle_alpha   106.87494459
_cell_angle_beta   89.56834974
_cell_angle_gamma   99.01778580
_symmetry_Int_Tables_number   1
_chemical_formula_structural   LuBi2SbO7
_chemical_formula_sum   'Lu2 Bi4 Sb2 O14'
_cell_volume   311.83690274
_cell_formula_units_Z   2
loop_
 _symmetry_equiv_pos_site_id
 _symmetry_equiv_pos_as_xyz
  1  'x, y, z'
loop_
 _atom_site_type_symbol
 _atom_site_label
 _atom_site_symmetry_multiplicity
 _atom_site_fract_x
 _atom_site_fract_y
 _atom_site_fract_z
 _atom_site_occupancy
  Lu  Lu0  1  0.542563  0.996016  0.751385  1
  Lu  Lu1  1  0.457437  0.003984  0.248615  1
  Bi  Bi2  1  0.259479  0.523324  0.881213  1
  Bi  Bi3  1  0.740521  0.476676  0.118787  1
  Bi  Bi4  1  0.733430  0.464463  0.609549  1
  Bi  Bi5  1  0.266570  0.535537  0.390451  1
  Sb  Sb6  1  0.000000  0.000000  0.500000  1
  Sb  Sb7  1  0.000000  0.000000  0.000000  1
  O  O8  1  0.455450  0.660921  0.179366  1
  O  O9  1  0.544550  0.339079  0.820634  1
  O  O10  1  0.296811  0.956353  0.954277  1
  O  O11  1  0.703189  0.043647  0.045723  1
  O  O12  1  0.290832  0.932832  0.516649  1
  O  O13  1  0.709168  0.067168  0.483351  1
  O  O14  1  0.531086  0.347109  0.347007  1
  O  O15  1  0.468914  0.652891  0.652993  1
  O  O16  1  0.922377  0.682675  0.953085  1
  O  O17  1  0.077623  0.317325  0.046915  1
  O  O18  1  0.092848  0.314155  0.613981  1
  O  O19  1  0.907152  0.685845  0.386019  1
  O  O20  1  0.895096  0.952336  0.737884  1
  O  O21  1  0.104904  0.047664  0.262116  1
