# generated using pymatgen
data_Tb5Tm(SiPt5)2
_symmetry_space_group_name_H-M   'P 1'
_cell_length_a   8.18104238
_cell_length_b   8.21045134
_cell_length_c   8.21045200
_cell_angle_alpha   127.35180906
_cell_angle_beta   126.30503249
_cell_angle_gamma   78.61634354
_symmetry_Int_Tables_number   1
_chemical_formula_structural   Tb5Tm(SiPt5)2
_chemical_formula_sum   'Tb5 Tm1 Si2 Pt10'
_cell_volume   341.83414598
_cell_formula_units_Z   1
loop_
 _symmetry_equiv_pos_site_id
 _symmetry_equiv_pos_as_xyz
  1  'x, y, z'
loop_
 _atom_site_type_symbol
 _atom_site_label
 _atom_site_symmetry_multiplicity
 _atom_site_fract_x
 _atom_site_fract_y
 _atom_site_fract_z
 _atom_site_occupancy
  Tb  Tb0  1  0.829757  0.550149  0.279607  1
  Tb  Tb1  1  0.614196  0.249831  0.364365  1
  Tb  Tb2  1  0.170936  0.450912  0.720024  1
  Tb  Tb3  1  0.389673  0.749665  0.640008  1
  Tb  Tb4  1  0.232475  0.950464  0.282011  1
  Tm  Tm5  1  0.771206  0.049456  0.721749  1
  Si  Si6  1  0.221069  0.250354  0.970716  1
  Si  Si7  1  0.783661  0.750316  0.033346  1
  Pt  Pt8  1  0.168307  0.900584  0.856800  1
  Pt  Pt9  1  0.829848  0.098419  0.139684  1
  Pt  Pt10  1  0.457061  0.186898  0.855893  1
  Pt  Pt11  1  0.544003  0.398849  0.730816  1
  Pt  Pt12  1  0.829848  0.690164  0.731429  1
  Pt  Pt13  1  0.457061  0.601169  0.270162  1
  Pt  Pt14  1  0.544003  0.813187  0.145153  1
  Pt  Pt15  1  0.168307  0.311506  0.267722  1
  Pt  Pt16  1  0.994295  0.006546  0.502767  1
  Pt  Pt17  1  0.994295  0.491528  0.987749  1
