# generated using pymatgen
data_Cs2KAsO4
_symmetry_space_group_name_H-M   'P 1'
_cell_length_a   6.55733300
_cell_length_b   6.72684257
_cell_length_c   8.37093638
_cell_angle_alpha   87.97535553
_cell_angle_beta   90.00000000
_cell_angle_gamma   90.00000000
_symmetry_Int_Tables_number   1
_chemical_formula_structural   Cs2KAsO4
_chemical_formula_sum   'Cs4 K2 As2 O8'
_cell_volume   369.01272216
_cell_formula_units_Z   2
loop_
 _symmetry_equiv_pos_site_id
 _symmetry_equiv_pos_as_xyz
  1  'x, y, z'
loop_
 _atom_site_type_symbol
 _atom_site_label
 _atom_site_symmetry_multiplicity
 _atom_site_fract_x
 _atom_site_fract_y
 _atom_site_fract_z
 _atom_site_occupancy
  Cs  Cs0  1  0.750000  0.186113  0.508366  1
  Cs  Cs1  1  0.250000  0.813887  0.491634  1
  Cs  Cs2  1  0.250000  0.398998  0.182127  1
  Cs  Cs3  1  0.750000  0.601002  0.817873  1
  K  K4  1  0.250000  0.877360  0.965235  1
  K  K5  1  0.750000  0.122640  0.034765  1
  As  As6  1  0.750000  0.692543  0.262724  1
  As  As7  1  0.250000  0.307457  0.737276  1
  O  O8  1  0.964702  0.813539  0.184828  1
  O  O9  1  0.464702  0.186461  0.815172  1
  O  O10  1  0.035298  0.186461  0.815172  1
  O  O11  1  0.535298  0.813539  0.184828  1
  O  O12  1  0.250000  0.551208  0.799493  1
  O  O13  1  0.250000  0.297959  0.531260  1
  O  O14  1  0.750000  0.448792  0.200507  1
  O  O15  1  0.750000  0.702041  0.468740  1
