# generated using pymatgen
data_ScCd2SbO6
_symmetry_space_group_name_H-M   'P 1'
_cell_length_a   5.64337900
_cell_length_b   5.50926287
_cell_length_c   9.67307717
_cell_angle_alpha   55.27476927
_cell_angle_beta   90.00000000
_cell_angle_gamma   90.00000000
_symmetry_Int_Tables_number   1
_chemical_formula_structural   ScCd2SbO6
_chemical_formula_sum   'Sc2 Cd4 Sb2 O12'
_cell_volume   247.17969464
_cell_formula_units_Z   2
loop_
 _symmetry_equiv_pos_site_id
 _symmetry_equiv_pos_as_xyz
  1  'x, y, z'
loop_
 _atom_site_type_symbol
 _atom_site_label
 _atom_site_symmetry_multiplicity
 _atom_site_fract_x
 _atom_site_fract_y
 _atom_site_fract_z
 _atom_site_occupancy
  Sc  Sc0  1  0.500000  0.500000  0.500000  1
  Sc  Sc1  1  0.000000  0.500000  0.000000  1
  Cd  Cd2  1  0.543607  0.761170  0.751008  1
  Cd  Cd3  1  0.956393  0.761170  0.251008  1
  Cd  Cd4  1  0.456393  0.238830  0.248992  1
  Cd  Cd5  1  0.043607  0.238830  0.748992  1
  Sb  Sb6  1  0.000000  0.000000  0.500000  1
  Sb  Sb7  1  0.500000  0.000000  0.000000  1
  O  O8  1  0.804336  0.237265  0.556112  1
  O  O9  1  0.695664  0.237265  0.056112  1
  O  O10  1  0.195664  0.762735  0.443888  1
  O  O11  1  0.304336  0.762735  0.943888  1
  O  O12  1  0.792215  0.868437  0.941054  1
  O  O13  1  0.707785  0.868437  0.441054  1
  O  O14  1  0.207785  0.131563  0.058946  1
  O  O15  1  0.292215  0.131563  0.558946  1
  O  O16  1  0.958438  0.649852  0.741880  1
  O  O17  1  0.541562  0.649852  0.241880  1
  O  O18  1  0.041562  0.350148  0.258120  1
  O  O19  1  0.458438  0.350148  0.758120  1
