# generated using pymatgen
data_Dy13Er3(InPt)4
_symmetry_space_group_name_H-M   'P 1'
_cell_length_a   9.67145054
_cell_length_b   9.67145067
_cell_length_c   9.69442700
_cell_angle_alpha   60.07836578
_cell_angle_beta   60.07836531
_cell_angle_gamma   59.99999486
_symmetry_Int_Tables_number   1
_chemical_formula_structural   Dy13Er3(InPt)4
_chemical_formula_sum   'Dy13 Er3 In4 Pt4'
_cell_volume   641.95379622
_cell_formula_units_Z   1
loop_
 _symmetry_equiv_pos_site_id
 _symmetry_equiv_pos_as_xyz
  1  'x, y, z'
loop_
 _atom_site_type_symbol
 _atom_site_label
 _atom_site_symmetry_multiplicity
 _atom_site_fract_x
 _atom_site_fract_y
 _atom_site_fract_z
 _atom_site_occupancy
  Dy  Dy0  1  0.938358  0.938358  0.561139  1
  Dy  Dy1  1  0.149407  0.149407  0.551781  1
  Dy  Dy2  1  0.562144  0.938358  0.561139  1
  Dy  Dy3  1  0.148522  0.148522  0.149680  1
  Dy  Dy4  1  0.310955  0.310955  0.688845  1
  Dy  Dy5  1  0.938358  0.562144  0.561139  1
  Dy  Dy6  1  0.561376  0.561376  0.939687  1
  Dy  Dy7  1  0.561376  0.937563  0.939687  1
  Dy  Dy8  1  0.937563  0.561376  0.939687  1
  Dy  Dy9  1  0.148522  0.553278  0.149680  1
  Dy  Dy10  1  0.310955  0.689245  0.688845  1
  Dy  Dy11  1  0.689245  0.310955  0.688845  1
  Dy  Dy12  1  0.553278  0.148522  0.149680  1
  Er  Er13  1  0.689189  0.311223  0.310398  1
  Er  Er14  1  0.689189  0.689189  0.310398  1
  Er  Er15  1  0.311223  0.689189  0.310398  1
  In  In16  1  0.916919  0.916919  0.249244  1
  In  In17  1  0.248954  0.917007  0.917031  1
  In  In18  1  0.917007  0.248954  0.917031  1
  In  In19  1  0.917007  0.917007  0.917031  1
  Pt  Pt20  1  0.358175  0.358175  0.356159  1
  Pt  Pt21  1  0.927492  0.358175  0.356159  1
  Pt  Pt22  1  0.356614  0.356614  0.930160  1
  Pt  Pt23  1  0.358175  0.927492  0.356159  1
