# generated using pymatgen
data_Sm2SiCO7
_symmetry_space_group_name_H-M   'P 1'
_cell_length_a   6.72127016
_cell_length_b   6.86219129
_cell_length_c   6.63177224
_cell_angle_alpha   116.54226789
_cell_angle_beta   92.06205503
_cell_angle_gamma   95.71192483
_symmetry_Int_Tables_number   1
_chemical_formula_structural   Sm2SiCO7
_chemical_formula_sum   'Sm4 Si2 C2 O14'
_cell_volume   271.16408528
_cell_formula_units_Z   2
loop_
 _symmetry_equiv_pos_site_id
 _symmetry_equiv_pos_as_xyz
  1  'x, y, z'
loop_
 _atom_site_type_symbol
 _atom_site_label
 _atom_site_symmetry_multiplicity
 _atom_site_fract_x
 _atom_site_fract_y
 _atom_site_fract_z
 _atom_site_occupancy
  Sm  Sm0  1  0.913357  0.703003  0.251331  1
  Sm  Sm1  1  0.665910  0.192820  0.259065  1
  Sm  Sm2  1  0.334089  0.807180  0.740934  1
  Sm  Sm3  1  0.086642  0.296998  0.748668  1
  Si  Si4  1  0.156419  0.239681  0.262610  1
  Si  Si5  1  0.843581  0.760319  0.737390  1
  C  C6  1  0.409580  0.733517  0.194051  1
  C  C7  1  0.590419  0.266483  0.805949  1
  O  O8  1  0.646584  0.376234  0.019877  1
  O  O9  1  0.031920  0.339690  0.119711  1
  O  O10  1  0.327441  0.092478  0.124445  1
  O  O11  1  0.592734  0.833366  0.263235  1
  O  O12  1  0.985049  0.090766  0.333362  1
  O  O13  1  0.283868  0.748975  0.341393  1
  O  O14  1  0.749250  0.568370  0.485672  1
  O  O15  1  0.250751  0.431629  0.514328  1
  O  O16  1  0.716132  0.251025  0.658606  1
  O  O17  1  0.014951  0.909235  0.666638  1
  O  O18  1  0.407266  0.166634  0.736765  1
  O  O19  1  0.672559  0.907521  0.875554  1
  O  O20  1  0.968080  0.660311  0.880289  1
  O  O21  1  0.353416  0.623767  0.980123  1
