# generated using pymatgen
data_Tb2Y2Ga18NiRu5
_symmetry_space_group_name_H-M   'P 1'
_cell_length_a   7.51501256
_cell_length_b   7.51533950
_cell_length_c   9.68245123
_cell_angle_alpha   90.24432989
_cell_angle_beta   90.25681246
_cell_angle_gamma   119.76765631
_symmetry_Int_Tables_number   1
_chemical_formula_structural   Tb2Y2Ga18NiRu5
_chemical_formula_sum   'Tb2 Y2 Ga18 Ni1 Ru5'
_cell_volume   474.66783332
_cell_formula_units_Z   1
loop_
 _symmetry_equiv_pos_site_id
 _symmetry_equiv_pos_as_xyz
  1  'x, y, z'
loop_
 _atom_site_type_symbol
 _atom_site_label
 _atom_site_symmetry_multiplicity
 _atom_site_fract_x
 _atom_site_fract_y
 _atom_site_fract_z
 _atom_site_occupancy
  Tb  Tb0  1  0.997338  0.668269  0.250077  1
  Tb  Tb1  1  0.002662  0.331731  0.749923  1
  Y  Y2  1  0.668302  0.997525  0.250110  1
  Y  Y3  1  0.331698  0.002475  0.749890  1
  Ga  Ga4  1  0.126013  0.125848  0.248089  1
  Ga  Ga5  1  0.873987  0.874152  0.751911  1
  Ga  Ga6  1  0.004909  0.331536  0.075947  1
  Ga  Ga7  1  0.995091  0.668464  0.924053  1
  Ga  Ga8  1  0.994923  0.665453  0.575792  1
  Ga  Ga9  1  0.334694  0.005003  0.424187  1
  Ga  Ga10  1  0.005077  0.334547  0.424208  1
  Ga  Ga11  1  0.665306  0.994997  0.575813  1
  Ga  Ga12  1  0.668333  0.995232  0.923996  1
  Ga  Ga13  1  0.331667  0.004768  0.076004  1
  Ga  Ga14  1  0.337271  0.337158  0.559262  1
  Ga  Ga15  1  0.662729  0.662842  0.440738  1
  Ga  Ga16  1  0.664913  0.664969  0.059741  1
  Ga  Ga17  1  0.335087  0.335031  0.940259  1
  Ga  Ga18  1  0.337167  0.549012  0.249364  1
  Ga  Ga19  1  0.662833  0.450988  0.750636  1
  Ga  Ga20  1  0.549012  0.337356  0.249368  1
  Ga  Ga21  1  0.450988  0.662644  0.750632  1
  Ni  Ni22  1  0.000000  0.000000  0.000000  1
  Ru  Ru23  1  0.674406  0.325520  0.000021  1
  Ru  Ru24  1  0.325594  0.674480  0.999979  1
  Ru  Ru25  1  0.325731  0.674187  0.500019  1
  Ru  Ru26  1  0.674269  0.325813  0.499981  1
  Ru  Ru27  1  0.000000  0.000000  0.500000  1
