# generated using pymatgen
data_Yb2Zn5Si2Au
_symmetry_space_group_name_H-M   'P 1'
_cell_length_a   4.07627900
_cell_length_b   4.07627900
_cell_length_c   11.17807300
_cell_angle_alpha   90.00000000
_cell_angle_beta   90.00000000
_cell_angle_gamma   90.00000000
_symmetry_Int_Tables_number   1
_chemical_formula_structural   Yb2Zn5Si2Au
_chemical_formula_sum   'Yb2 Zn5 Si2 Au1'
_cell_volume   185.73542530
_cell_formula_units_Z   1
loop_
 _symmetry_equiv_pos_site_id
 _symmetry_equiv_pos_as_xyz
  1  'x, y, z'
loop_
 _atom_site_type_symbol
 _atom_site_label
 _atom_site_symmetry_multiplicity
 _atom_site_fract_x
 _atom_site_fract_y
 _atom_site_fract_z
 _atom_site_occupancy
  Yb  Yb0  1  0.000000  0.000000  0.997132  1
  Yb  Yb1  1  0.500000  0.500000  0.492127  1
  Zn  Zn2  1  0.000000  0.500000  0.251542  1
  Zn  Zn3  1  0.500000  0.000000  0.761490  1
  Zn  Zn4  1  0.500000  0.000000  0.251542  1
  Zn  Zn5  1  0.000000  0.500000  0.761490  1
  Zn  Zn6  1  0.500000  0.500000  0.108062  1
  Si  Si7  1  0.000000  0.000000  0.381001  1
  Si  Si8  1  0.500000  0.500000  0.893545  1
  Au  Au9  1  0.000000  0.000000  0.602072  1
