# generated using pymatgen
data_Dy2Al9RuPt2
_symmetry_space_group_name_H-M   'P 1'
_cell_length_a   7.60478103
_cell_length_b   7.60478092
_cell_length_c   9.47155000
_cell_angle_alpha   90.00000000
_cell_angle_beta   90.00000000
_cell_angle_gamma   119.53399938
_symmetry_Int_Tables_number   1
_chemical_formula_structural   Dy2Al9RuPt2
_chemical_formula_sum   'Dy4 Al18 Ru2 Pt4'
_cell_volume   476.59046145
_cell_formula_units_Z   2
loop_
 _symmetry_equiv_pos_site_id
 _symmetry_equiv_pos_as_xyz
  1  'x, y, z'
loop_
 _atom_site_type_symbol
 _atom_site_label
 _atom_site_symmetry_multiplicity
 _atom_site_fract_x
 _atom_site_fract_y
 _atom_site_fract_z
 _atom_site_occupancy
  Dy  Dy0  1  0.994507  0.669859  0.750000  1
  Dy  Dy1  1  0.005493  0.330141  0.250000  1
  Dy  Dy2  1  0.669859  0.994507  0.750000  1
  Dy  Dy3  1  0.330141  0.005493  0.250000  1
  Al  Al4  1  0.123876  0.123876  0.750000  1
  Al  Al5  1  0.876124  0.876124  0.250000  1
  Al  Al6  1  0.000215  0.329438  0.576070  1
  Al  Al7  1  0.999785  0.670562  0.423930  1
  Al  Al8  1  0.999785  0.670562  0.076070  1
  Al  Al9  1  0.329438  0.000215  0.923930  1
  Al  Al10  1  0.000215  0.329438  0.923930  1
  Al  Al11  1  0.670562  0.999785  0.076070  1
  Al  Al12  1  0.670562  0.999785  0.423930  1
  Al  Al13  1  0.329438  0.000215  0.576070  1
  Al  Al14  1  0.327692  0.327692  0.054634  1
  Al  Al15  1  0.672308  0.672308  0.945366  1
  Al  Al16  1  0.672308  0.672308  0.554634  1
  Al  Al17  1  0.327692  0.327692  0.445366  1
  Al  Al18  1  0.341114  0.545768  0.750000  1
  Al  Al19  1  0.658886  0.454232  0.250000  1
  Al  Al20  1  0.545768  0.341114  0.750000  1
  Al  Al21  1  0.454232  0.658886  0.250000  1
  Ru  Ru22  1  0.000000  0.000000  0.500000  1
  Ru  Ru23  1  0.000000  0.000000  0.000000  1
  Pt  Pt24  1  0.672072  0.327928  0.500000  1
  Pt  Pt25  1  0.327928  0.672072  0.500000  1
  Pt  Pt26  1  0.327928  0.672072  0.000000  1
  Pt  Pt27  1  0.672072  0.327928  0.000000  1
