# generated using pymatgen
data_Ce2Er6AlPd24
_symmetry_space_group_name_H-M   'P 1'
_cell_length_a   8.34054358
_cell_length_b   8.34054313
_cell_length_c   8.34054402
_cell_angle_alpha   89.91991778
_cell_angle_beta   90.08007851
_cell_angle_gamma   90.08007244
_symmetry_Int_Tables_number   1
_chemical_formula_structural   Ce2Er6AlPd24
_chemical_formula_sum   'Ce2 Er6 Al1 Pd24'
_cell_volume   580.20543942
_cell_formula_units_Z   1
loop_
 _symmetry_equiv_pos_site_id
 _symmetry_equiv_pos_as_xyz
  1  'x, y, z'
loop_
 _atom_site_type_symbol
 _atom_site_label
 _atom_site_symmetry_multiplicity
 _atom_site_fract_x
 _atom_site_fract_y
 _atom_site_fract_z
 _atom_site_occupancy
  Ce  Ce0  1  0.254171  0.745829  0.745829  1
  Ce  Ce1  1  0.745829  0.254171  0.254171  1
  Er  Er2  1  0.251500  0.252337  0.252337  1
  Er  Er3  1  0.748500  0.747663  0.747663  1
  Er  Er4  1  0.747663  0.748500  0.252337  1
  Er  Er5  1  0.747663  0.252337  0.748500  1
  Er  Er6  1  0.252337  0.251500  0.747663  1
  Er  Er7  1  0.252337  0.747663  0.251500  1
  Al  Al8  1  0.000000  0.000000  0.000000  1
  Pd  Pd9  1  0.259255  0.500349  0.998828  1
  Pd  Pd10  1  0.740745  0.499651  0.001172  1
  Pd  Pd11  1  0.998828  0.259255  0.499651  1
  Pd  Pd12  1  0.500349  0.259255  0.001172  1
  Pd  Pd13  1  0.001172  0.740745  0.500349  1
  Pd  Pd14  1  0.499651  0.740745  0.998828  1
  Pd  Pd15  1  0.500349  0.001172  0.259255  1
  Pd  Pd16  1  0.259255  0.998828  0.500349  1
  Pd  Pd17  1  0.499651  0.998828  0.740745  1
  Pd  Pd18  1  0.740745  0.001172  0.499651  1
  Pd  Pd19  1  0.998828  0.499651  0.259255  1
  Pd  Pd20  1  0.001172  0.500349  0.740745  1
  Pd  Pd21  1  0.252818  0.500114  0.500114  1
  Pd  Pd22  1  0.747182  0.499886  0.499886  1
  Pd  Pd23  1  0.500114  0.252818  0.499886  1
  Pd  Pd24  1  0.499886  0.747182  0.500114  1
  Pd  Pd25  1  0.500114  0.499886  0.252818  1
  Pd  Pd26  1  0.499886  0.500114  0.747182  1
  Pd  Pd27  1  0.288073  0.000224  0.000224  1
  Pd  Pd28  1  0.711927  0.999776  0.999776  1
  Pd  Pd29  1  0.000224  0.288073  0.999776  1
  Pd  Pd30  1  0.999776  0.711927  0.000224  1
  Pd  Pd31  1  0.000224  0.999776  0.288073  1
  Pd  Pd32  1  0.999776  0.000224  0.711927  1
