# generated using pymatgen
data_Lu8V5Re6Si16Mo
_symmetry_space_group_name_H-M   'P 1'
_cell_length_a   6.61880681
_cell_length_b   6.78070146
_cell_length_c   12.70106333
_cell_angle_alpha   90.00097444
_cell_angle_beta   90.02548531
_cell_angle_gamma   90.01215029
_symmetry_Int_Tables_number   1
_chemical_formula_structural   Lu8V5Re6Si16Mo
_chemical_formula_sum   'Lu8 V5 Re6 Si16 Mo1'
_cell_volume   570.02559673
_cell_formula_units_Z   1
loop_
 _symmetry_equiv_pos_site_id
 _symmetry_equiv_pos_as_xyz
  1  'x, y, z'
loop_
 _atom_site_type_symbol
 _atom_site_label
 _atom_site_symmetry_multiplicity
 _atom_site_fract_x
 _atom_site_fract_y
 _atom_site_fract_z
 _atom_site_occupancy
  Lu  Lu0  1  0.497343  0.333145  0.095035  1
  Lu  Lu1  1  0.992561  0.167133  0.406850  1
  Lu  Lu2  1  0.506671  0.666005  0.592658  1
  Lu  Lu3  1  0.005500  0.835191  0.906482  1
  Lu  Lu4  1  0.505293  0.666725  0.906411  1
  Lu  Lu5  1  0.005315  0.834179  0.592938  1
  Lu  Lu6  1  0.495950  0.333059  0.405875  1
  Lu  Lu7  1  0.994966  0.167429  0.094187  1
  V  V8  1  0.670497  0.837735  0.378546  1
  V  V9  1  0.166116  0.665625  0.374055  1
  V  V10  1  0.666320  0.835793  0.123192  1
  V  V11  1  0.834067  0.337052  0.872116  1
  V  V12  1  0.333869  0.164909  0.628154  1
  Re  Re13  1  0.826261  0.340625  0.622691  1
  Re  Re14  1  0.324003  0.158055  0.880218  1
  Re  Re15  1  0.172094  0.658167  0.118695  1
  Re  Re16  1  0.670277  0.991337  0.750161  1
  Re  Re17  1  0.171579  0.509833  0.750132  1
  Re  Re18  1  0.331266  0.002810  0.250187  1
  Si  Si19  1  0.659072  0.044275  0.545718  1
  Si  Si20  1  0.157229  0.454067  0.951543  1
  Si  Si21  1  0.342583  0.954460  0.048204  1
  Si  Si22  1  0.839484  0.547790  0.453752  1
  Si  Si23  1  0.338671  0.956357  0.454636  1
  Si  Si24  1  0.837381  0.542041  0.043498  1
  Si  Si25  1  0.661189  0.043103  0.954261  1
  Si  Si26  1  0.160928  0.457020  0.545827  1
  Si  Si27  1  0.533856  0.361312  0.753175  1
  Si  Si28  1  0.033865  0.138878  0.747293  1
  Si  Si29  1  0.464084  0.638936  0.252066  1
  Si  Si30  1  0.963366  0.863899  0.249660  1
  Si  Si31  1  0.806938  0.630679  0.750824  1
  Si  Si32  1  0.307206  0.869380  0.748495  1
  Si  Si33  1  0.197225  0.368729  0.251987  1
  Si  Si34  1  0.695108  0.125470  0.250748  1
  Mo  Mo35  1  0.831869  0.498800  0.249729  1
