# generated using pymatgen
data_Tb4Sm4Re3B24Os
_symmetry_space_group_name_H-M   'P 1'
_cell_length_a   3.71946900
_cell_length_b   9.24123677
_cell_length_c   11.66297301
_cell_angle_alpha   90.07176710
_cell_angle_beta   90.00000000
_cell_angle_gamma   90.00000000
_symmetry_Int_Tables_number   1
_chemical_formula_structural   Tb4Sm4Re3B24Os
_chemical_formula_sum   'Tb4 Sm4 Re3 B24 Os1'
_cell_volume   400.88515158
_cell_formula_units_Z   1
loop_
 _symmetry_equiv_pos_site_id
 _symmetry_equiv_pos_as_xyz
  1  'x, y, z'
loop_
 _atom_site_type_symbol
 _atom_site_label
 _atom_site_symmetry_multiplicity
 _atom_site_fract_x
 _atom_site_fract_y
 _atom_site_fract_z
 _atom_site_occupancy
  Tb  Tb0  1  0.000000  0.942197  0.369316  1
  Tb  Tb1  1  0.000000  0.056928  0.630053  1
  Tb  Tb2  1  0.000000  0.442303  0.130515  1
  Tb  Tb3  1  0.000000  0.557287  0.870227  1
  Sm  Sm4  1  0.000000  0.322116  0.414463  1
  Sm  Sm5  1  0.000000  0.677124  0.587288  1
  Sm  Sm6  1  0.000000  0.824384  0.084495  1
  Sm  Sm7  1  0.000000  0.176850  0.913714  1
  Re  Re8  1  0.000000  0.362160  0.678540  1
  Re  Re9  1  0.000000  0.138514  0.180140  1
  Re  Re10  1  0.000000  0.861495  0.820494  1
  B  B11  1  0.500000  0.554505  0.431514  1
  B  B12  1  0.500000  0.446243  0.568150  1
  B  B13  1  0.500000  0.054010  0.068032  1
  B  B14  1  0.500000  0.946322  0.931651  1
  B  B15  1  0.500000  0.748083  0.416729  1
  B  B16  1  0.500000  0.251126  0.582864  1
  B  B17  1  0.500000  0.248770  0.082997  1
  B  B18  1  0.500000  0.751847  0.917129  1
  B  B19  1  0.500000  0.789772  0.265862  1
  B  B20  1  0.500000  0.209363  0.733946  1
  B  B21  1  0.500000  0.290487  0.234431  1
  B  B22  1  0.500000  0.709155  0.766125  1
  B  B23  1  0.500000  0.630641  0.186632  1
  B  B24  1  0.500000  0.369834  0.813316  1
  B  B25  1  0.500000  0.130475  0.314134  1
  B  B26  1  0.500000  0.869370  0.686328  1
  B  B27  1  0.500000  0.983983  0.212157  1
  B  B28  1  0.500000  0.016245  0.787355  1
  B  B29  1  0.500000  0.484646  0.287897  1
  B  B30  1  0.500000  0.516727  0.712419  1
  B  B31  1  0.500000  0.599615  0.028241  1
  B  B32  1  0.500000  0.400471  0.972645  1
  B  B33  1  0.500000  0.098759  0.472092  1
  B  B34  1  0.500000  0.899821  0.527553  1
  Os  Os35  1  0.000000  0.638373  0.320556  1
