# generated using pymatgen
data_Dy2LuSc2Pb3
_symmetry_space_group_name_H-M   'P 1'
_cell_length_a   8.86458709
_cell_length_b   8.84657552
_cell_length_c   6.35145100
_cell_angle_alpha   90.00000000
_cell_angle_beta   90.00000000
_cell_angle_gamma   119.93281425
_symmetry_Int_Tables_number   1
_chemical_formula_structural   Dy2LuSc2Pb3
_chemical_formula_sum   'Dy4 Lu2 Sc4 Pb6'
_cell_volume   431.64916715
_cell_formula_units_Z   2
loop_
 _symmetry_equiv_pos_site_id
 _symmetry_equiv_pos_as_xyz
  1  'x, y, z'
loop_
 _atom_site_type_symbol
 _atom_site_label
 _atom_site_symmetry_multiplicity
 _atom_site_fract_x
 _atom_site_fract_y
 _atom_site_fract_z
 _atom_site_occupancy
  Dy  Dy0  1  0.237465  0.999919  0.250000  1
  Dy  Dy1  1  0.237465  0.237547  0.750000  1
  Dy  Dy2  1  0.999299  0.763247  0.750000  1
  Dy  Dy3  1  0.999299  0.236052  0.250000  1
  Lu  Lu4  1  0.763110  0.763655  0.250000  1
  Lu  Lu5  1  0.763110  0.999455  0.750000  1
  Sc  Sc6  1  0.333225  0.666613  0.000000  1
  Sc  Sc7  1  0.667028  0.333514  0.500000  1
  Sc  Sc8  1  0.667028  0.333514  0.000000  1
  Sc  Sc9  1  0.333225  0.666613  0.500000  1
  Pb  Pb10  1  0.601041  0.998800  0.250000  1
  Pb  Pb11  1  0.601041  0.602242  0.750000  1
  Pb  Pb12  1  0.998782  0.397681  0.750000  1
  Pb  Pb13  1  0.998782  0.601101  0.250000  1
  Pb  Pb14  1  0.400049  0.400157  0.250000  1
  Pb  Pb15  1  0.400049  0.999891  0.750000  1
