# generated using pymatgen
data_Ac3TiBi5
_symmetry_space_group_name_H-M   'P 1'
_cell_length_a   10.08153500
_cell_length_b   10.08153489
_cell_length_c   6.67424300
_cell_angle_alpha   90.00000000
_cell_angle_beta   90.00000000
_cell_angle_gamma   120.00000365
_symmetry_Int_Tables_number   1
_chemical_formula_structural   Ac3TiBi5
_chemical_formula_sum   'Ac6 Ti2 Bi10'
_cell_volume   587.47034666
_cell_formula_units_Z   2
loop_
 _symmetry_equiv_pos_site_id
 _symmetry_equiv_pos_as_xyz
  1  'x, y, z'
loop_
 _atom_site_type_symbol
 _atom_site_label
 _atom_site_symmetry_multiplicity
 _atom_site_fract_x
 _atom_site_fract_y
 _atom_site_fract_z
 _atom_site_occupancy
  Ac  Ac0  1  0.380839  0.000000  0.750000  1
  Ac  Ac1  1  0.380839  0.380839  0.250000  1
  Ac  Ac2  1  0.000000  0.619161  0.250000  1
  Ac  Ac3  1  0.000000  0.380839  0.750000  1
  Ac  Ac4  1  0.619161  0.619161  0.750000  1
  Ac  Ac5  1  0.619161  0.000000  0.250000  1
  Ti  Ti6  1  0.000000  0.000000  0.000000  1
  Ti  Ti7  1  0.000000  0.000000  0.500000  1
  Bi  Bi8  1  0.666667  0.333333  0.500000  1
  Bi  Bi9  1  0.333333  0.666667  0.000000  1
  Bi  Bi10  1  0.753581  0.000000  0.750000  1
  Bi  Bi11  1  0.753581  0.753581  0.250000  1
  Bi  Bi12  1  0.333333  0.666667  0.500000  1
  Bi  Bi13  1  0.666667  0.333333  0.000000  1
  Bi  Bi14  1  0.246419  0.000000  0.250000  1
  Bi  Bi15  1  0.246419  0.246419  0.750000  1
  Bi  Bi16  1  0.000000  0.753581  0.750000  1
  Bi  Bi17  1  0.000000  0.246419  0.250000  1
