# generated using pymatgen
data_RbScPb3O8
_symmetry_space_group_name_H-M   'P 1'
_cell_length_a   7.94398823
_cell_length_b   7.94398847
_cell_length_c   11.03648500
_cell_angle_alpha   46.89250203
_cell_angle_beta   46.89250036
_cell_angle_gamma   24.32751394
_symmetry_Int_Tables_number   1
_chemical_formula_structural   RbScPb3O8
_chemical_formula_sum   'Rb1 Sc1 Pb3 O8'
_cell_volume   205.16187236
_cell_formula_units_Z   1
loop_
 _symmetry_equiv_pos_site_id
 _symmetry_equiv_pos_as_xyz
  1  'x, y, z'
loop_
 _atom_site_type_symbol
 _atom_site_label
 _atom_site_symmetry_multiplicity
 _atom_site_fract_x
 _atom_site_fract_y
 _atom_site_fract_z
 _atom_site_occupancy
  Rb  Rb0  1  0.497305  0.497305  0.998997  1
  Sc  Sc1  1  0.349925  0.349925  0.814210  1
  Pb  Pb2  1  0.657072  0.657072  0.170144  1
  Pb  Pb3  1  0.160090  0.160090  0.492793  1
  Pb  Pb4  1  0.836564  0.836564  0.521225  1
  O  O5  1  0.153123  0.153123  0.042868  1
  O  O6  1  0.849164  0.849164  0.941772  1
  O  O7  1  0.198948  0.198948  0.652956  1
  O  O8  1  0.797785  0.797785  0.358137  1
  O  O9  1  0.537059  0.537059  0.631401  1
  O  O10  1  0.460186  0.460186  0.372092  1
  O  O11  1  0.167360  0.167360  0.290274  1
  O  O12  1  0.835419  0.835419  0.713129  1
