# generated using pymatgen
data_ErLu(ScPt)2
_symmetry_space_group_name_H-M   'P 1'
_cell_length_a   4.57734500
_cell_length_b   6.91784300
_cell_length_c   8.38368300
_cell_angle_alpha   90.00000000
_cell_angle_beta   90.00000000
_cell_angle_gamma   90.00000000
_symmetry_Int_Tables_number   1
_chemical_formula_structural   ErLu(ScPt)2
_chemical_formula_sum   'Er2 Lu2 Sc4 Pt4'
_cell_volume   265.47229058
_cell_formula_units_Z   2
loop_
 _symmetry_equiv_pos_site_id
 _symmetry_equiv_pos_as_xyz
  1  'x, y, z'
loop_
 _atom_site_type_symbol
 _atom_site_label
 _atom_site_symmetry_multiplicity
 _atom_site_fract_x
 _atom_site_fract_y
 _atom_site_fract_z
 _atom_site_occupancy
  Er  Er0  1  0.250000  0.020053  0.673202  1
  Er  Er1  1  0.250000  0.520053  0.826798  1
  Lu  Lu2  1  0.750000  0.978713  0.325407  1
  Lu  Lu3  1  0.750000  0.478713  0.174593  1
  Sc  Sc4  1  0.250000  0.141963  0.071367  1
  Sc  Sc5  1  0.250000  0.641963  0.428633  1
  Sc  Sc6  1  0.750000  0.858182  0.930977  1
  Sc  Sc7  1  0.750000  0.358182  0.569023  1
  Pt  Pt8  1  0.250000  0.253802  0.393348  1
  Pt  Pt9  1  0.250000  0.753802  0.106652  1
  Pt  Pt10  1  0.750000  0.747285  0.603297  1
  Pt  Pt11  1  0.750000  0.247285  0.896703  1
