# generated using pymatgen
data_CaZn2CdPt2
_symmetry_space_group_name_H-M   'P 1'
_cell_length_a   5.21604755
_cell_length_b   5.29528372
_cell_length_c   5.29528500
_cell_angle_alpha   63.37121308
_cell_angle_beta   60.49376143
_cell_angle_gamma   60.49378243
_symmetry_Int_Tables_number   1
_chemical_formula_structural   CaZn2CdPt2
_chemical_formula_sum   'Ca1 Zn2 Cd1 Pt2'
_cell_volume   106.61894411
_cell_formula_units_Z   1
loop_
 _symmetry_equiv_pos_site_id
 _symmetry_equiv_pos_as_xyz
  1  'x, y, z'
loop_
 _atom_site_type_symbol
 _atom_site_label
 _atom_site_symmetry_multiplicity
 _atom_site_fract_x
 _atom_site_fract_y
 _atom_site_fract_z
 _atom_site_occupancy
  Ca  Ca0  1  0.257208  0.242792  0.242792  1
  Zn  Zn1  1  0.122796  0.628512  0.628512  1
  Zn  Zn2  1  0.620182  0.628511  0.628511  1
  Cd  Cd3  1  0.999692  0.000308  0.000308  1
  Pt  Pt4  1  0.625061  0.624498  0.125379  1
  Pt  Pt5  1  0.625061  0.125379  0.624498  1
