# generated using pymatgen
data_Ce6Er2Sc11Si16Au
_symmetry_space_group_name_H-M   'P 1'
_cell_length_a   6.98995839
_cell_length_b   7.36900502
_cell_length_c   13.98192700
_cell_angle_alpha   89.96765500
_cell_angle_beta   89.98084391
_cell_angle_gamma   89.81636105
_symmetry_Int_Tables_number   1
_chemical_formula_structural   Ce6Er2Sc11Si16Au
_chemical_formula_sum   'Ce6 Er2 Sc11 Si16 Au1'
_cell_volume   720.19176194
_cell_formula_units_Z   1
loop_
 _symmetry_equiv_pos_site_id
 _symmetry_equiv_pos_as_xyz
  1  'x, y, z'
loop_
 _atom_site_type_symbol
 _atom_site_label
 _atom_site_symmetry_multiplicity
 _atom_site_fract_x
 _atom_site_fract_y
 _atom_site_fract_z
 _atom_site_occupancy
  Ce  Ce0  1  0.487652  0.668677  0.903568  1
  Ce  Ce1  1  0.993810  0.819738  0.597403  1
  Ce  Ce2  1  0.510754  0.326964  0.095215  1
  Ce  Ce3  1  0.008987  0.169829  0.405001  1
  Ce  Ce4  1  0.510485  0.326511  0.402615  1
  Ce  Ce5  1  0.487332  0.668874  0.598632  1
  Er  Er6  1  0.007016  0.174817  0.095003  1
  Er  Er7  1  0.992258  0.815157  0.901774  1
  Sc  Sc8  1  0.835628  0.495398  0.248797  1
  Sc  Sc9  1  0.338443  0.007620  0.249657  1
  Sc  Sc10  1  0.657405  0.996263  0.750420  1
  Sc  Sc11  1  0.321675  0.182472  0.627596  1
  Sc  Sc12  1  0.671126  0.825694  0.375522  1
  Sc  Sc13  1  0.169451  0.678942  0.373514  1
  Sc  Sc14  1  0.669751  0.824441  0.122408  1
  Sc  Sc15  1  0.843778  0.326365  0.627297  1
  Sc  Sc16  1  0.323254  0.182624  0.874498  1
  Sc  Sc17  1  0.841909  0.325809  0.873902  1
  Sc  Sc18  1  0.169089  0.680787  0.124263  1
  Si  Si19  1  0.027437  0.094789  0.751931  1
  Si  Si20  1  0.965866  0.885637  0.248057  1
  Si  Si21  1  0.465322  0.620188  0.248924  1
  Si  Si22  1  0.540976  0.380407  0.750959  1
  Si  Si23  1  0.289458  0.882691  0.752554  1
  Si  Si24  1  0.713784  0.125545  0.247561  1
  Si  Si25  1  0.210235  0.376409  0.248500  1
  Si  Si26  1  0.781058  0.625150  0.751262  1
  Si  Si27  1  0.161913  0.459639  0.529023  1
  Si  Si28  1  0.842959  0.535372  0.461540  1
  Si  Si29  1  0.344644  0.963625  0.464332  1
  Si  Si30  1  0.843247  0.535457  0.037959  1
  Si  Si31  1  0.656179  0.034221  0.541912  1
  Si  Si32  1  0.160263  0.460220  0.969268  1
  Si  Si33  1  0.659846  0.033431  0.958505  1
  Si  Si34  1  0.340645  0.966423  0.036543  1
  Au  Au35  1  0.156368  0.523814  0.754087  1
