# generated using pymatgen
data_Na4PtO5
_symmetry_space_group_name_H-M   'P 1'
_cell_length_a   5.71214813
_cell_length_b   5.72939210
_cell_length_c   8.61293247
_cell_angle_alpha   102.17744305
_cell_angle_beta   108.90621087
_cell_angle_gamma   101.70264836
_symmetry_Int_Tables_number   1
_chemical_formula_structural   Na4PtO5
_chemical_formula_sum   'Na8 Pt2 O10'
_cell_volume   249.20947783
_cell_formula_units_Z   2
loop_
 _symmetry_equiv_pos_site_id
 _symmetry_equiv_pos_as_xyz
  1  'x, y, z'
loop_
 _atom_site_type_symbol
 _atom_site_label
 _atom_site_symmetry_multiplicity
 _atom_site_fract_x
 _atom_site_fract_y
 _atom_site_fract_z
 _atom_site_occupancy
  Na  Na0  1  0.697907  0.483582  0.901328  1
  Na  Na1  1  0.890002  0.502780  0.300585  1
  Na  Na2  1  0.700758  0.001792  0.402539  1
  Na  Na3  1  0.299242  0.998208  0.597461  1
  Na  Na4  1  0.302093  0.516418  0.098672  1
  Na  Na5  1  0.500000  0.500000  0.500000  1
  Na  Na6  1  0.500000  0.000000  0.000000  1
  Na  Na7  1  0.109998  0.497220  0.699415  1
  Pt  Pt8  1  0.902718  0.994284  0.802136  1
  Pt  Pt9  1  0.097282  0.005716  0.197864  1
  O  O10  1  0.246422  0.216762  0.847520  1
  O  O11  1  0.753578  0.783238  0.152480  1
  O  O12  1  0.903905  0.774138  0.590505  1
  O  O13  1  0.096095  0.225862  0.409495  1
  O  O14  1  0.438806  0.226011  0.239081  1
  O  O15  1  0.561194  0.773989  0.760919  1
  O  O16  1  0.080424  0.800735  0.961548  1
  O  O17  1  0.919576  0.199265  0.038452  1
  O  O18  1  0.261492  0.791733  0.321059  1
  O  O19  1  0.738508  0.208267  0.678941  1
