# generated using pymatgen
data_Hf2PtCl12
_symmetry_space_group_name_H-M   'P 1'
_cell_length_a   8.84517705
_cell_length_b   8.84517743
_cell_length_c   6.66341900
_cell_angle_alpha   72.11868337
_cell_angle_beta   72.11868256
_cell_angle_gamma   81.32286385
_symmetry_Int_Tables_number   1
_chemical_formula_structural   Hf2PtCl12
_chemical_formula_sum   'Hf2 Pt1 Cl12'
_cell_volume   471.25509860
_cell_formula_units_Z   1
loop_
 _symmetry_equiv_pos_site_id
 _symmetry_equiv_pos_as_xyz
  1  'x, y, z'
loop_
 _atom_site_type_symbol
 _atom_site_label
 _atom_site_symmetry_multiplicity
 _atom_site_fract_x
 _atom_site_fract_y
 _atom_site_fract_z
 _atom_site_occupancy
  Hf  Hf0  1  0.273184  0.273184  0.733988  1
  Hf  Hf1  1  0.726816  0.726816  0.266012  1
  Pt  Pt2  1  0.000000  0.000000  0.000000  1
  Cl  Cl3  1  0.970002  0.248996  0.752841  1
  Cl  Cl4  1  0.248996  0.970002  0.752841  1
  Cl  Cl5  1  0.029998  0.751004  0.247159  1
  Cl  Cl6  1  0.751004  0.029998  0.247159  1
  Cl  Cl7  1  0.207803  0.520812  0.798832  1
  Cl  Cl8  1  0.520812  0.207803  0.798832  1
  Cl  Cl9  1  0.792197  0.479188  0.201168  1
  Cl  Cl10  1  0.479188  0.792197  0.201168  1
  Cl  Cl11  1  0.129559  0.129559  0.153436  1
  Cl  Cl12  1  0.870441  0.870441  0.846564  1
  Cl  Cl13  1  0.658677  0.658677  0.647080  1
  Cl  Cl14  1  0.341323  0.341323  0.352920  1
