# generated using pymatgen
data_InBi3Pt3RhO14
_symmetry_space_group_name_H-M   'P 1'
_cell_length_a   7.34638335
_cell_length_b   7.35506251
_cell_length_c   7.34638400
_cell_angle_alpha   60.03903334
_cell_angle_beta   60.00000609
_cell_angle_gamma   60.03903391
_symmetry_Int_Tables_number   1
_chemical_formula_structural   InBi3Pt3RhO14
_chemical_formula_sum   'In1 Bi3 Pt3 Rh1 O14'
_cell_volume   280.85009954
_cell_formula_units_Z   1
loop_
 _symmetry_equiv_pos_site_id
 _symmetry_equiv_pos_as_xyz
  1  'x, y, z'
loop_
 _atom_site_type_symbol
 _atom_site_label
 _atom_site_symmetry_multiplicity
 _atom_site_fract_x
 _atom_site_fract_y
 _atom_site_fract_z
 _atom_site_occupancy
  In  In0  1  0.125000  0.625000  0.125000  1
  Bi  Bi1  1  0.125000  0.125000  0.125000  1
  Bi  Bi2  1  0.625000  0.125000  0.125000  1
  Bi  Bi3  1  0.125000  0.125000  0.625000  1
  Pt  Pt4  1  0.625000  0.625000  0.625000  1
  Pt  Pt5  1  0.625000  0.625000  0.125000  1
  Pt  Pt6  1  0.125000  0.625000  0.625000  1
  Rh  Rh7  1  0.625000  0.125000  0.625000  1
  O  O8  1  0.240872  0.277383  0.240872  1
  O  O9  1  0.289742  0.703342  0.289742  1
  O  O10  1  0.960366  0.958927  0.540353  1
  O  O11  1  0.540353  0.958927  0.540353  1
  O  O12  1  0.717174  0.703342  0.289742  1
  O  O13  1  0.960258  0.546658  0.532826  1
  O  O14  1  0.709647  0.291073  0.709647  1
  O  O15  1  0.289634  0.291073  0.709647  1
  O  O16  1  0.709647  0.291073  0.289634  1
  O  O17  1  0.289742  0.703342  0.717174  1
  O  O18  1  0.960258  0.546658  0.960258  1
  O  O19  1  0.532826  0.546658  0.960258  1
  O  O20  1  0.009128  0.972617  0.009128  1
  O  O21  1  0.540353  0.958927  0.960366  1
