# generated using pymatgen
data_SrTe7
_symmetry_space_group_name_H-M   'P 1'
_cell_length_a   14.86567408
_cell_length_b   14.86567478
_cell_length_c   4.09299300
_cell_angle_alpha   90.00000000
_cell_angle_beta   90.00000000
_cell_angle_gamma   161.81904009
_symmetry_Int_Tables_number   1
_chemical_formula_structural   SrTe7
_chemical_formula_sum   'Sr1 Te7'
_cell_volume   282.22246113
_cell_formula_units_Z   1
loop_
 _symmetry_equiv_pos_site_id
 _symmetry_equiv_pos_as_xyz
  1  'x, y, z'
loop_
 _atom_site_type_symbol
 _atom_site_label
 _atom_site_symmetry_multiplicity
 _atom_site_fract_x
 _atom_site_fract_y
 _atom_site_fract_z
 _atom_site_occupancy
  Sr  Sr0  1  0.326216  0.673784  0.250000  1
  Te  Te1  1  0.700551  0.299449  0.750000  1
  Te  Te2  1  0.067723  0.932277  0.750000  1
  Te  Te3  1  0.919100  0.080900  0.250000  1
  Te  Te4  1  0.795458  0.204542  0.750000  1
  Te  Te5  1  0.198770  0.801230  0.250000  1
  Te  Te6  1  0.571273  0.428727  0.250000  1
  Te  Te7  1  0.420909  0.579091  0.750000  1
