# generated using pymatgen
data_Tb3Zn2AgPd3
_symmetry_space_group_name_H-M   'P 1'
_cell_length_a   7.35340716
_cell_length_b   7.44552939
_cell_length_c   3.90484900
_cell_angle_alpha   90.00000000
_cell_angle_beta   90.00000000
_cell_angle_gamma   120.41528120
_symmetry_Int_Tables_number   1
_chemical_formula_structural   Tb3Zn2AgPd3
_chemical_formula_sum   'Tb3 Zn2 Ag1 Pd3'
_cell_volume   184.36838408
_cell_formula_units_Z   1
loop_
 _symmetry_equiv_pos_site_id
 _symmetry_equiv_pos_as_xyz
  1  'x, y, z'
loop_
 _atom_site_type_symbol
 _atom_site_label
 _atom_site_symmetry_multiplicity
 _atom_site_fract_x
 _atom_site_fract_y
 _atom_site_fract_z
 _atom_site_occupancy
  Tb  Tb0  1  0.000000  0.401861  0.000000  1
  Tb  Tb1  1  0.597255  0.595622  0.000000  1
  Tb  Tb2  1  0.402745  0.998367  0.000000  1
  Zn  Zn3  1  0.254309  0.251646  0.500000  1
  Zn  Zn4  1  0.745691  0.997337  0.500000  1
  Ag  Ag5  1  0.000000  0.748253  0.500000  1
  Pd  Pd6  1  0.000000  0.021316  0.000000  1
  Pd  Pd7  1  0.340534  0.663066  0.500000  1
  Pd  Pd8  1  0.659466  0.322532  0.500000  1
