# generated using pymatgen
data_BaNpSe3
_symmetry_space_group_name_H-M   'P 1'
_cell_length_a   4.34694900
_cell_length_b   9.14248700
_cell_length_c   15.42268100
_cell_angle_alpha   90.00000000
_cell_angle_beta   90.00000000
_cell_angle_gamma   90.00000000
_symmetry_Int_Tables_number   1
_chemical_formula_structural   BaNpSe3
_chemical_formula_sum   'Ba4 Np4 Se12'
_cell_volume   612.92702732
_cell_formula_units_Z   4
loop_
 _symmetry_equiv_pos_site_id
 _symmetry_equiv_pos_as_xyz
  1  'x, y, z'
loop_
 _atom_site_type_symbol
 _atom_site_label
 _atom_site_symmetry_multiplicity
 _atom_site_fract_x
 _atom_site_fract_y
 _atom_site_fract_z
 _atom_site_occupancy
  Ba  Ba0  1  0.750000  0.567486  0.177584  1
  Ba  Ba1  1  0.250000  0.432514  0.822416  1
  Ba  Ba2  1  0.750000  0.067486  0.322416  1
  Ba  Ba3  1  0.250000  0.932514  0.677584  1
  Np  Np4  1  0.250000  0.666567  0.442924  1
  Np  Np5  1  0.750000  0.333433  0.557076  1
  Np  Np6  1  0.250000  0.166567  0.057076  1
  Np  Np7  1  0.750000  0.833433  0.942924  1
  Se  Se8  1  0.750000  0.833371  0.507992  1
  Se  Se9  1  0.250000  0.166629  0.492008  1
  Se  Se10  1  0.750000  0.333371  0.992008  1
  Se  Se11  1  0.250000  0.666629  0.007992  1
  Se  Se12  1  0.250000  0.523706  0.606911  1
  Se  Se13  1  0.750000  0.476294  0.393089  1
  Se  Se14  1  0.250000  0.023706  0.893089  1
  Se  Se15  1  0.750000  0.976294  0.106911  1
  Se  Se16  1  0.250000  0.792107  0.281513  1
  Se  Se17  1  0.750000  0.207893  0.718487  1
  Se  Se18  1  0.250000  0.292107  0.218487  1
  Se  Se19  1  0.750000  0.707893  0.781513  1
