# generated using pymatgen
data_LiCePr2Hg3Pd2
_symmetry_space_group_name_H-M   'P 1'
_cell_length_a   7.95796307
_cell_length_b   8.07656161
_cell_length_c   3.82242900
_cell_angle_alpha   90.00000000
_cell_angle_beta   90.00000000
_cell_angle_gamma   120.49423010
_symmetry_Int_Tables_number   1
_chemical_formula_structural   LiCePr2Hg3Pd2
_chemical_formula_sum   'Li1 Ce1 Pr2 Hg3 Pd2'
_cell_volume   211.69665937
_cell_formula_units_Z   1
loop_
 _symmetry_equiv_pos_site_id
 _symmetry_equiv_pos_as_xyz
  1  'x, y, z'
loop_
 _atom_site_type_symbol
 _atom_site_label
 _atom_site_symmetry_multiplicity
 _atom_site_fract_x
 _atom_site_fract_y
 _atom_site_fract_z
 _atom_site_occupancy
  Li  Li0  1  0.000000  0.998489  0.500000  1
  Ce  Ce1  1  0.000000  0.582885  0.500000  1
  Pr  Pr2  1  0.414845  0.415288  0.500000  1
  Pr  Pr3  1  0.585155  0.000443  0.500000  1
  Hg  Hg4  1  0.747828  0.746266  0.000000  1
  Hg  Hg5  1  0.252172  0.998438  0.000000  1
  Hg  Hg6  1  0.000000  0.251529  0.000000  1
  Pd  Pd7  1  0.679798  0.343230  0.000000  1
  Pd  Pd8  1  0.320202  0.663433  0.000000  1
