# generated using pymatgen
data_Tb3Tm2(In2Ni)2
_symmetry_space_group_name_H-M   'P 1'
_cell_length_a   3.59857400
_cell_length_b   8.00417200
_cell_length_c   17.86099900
_cell_angle_alpha   90.00000000
_cell_angle_beta   90.00000000
_cell_angle_gamma   90.00000000
_symmetry_Int_Tables_number   1
_chemical_formula_structural   Tb3Tm2(In2Ni)2
_chemical_formula_sum   'Tb6 Tm4 In8 Ni4'
_cell_volume   514.46116458
_cell_formula_units_Z   2
loop_
 _symmetry_equiv_pos_site_id
 _symmetry_equiv_pos_as_xyz
  1  'x, y, z'
loop_
 _atom_site_type_symbol
 _atom_site_label
 _atom_site_symmetry_multiplicity
 _atom_site_fract_x
 _atom_site_fract_y
 _atom_site_fract_z
 _atom_site_occupancy
  Tb  Tb0  1  0.000000  0.500000  0.500000  1
  Tb  Tb1  1  0.000000  0.000000  0.000000  1
  Tb  Tb2  1  0.000000  0.745983  0.278765  1
  Tb  Tb3  1  0.000000  0.254017  0.721235  1
  Tb  Tb4  1  0.000000  0.754017  0.778765  1
  Tb  Tb5  1  0.000000  0.245983  0.221235  1
  Tm  Tm6  1  0.000000  0.617523  0.088546  1
  Tm  Tm7  1  0.000000  0.382477  0.911454  1
  Tm  Tm8  1  0.000000  0.882477  0.588546  1
  Tm  Tm9  1  0.000000  0.117523  0.411454  1
  In  In10  1  0.500000  0.701877  0.932312  1
  In  In11  1  0.500000  0.298123  0.067688  1
  In  In12  1  0.500000  0.798123  0.432312  1
  In  In13  1  0.500000  0.201877  0.567688  1
  In  In14  1  0.500000  0.574227  0.651763  1
  In  In15  1  0.500000  0.425773  0.348237  1
  In  In16  1  0.500000  0.925773  0.151763  1
  In  In17  1  0.500000  0.074227  0.848237  1
  Ni  Ni18  1  0.500000  0.524653  0.194465  1
  Ni  Ni19  1  0.500000  0.475347  0.805535  1
  Ni  Ni20  1  0.500000  0.975347  0.694465  1
  Ni  Ni21  1  0.500000  0.024653  0.305535  1
