# generated using pymatgen
data_Pr3Ta(P3Rh4)2
_symmetry_space_group_name_H-M   'P 1'
_cell_length_a   3.99812500
_cell_length_b   11.30953500
_cell_length_c   13.03479700
_cell_angle_alpha   90.00000000
_cell_angle_beta   90.00000000
_cell_angle_gamma   90.00000000
_symmetry_Int_Tables_number   1
_chemical_formula_structural   Pr3Ta(P3Rh4)2
_chemical_formula_sum   'Pr6 Ta2 P12 Rh16'
_cell_volume   589.39356376
_cell_formula_units_Z   2
loop_
 _symmetry_equiv_pos_site_id
 _symmetry_equiv_pos_as_xyz
  1  'x, y, z'
loop_
 _atom_site_type_symbol
 _atom_site_label
 _atom_site_symmetry_multiplicity
 _atom_site_fract_x
 _atom_site_fract_y
 _atom_site_fract_z
 _atom_site_occupancy
  Pr  Pr0  1  0.000000  0.500000  0.521859  1
  Pr  Pr1  1  0.500000  0.000000  0.478141  1
  Pr  Pr2  1  0.500000  0.818391  0.202790  1
  Pr  Pr3  1  0.500000  0.181609  0.202790  1
  Pr  Pr4  1  0.000000  0.681609  0.797210  1
  Pr  Pr5  1  0.000000  0.318391  0.797210  1
  Ta  Ta6  1  0.500000  0.500000  0.156823  1
  Ta  Ta7  1  0.000000  0.000000  0.843177  1
  P  P8  1  0.500000  0.500000  0.879708  1
  P  P9  1  0.000000  0.000000  0.120292  1
  P  P10  1  0.500000  0.500000  0.346696  1
  P  P11  1  0.000000  0.000000  0.653304  1
  P  P12  1  0.500000  0.310684  0.615578  1
  P  P13  1  0.500000  0.689316  0.615578  1
  P  P14  1  0.000000  0.189316  0.384422  1
  P  P15  1  0.000000  0.810684  0.384422  1
  P  P16  1  0.500000  0.846613  0.889571  1
  P  P17  1  0.500000  0.153387  0.889571  1
  P  P18  1  0.000000  0.653387  0.110429  1
  P  P19  1  0.000000  0.346613  0.110429  1
  Rh  Rh20  1  0.500000  0.500000  0.700262  1
  Rh  Rh21  1  0.000000  0.000000  0.299738  1
  Rh  Rh22  1  0.000000  0.500000  0.988827  1
  Rh  Rh23  1  0.500000  0.000000  0.011173  1
  Rh  Rh24  1  0.500000  0.332398  0.989955  1
  Rh  Rh25  1  0.500000  0.667602  0.989955  1
  Rh  Rh26  1  0.000000  0.167602  0.010045  1
  Rh  Rh27  1  0.000000  0.832398  0.010045  1
  Rh  Rh28  1  0.500000  0.292688  0.431447  1
  Rh  Rh29  1  0.500000  0.707312  0.431447  1
  Rh  Rh30  1  0.000000  0.207312  0.568553  1
  Rh  Rh31  1  0.000000  0.792688  0.568553  1
  Rh  Rh32  1  0.500000  0.876271  0.708682  1
  Rh  Rh33  1  0.500000  0.123729  0.708682  1
  Rh  Rh34  1  0.000000  0.623729  0.291318  1
  Rh  Rh35  1  0.000000  0.376271  0.291318  1
