# generated using pymatgen
data_CaGaPRh2
_symmetry_space_group_name_H-M   'P 1'
_cell_length_a   5.87702796
_cell_length_b   5.87702737
_cell_length_c   5.87702848
_cell_angle_alpha   138.91842549
_cell_angle_beta   138.91842154
_cell_angle_gamma   59.49926710
_symmetry_Int_Tables_number   1
_chemical_formula_structural   CaGaPRh2
_chemical_formula_sum   'Ca1 Ga1 P1 Rh2'
_cell_volume   86.78739533
_cell_formula_units_Z   1
loop_
 _symmetry_equiv_pos_site_id
 _symmetry_equiv_pos_as_xyz
  1  'x, y, z'
loop_
 _atom_site_type_symbol
 _atom_site_label
 _atom_site_symmetry_multiplicity
 _atom_site_fract_x
 _atom_site_fract_y
 _atom_site_fract_z
 _atom_site_occupancy
  Ca  Ca0  1  0.996157  0.996157  0.000000  1
  Ga  Ga1  1  0.618302  0.618302  0.000000  1
  P  P2  1  0.367734  0.367734  0.000000  1
  Rh  Rh3  1  0.758904  0.258904  0.500000  1
  Rh  Rh4  1  0.258904  0.758904  0.500000  1
