# generated using pymatgen
data_Dy5Y11Cd2In2OsPt3
_symmetry_space_group_name_H-M   'P 1'
_cell_length_a   9.72421388
_cell_length_b   9.73455734
_cell_length_c   9.73455600
_cell_angle_alpha   59.62174364
_cell_angle_beta   59.64118089
_cell_angle_gamma   59.64117488
_symmetry_Int_Tables_number   1
_chemical_formula_structural   Dy5Y11Cd2In2OsPt3
_chemical_formula_sum   'Dy5 Y11 Cd2 In2 Os1 Pt3'
_cell_volume   646.17725066
_cell_formula_units_Z   1
loop_
 _symmetry_equiv_pos_site_id
 _symmetry_equiv_pos_as_xyz
  1  'x, y, z'
loop_
 _atom_site_type_symbol
 _atom_site_label
 _atom_site_symmetry_multiplicity
 _atom_site_fract_x
 _atom_site_fract_y
 _atom_site_fract_z
 _atom_site_occupancy
  Dy  Dy0  1  0.351562  0.351592  0.351870  1
  Dy  Dy1  1  0.350762  0.350080  0.948256  1
  Dy  Dy2  1  0.351722  0.946973  0.350532  1
  Dy  Dy3  1  0.945710  0.352097  0.351545  1
  Dy  Dy4  1  0.815382  0.189613  0.188892  1
  Y  Y5  1  0.188880  0.809311  0.808912  1
  Y  Y6  1  0.190030  0.814595  0.188753  1
  Y  Y7  1  0.809750  0.188547  0.808769  1
  Y  Y8  1  0.188042  0.188457  0.815923  1
  Y  Y9  1  0.808000  0.807633  0.189739  1
  Y  Y10  1  0.936932  0.565064  0.563536  1
  Y  Y11  1  0.558390  0.939918  0.936593  1
  Y  Y12  1  0.565220  0.937091  0.563326  1
  Y  Y13  1  0.940133  0.557707  0.937273  1
  Y  Y14  1  0.564266  0.563502  0.935460  1
  Y  Y15  1  0.939909  0.939802  0.556023  1
  Cd  Cd16  1  0.580070  0.252471  0.582161  1
  Cd  Cd17  1  0.252406  0.580120  0.581979  1
  In  In18  1  0.581778  0.582075  0.584389  1
  In  In19  1  0.579963  0.581300  0.252506  1
  Os  Os20  1  0.141823  0.144412  0.145860  1
  Pt  Pt21  1  0.143902  0.143414  0.570142  1
  Pt  Pt22  1  0.143496  0.570524  0.143636  1
  Pt  Pt23  1  0.571877  0.143707  0.143930  1
