# generated using pymatgen
data_Nd2Y18Si15Os
_symmetry_space_group_name_H-M   'P 1'
_cell_length_a   7.43541303
_cell_length_b   7.78698554
_cell_length_c   14.68361381
_cell_angle_alpha   89.75355932
_cell_angle_beta   90.01478751
_cell_angle_gamma   89.94704840
_symmetry_Int_Tables_number   1
_chemical_formula_structural   Nd2Y18Si15Os
_chemical_formula_sum   'Nd2 Y18 Si15 Os1'
_cell_volume   850.16496206
_cell_formula_units_Z   1
loop_
 _symmetry_equiv_pos_site_id
 _symmetry_equiv_pos_as_xyz
  1  'x, y, z'
loop_
 _atom_site_type_symbol
 _atom_site_label
 _atom_site_symmetry_multiplicity
 _atom_site_fract_x
 _atom_site_fract_y
 _atom_site_fract_z
 _atom_site_occupancy
  Nd  Nd0  1  0.523135  0.568604  0.342954  1
  Nd  Nd1  1  0.024470  0.429374  0.657282  1
  Y  Y2  1  0.806930  0.576639  0.877235  1
  Y  Y3  1  0.324362  0.431754  0.123682  1
  Y  Y4  1  0.183565  0.927892  0.372794  1
  Y  Y5  1  0.682701  0.069625  0.626835  1
  Y  Y6  1  0.183449  0.927666  0.628593  1
  Y  Y7  1  0.682077  0.070112  0.371907  1
  Y  Y8  1  0.809512  0.573879  0.123722  1
  Y  Y9  1  0.326709  0.436315  0.875122  1
  Y  Y10  1  0.643776  0.238717  0.999674  1
  Y  Y11  1  0.158437  0.761573  0.000408  1
  Y  Y12  1  0.350218  0.264031  0.499737  1
  Y  Y13  1  0.849403  0.734099  0.500030  1
  Y  Y14  1  0.477328  0.924904  0.848944  1
  Y  Y15  1  0.973251  0.066009  0.151295  1
  Y  Y16  1  0.475925  0.925050  0.150711  1
  Y  Y17  1  0.971949  0.067090  0.849257  1
  Y  Y18  1  0.528920  0.564792  0.652221  1
  Y  Y19  1  0.027609  0.433725  0.347298  1
  Si  Si20  1  0.018826  0.350031  0.999551  1
  Si  Si21  1  0.476016  0.857722  0.500762  1
  Si  Si22  1  0.978785  0.140868  0.499411  1
  Si  Si23  1  0.652820  0.275932  0.789420  1
  Si  Si24  1  0.147010  0.720955  0.210237  1
  Si  Si25  1  0.352744  0.217077  0.287165  1
  Si  Si26  1  0.850685  0.782692  0.712763  1
  Si  Si27  1  0.361044  0.219840  0.711409  1
  Si  Si28  1  0.857916  0.779993  0.288643  1
  Si  Si29  1  0.648488  0.269225  0.207593  1
  Si  Si30  1  0.141076  0.727269  0.792432  1
  Si  Si31  1  0.767277  0.883110  0.000443  1
  Si  Si32  1  0.257889  0.126292  0.999509  1
  Si  Si33  1  0.232923  0.625740  0.501757  1
  Si  Si34  1  0.734191  0.374263  0.498848  1
  Os  Os35  1  0.518580  0.657141  0.000353  1
