# generated using pymatgen
data_MgZr6Ti(Ir2N)2
_symmetry_space_group_name_H-M   'P 1'
_cell_length_a   8.65954673
_cell_length_b   8.65954804
_cell_length_c   8.65131500
_cell_angle_alpha   60.03144165
_cell_angle_beta   60.03143667
_cell_angle_gamma   59.92409211
_symmetry_Int_Tables_number   1
_chemical_formula_structural   MgZr6Ti(Ir2N)2
_chemical_formula_sum   'Mg2 Zr12 Ti2 Ir8 N4'
_cell_volume   458.68414559
_cell_formula_units_Z   2
loop_
 _symmetry_equiv_pos_site_id
 _symmetry_equiv_pos_as_xyz
  1  'x, y, z'
loop_
 _atom_site_type_symbol
 _atom_site_label
 _atom_site_symmetry_multiplicity
 _atom_site_fract_x
 _atom_site_fract_y
 _atom_site_fract_z
 _atom_site_occupancy
  Mg  Mg0  1  0.125000  0.625000  0.625000  1
  Mg  Mg1  1  0.625000  0.125000  0.625000  1
  Zr  Zr2  1  0.810519  0.810519  0.189481  1
  Zr  Zr3  1  0.186983  0.186983  0.813017  1
  Zr  Zr4  1  0.809728  0.187491  0.811110  1
  Zr  Zr5  1  0.187491  0.809728  0.191670  1
  Zr  Zr6  1  0.187491  0.809728  0.811110  1
  Zr  Zr7  1  0.809728  0.187491  0.191670  1
  Zr  Zr8  1  0.439481  0.439481  0.060519  1
  Zr  Zr9  1  0.063017  0.063017  0.436983  1
  Zr  Zr10  1  0.440272  0.062509  0.438890  1
  Zr  Zr11  1  0.062509  0.440272  0.058330  1
  Zr  Zr12  1  0.062509  0.440272  0.438890  1
  Zr  Zr13  1  0.440272  0.062509  0.058330  1
  Ti  Ti14  1  0.625000  0.625000  0.125000  1
  Ti  Ti15  1  0.625000  0.625000  0.625000  1
  Ir  Ir16  1  0.754829  0.422270  0.411451  1
  Ir  Ir17  1  0.422270  0.754829  0.411451  1
  Ir  Ir18  1  0.420137  0.420137  0.751842  1
  Ir  Ir19  1  0.420137  0.420137  0.407885  1
  Ir  Ir20  1  0.495171  0.827730  0.838549  1
  Ir  Ir21  1  0.827730  0.495171  0.838549  1
  Ir  Ir22  1  0.829863  0.829863  0.498158  1
  Ir  Ir23  1  0.829863  0.829863  0.842115  1
  N  N24  1  0.625000  0.125000  0.125000  1
  N  N25  1  0.125000  0.625000  0.125000  1
  N  N26  1  0.125000  0.125000  0.625000  1
  N  N27  1  0.125000  0.125000  0.125000  1
