# generated using pymatgen
data_K2VF5
_symmetry_space_group_name_H-M   'P 1'
_cell_length_a   7.24227491
_cell_length_b   7.24227522
_cell_length_c   7.50631877
_cell_angle_alpha   64.82280731
_cell_angle_beta   64.82280694
_cell_angle_gamma   47.91694032
_symmetry_Int_Tables_number   1
_chemical_formula_structural   K2VF5
_chemical_formula_sum   'K4 V2 F10'
_cell_volume   258.60805999
_cell_formula_units_Z   2
loop_
 _symmetry_equiv_pos_site_id
 _symmetry_equiv_pos_as_xyz
  1  'x, y, z'
loop_
 _atom_site_type_symbol
 _atom_site_label
 _atom_site_symmetry_multiplicity
 _atom_site_fract_x
 _atom_site_fract_y
 _atom_site_fract_z
 _atom_site_occupancy
  K  K0  1  0.475378  0.475378  0.246782  1
  K  K1  1  0.524622  0.524622  0.753218  1
  K  K2  1  0.167200  0.167200  0.224756  1
  K  K3  1  0.832800  0.832800  0.775244  1
  V  V4  1  0.189388  0.189388  0.716241  1
  V  V5  1  0.810612  0.810612  0.283759  1
  F  F6  1  0.000000  0.500000  0.500000  1
  F  F7  1  0.500000  0.000000  0.500000  1
  F  F8  1  0.056875  0.056875  0.668402  1
  F  F9  1  0.943125  0.943125  0.331598  1
  F  F10  1  0.344716  0.344716  0.687410  1
  F  F11  1  0.655284  0.655284  0.312590  1
  F  F12  1  0.898638  0.377842  0.919313  1
  F  F13  1  0.377842  0.898638  0.919313  1
  F  F14  1  0.101362  0.622158  0.080687  1
  F  F15  1  0.622158  0.101362  0.080687  1
