# generated using pymatgen
data_Y4Sn5GeIr7
_symmetry_space_group_name_H-M   'P 1'
_cell_length_a   7.55523849
_cell_length_b   7.55523721
_cell_length_c   7.55523910
_cell_angle_alpha   109.40149575
_cell_angle_beta   109.50610035
_cell_angle_gamma   109.50608704
_symmetry_Int_Tables_number   1
_chemical_formula_structural   Y4Sn5GeIr7
_chemical_formula_sum   'Y4 Sn5 Ge1 Ir7'
_cell_volume   331.98780308
_cell_formula_units_Z   1
loop_
 _symmetry_equiv_pos_site_id
 _symmetry_equiv_pos_as_xyz
  1  'x, y, z'
loop_
 _atom_site_type_symbol
 _atom_site_label
 _atom_site_symmetry_multiplicity
 _atom_site_fract_x
 _atom_site_fract_y
 _atom_site_fract_z
 _atom_site_occupancy
  Y  Y0  1  0.000000  0.990621  0.524771  1
  Y  Y1  1  0.000000  0.524771  0.990621  1
  Y  Y2  1  0.465850  0.990621  0.990621  1
  Y  Y3  1  0.534150  0.524771  0.524771  1
  Sn  Sn4  1  0.686059  0.698311  0.012252  1
  Sn  Sn5  1  0.313941  0.012252  0.326193  1
  Sn  Sn6  1  0.000000  0.295221  0.295221  1
  Sn  Sn7  1  0.313941  0.326193  0.012252  1
  Sn  Sn8  1  0.686059  0.012252  0.698311  1
  Ge  Ge9  1  0.000000  0.659598  0.659598  1
  Ir  Ir10  1  0.754147  0.249384  0.495238  1
  Ir  Ir11  1  0.754147  0.495238  0.249384  1
  Ir  Ir12  1  0.500000  0.258645  0.758645  1
  Ir  Ir13  1  0.245853  0.495238  0.741091  1
  Ir  Ir14  1  0.245853  0.741091  0.495238  1
  Ir  Ir15  1  0.500000  0.758645  0.258645  1
  Ir  Ir16  1  0.000000  0.967153  0.967153  1
