# generated using pymatgen
data_Er4Tm4Ti12Si15Pb
_symmetry_space_group_name_H-M   'P 1'
_cell_length_a   7.08535522
_cell_length_b   7.04237765
_cell_length_c   12.95314846
_cell_angle_alpha   89.96212067
_cell_angle_beta   89.67545641
_cell_angle_gamma   89.86741252
_symmetry_Int_Tables_number   1
_chemical_formula_structural   Er4Tm4Ti12Si15Pb
_chemical_formula_sum   'Er4 Tm4 Ti12 Si15 Pb1'
_cell_volume   646.32069297
_cell_formula_units_Z   1
loop_
 _symmetry_equiv_pos_site_id
 _symmetry_equiv_pos_as_xyz
  1  'x, y, z'
loop_
 _atom_site_type_symbol
 _atom_site_label
 _atom_site_symmetry_multiplicity
 _atom_site_fract_x
 _atom_site_fract_y
 _atom_site_fract_z
 _atom_site_occupancy
  Er  Er0  1  0.159177  0.511019  0.786614  1
  Er  Er1  1  0.661601  0.996334  0.969373  1
  Er  Er2  1  0.990280  0.350474  0.525916  1
  Er  Er3  1  0.998970  0.658972  0.034387  1
  Tm  Tm4  1  0.345291  0.997460  0.459721  1
  Tm  Tm5  1  0.508328  0.834453  0.718521  1
  Tm  Tm6  1  0.501634  0.159701  0.217030  1
  Tm  Tm7  1  0.841297  0.497931  0.281866  1
  Ti  Ti8  1  0.326109  0.326810  0.001581  1
  Ti  Ti9  1  0.174069  0.826135  0.249776  1
  Ti  Ti10  1  0.813316  0.175079  0.752581  1
  Ti  Ti11  1  0.672278  0.672956  0.499307  1
  Ti  Ti12  1  0.152445  0.007447  0.884290  1
  Ti  Ti13  1  0.493039  0.649808  0.126742  1
  Ti  Ti14  1  0.516680  0.355418  0.626423  1
  Ti  Ti15  1  0.653952  0.493917  0.876190  1
  Ti  Ti16  1  0.348262  0.509095  0.372702  1
  Ti  Ti17  1  0.847178  0.993045  0.375177  1
  Ti  Ti18  1  0.009058  0.151523  0.123927  1
  Ti  Ti19  1  0.977347  0.832276  0.617978  1
  Si  Si20  1  0.370595  0.703581  0.935500  1
  Si  Si21  1  0.628160  0.296903  0.431399  1
  Si  Si22  1  0.703730  0.368645  0.067818  1
  Si  Si23  1  0.297445  0.631978  0.566213  1
  Si  Si24  1  0.797016  0.869419  0.183672  1
  Si  Si25  1  0.130770  0.203034  0.315805  1
  Si  Si26  1  0.869856  0.799972  0.817071  1
  Si  Si27  1  0.293307  0.952453  0.067404  1
  Si  Si28  1  0.549888  0.789807  0.313193  1
  Si  Si29  1  0.460891  0.209876  0.821532  1
  Si  Si30  1  0.794448  0.544133  0.687381  1
  Si  Si31  1  0.208922  0.452841  0.185434  1
  Si  Si32  1  0.705533  0.047830  0.564381  1
  Si  Si33  1  0.952552  0.291961  0.935426  1
  Si  Si34  1  0.048319  0.711142  0.432060  1
  Pb  Pb35  1  0.198259  0.126570  0.675610  1
