# generated using pymatgen
data_Dy2Fe3Tc14C3
_symmetry_space_group_name_H-M   'P 1'
_cell_length_a   6.89079852
_cell_length_b   6.89079874
_cell_length_c   6.89079776
_cell_angle_alpha   82.47308217
_cell_angle_beta   82.47307725
_cell_angle_gamma   82.47307412
_symmetry_Int_Tables_number   1
_chemical_formula_structural   Dy2Fe3Tc14C3
_chemical_formula_sum   'Dy2 Fe3 Tc14 C3'
_cell_volume   319.41794701
_cell_formula_units_Z   1
loop_
 _symmetry_equiv_pos_site_id
 _symmetry_equiv_pos_as_xyz
  1  'x, y, z'
loop_
 _atom_site_type_symbol
 _atom_site_label
 _atom_site_symmetry_multiplicity
 _atom_site_fract_x
 _atom_site_fract_y
 _atom_site_fract_z
 _atom_site_occupancy
  Dy  Dy0  1  0.652267  0.652267  0.652267  1
  Dy  Dy1  1  0.347733  0.347733  0.347733  1
  Fe  Fe2  1  0.000000  0.000000  0.500000  1
  Fe  Fe3  1  0.500000  0.000000  0.000000  1
  Fe  Fe4  1  0.000000  0.500000  0.000000  1
  Tc  Tc5  1  0.724200  0.275800  0.000000  1
  Tc  Tc6  1  0.000000  0.724200  0.275800  1
  Tc  Tc7  1  0.275800  0.000000  0.724200  1
  Tc  Tc8  1  0.000000  0.275800  0.724200  1
  Tc  Tc9  1  0.724200  0.000000  0.275800  1
  Tc  Tc10  1  0.275800  0.724200  0.000000  1
  Tc  Tc11  1  0.348421  0.348421  0.860333  1
  Tc  Tc12  1  0.860333  0.348421  0.348421  1
  Tc  Tc13  1  0.348421  0.860333  0.348421  1
  Tc  Tc14  1  0.651579  0.651579  0.139667  1
  Tc  Tc15  1  0.139667  0.651579  0.651579  1
  Tc  Tc16  1  0.651579  0.139667  0.651579  1
  Tc  Tc17  1  0.899050  0.899050  0.899050  1
  Tc  Tc18  1  0.100950  0.100950  0.100950  1
  C  C19  1  0.500000  0.500000  0.000000  1
  C  C20  1  0.000000  0.500000  0.500000  1
  C  C21  1  0.500000  0.000000  0.500000  1
