# generated using pymatgen
data_Tm8Hf3Sc9Ga16
_symmetry_space_group_name_H-M   'P 1'
_cell_length_a   7.17642668
_cell_length_b   7.49559101
_cell_length_c   14.37208433
_cell_angle_alpha   89.99699698
_cell_angle_beta   90.07800621
_cell_angle_gamma   89.99470524
_symmetry_Int_Tables_number   1
_chemical_formula_structural   Tm8Hf3Sc9Ga16
_chemical_formula_sum   'Tm8 Hf3 Sc9 Ga16'
_cell_volume   773.09610502
_cell_formula_units_Z   1
loop_
 _symmetry_equiv_pos_site_id
 _symmetry_equiv_pos_as_xyz
  1  'x, y, z'
loop_
 _atom_site_type_symbol
 _atom_site_label
 _atom_site_symmetry_multiplicity
 _atom_site_fract_x
 _atom_site_fract_y
 _atom_site_fract_z
 _atom_site_occupancy
  Tm  Tm0  1  0.010569  0.178690  0.093657  1
  Tm  Tm1  1  0.989785  0.820596  0.905954  1
  Tm  Tm2  1  0.489853  0.678768  0.905786  1
  Tm  Tm3  1  0.989647  0.822472  0.593014  1
  Tm  Tm4  1  0.510443  0.321317  0.093655  1
  Tm  Tm5  1  0.010135  0.177067  0.406788  1
  Tm  Tm6  1  0.509759  0.323740  0.406417  1
  Tm  Tm7  1  0.489787  0.677395  0.593537  1
  Hf  Hf8  1  0.329793  0.173811  0.624422  1
  Hf  Hf9  1  0.670957  0.824481  0.376775  1
  Hf  Hf10  1  0.171018  0.675127  0.376918  1
  Sc  Sc11  1  0.163142  0.505248  0.750383  1
  Sc  Sc12  1  0.837103  0.494520  0.249265  1
  Sc  Sc13  1  0.336952  0.005058  0.249530  1
  Sc  Sc14  1  0.663086  0.995069  0.750392  1
  Sc  Sc15  1  0.670754  0.828290  0.123697  1
  Sc  Sc16  1  0.828272  0.325840  0.623074  1
  Sc  Sc17  1  0.329508  0.172168  0.875644  1
  Sc  Sc18  1  0.829012  0.327941  0.876270  1
  Sc  Sc19  1  0.170683  0.672066  0.123655  1
  Ga  Ga20  1  0.032005  0.117112  0.748077  1
  Ga  Ga21  1  0.968330  0.881388  0.252436  1
  Ga  Ga22  1  0.468452  0.618227  0.252423  1
  Ga  Ga23  1  0.530780  0.382585  0.748671  1
  Ga  Ga24  1  0.285074  0.871175  0.747691  1
  Ga  Ga25  1  0.715297  0.128101  0.252377  1
  Ga  Ga26  1  0.215258  0.371650  0.252375  1
  Ga  Ga27  1  0.784111  0.630222  0.748853  1
  Ga  Ga28  1  0.164025  0.463860  0.539675  1
  Ga  Ga29  1  0.838892  0.537362  0.458457  1
  Ga  Ga30  1  0.337690  0.963754  0.459778  1
  Ga  Ga31  1  0.837840  0.534990  0.041021  1
  Ga  Ga32  1  0.659748  0.034940  0.540000  1
  Ga  Ga33  1  0.162751  0.464853  0.959215  1
  Ga  Ga34  1  0.661690  0.035220  0.959047  1
  Ga  Ga35  1  0.337799  0.964897  0.041068  1
