# generated using pymatgen
data_Hf6Al16CoPd6
_symmetry_space_group_name_H-M   'P 1'
_cell_length_a   8.71441306
_cell_length_b   8.71440430
_cell_length_c   8.71802900
_cell_angle_alpha   59.98626321
_cell_angle_beta   59.98623430
_cell_angle_gamma   60.15430163
_symmetry_Int_Tables_number   1
_chemical_formula_structural   Hf6Al16CoPd6
_chemical_formula_sum   'Hf6 Al16 Co1 Pd6'
_cell_volume   468.58948113
_cell_formula_units_Z   1
loop_
 _symmetry_equiv_pos_site_id
 _symmetry_equiv_pos_as_xyz
  1  'x, y, z'
loop_
 _atom_site_type_symbol
 _atom_site_label
 _atom_site_symmetry_multiplicity
 _atom_site_fract_x
 _atom_site_fract_y
 _atom_site_fract_z
 _atom_site_occupancy
  Hf  Hf0  1  0.682456  0.682456  0.317544  1
  Hf  Hf1  1  0.319276  0.680724  0.316068  1
  Hf  Hf2  1  0.680724  0.319275  0.316068  1
  Hf  Hf3  1  0.317544  0.317544  0.682456  1
  Hf  Hf4  1  0.680724  0.319276  0.683932  1
  Hf  Hf5  1  0.319276  0.680725  0.683932  1
  Al  Al6  1  0.878488  0.878488  0.361847  1
  Al  Al7  1  0.869113  0.362427  0.884230  1
  Al  Al8  1  0.362427  0.869113  0.884230  1
  Al  Al9  1  0.878488  0.878488  0.881177  1
  Al  Al10  1  0.121512  0.121512  0.638153  1
  Al  Al11  1  0.130887  0.637573  0.115770  1
  Al  Al12  1  0.637573  0.130887  0.115770  1
  Al  Al13  1  0.121512  0.121512  0.118823  1
  Al  Al14  1  0.660055  0.660055  0.005954  1
  Al  Al15  1  0.663695  0.007607  0.664349  1
  Al  Al16  1  0.007607  0.663695  0.664349  1
  Al  Al17  1  0.660055  0.660055  0.673936  1
  Al  Al18  1  0.339945  0.339945  0.994046  1
  Al  Al19  1  0.336305  0.992393  0.335651  1
  Al  Al20  1  0.992393  0.336305  0.335651  1
  Al  Al21  1  0.339945  0.339945  0.326064  1
  Co  Co22  1  0.500000  0.500000  0.000000  1
  Pd  Pd23  1  0.000000  0.000000  0.000000  1
  Pd  Pd24  1  0.000000  0.000000  0.500000  1
  Pd  Pd25  1  0.500000  0.000000  0.500000  1
  Pd  Pd26  1  0.000000  0.500000  0.500000  1
  Pd  Pd27  1  0.000000  0.500000  0.000000  1
  Pd  Pd28  1  0.500000  0.000000  0.000000  1
