# generated using pymatgen
data_Ba4Ca6Al(GaSb4)3
_symmetry_space_group_name_H-M   'P 1'
_cell_length_a   4.73438600
_cell_length_b   12.55645838
_cell_length_c   14.22950743
_cell_angle_alpha   89.97189235
_cell_angle_beta   90.00000000
_cell_angle_gamma   90.00000000
_symmetry_Int_Tables_number   1
_chemical_formula_structural   Ba4Ca6Al(GaSb4)3
_chemical_formula_sum   'Ba4 Ca6 Al1 Ga3 Sb12'
_cell_volume   845.90314455
_cell_formula_units_Z   1
loop_
 _symmetry_equiv_pos_site_id
 _symmetry_equiv_pos_as_xyz
  1  'x, y, z'
loop_
 _atom_site_type_symbol
 _atom_site_label
 _atom_site_symmetry_multiplicity
 _atom_site_fract_x
 _atom_site_fract_y
 _atom_site_fract_z
 _atom_site_occupancy
  Ba  Ba0  1  0.500000  0.675754  0.473230  1
  Ba  Ba1  1  0.500000  0.324041  0.525101  1
  Ba  Ba2  1  0.500000  0.824088  0.973118  1
  Ba  Ba3  1  0.500000  0.176115  0.026920  1
  Ca  Ca4  1  0.500000  0.000063  0.500274  1
  Ca  Ca5  1  0.500000  0.499379  0.999626  1
  Ca  Ca6  1  0.500000  0.911873  0.246463  1
  Ca  Ca7  1  0.500000  0.088139  0.753665  1
  Ca  Ca8  1  0.500000  0.412011  0.253424  1
  Ca  Ca9  1  0.500000  0.587651  0.746476  1
  Al  Al10  1  0.000000  0.318557  0.713345  1
  Ga  Ga11  1  0.000000  0.682327  0.287217  1
  Ga  Ga12  1  0.000000  0.817850  0.787238  1
  Ga  Ga13  1  0.000000  0.182312  0.212810  1
  Sb  Sb14  1  0.000000  0.984729  0.102131  1
  Sb  Sb15  1  0.000000  0.015439  0.898098  1
  Sb  Sb16  1  0.000000  0.484680  0.397801  1
  Sb  Sb17  1  0.000000  0.513804  0.602945  1
  Sb  Sb18  1  0.500000  0.159902  0.313531  1
  Sb  Sb19  1  0.500000  0.839647  0.685914  1
  Sb  Sb20  1  0.500000  0.659961  0.186350  1
  Sb  Sb21  1  0.500000  0.339025  0.813257  1
  Sb  Sb22  1  0.000000  0.366165  0.106223  1
  Sb  Sb23  1  0.000000  0.634222  0.893726  1
  Sb  Sb24  1  0.000000  0.865722  0.394146  1
  Sb  Sb25  1  0.000000  0.136546  0.606969  1
