# generated using pymatgen
data_Tm4VB12Rh
_symmetry_space_group_name_H-M   'P 1'
_cell_length_a   3.57582300
_cell_length_b   9.11472069
_cell_length_c   11.50641450
_cell_angle_alpha   90.33716267
_cell_angle_beta   90.00000000
_cell_angle_gamma   90.00000000
_symmetry_Int_Tables_number   1
_chemical_formula_structural   Tm4VB12Rh
_chemical_formula_sum   'Tm8 V2 B24 Rh2'
_cell_volume   375.01779309
_cell_formula_units_Z   2
loop_
 _symmetry_equiv_pos_site_id
 _symmetry_equiv_pos_as_xyz
  1  'x, y, z'
loop_
 _atom_site_type_symbol
 _atom_site_label
 _atom_site_symmetry_multiplicity
 _atom_site_fract_x
 _atom_site_fract_y
 _atom_site_fract_z
 _atom_site_occupancy
  Tm  Tm0  1  0.500000  0.318568  0.411507  1
  Tm  Tm1  1  0.500000  0.681432  0.588493  1
  Tm  Tm2  1  0.500000  0.173459  0.916863  1
  Tm  Tm3  1  0.500000  0.826541  0.083137  1
  Tm  Tm4  1  0.500000  0.442351  0.127037  1
  Tm  Tm5  1  0.500000  0.557649  0.872963  1
  Tm  Tm6  1  0.500000  0.054029  0.628491  1
  Tm  Tm7  1  0.500000  0.945971  0.371509  1
  V  V8  1  0.500000  0.140037  0.181469  1
  V  V9  1  0.500000  0.859963  0.818531  1
  B  B10  1  0.000000  0.107242  0.471421  1
  B  B11  1  0.000000  0.892758  0.528579  1
  B  B12  1  0.000000  0.393547  0.970193  1
  B  B13  1  0.000000  0.606453  0.029807  1
  B  B14  1  0.000000  0.133004  0.316523  1
  B  B15  1  0.000000  0.866996  0.683477  1
  B  B16  1  0.000000  0.367510  0.815838  1
  B  B17  1  0.000000  0.632490  0.184162  1
  B  B18  1  0.000000  0.052143  0.066549  1
  B  B19  1  0.000000  0.947857  0.933451  1
  B  B20  1  0.000000  0.446441  0.565936  1
  B  B21  1  0.000000  0.553559  0.434064  1
  B  B22  1  0.000000  0.481981  0.287763  1
  B  B23  1  0.000000  0.518019  0.712237  1
  B  B24  1  0.000000  0.019447  0.787324  1
  B  B25  1  0.000000  0.980553  0.212676  1
  B  B26  1  0.000000  0.248858  0.079612  1
  B  B27  1  0.000000  0.751142  0.920388  1
  B  B28  1  0.000000  0.249837  0.579213  1
  B  B29  1  0.000000  0.750163  0.420787  1
  B  B30  1  0.000000  0.295311  0.235676  1
  B  B31  1  0.000000  0.704689  0.764324  1
  B  B32  1  0.000000  0.206852  0.735414  1
  B  B33  1  0.000000  0.793148  0.264586  1
  Rh  Rh34  1  0.500000  0.361119  0.678468  1
  Rh  Rh35  1  0.500000  0.638881  0.321532  1
