# generated using pymatgen
data_Sr4LaSi3SbSe13
_symmetry_space_group_name_H-M   'P 1'
_cell_length_a   12.35775300
_cell_length_b   12.83051343
_cell_length_c   16.15680110
_cell_angle_alpha   75.59157289
_cell_angle_beta   90.00000000
_cell_angle_gamma   90.00000000
_symmetry_Int_Tables_number   1
_chemical_formula_structural   Sr4LaSi3SbSe13
_chemical_formula_sum   'Sr16 La4 Si12 Sb4 Se52'
_cell_volume   2481.18663687
_cell_formula_units_Z   4
loop_
 _symmetry_equiv_pos_site_id
 _symmetry_equiv_pos_as_xyz
  1  'x, y, z'
loop_
 _atom_site_type_symbol
 _atom_site_label
 _atom_site_symmetry_multiplicity
 _atom_site_fract_x
 _atom_site_fract_y
 _atom_site_fract_z
 _atom_site_occupancy
  Sr  Sr0  1  0.312359  0.152110  0.639075  1
  Sr  Sr1  1  0.676678  0.455527  0.947264  1
  Sr  Sr2  1  0.823322  0.955527  0.947264  1
  Sr  Sr3  1  0.332978  0.228728  0.256139  1
  Sr  Sr4  1  0.176678  0.044473  0.052736  1
  Sr  Sr5  1  0.812359  0.347890  0.360925  1
  Sr  Sr6  1  0.167022  0.728728  0.256139  1
  Sr  Sr7  1  0.832206  0.644576  0.150369  1
  Sr  Sr8  1  0.667794  0.144576  0.150369  1
  Sr  Sr9  1  0.332206  0.855424  0.849631  1
  Sr  Sr10  1  0.323322  0.544473  0.052736  1
  Sr  Sr11  1  0.187641  0.652110  0.639075  1
  Sr  Sr12  1  0.687641  0.847890  0.360925  1
  Sr  Sr13  1  0.667022  0.771272  0.743861  1
  Sr  Sr14  1  0.832978  0.271272  0.743861  1
  Sr  Sr15  1  0.167794  0.355424  0.849631  1
  La  La16  1  0.522042  0.452971  0.642310  1
  La  La17  1  0.977958  0.952971  0.642310  1
  La  La18  1  0.477958  0.547029  0.357690  1
  La  La19  1  0.022042  0.047029  0.357690  1
  Si  Si20  1  0.380941  0.924532  0.329706  1
  Si  Si21  1  0.233804  0.937168  0.517830  1
  Si  Si22  1  0.590339  0.422149  0.181014  1
  Si  Si23  1  0.880941  0.575468  0.670294  1
  Si  Si24  1  0.733804  0.562832  0.482170  1
  Si  Si25  1  0.090339  0.077851  0.818986  1
  Si  Si26  1  0.409661  0.577851  0.818986  1
  Si  Si27  1  0.909661  0.922149  0.181014  1
  Si  Si28  1  0.266196  0.437168  0.517830  1
  Si  Si29  1  0.766196  0.062832  0.482170  1
  Si  Si30  1  0.619059  0.075468  0.670294  1
  Si  Si31  1  0.119059  0.424532  0.329706  1
  Sb  Sb32  1  0.982659  0.639465  0.916663  1
  Sb  Sb33  1  0.517341  0.139465  0.916663  1
  Sb  Sb34  1  0.482659  0.860535  0.083337  1
  Sb  Sb35  1  0.017341  0.360535  0.083337  1
  Se  Se36  1  0.511013  0.049574  0.316455  1
  Se  Se37  1  0.492804  0.342832  0.092384  1
  Se  Se38  1  0.941477  0.834386  0.318879  1
  Se  Se39  1  0.057026  0.563866  0.084932  1
  Se  Se40  1  0.619502  0.147895  0.522126  1
  Se  Se41  1  0.058523  0.165614  0.681121  1
  Se  Se42  1  0.220248  0.983598  0.260504  1
  Se  Se43  1  0.779386  0.096373  0.335358  1
  Se  Se44  1  0.042363  0.900433  0.842608  1
  Se  Se45  1  0.557026  0.936134  0.915068  1
  Se  Se46  1  0.880498  0.647895  0.522126  1
  Se  Se47  1  0.441477  0.665614  0.681121  1
  Se  Se48  1  0.786648  0.696069  0.949379  1
  Se  Se49  1  0.720614  0.596373  0.335358  1
  Se  Se50  1  0.936690  0.713273  0.728283  1
  Se  Se51  1  0.286648  0.803931  0.050621  1
  Se  Se52  1  0.436690  0.786727  0.271717  1
  Se  Se53  1  0.279752  0.483598  0.260504  1
  Se  Se54  1  0.507196  0.657168  0.907616  1
  Se  Se55  1  0.988987  0.549574  0.316455  1
  Se  Se56  1  0.713352  0.196069  0.949379  1
  Se  Se57  1  0.011013  0.450426  0.683545  1
  Se  Se58  1  0.380498  0.852105  0.477874  1
  Se  Se59  1  0.230239  0.600918  0.850057  1
  Se  Se60  1  0.720248  0.516402  0.739496  1
  Se  Se61  1  0.213352  0.303931  0.050621  1
  Se  Se62  1  0.220614  0.903627  0.664642  1
  Se  Se63  1  0.424572  0.351948  0.499201  1
  Se  Se64  1  0.992804  0.157168  0.907616  1
  Se  Se65  1  0.075428  0.851948  0.499201  1
  Se  Se66  1  0.269761  0.100918  0.850057  1
  Se  Se67  1  0.558523  0.334386  0.318879  1
  Se  Se68  1  0.542363  0.599567  0.157392  1
  Se  Se69  1  0.442974  0.063866  0.084932  1
  Se  Se70  1  0.226173  0.113978  0.454772  1
  Se  Se71  1  0.779752  0.016402  0.739496  1
  Se  Se72  1  0.273827  0.613978  0.454772  1
  Se  Se73  1  0.957637  0.099567  0.157392  1
  Se  Se74  1  0.575428  0.648052  0.500799  1
  Se  Se75  1  0.279386  0.403627  0.664642  1
  Se  Se76  1  0.007196  0.842832  0.092384  1
  Se  Se77  1  0.726173  0.386022  0.545228  1
  Se  Se78  1  0.924572  0.148052  0.500799  1
  Se  Se79  1  0.942974  0.436134  0.915068  1
  Se  Se80  1  0.063310  0.286727  0.271717  1
  Se  Se81  1  0.488987  0.950426  0.683545  1
  Se  Se82  1  0.457637  0.400433  0.842608  1
  Se  Se83  1  0.773827  0.886022  0.545228  1
  Se  Se84  1  0.769761  0.399082  0.149943  1
  Se  Se85  1  0.563310  0.213273  0.728283  1
  Se  Se86  1  0.730239  0.899082  0.149943  1
  Se  Se87  1  0.119502  0.352105  0.477874  1
