# generated using pymatgen
data_Er10In8Ir3Au
_symmetry_space_group_name_H-M   'P 1'
_cell_length_a   3.60984500
_cell_length_b   8.10253132
_cell_length_c   18.21384067
_cell_angle_alpha   89.96837517
_cell_angle_beta   90.00000000
_cell_angle_gamma   90.00000000
_symmetry_Int_Tables_number   1
_chemical_formula_structural   Er10In8Ir3Au
_chemical_formula_sum   'Er10 In8 Ir3 Au1'
_cell_volume   532.73439847
_cell_formula_units_Z   1
loop_
 _symmetry_equiv_pos_site_id
 _symmetry_equiv_pos_as_xyz
  1  'x, y, z'
loop_
 _atom_site_type_symbol
 _atom_site_label
 _atom_site_symmetry_multiplicity
 _atom_site_fract_x
 _atom_site_fract_y
 _atom_site_fract_z
 _atom_site_occupancy
  Er  Er0  1  0.000000  0.500409  0.501099  1
  Er  Er1  1  0.000000  0.998088  0.998048  1
  Er  Er2  1  0.000000  0.764362  0.282201  1
  Er  Er3  1  0.000000  0.254134  0.723273  1
  Er  Er4  1  0.000000  0.754780  0.776841  1
  Er  Er5  1  0.000000  0.225580  0.222470  1
  Er  Er6  1  0.000000  0.619944  0.080750  1
  Er  Er7  1  0.000000  0.383786  0.909486  1
  Er  Er8  1  0.000000  0.883112  0.590308  1
  Er  Er9  1  0.000000  0.117014  0.414455  1
  In  In10  1  0.500000  0.705293  0.930509  1
  In  In11  1  0.500000  0.291914  0.064340  1
  In  In12  1  0.500000  0.794282  0.434637  1
  In  In13  1  0.500000  0.205559  0.568441  1
  In  In14  1  0.500000  0.568160  0.649104  1
  In  In15  1  0.500000  0.423096  0.352770  1
  In  In16  1  0.500000  0.925726  0.147113  1
  In  In17  1  0.500000  0.068713  0.851293  1
  Ir  Ir18  1  0.500000  0.481305  0.803072  1
  Ir  Ir19  1  0.500000  0.980914  0.696631  1
  Ir  Ir20  1  0.500000  0.026486  0.305161  1
  Au  Au21  1  0.500000  0.527342  0.197998  1
