# generated using pymatgen
data_PrNd3Ga24IrPd
_symmetry_space_group_name_H-M   'P 1'
_cell_length_a   6.18055141
_cell_length_b   6.18055203
_cell_length_c   15.52227600
_cell_angle_alpha   90.00000000
_cell_angle_beta   90.00000000
_cell_angle_gamma   90.04405263
_symmetry_Int_Tables_number   1
_chemical_formula_structural   PrNd3Ga24IrPd
_chemical_formula_sum   'Pr1 Nd3 Ga24 Ir1 Pd1'
_cell_volume   592.93865323
_cell_formula_units_Z   1
loop_
 _symmetry_equiv_pos_site_id
 _symmetry_equiv_pos_as_xyz
  1  'x, y, z'
loop_
 _atom_site_type_symbol
 _atom_site_label
 _atom_site_symmetry_multiplicity
 _atom_site_fract_x
 _atom_site_fract_y
 _atom_site_fract_z
 _atom_site_occupancy
  Pr  Pr0  1  0.250000  0.750000  0.757354  1
  Nd  Nd1  1  0.750000  0.250000  0.243692  1
  Nd  Nd2  1  0.250000  0.750000  0.241954  1
  Nd  Nd3  1  0.750000  0.250000  0.756475  1
  Ga  Ga4  1  0.250000  0.250000  0.188164  1
  Ga  Ga5  1  0.750000  0.750000  0.188164  1
  Ga  Ga6  1  0.750000  0.750000  0.812119  1
  Ga  Ga7  1  0.250000  0.250000  0.812119  1
  Ga  Ga8  1  0.250000  0.250000  0.347473  1
  Ga  Ga9  1  0.750000  0.750000  0.347473  1
  Ga  Ga10  1  0.750000  0.750000  0.652389  1
  Ga  Ga11  1  0.250000  0.250000  0.652389  1
  Ga  Ga12  1  0.502096  0.002096  0.912246  1
  Ga  Ga13  1  0.997930  0.002070  0.912506  1
  Ga  Ga14  1  0.502070  0.497930  0.912506  1
  Ga  Ga15  1  0.997904  0.497904  0.912246  1
  Ga  Ga16  1  0.501971  0.001971  0.087912  1
  Ga  Ga17  1  0.998027  0.001973  0.088262  1
  Ga  Ga18  1  0.501973  0.498027  0.088262  1
  Ga  Ga19  1  0.998029  0.498029  0.087912  1
  Ga  Ga20  1  0.584007  0.084007  0.432106  1
  Ga  Ga21  1  0.084349  0.915651  0.431132  1
  Ga  Ga22  1  0.415651  0.584349  0.431132  1
  Ga  Ga23  1  0.915993  0.415993  0.432106  1
  Ga  Ga24  1  0.416137  0.916137  0.568144  1
  Ga  Ga25  1  0.916491  0.083509  0.567614  1
  Ga  Ga26  1  0.583509  0.416491  0.567614  1
  Ga  Ga27  1  0.083863  0.583863  0.568144  1
  Ir  Ir28  1  0.750000  0.250000  0.000247  1
  Pd  Pd29  1  0.250000  0.750000  0.000148  1
