# generated using pymatgen
data_Ho2Zn2SiPIr4
_symmetry_space_group_name_H-M   'P 1'
_cell_length_a   4.00206700
_cell_length_b   4.00206700
_cell_length_c   10.64921900
_cell_angle_alpha   90.00000000
_cell_angle_beta   90.00000000
_cell_angle_gamma   90.00000000
_symmetry_Int_Tables_number   1
_chemical_formula_structural   Ho2Zn2SiPIr4
_chemical_formula_sum   'Ho2 Zn2 Si1 P1 Ir4'
_cell_volume   170.56364498
_cell_formula_units_Z   1
loop_
 _symmetry_equiv_pos_site_id
 _symmetry_equiv_pos_as_xyz
  1  'x, y, z'
loop_
 _atom_site_type_symbol
 _atom_site_label
 _atom_site_symmetry_multiplicity
 _atom_site_fract_x
 _atom_site_fract_y
 _atom_site_fract_z
 _atom_site_occupancy
  Ho  Ho0  1  0.000000  0.500000  0.248872  1
  Ho  Ho1  1  0.500000  0.000000  0.753656  1
  Zn  Zn2  1  0.000000  0.000000  0.501370  1
  Zn  Zn3  1  0.500000  0.500000  0.501370  1
  Si  Si4  1  0.500000  0.000000  0.124907  1
  P  P5  1  0.000000  0.500000  0.875084  1
  Ir  Ir6  1  0.000000  0.000000  0.995227  1
  Ir  Ir7  1  0.500000  0.500000  0.995227  1
  Ir  Ir8  1  0.000000  0.500000  0.661778  1
  Ir  Ir9  1  0.500000  0.000000  0.342511  1
