# generated using pymatgen
data_Nd3Dy2Ho3(CdPt)2
_symmetry_space_group_name_H-M   'P 1'
_cell_length_a   9.77869587
_cell_length_b   9.77869601
_cell_length_c   9.77869500
_cell_angle_alpha   60.00000004
_cell_angle_beta   59.99999956
_cell_angle_gamma   60.00000214
_symmetry_Int_Tables_number   1
_chemical_formula_structural   Nd3Dy2Ho3(CdPt)2
_chemical_formula_sum   'Nd6 Dy4 Ho6 Cd4 Pt4'
_cell_volume   661.19230886
_cell_formula_units_Z   2
loop_
 _symmetry_equiv_pos_site_id
 _symmetry_equiv_pos_as_xyz
  1  'x, y, z'
loop_
 _atom_site_type_symbol
 _atom_site_label
 _atom_site_symmetry_multiplicity
 _atom_site_fract_x
 _atom_site_fract_y
 _atom_site_fract_z
 _atom_site_occupancy
  Nd  Nd0  1  0.938314  0.561686  0.561686  1
  Nd  Nd1  1  0.561686  0.938314  0.938314  1
  Nd  Nd2  1  0.561686  0.938314  0.561686  1
  Nd  Nd3  1  0.938314  0.561686  0.938314  1
  Nd  Nd4  1  0.561686  0.561686  0.938314  1
  Nd  Nd5  1  0.938314  0.938314  0.561686  1
  Dy  Dy6  1  0.350752  0.350752  0.350752  1
  Dy  Dy7  1  0.350752  0.350752  0.947743  1
  Dy  Dy8  1  0.350752  0.947743  0.350752  1
  Dy  Dy9  1  0.947743  0.350752  0.350752  1
  Ho  Ho10  1  0.812108  0.187892  0.187892  1
  Ho  Ho11  1  0.187892  0.812108  0.812108  1
  Ho  Ho12  1  0.187892  0.812108  0.187892  1
  Ho  Ho13  1  0.812108  0.187892  0.812108  1
  Ho  Ho14  1  0.187892  0.187892  0.812108  1
  Ho  Ho15  1  0.812108  0.812108  0.187892  1
  Cd  Cd16  1  0.579795  0.579795  0.579795  1
  Cd  Cd17  1  0.579795  0.579795  0.260618  1
  Cd  Cd18  1  0.579795  0.260618  0.579795  1
  Cd  Cd19  1  0.260618  0.579795  0.579795  1
  Pt  Pt20  1  0.142586  0.142586  0.142586  1
  Pt  Pt21  1  0.142586  0.142586  0.572243  1
  Pt  Pt22  1  0.142586  0.572243  0.142586  1
  Pt  Pt23  1  0.572243  0.142586  0.142586  1
