# generated using pymatgen
data_SmTm6Sn23Ir6
_symmetry_space_group_name_H-M   'P 1'
_cell_length_a   9.82588800
_cell_length_b   9.82588833
_cell_length_c   10.09741000
_cell_angle_alpha   90.00000000
_cell_angle_beta   90.00000000
_cell_angle_gamma   119.99999890
_symmetry_Int_Tables_number   1
_chemical_formula_structural   SmTm6Sn23Ir6
_chemical_formula_sum   'Sm1 Tm6 Sn23 Ir6'
_cell_volume   844.27564437
_cell_formula_units_Z   1
loop_
 _symmetry_equiv_pos_site_id
 _symmetry_equiv_pos_as_xyz
  1  'x, y, z'
loop_
 _atom_site_type_symbol
 _atom_site_label
 _atom_site_symmetry_multiplicity
 _atom_site_fract_x
 _atom_site_fract_y
 _atom_site_fract_z
 _atom_site_occupancy
  Sm  Sm0  1  0.000000  0.000000  0.000000  1
  Tm  Tm1  1  0.037396  0.518698  0.306865  1
  Tm  Tm2  1  0.481302  0.962604  0.306865  1
  Tm  Tm3  1  0.481302  0.518698  0.306865  1
  Tm  Tm4  1  0.962604  0.481302  0.693135  1
  Tm  Tm5  1  0.518698  0.037396  0.693135  1
  Tm  Tm6  1  0.518698  0.481302  0.693135  1
  Sn  Sn7  1  0.000000  0.000000  0.500000  1
  Sn  Sn8  1  0.119907  0.880093  0.284545  1
  Sn  Sn9  1  0.760186  0.880093  0.284545  1
  Sn  Sn10  1  0.119907  0.239814  0.284545  1
  Sn  Sn11  1  0.880093  0.119907  0.715455  1
  Sn  Sn12  1  0.239814  0.119907  0.715455  1
  Sn  Sn13  1  0.880093  0.760186  0.715455  1
  Sn  Sn14  1  0.352708  0.000000  0.000000  1
  Sn  Sn15  1  0.647292  0.647292  0.000000  1
  Sn  Sn16  1  0.000000  0.352708  0.000000  1
  Sn  Sn17  1  0.352708  0.352708  0.000000  1
  Sn  Sn18  1  0.000000  0.647292  0.000000  1
  Sn  Sn19  1  0.647292  0.000000  0.000000  1
  Sn  Sn20  1  0.776989  0.553978  0.457440  1
  Sn  Sn21  1  0.776989  0.223011  0.457440  1
  Sn  Sn22  1  0.446022  0.223011  0.457440  1
  Sn  Sn23  1  0.223011  0.446022  0.542560  1
  Sn  Sn24  1  0.223011  0.776989  0.542560  1
  Sn  Sn25  1  0.553978  0.776989  0.542560  1
  Sn  Sn26  1  0.666667  0.333333  0.172443  1
  Sn  Sn27  1  0.333333  0.666667  0.827557  1
  Sn  Sn28  1  0.666667  0.333333  0.873602  1
  Sn  Sn29  1  0.333333  0.666667  0.126398  1
  Ir  Ir30  1  0.169720  0.830280  0.800372  1
  Ir  Ir31  1  0.660558  0.830280  0.800372  1
  Ir  Ir32  1  0.169720  0.339442  0.800372  1
  Ir  Ir33  1  0.830280  0.169720  0.199628  1
  Ir  Ir34  1  0.339442  0.169720  0.199628  1
  Ir  Ir35  1  0.830280  0.660558  0.199628  1
