# generated using pymatgen
data_Tb2EuAuO7
_symmetry_space_group_name_H-M   'P 1'
_cell_length_a   6.52547000
_cell_length_b   6.52546882
_cell_length_c   7.50640900
_cell_angle_alpha   90.00000000
_cell_angle_beta   90.00000000
_cell_angle_gamma   108.79403853
_symmetry_Int_Tables_number   1
_chemical_formula_structural   Tb2EuAuO7
_chemical_formula_sum   'Tb4 Eu2 Au2 O14'
_cell_volume   302.59393588
_cell_formula_units_Z   2
loop_
 _symmetry_equiv_pos_site_id
 _symmetry_equiv_pos_as_xyz
  1  'x, y, z'
loop_
 _atom_site_type_symbol
 _atom_site_label
 _atom_site_symmetry_multiplicity
 _atom_site_fract_x
 _atom_site_fract_y
 _atom_site_fract_z
 _atom_site_occupancy
  Tb  Tb0  1  0.002012  0.470412  0.749923  1
  Tb  Tb1  1  0.997988  0.529588  0.249923  1
  Tb  Tb2  1  0.529588  0.997988  0.750077  1
  Tb  Tb3  1  0.470412  0.002012  0.250077  1
  Eu  Eu4  1  0.500175  0.500175  0.500000  1
  Eu  Eu5  1  0.499825  0.499825  0.000000  1
  Au  Au6  1  0.999826  0.999826  0.500000  1
  Au  Au7  1  0.000174  0.000174  0.000000  1
  O  O8  1  0.637241  0.362759  0.750000  1
  O  O9  1  0.362759  0.637241  0.250000  1
  O  O10  1  0.921323  0.078677  0.750000  1
  O  O11  1  0.078677  0.921323  0.250000  1
  O  O12  1  0.925873  0.672747  0.524662  1
  O  O13  1  0.074127  0.327253  0.024662  1
  O  O14  1  0.327253  0.074127  0.975338  1
  O  O15  1  0.672747  0.925873  0.475338  1
  O  O16  1  0.366401  0.633599  0.750000  1
  O  O17  1  0.633599  0.366401  0.250000  1
  O  O18  1  0.926117  0.672944  0.975187  1
  O  O19  1  0.073883  0.327056  0.475187  1
  O  O20  1  0.327056  0.073883  0.524813  1
  O  O21  1  0.672944  0.926117  0.024813  1
