# generated using pymatgen
data_SmZn(GaNi)2
_symmetry_space_group_name_H-M   'P 1'
_cell_length_a   9.01263500
_cell_length_b   9.01263537
_cell_length_c   4.12721600
_cell_angle_alpha   90.00000000
_cell_angle_beta   90.00000000
_cell_angle_gamma   120.00000232
_symmetry_Int_Tables_number   1
_chemical_formula_structural   SmZn(GaNi)2
_chemical_formula_sum   'Sm3 Zn3 Ga6 Ni6'
_cell_volume   290.32965888
_cell_formula_units_Z   3
loop_
 _symmetry_equiv_pos_site_id
 _symmetry_equiv_pos_as_xyz
  1  'x, y, z'
loop_
 _atom_site_type_symbol
 _atom_site_label
 _atom_site_symmetry_multiplicity
 _atom_site_fract_x
 _atom_site_fract_y
 _atom_site_fract_z
 _atom_site_occupancy
  Sm  Sm0  1  0.666667  0.333333  0.500000  1
  Sm  Sm1  1  0.333333  0.666667  0.500000  1
  Sm  Sm2  1  0.000000  0.000000  0.000000  1
  Zn  Zn3  1  0.708106  0.708106  0.500000  1
  Zn  Zn4  1  0.291894  0.000000  0.500000  1
  Zn  Zn5  1  0.000000  0.291894  0.500000  1
  Ga  Ga6  1  0.287267  0.287267  0.500000  1
  Ga  Ga7  1  0.712733  0.000000  0.500000  1
  Ga  Ga8  1  0.000000  0.712733  0.500000  1
  Ga  Ga9  1  0.514247  0.514247  0.000000  1
  Ga  Ga10  1  0.485753  0.000000  0.000000  1
  Ga  Ga11  1  0.000000  0.485753  0.000000  1
  Ni  Ni12  1  0.803865  0.174572  0.000000  1
  Ni  Ni13  1  0.825428  0.629292  0.000000  1
  Ni  Ni14  1  0.370708  0.196135  0.000000  1
  Ni  Ni15  1  0.174572  0.803865  0.000000  1
  Ni  Ni16  1  0.629292  0.825428  0.000000  1
  Ni  Ni17  1  0.196135  0.370708  0.000000  1
