# generated using pymatgen
data_Rb3NaCaBr6
_symmetry_space_group_name_H-M   'P 1'
_cell_length_a   9.31685030
_cell_length_b   9.31685148
_cell_length_c   9.31685268
_cell_angle_alpha   92.79511702
_cell_angle_beta   92.79511866
_cell_angle_gamma   92.79511520
_symmetry_Int_Tables_number   1
_chemical_formula_structural   Rb3NaCaBr6
_chemical_formula_sum   'Rb6 Na2 Ca2 Br12'
_cell_volume   805.75334078
_cell_formula_units_Z   2
loop_
 _symmetry_equiv_pos_site_id
 _symmetry_equiv_pos_as_xyz
  1  'x, y, z'
loop_
 _atom_site_type_symbol
 _atom_site_label
 _atom_site_symmetry_multiplicity
 _atom_site_fract_x
 _atom_site_fract_y
 _atom_site_fract_z
 _atom_site_occupancy
  Rb  Rb0  1  0.869316  0.630684  0.250000  1
  Rb  Rb1  1  0.630684  0.250000  0.869316  1
  Rb  Rb2  1  0.250000  0.869316  0.630684  1
  Rb  Rb3  1  0.130684  0.369316  0.750000  1
  Rb  Rb4  1  0.369316  0.750000  0.130684  1
  Rb  Rb5  1  0.750000  0.130684  0.369316  1
  Na  Na6  1  0.250000  0.250000  0.250000  1
  Na  Na7  1  0.750000  0.750000  0.750000  1
  Ca  Ca8  1  0.000000  0.000000  0.000000  1
  Ca  Ca9  1  0.500000  0.500000  0.500000  1
  Br  Br10  1  0.201879  0.539295  0.415683  1
  Br  Br11  1  0.039295  0.701879  0.915683  1
  Br  Br12  1  0.915683  0.039295  0.701879  1
  Br  Br13  1  0.798121  0.460705  0.584317  1
  Br  Br14  1  0.701879  0.915683  0.039295  1
  Br  Br15  1  0.460705  0.584317  0.798121  1
  Br  Br16  1  0.584317  0.798121  0.460705  1
  Br  Br17  1  0.539295  0.415683  0.201879  1
  Br  Br18  1  0.084317  0.960705  0.298121  1
  Br  Br19  1  0.960705  0.298121  0.084317  1
  Br  Br20  1  0.298121  0.084317  0.960705  1
  Br  Br21  1  0.415683  0.201879  0.539295  1
