# generated using pymatgen
data_CeSmUCo2Si7
_symmetry_space_group_name_H-M   'P 1'
_cell_length_a   4.02551970
_cell_length_b   4.06849700
_cell_length_c   12.42472874
_cell_angle_alpha   90.00000000
_cell_angle_beta   99.32279132
_cell_angle_gamma   90.00000000
_symmetry_Int_Tables_number   1
_chemical_formula_structural   CeSmUCo2Si7
_chemical_formula_sum   'Ce1 Sm1 U1 Co2 Si7'
_cell_volume   200.80208065
_cell_formula_units_Z   1
loop_
 _symmetry_equiv_pos_site_id
 _symmetry_equiv_pos_as_xyz
  1  'x, y, z'
loop_
 _atom_site_type_symbol
 _atom_site_label
 _atom_site_symmetry_multiplicity
 _atom_site_fract_x
 _atom_site_fract_y
 _atom_site_fract_z
 _atom_site_occupancy
  Ce  Ce0  1  0.316623  0.000000  0.633247  1
  Sm  Sm1  1  0.682945  0.000000  0.365887  1
  U  U2  1  0.000198  0.500000  0.000395  1
  Co  Co3  1  0.126159  0.500000  0.252319  1
  Co  Co4  1  0.873533  0.500000  0.747066  1
  Si  Si5  1  0.499991  0.000000  0.999982  1
  Si  Si6  1  0.415040  0.500000  0.830080  1
  Si  Si7  1  0.585313  0.500000  0.170625  1
  Si  Si8  1  0.085419  0.000000  0.170837  1
  Si  Si9  1  0.914963  0.000000  0.829926  1
  Si  Si10  1  0.220898  0.500000  0.441796  1
  Si  Si11  1  0.778920  0.500000  0.557839  1
