# generated using pymatgen
data_Ca4PrRh2
_symmetry_space_group_name_H-M   'P 1'
_cell_length_a   6.67066388
_cell_length_b   7.52390649
_cell_length_c   8.81090485
_cell_angle_alpha   97.20002396
_cell_angle_beta   112.24364115
_cell_angle_gamma   89.99999267
_symmetry_Int_Tables_number   1
_chemical_formula_structural   Ca4PrRh2
_chemical_formula_sum   'Ca8 Pr2 Rh4'
_cell_volume   405.53611380
_cell_formula_units_Z   2
loop_
 _symmetry_equiv_pos_site_id
 _symmetry_equiv_pos_as_xyz
  1  'x, y, z'
loop_
 _atom_site_type_symbol
 _atom_site_label
 _atom_site_symmetry_multiplicity
 _atom_site_fract_x
 _atom_site_fract_y
 _atom_site_fract_z
 _atom_site_occupancy
  Ca  Ca0  1  0.982879  0.916394  0.179199  1
  Ca  Ca1  1  0.803680  0.583606  0.820801  1
  Ca  Ca2  1  0.017121  0.083606  0.820801  1
  Ca  Ca3  1  0.196320  0.416394  0.179199  1
  Ca  Ca4  1  0.638040  0.818915  0.435834  1
  Ca  Ca5  1  0.202207  0.681085  0.564166  1
  Ca  Ca6  1  0.361960  0.181085  0.564166  1
  Ca  Ca7  1  0.797793  0.318915  0.435834  1
  Pr  Pr8  1  0.430180  0.750000  0.000000  1
  Pr  Pr9  1  0.569820  0.250000  0.000000  1
  Rh  Rh10  1  0.808984  0.575163  0.213213  1
  Rh  Rh11  1  0.595772  0.924837  0.786787  1
  Rh  Rh12  1  0.191016  0.424837  0.786787  1
  Rh  Rh13  1  0.404228  0.075163  0.213213  1
