# generated using pymatgen
data_HoErLu6Ga3Co
_symmetry_space_group_name_H-M   'P 1'
_cell_length_a   9.79597706
_cell_length_b   9.79597766
_cell_length_c   6.84237500
_cell_angle_alpha   90.00413042
_cell_angle_beta   89.99586637
_cell_angle_gamma   119.94741605
_symmetry_Int_Tables_number   1
_chemical_formula_structural   HoErLu6Ga3Co
_chemical_formula_sum   'Ho2 Er2 Lu12 Ga6 Co2'
_cell_volume   568.93535681
_cell_formula_units_Z   2
loop_
 _symmetry_equiv_pos_site_id
 _symmetry_equiv_pos_as_xyz
  1  'x, y, z'
loop_
 _atom_site_type_symbol
 _atom_site_label
 _atom_site_symmetry_multiplicity
 _atom_site_fract_x
 _atom_site_fract_y
 _atom_site_fract_z
 _atom_site_occupancy
  Ho  Ho0  1  0.999951  0.000049  0.231141  1
  Ho  Ho1  1  0.999938  0.000062  0.731459  1
  Er  Er2  1  0.929093  0.464637  0.708249  1
  Er  Er3  1  0.535363  0.070907  0.708249  1
  Lu  Lu4  1  0.174298  0.825702  0.509716  1
  Lu  Lu5  1  0.650993  0.824684  0.510281  1
  Lu  Lu6  1  0.175316  0.349007  0.510281  1
  Lu  Lu7  1  0.825666  0.174334  0.013451  1
  Lu  Lu8  1  0.348602  0.174891  0.012318  1
  Lu  Lu9  1  0.825109  0.651398  0.012318  1
  Lu  Lu10  1  0.333725  0.666275  0.828253  1
  Lu  Lu11  1  0.666267  0.333733  0.327625  1
  Lu  Lu12  1  0.463550  0.536450  0.207004  1
  Lu  Lu13  1  0.073495  0.536878  0.207555  1
  Lu  Lu14  1  0.463122  0.926505  0.207555  1
  Lu  Lu15  1  0.536062  0.463938  0.707322  1
  Ga  Ga16  1  0.163791  0.836209  0.959749  1
  Ga  Ga17  1  0.672410  0.836480  0.958742  1
  Ga  Ga18  1  0.163520  0.327590  0.958742  1
  Ga  Ga19  1  0.836868  0.163132  0.457767  1
  Ga  Ga20  1  0.327353  0.163795  0.458397  1
  Ga  Ga21  1  0.836205  0.672647  0.458397  1
  Co  Co22  1  0.333521  0.666479  0.443994  1
  Co  Co23  1  0.665782  0.334218  0.945478  1
