# generated using pymatgen
data_PrAg2Hg(NO3)8
_symmetry_space_group_name_H-M   'P 1'
_cell_length_a   8.24693121
_cell_length_b   7.78910033
_cell_length_c   7.83604697
_cell_angle_alpha   86.35641625
_cell_angle_beta   87.49850003
_cell_angle_gamma   88.60725656
_symmetry_Int_Tables_number   1
_chemical_formula_structural   PrAg2Hg(NO3)8
_chemical_formula_sum   'Pr1 Ag2 Hg1 N8 O24'
_cell_volume   501.74449691
_cell_formula_units_Z   1
loop_
 _symmetry_equiv_pos_site_id
 _symmetry_equiv_pos_as_xyz
  1  'x, y, z'
loop_
 _atom_site_type_symbol
 _atom_site_label
 _atom_site_symmetry_multiplicity
 _atom_site_fract_x
 _atom_site_fract_y
 _atom_site_fract_z
 _atom_site_occupancy
  Pr  Pr0  1  0.000000  0.000000  0.000000  1
  Ag  Ag1  1  0.500000  0.500000  0.000000  1
  Ag  Ag2  1  0.500000  0.000000  0.500000  1
  Hg  Hg3  1  0.000000  0.500000  0.500000  1
  N  N4  1  0.354933  0.338119  0.336987  1
  N  N5  1  0.304347  0.189511  0.878862  1
  N  N6  1  0.188781  0.846909  0.322730  1
  N  N7  1  0.886921  0.314750  0.192690  1
  N  N8  1  0.645067  0.661881  0.663013  1
  N  N9  1  0.113079  0.685250  0.807310  1
  N  N10  1  0.811219  0.153091  0.677270  1
  N  N11  1  0.695653  0.810489  0.121138  1
  O  O12  1  0.825849  0.291536  0.051349  1
  O  O13  1  0.232902  0.961220  0.208828  1
  O  O14  1  0.271797  0.808037  0.449469  1
  O  O15  1  0.199878  0.249910  0.984175  1
  O  O16  1  0.261488  0.311317  0.466625  1
  O  O17  1  0.471478  0.234894  0.304071  1
  O  O18  1  0.332185  0.470828  0.236351  1
  O  O19  1  0.146380  0.545292  0.734568  1
  O  O20  1  0.946553  0.227037  0.697299  1
  O  O21  1  0.728242  0.947839  0.191164  1
  O  O22  1  0.019779  0.798779  0.740357  1
  O  O23  1  0.562508  0.737607  0.155548  1
  O  O24  1  0.767098  0.038780  0.791172  1
  O  O25  1  0.728203  0.191963  0.550531  1
  O  O26  1  0.800122  0.750090  0.015825  1
  O  O27  1  0.174151  0.708464  0.948651  1
  O  O28  1  0.738512  0.688683  0.533375  1
  O  O29  1  0.528522  0.765106  0.695929  1
  O  O30  1  0.667815  0.529172  0.763649  1
  O  O31  1  0.853620  0.454708  0.265432  1
  O  O32  1  0.053447  0.772963  0.302701  1
  O  O33  1  0.271758  0.052161  0.808836  1
  O  O34  1  0.980221  0.201221  0.259643  1
  O  O35  1  0.437492  0.262393  0.844452  1
