# generated using pymatgen
data_Hf8Ti2MnVSb4
_symmetry_space_group_name_H-M   'P 1'
_cell_length_a   5.45551740
_cell_length_b   8.19708229
_cell_length_c   8.19708192
_cell_angle_alpha   83.64218908
_cell_angle_beta   70.56289242
_cell_angle_gamma   70.56289796
_symmetry_Int_Tables_number   1
_chemical_formula_structural   Hf8Ti2MnVSb4
_chemical_formula_sum   'Hf8 Ti2 Mn1 V1 Sb4'
_cell_volume   325.97528457
_cell_formula_units_Z   1
loop_
 _symmetry_equiv_pos_site_id
 _symmetry_equiv_pos_as_xyz
  1  'x, y, z'
loop_
 _atom_site_type_symbol
 _atom_site_label
 _atom_site_symmetry_multiplicity
 _atom_site_fract_x
 _atom_site_fract_y
 _atom_site_fract_z
 _atom_site_occupancy
  Hf  Hf0  1  0.074646  0.128258  0.720701  1
  Hf  Hf1  1  0.923604  0.871742  0.279299  1
  Hf  Hf2  1  0.795346  0.279299  0.128258  1
  Hf  Hf3  1  0.425354  0.279299  0.871742  1
  Hf  Hf4  1  0.202903  0.720701  0.871742  1
  Hf  Hf5  1  0.576396  0.720701  0.128258  1
  Hf  Hf6  1  0.704654  0.871742  0.720701  1
  Hf  Hf7  1  0.297097  0.128258  0.279299  1
  Ti  Ti8  1  0.250000  0.500000  0.500000  1
  Ti  Ti9  1  0.750000  0.500000  0.500000  1
  Mn  Mn10  1  0.750000  0.000000  0.000000  1
  V  V11  1  0.250000  0.000000  0.000000  1
  Sb  Sb12  1  0.157139  0.500000  0.185724  1
  Sb  Sb13  1  0.842861  0.500000  0.814276  1
  Sb  Sb14  1  0.342861  0.814276  0.500000  1
  Sb  Sb15  1  0.657139  0.185724  0.500000  1
