# generated using pymatgen
data_Al(PtO3)2
_symmetry_space_group_name_H-M   'P 1'
_cell_length_a   4.52940600
_cell_length_b   4.52940600
_cell_length_c   9.26686400
_cell_angle_alpha   90.00000000
_cell_angle_beta   90.00000000
_cell_angle_gamma   90.00000000
_symmetry_Int_Tables_number   1
_chemical_formula_structural   Al(PtO3)2
_chemical_formula_sum   'Al2 Pt4 O12'
_cell_volume   190.11452180
_cell_formula_units_Z   2
loop_
 _symmetry_equiv_pos_site_id
 _symmetry_equiv_pos_as_xyz
  1  'x, y, z'
loop_
 _atom_site_type_symbol
 _atom_site_label
 _atom_site_symmetry_multiplicity
 _atom_site_fract_x
 _atom_site_fract_y
 _atom_site_fract_z
 _atom_site_occupancy
  Al  Al0  1  0.000000  0.000000  0.000000  1
  Al  Al1  1  0.500000  0.500000  0.500000  1
  Pt  Pt2  1  0.000000  0.000000  0.332181  1
  Pt  Pt3  1  0.000000  0.000000  0.667819  1
  Pt  Pt4  1  0.500000  0.500000  0.832181  1
  Pt  Pt5  1  0.500000  0.500000  0.167819  1
  O  O6  1  0.300522  0.300522  0.000000  1
  O  O7  1  0.699478  0.699478  0.000000  1
  O  O8  1  0.199478  0.800522  0.500000  1
  O  O9  1  0.800522  0.199478  0.500000  1
  O  O10  1  0.310924  0.310924  0.341132  1
  O  O11  1  0.689076  0.689076  0.658868  1
  O  O12  1  0.689076  0.689076  0.341132  1
  O  O13  1  0.189076  0.810924  0.841132  1
  O  O14  1  0.189076  0.810924  0.158868  1
  O  O15  1  0.310924  0.310924  0.658868  1
  O  O16  1  0.810924  0.189076  0.158868  1
  O  O17  1  0.810924  0.189076  0.841132  1
