# generated using pymatgen
data_Tb3NdSc2(Cu2Sb3)2
_symmetry_space_group_name_H-M   'P 1'
_cell_length_a   4.32676800
_cell_length_b   4.32676850
_cell_length_c   23.06180800
_cell_angle_alpha   90.00000000
_cell_angle_beta   90.00000000
_cell_angle_gamma   120.00001150
_symmetry_Int_Tables_number   1
_chemical_formula_structural   Tb3NdSc2(Cu2Sb3)2
_chemical_formula_sum   'Tb3 Nd1 Sc2 Cu4 Sb6'
_cell_volume   373.89632927
_cell_formula_units_Z   1
loop_
 _symmetry_equiv_pos_site_id
 _symmetry_equiv_pos_as_xyz
  1  'x, y, z'
loop_
 _atom_site_type_symbol
 _atom_site_label
 _atom_site_symmetry_multiplicity
 _atom_site_fract_x
 _atom_site_fract_y
 _atom_site_fract_z
 _atom_site_occupancy
  Tb  Tb0  1  0.666667  0.333333  0.922062  1
  Tb  Tb1  1  0.333333  0.666667  0.078736  1
  Tb  Tb2  1  0.333333  0.666667  0.418641  1
  Nd  Nd3  1  0.666667  0.333333  0.578752  1
  Sc  Sc4  1  0.333333  0.666667  0.248922  1
  Sc  Sc5  1  0.666667  0.333333  0.752228  1
  Cu  Cu6  1  0.000000  0.000000  0.806638  1
  Cu  Cu7  1  0.000000  0.000000  0.194002  1
  Cu  Cu8  1  0.000000  0.000000  0.304042  1
  Cu  Cu9  1  0.000000  0.000000  0.696897  1
  Sb  Sb10  1  0.333333  0.666667  0.665174  1
  Sb  Sb11  1  0.000000  0.000000  0.495953  1
  Sb  Sb12  1  0.666667  0.333333  0.336491  1
  Sb  Sb13  1  0.333333  0.666667  0.839979  1
  Sb  Sb14  1  0.666667  0.333333  0.161018  1
  Sb  Sb15  1  0.000000  0.000000  0.000464  1
