# generated using pymatgen
data_SrPr6MnBr12
_symmetry_space_group_name_H-M   'P 1'
_cell_length_a   9.56870945
_cell_length_b   9.56870840
_cell_length_c   9.56870991
_cell_angle_alpha   106.11530203
_cell_angle_beta   106.11529940
_cell_angle_gamma   106.11529532
_symmetry_Int_Tables_number   1
_chemical_formula_structural   SrPr6MnBr12
_chemical_formula_sum   'Sr1 Pr6 Mn1 Br12'
_cell_volume   746.54450701
_cell_formula_units_Z   1
loop_
 _symmetry_equiv_pos_site_id
 _symmetry_equiv_pos_as_xyz
  1  'x, y, z'
loop_
 _atom_site_type_symbol
 _atom_site_label
 _atom_site_symmetry_multiplicity
 _atom_site_fract_x
 _atom_site_fract_y
 _atom_site_fract_z
 _atom_site_occupancy
  Sr  Sr0  1  0.500000  0.500000  0.500000  1
  Pr  Pr1  1  0.979396  0.900800  0.693858  1
  Pr  Pr2  1  0.020604  0.099200  0.306142  1
  Pr  Pr3  1  0.099200  0.306142  0.020604  1
  Pr  Pr4  1  0.306142  0.020604  0.099200  1
  Pr  Pr5  1  0.900800  0.693858  0.979396  1
  Pr  Pr6  1  0.693858  0.979396  0.900800  1
  Mn  Mn7  1  0.000000  0.000000  0.000000  1
  Br  Br8  1  0.552298  0.632224  0.849864  1
  Br  Br9  1  0.447702  0.367776  0.150136  1
  Br  Br10  1  0.315758  0.926183  0.777013  1
  Br  Br11  1  0.367776  0.150136  0.447702  1
  Br  Br12  1  0.926183  0.777013  0.315758  1
  Br  Br13  1  0.684242  0.073817  0.222987  1
  Br  Br14  1  0.073817  0.222987  0.684242  1
  Br  Br15  1  0.777013  0.315758  0.926183  1
  Br  Br16  1  0.222987  0.684242  0.073817  1
  Br  Br17  1  0.849864  0.552298  0.632224  1
  Br  Br18  1  0.150136  0.447702  0.367776  1
  Br  Br19  1  0.632224  0.849864  0.552298  1
