# generated using pymatgen
data_Er13Tm7(Ir2Os)4
_symmetry_space_group_name_H-M   'P 1'
_cell_length_a   10.74136500
_cell_length_b   10.73873402
_cell_length_c   6.35378601
_cell_angle_alpha   90.00690575
_cell_angle_beta   90.00101171
_cell_angle_gamma   90.00069349
_symmetry_Int_Tables_number   1
_chemical_formula_structural   Er13Tm7(Ir2Os)4
_chemical_formula_sum   'Er13 Tm7 Ir8 Os4'
_cell_volume   732.90070801
_cell_formula_units_Z   1
loop_
 _symmetry_equiv_pos_site_id
 _symmetry_equiv_pos_as_xyz
  1  'x, y, z'
loop_
 _atom_site_type_symbol
 _atom_site_label
 _atom_site_symmetry_multiplicity
 _atom_site_fract_x
 _atom_site_fract_y
 _atom_site_fract_z
 _atom_site_occupancy
  Er  Er0  1  0.293298  0.086242  0.376028  1
  Er  Er1  1  0.293287  0.913782  0.876059  1
  Er  Er2  1  0.706721  0.086227  0.876087  1
  Er  Er3  1  0.706658  0.913826  0.376122  1
  Er  Er4  1  0.586195  0.793334  0.876121  1
  Er  Er5  1  0.586201  0.206675  0.376145  1
  Er  Er6  1  0.413796  0.793329  0.376133  1
  Er  Er7  1  0.413795  0.206690  0.876127  1
  Er  Er8  1  0.206450  0.413781  0.623950  1
  Er  Er9  1  0.206563  0.586120  0.123901  1
  Er  Er10  1  0.793493  0.413719  0.123910  1
  Er  Er11  1  0.793498  0.586135  0.623934  1
  Er  Er12  1  0.913886  0.706623  0.123917  1
  Tm  Tm13  1  0.913936  0.293607  0.623672  1
  Tm  Tm14  1  0.086112  0.706385  0.623682  1
  Tm  Tm15  1  0.086053  0.293581  0.123703  1
  Tm  Tm16  1  0.000009  0.000020  0.500041  1
  Tm  Tm17  1  0.000044  0.000103  0.999972  1
  Tm  Tm18  1  0.499987  0.499973  0.000034  1
  Tm  Tm19  1  0.499990  0.499992  0.499983  1
  Ir  Ir20  1  0.847989  0.152341  0.250259  1
  Ir  Ir21  1  0.847904  0.847749  0.749969  1
  Ir  Ir22  1  0.152038  0.152368  0.750278  1
  Ir  Ir23  1  0.152134  0.847726  0.250342  1
  Ir  Ir24  1  0.652387  0.347751  0.749910  1
  Ir  Ir25  1  0.652213  0.652210  0.249981  1
  Ir  Ir26  1  0.347608  0.347778  0.249881  1
  Ir  Ir27  1  0.347611  0.652244  0.749910  1
  Os  Os28  1  0.499985  0.999987  0.122831  1
  Os  Os29  1  0.500005  0.999997  0.622912  1
  Os  Os30  1  0.000080  0.499830  0.876891  1
  Os  Os31  1  0.000073  0.499875  0.377315  1
