# generated using pymatgen
data_Sm7Y(TcBr4)2
_symmetry_space_group_name_H-M   'P 1'
_cell_length_a   9.20421529
_cell_length_b   9.22123831
_cell_length_c   6.68447231
_cell_angle_alpha   89.64416394
_cell_angle_beta   89.16585142
_cell_angle_gamma   89.12531909
_symmetry_Int_Tables_number   1
_chemical_formula_structural   Sm7Y(TcBr4)2
_chemical_formula_sum   'Sm7 Y1 Tc2 Br8'
_cell_volume   567.20325811
_cell_formula_units_Z   1
loop_
 _symmetry_equiv_pos_site_id
 _symmetry_equiv_pos_as_xyz
  1  'x, y, z'
loop_
 _atom_site_type_symbol
 _atom_site_label
 _atom_site_symmetry_multiplicity
 _atom_site_fract_x
 _atom_site_fract_y
 _atom_site_fract_z
 _atom_site_occupancy
  Sm  Sm0  1  0.750129  0.098530  0.990407  1
  Sm  Sm1  1  0.098796  0.753176  0.490021  1
  Sm  Sm2  1  0.097020  0.247307  0.996427  1
  Sm  Sm3  1  0.250813  0.097848  0.496450  1
  Sm  Sm4  1  0.901961  0.752451  0.005773  1
  Sm  Sm5  1  0.900664  0.245788  0.511531  1
  Sm  Sm6  1  0.249950  0.900699  0.011424  1
  Y  Y7  1  0.752931  0.902821  0.506742  1
  Tc  Tc8  1  0.996018  0.003353  0.251078  1
  Tc  Tc9  1  0.004703  0.996251  0.750560  1
  Br  Br10  1  0.584414  0.178355  0.577878  1
  Br  Br11  1  0.810941  0.593348  0.423752  1
  Br  Br12  1  0.410955  0.185878  0.082004  1
  Br  Br13  1  0.183028  0.410396  0.579176  1
  Br  Br14  1  0.589761  0.815248  0.907470  1
  Br  Br15  1  0.419874  0.819234  0.416424  1
  Br  Br16  1  0.181776  0.584722  0.076900  1
  Br  Br17  1  0.816267  0.414597  0.925982  1
