# generated using pymatgen
data_Nd3Y4Th(ReB6)4
_symmetry_space_group_name_H-M   'P 1'
_cell_length_a   3.74659600
_cell_length_b   9.26513075
_cell_length_c   11.71529516
_cell_angle_alpha   89.93246681
_cell_angle_beta   90.00000000
_cell_angle_gamma   90.00000000
_symmetry_Int_Tables_number   1
_chemical_formula_structural   Nd3Y4Th(ReB6)4
_chemical_formula_sum   'Nd3 Y4 Th1 Re4 B24'
_cell_volume   406.66926497
_cell_formula_units_Z   1
loop_
 _symmetry_equiv_pos_site_id
 _symmetry_equiv_pos_as_xyz
  1  'x, y, z'
loop_
 _atom_site_type_symbol
 _atom_site_label
 _atom_site_symmetry_multiplicity
 _atom_site_fract_x
 _atom_site_fract_y
 _atom_site_fract_z
 _atom_site_occupancy
  Nd  Nd0  1  0.000000  0.177813  0.913842  1
  Nd  Nd1  1  0.000000  0.322903  0.414639  1
  Nd  Nd2  1  0.000000  0.676726  0.585722  1
  Y  Y3  1  0.000000  0.441832  0.130658  1
  Y  Y4  1  0.000000  0.556816  0.868840  1
  Y  Y5  1  0.000000  0.942816  0.370578  1
  Y  Y6  1  0.000000  0.057554  0.630773  1
  Th  Th7  1  0.000000  0.822852  0.085551  1
  Re  Re8  1  0.000000  0.137578  0.179843  1
  Re  Re9  1  0.000000  0.861495  0.820581  1
  Re  Re10  1  0.000000  0.639801  0.318901  1
  Re  Re11  1  0.000000  0.361287  0.680061  1
  B  B12  1  0.500000  0.054822  0.069691  1
  B  B13  1  0.500000  0.944745  0.930454  1
  B  B14  1  0.500000  0.554928  0.430604  1
  B  B15  1  0.500000  0.445505  0.569085  1
  B  B16  1  0.500000  0.249152  0.084315  1
  B  B17  1  0.500000  0.750952  0.915526  1
  B  B18  1  0.500000  0.748925  0.416064  1
  B  B19  1  0.500000  0.250875  0.584092  1
  B  B20  1  0.500000  0.290238  0.234107  1
  B  B21  1  0.500000  0.709630  0.765734  1
  B  B22  1  0.500000  0.790457  0.265913  1
  B  B23  1  0.500000  0.209386  0.734180  1
  B  B24  1  0.500000  0.129800  0.313892  1
  B  B25  1  0.500000  0.870497  0.686483  1
  B  B26  1  0.500000  0.629986  0.186462  1
  B  B27  1  0.500000  0.370217  0.813377  1
  B  B28  1  0.500000  0.484520  0.287282  1
  B  B29  1  0.500000  0.515705  0.712549  1
  B  B30  1  0.500000  0.984645  0.213125  1
  B  B31  1  0.500000  0.015892  0.786784  1
  B  B32  1  0.500000  0.097182  0.473242  1
  B  B33  1  0.500000  0.903003  0.527418  1
  B  B34  1  0.500000  0.597490  0.027043  1
  B  B35  1  0.500000  0.401976  0.972589  1
