# generated using pymatgen
data_Ho3Co(P3Ir4)2
_symmetry_space_group_name_H-M   'P 1'
_cell_length_a   3.92270200
_cell_length_b   11.08582700
_cell_length_c   12.76395800
_cell_angle_alpha   90.00000000
_cell_angle_beta   90.00000000
_cell_angle_gamma   90.00000000
_symmetry_Int_Tables_number   1
_chemical_formula_structural   Ho3Co(P3Ir4)2
_chemical_formula_sum   'Ho6 Co2 P12 Ir16'
_cell_volume   555.05852885
_cell_formula_units_Z   2
loop_
 _symmetry_equiv_pos_site_id
 _symmetry_equiv_pos_as_xyz
  1  'x, y, z'
loop_
 _atom_site_type_symbol
 _atom_site_label
 _atom_site_symmetry_multiplicity
 _atom_site_fract_x
 _atom_site_fract_y
 _atom_site_fract_z
 _atom_site_occupancy
  Ho  Ho0  1  0.000000  0.500000  0.522507  1
  Ho  Ho1  1  0.500000  0.000000  0.477493  1
  Ho  Ho2  1  0.500000  0.815880  0.200483  1
  Ho  Ho3  1  0.500000  0.184120  0.200483  1
  Ho  Ho4  1  0.000000  0.684120  0.799517  1
  Ho  Ho5  1  0.000000  0.315880  0.799517  1
  Co  Co6  1  0.000000  0.500000  0.977116  1
  Co  Co7  1  0.500000  0.000000  0.022884  1
  P  P8  1  0.500000  0.500000  0.880205  1
  P  P9  1  0.000000  0.000000  0.119795  1
  P  P10  1  0.500000  0.500000  0.358397  1
  P  P11  1  0.000000  0.000000  0.641603  1
  P  P12  1  0.500000  0.315802  0.619354  1
  P  P13  1  0.500000  0.684198  0.619354  1
  P  P14  1  0.000000  0.184198  0.380646  1
  P  P15  1  0.000000  0.815802  0.380646  1
  P  P16  1  0.500000  0.851889  0.896417  1
  P  P17  1  0.500000  0.148111  0.896417  1
  P  P18  1  0.000000  0.648111  0.103583  1
  P  P19  1  0.000000  0.351889  0.103583  1
  Ir  Ir20  1  0.500000  0.500000  0.177756  1
  Ir  Ir21  1  0.000000  0.000000  0.822244  1
  Ir  Ir22  1  0.500000  0.500000  0.702350  1
  Ir  Ir23  1  0.000000  0.000000  0.297650  1
  Ir  Ir24  1  0.500000  0.339007  0.997914  1
  Ir  Ir25  1  0.500000  0.660993  0.997914  1
  Ir  Ir26  1  0.000000  0.160993  0.002086  1
  Ir  Ir27  1  0.000000  0.839007  0.002086  1
  Ir  Ir28  1  0.500000  0.292921  0.429367  1
  Ir  Ir29  1  0.500000  0.707079  0.429367  1
  Ir  Ir30  1  0.000000  0.207079  0.570633  1
  Ir  Ir31  1  0.000000  0.792921  0.570633  1
  Ir  Ir32  1  0.500000  0.870107  0.714748  1
  Ir  Ir33  1  0.500000  0.129893  0.714748  1
  Ir  Ir34  1  0.000000  0.629893  0.285252  1
  Ir  Ir35  1  0.000000  0.370107  0.285252  1
