# generated using pymatgen
data_Li2Ni9P7Ru2W
_symmetry_space_group_name_H-M   'P 1'
_cell_length_a   9.17130402
_cell_length_b   9.11316964
_cell_length_c   3.61009600
_cell_angle_alpha   90.00000000
_cell_angle_beta   90.00000000
_cell_angle_gamma   120.20490446
_symmetry_Int_Tables_number   1
_chemical_formula_structural   Li2Ni9P7Ru2W
_chemical_formula_sum   'Li2 Ni9 P7 Ru2 W1'
_cell_volume   260.76512512
_cell_formula_units_Z   1
loop_
 _symmetry_equiv_pos_site_id
 _symmetry_equiv_pos_as_xyz
  1  'x, y, z'
loop_
 _atom_site_type_symbol
 _atom_site_label
 _atom_site_symmetry_multiplicity
 _atom_site_fract_x
 _atom_site_fract_y
 _atom_site_fract_z
 _atom_site_occupancy
  Li  Li0  1  0.332344  0.666297  0.000000  1
  Li  Li1  1  0.667479  0.334668  0.500000  1
  Ni  Ni2  1  0.708920  0.874335  0.000000  1
  Ni  Ni3  1  0.165241  0.290100  0.000000  1
  Ni  Ni4  1  0.126121  0.837071  0.000000  1
  Ni  Ni5  1  0.625995  0.562936  0.000000  1
  Ni  Ni6  1  0.936446  0.373252  0.000000  1
  Ni  Ni7  1  0.439848  0.064966  0.000000  1
  Ni  Ni8  1  0.558137  0.946636  0.500000  1
  Ni  Ni9  1  0.386758  0.440103  0.500000  1
  Ni  Ni10  1  0.059216  0.614414  0.500000  1
  P  P11  1  0.582494  0.708204  0.500000  1
  P  P12  1  0.123084  0.412936  0.500000  1
  P  P13  1  0.292934  0.878645  0.500000  1
  P  P14  1  0.001538  0.005090  0.000000  1
  P  P15  1  0.879318  0.581978  0.000000  1
  P  P16  1  0.705306  0.121188  0.000000  1
  P  P17  1  0.413622  0.293261  0.000000  1
  Ru  Ru18  1  0.903501  0.121827  0.500000  1
  Ru  Ru19  1  0.214760  0.090210  0.500000  1
  W  W20  1  0.876938  0.781883  0.500000  1
