# generated using pymatgen
data_Ho18Tm2Ir5Rh7
_symmetry_space_group_name_H-M   'P 1'
_cell_length_a   10.84211316
_cell_length_b   10.84211394
_cell_length_c   6.34305691
_cell_angle_alpha   89.96110446
_cell_angle_beta   89.96110376
_cell_angle_gamma   90.15594216
_symmetry_Int_Tables_number   1
_chemical_formula_structural   Ho18Tm2Ir5Rh7
_chemical_formula_sum   'Ho18 Tm2 Ir5 Rh7'
_cell_volume   745.63227953
_cell_formula_units_Z   1
loop_
 _symmetry_equiv_pos_site_id
 _symmetry_equiv_pos_as_xyz
  1  'x, y, z'
loop_
 _atom_site_type_symbol
 _atom_site_label
 _atom_site_symmetry_multiplicity
 _atom_site_fract_x
 _atom_site_fract_y
 _atom_site_fract_z
 _atom_site_occupancy
  Ho  Ho0  1  0.290801  0.088004  0.377521  1
  Ho  Ho1  1  0.290722  0.909798  0.878959  1
  Ho  Ho2  1  0.708648  0.089716  0.878310  1
  Ho  Ho3  1  0.708330  0.910113  0.377568  1
  Ho  Ho4  1  0.587299  0.789334  0.878722  1
  Ho  Ho5  1  0.586936  0.210542  0.378435  1
  Ho  Ho6  1  0.411122  0.789724  0.378747  1
  Ho  Ho7  1  0.412556  0.210390  0.878374  1
  Ho  Ho8  1  0.210666  0.412701  0.621278  1
  Ho  Ho9  1  0.210276  0.588878  0.121253  1
  Ho  Ho10  1  0.789458  0.413064  0.121565  1
  Ho  Ho11  1  0.789610  0.587444  0.621626  1
  Ho  Ho12  1  0.911996  0.709199  0.122479  1
  Ho  Ho13  1  0.910284  0.291352  0.621690  1
  Ho  Ho14  1  0.090202  0.709278  0.621041  1
  Ho  Ho15  1  0.089887  0.291670  0.122432  1
  Ho  Ho16  1  0.999887  0.999808  0.500102  1
  Ho  Ho17  1  0.000192  0.000113  0.999898  1
  Tm  Tm18  1  0.499892  0.499646  0.000041  1
  Tm  Tm19  1  0.500354  0.500108  0.499959  1
  Ir  Ir20  1  0.153425  0.846575  0.250000  1
  Ir  Ir21  1  0.653847  0.346153  0.750000  1
  Ir  Ir22  1  0.654031  0.653616  0.249706  1
  Ir  Ir23  1  0.346384  0.345969  0.250294  1
  Ir  Ir24  1  0.346913  0.653087  0.750000  1
  Rh  Rh25  1  0.846502  0.153498  0.250000  1
  Rh  Rh26  1  0.845648  0.846498  0.749938  1
  Rh  Rh27  1  0.153502  0.154352  0.750062  1
  Rh  Rh28  1  0.500592  0.000249  0.123242  1
  Rh  Rh29  1  0.500498  0.000212  0.623932  1
  Rh  Rh30  1  0.999788  0.499502  0.876068  1
  Rh  Rh31  1  0.999751  0.499408  0.376758  1
