# generated using pymatgen
data_Dy5Y3Re3TcB24
_symmetry_space_group_name_H-M   'P 1'
_cell_length_a   3.68909300
_cell_length_b   9.18557112
_cell_length_c   11.57287300
_cell_angle_alpha   90.02922960
_cell_angle_beta   90.00000000
_cell_angle_gamma   90.00000000
_symmetry_Int_Tables_number   1
_chemical_formula_structural   Dy5Y3Re3TcB24
_chemical_formula_sum   'Dy5 Y3 Re3 Tc1 B24'
_cell_volume   392.16325501
_cell_formula_units_Z   1
loop_
 _symmetry_equiv_pos_site_id
 _symmetry_equiv_pos_as_xyz
  1  'x, y, z'
loop_
 _atom_site_type_symbol
 _atom_site_label
 _atom_site_symmetry_multiplicity
 _atom_site_fract_x
 _atom_site_fract_y
 _atom_site_fract_z
 _atom_site_occupancy
  Dy  Dy0  1  0.000000  0.176617  0.914024  1
  Dy  Dy1  1  0.000000  0.941755  0.369590  1
  Dy  Dy2  1  0.000000  0.057181  0.629866  1
  Dy  Dy3  1  0.000000  0.443308  0.130781  1
  Dy  Dy4  1  0.000000  0.557209  0.870115  1
  Y  Y5  1  0.000000  0.323720  0.413935  1
  Y  Y6  1  0.000000  0.676556  0.585804  1
  Y  Y7  1  0.000000  0.823502  0.085912  1
  Re  Re8  1  0.000000  0.361411  0.679251  1
  Re  Re9  1  0.000000  0.138681  0.179191  1
  Re  Re10  1  0.000000  0.861455  0.820882  1
  Tc  Tc11  1  0.000000  0.638675  0.320647  1
  B  B12  1  0.500000  0.553415  0.432633  1
  B  B13  1  0.500000  0.446763  0.567125  1
  B  B14  1  0.500000  0.053531  0.067036  1
  B  B15  1  0.500000  0.947035  0.932753  1
  B  B16  1  0.500000  0.748380  0.418201  1
  B  B17  1  0.500000  0.251204  0.581638  1
  B  B18  1  0.500000  0.248919  0.081615  1
  B  B19  1  0.500000  0.751401  0.918336  1
  B  B20  1  0.500000  0.791296  0.265492  1
  B  B21  1  0.500000  0.208334  0.734430  1
  B  B22  1  0.500000  0.291586  0.234546  1
  B  B23  1  0.500000  0.708389  0.765665  1
  B  B24  1  0.500000  0.630810  0.185995  1
  B  B25  1  0.500000  0.369252  0.814249  1
  B  B26  1  0.500000  0.130398  0.314185  1
  B  B27  1  0.500000  0.869359  0.685800  1
  B  B28  1  0.500000  0.982282  0.211765  1
  B  B29  1  0.500000  0.017829  0.788091  1
  B  B30  1  0.500000  0.482605  0.288262  1
  B  B31  1  0.500000  0.517628  0.712007  1
  B  B32  1  0.500000  0.600372  0.028243  1
  B  B33  1  0.500000  0.399769  0.972172  1
  B  B34  1  0.500000  0.099745  0.471775  1
  B  B35  1  0.500000  0.899633  0.527984  1
