# generated using pymatgen
data_DyCu3RhAu
_symmetry_space_group_name_H-M   'P 1'
_cell_length_a   5.00131946
_cell_length_b   5.00131920
_cell_length_c   5.20042099
_cell_angle_alpha   61.25858882
_cell_angle_beta   61.25859701
_cell_angle_gamma   59.99999434
_symmetry_Int_Tables_number   1
_chemical_formula_structural   DyCu3RhAu
_chemical_formula_sum   'Dy1 Cu3 Rh1 Au1'
_cell_volume   93.69096400
_cell_formula_units_Z   1
loop_
 _symmetry_equiv_pos_site_id
 _symmetry_equiv_pos_as_xyz
  1  'x, y, z'
loop_
 _atom_site_type_symbol
 _atom_site_label
 _atom_site_symmetry_multiplicity
 _atom_site_fract_x
 _atom_site_fract_y
 _atom_site_fract_z
 _atom_site_occupancy
  Dy  Dy0  1  0.998680  0.998680  0.003960  1
  Cu  Cu1  1  0.627518  0.129570  0.615395  1
  Cu  Cu2  1  0.129570  0.627518  0.615395  1
  Cu  Cu3  1  0.627518  0.627518  0.615395  1
  Rh  Rh4  1  0.627940  0.627940  0.116179  1
  Au  Au5  1  0.238774  0.238774  0.283677  1
