# generated using pymatgen
data_Pr3DySn10(IrRh2)2
_symmetry_space_group_name_H-M   'P 1'
_cell_length_a   13.60975998
_cell_length_b   13.60976082
_cell_length_c   7.27279180
_cell_angle_alpha   89.81119560
_cell_angle_beta   90.18880347
_cell_angle_gamma   160.82514544
_symmetry_Int_Tables_number   1
_chemical_formula_structural   Pr3DySn10(IrRh2)2
_chemical_formula_sum   'Pr3 Dy1 Sn10 Ir2 Rh4'
_cell_volume   442.45774898
_cell_formula_units_Z   1
loop_
 _symmetry_equiv_pos_site_id
 _symmetry_equiv_pos_as_xyz
  1  'x, y, z'
loop_
 _atom_site_type_symbol
 _atom_site_label
 _atom_site_symmetry_multiplicity
 _atom_site_fract_x
 _atom_site_fract_y
 _atom_site_fract_z
 _atom_site_occupancy
  Pr  Pr0  1  0.172167  0.827833  0.752377  1
  Pr  Pr1  1  0.827756  0.172244  0.253181  1
  Pr  Pr2  1  0.477061  0.522939  0.738101  1
  Dy  Dy3  1  0.523976  0.476024  0.238765  1
  Sn  Sn4  1  0.879372  0.120628  0.733118  1
  Sn  Sn5  1  0.119968  0.880032  0.233161  1
  Sn  Sn6  1  0.703928  0.296072  0.048697  1
  Sn  Sn7  1  0.295360  0.704640  0.549125  1
  Sn  Sn8  1  0.596639  0.403361  0.610228  1
  Sn  Sn9  1  0.404142  0.595858  0.112410  1
  Sn  Sn10  1  0.953080  0.046920  0.400281  1
  Sn  Sn11  1  0.047983  0.952017  0.904189  1
  Sn  Sn12  1  0.289724  0.710276  0.974374  1
  Sn  Sn13  1  0.710030  0.289970  0.473700  1
  Ir  Ir14  1  0.050964  0.949036  0.515649  1
  Ir  Ir15  1  0.949557  0.050443  0.022486  1
  Rh  Rh16  1  0.777416  0.222584  0.763316  1
  Rh  Rh17  1  0.222130  0.777870  0.262829  1
  Rh  Rh18  1  0.394723  0.605277  0.483464  1
  Rh  Rh19  1  0.604026  0.395974  0.986548  1
