# generated using pymatgen
data_Y2GaIrRh
_symmetry_space_group_name_H-M   'P 1'
_cell_length_a   5.53628280
_cell_length_b   5.53628210
_cell_length_c   5.53628140
_cell_angle_alpha   135.71143947
_cell_angle_beta   116.55844446
_cell_angle_gamma   80.62225105
_symmetry_Int_Tables_number   1
_chemical_formula_structural   Y2GaIrRh
_chemical_formula_sum   'Y2 Ga1 Ir1 Rh1'
_cell_volume   102.57829118
_cell_formula_units_Z   1
loop_
 _symmetry_equiv_pos_site_id
 _symmetry_equiv_pos_as_xyz
  1  'x, y, z'
loop_
 _atom_site_type_symbol
 _atom_site_label
 _atom_site_symmetry_multiplicity
 _atom_site_fract_x
 _atom_site_fract_y
 _atom_site_fract_z
 _atom_site_occupancy
  Y  Y0  1  0.697089  0.200838  0.496252  1
  Y  Y1  1  0.295414  0.799162  0.496252  1
  Ga  Ga2  1  0.001492  0.000000  0.001492  1
  Ir  Ir3  1  0.265860  0.500000  0.765860  1
  Rh  Rh4  1  0.740145  0.500000  0.240145  1
