# generated using pymatgen
data_Ce2DyY7Al3GaRu6
_symmetry_space_group_name_H-M   'P 1'
_cell_length_a   8.48539702
_cell_length_b   8.39617194
_cell_length_c   8.37106800
_cell_angle_alpha   109.99486636
_cell_angle_beta   109.29306871
_cell_angle_gamma   110.25676230
_symmetry_Int_Tables_number   1
_chemical_formula_structural   Ce2DyY7Al3GaRu6
_chemical_formula_sum   'Ce2 Dy1 Y7 Al3 Ga1 Ru6'
_cell_volume   452.55816273
_cell_formula_units_Z   1
loop_
 _symmetry_equiv_pos_site_id
 _symmetry_equiv_pos_as_xyz
  1  'x, y, z'
loop_
 _atom_site_type_symbol
 _atom_site_label
 _atom_site_symmetry_multiplicity
 _atom_site_fract_x
 _atom_site_fract_y
 _atom_site_fract_z
 _atom_site_occupancy
  Ce  Ce0  1  0.944430  0.251885  0.196452  1
  Ce  Ce1  1  0.198425  0.943748  0.252667  1
  Dy  Dy2  1  0.781008  0.785491  0.778129  1
  Y  Y3  1  0.317212  0.565325  0.754179  1
  Y  Y4  1  0.750853  0.316751  0.567270  1
  Y  Y5  1  0.566455  0.747614  0.312646  1
  Y  Y6  1  0.723159  0.503933  0.999309  1
  Y  Y7  1  0.999153  0.720314  0.505708  1
  Y  Y8  1  0.501036  0.991777  0.717242  1
  Y  Y9  1  0.254809  0.190196  0.933820  1
  Al  Al10  1  0.091360  0.491538  0.996254  1
  Al  Al11  1  0.997317  0.090654  0.501630  1
  Al  Al12  1  0.502174  0.010124  0.094346  1
  Ga  Ga13  1  0.418930  0.413762  0.412240  1
  Ru  Ru14  1  0.868832  0.115973  0.740382  1
  Ru  Ru15  1  0.754890  0.905871  0.122068  1
  Ru  Ru16  1  0.127076  0.763994  0.910999  1
  Ru  Ru17  1  0.221284  0.588224  0.360305  1
  Ru  Ru18  1  0.355071  0.218768  0.593221  1
  Ru  Ru19  1  0.626526  0.384061  0.251129  1
