# generated using pymatgen
data_In9Pd8Au5
_symmetry_space_group_name_H-M   'P 1'
_cell_length_a   7.34634599
_cell_length_b   7.29328277
_cell_length_c   9.73727736
_cell_angle_alpha   63.12544030
_cell_angle_beta   63.18135852
_cell_angle_gamma   76.55218224
_symmetry_Int_Tables_number   1
_chemical_formula_structural   In9Pd8Au5
_chemical_formula_sum   'In9 Pd8 Au5'
_cell_volume   415.04371591
_cell_formula_units_Z   1
loop_
 _symmetry_equiv_pos_site_id
 _symmetry_equiv_pos_as_xyz
  1  'x, y, z'
loop_
 _atom_site_type_symbol
 _atom_site_label
 _atom_site_symmetry_multiplicity
 _atom_site_fract_x
 _atom_site_fract_y
 _atom_site_fract_z
 _atom_site_occupancy
  In  In0  1  0.239182  0.826968  0.195915  1
  In  In1  1  0.165868  0.174226  0.385830  1
  In  In2  1  0.278488  0.287639  0.674812  1
  In  In3  1  0.830817  0.247170  0.189590  1
  In  In4  1  0.721512  0.712361  0.325188  1
  In  In5  1  0.500000  0.500000  0.000000  1
  In  In6  1  0.760818  0.173032  0.804085  1
  In  In7  1  0.169183  0.752830  0.810410  1
  In  In8  1  0.834132  0.825774  0.614170  1
  Pd  Pd9  1  0.539344  0.065395  0.159568  1
  Pd  Pd10  1  0.069522  0.539080  0.157343  1
  Pd  Pd11  1  0.256145  0.749334  0.499618  1
  Pd  Pd12  1  0.930478  0.460920  0.842657  1
  Pd  Pd13  1  0.460656  0.934605  0.840432  1
  Pd  Pd14  1  0.743855  0.250666  0.500382  1
  Pd  Pd15  1  0.000000  0.000000  0.000000  1
  Pd  Pd16  1  0.000000  0.500000  0.500000  1
  Au  Au17  1  0.500000  0.000000  0.500000  1
  Au  Au18  1  0.547299  0.541777  0.673314  1
  Au  Au19  1  0.452701  0.458223  0.326686  1
  Au  Au20  1  0.260568  0.256192  0.988595  1
  Au  Au21  1  0.739432  0.743808  0.011405  1
