# generated using pymatgen
data_DyHo4RuRh
_symmetry_space_group_name_H-M   'P 1'
_cell_length_a   6.36192298
_cell_length_b   7.22744020
_cell_length_c   8.49715181
_cell_angle_alpha   96.72829228
_cell_angle_beta   111.98452566
_cell_angle_gamma   89.99999981
_symmetry_Int_Tables_number   1
_chemical_formula_structural   DyHo4RuRh
_chemical_formula_sum   'Dy2 Ho8 Ru2 Rh2'
_cell_volume   359.38920212
_cell_formula_units_Z   2
loop_
 _symmetry_equiv_pos_site_id
 _symmetry_equiv_pos_as_xyz
  1  'x, y, z'
loop_
 _atom_site_type_symbol
 _atom_site_label
 _atom_site_symmetry_multiplicity
 _atom_site_fract_x
 _atom_site_fract_y
 _atom_site_fract_z
 _atom_site_occupancy
  Dy  Dy0  1  0.981528  0.918276  0.188737  1
  Dy  Dy1  1  0.792791  0.581724  0.811263  1
  Ho  Ho2  1  0.023906  0.085632  0.814120  1
  Ho  Ho3  1  0.209787  0.414368  0.185880  1
  Ho  Ho4  1  0.641786  0.816075  0.434162  1
  Ho  Ho5  1  0.207623  0.683925  0.565838  1
  Ho  Ho6  1  0.355456  0.187703  0.563287  1
  Ho  Ho7  1  0.792170  0.312297  0.436713  1
  Ho  Ho8  1  0.420230  0.750000  0.000000  1
  Ho  Ho9  1  0.576337  0.250000  0.000000  1
  Ru  Ru10  1  0.177160  0.425053  0.779171  1
  Ru  Ru11  1  0.397988  0.074947  0.220829  1
  Rh  Rh12  1  0.822558  0.575864  0.221882  1
  Rh  Rh13  1  0.600677  0.924136  0.778118  1
