# generated using pymatgen
data_Ca2SmDy(NiB4)4
_symmetry_space_group_name_H-M   'P 1'
_cell_length_a   6.86130361
_cell_length_b   6.86130285
_cell_length_c   6.86130454
_cell_angle_alpha   112.87457940
_cell_angle_beta   112.87457285
_cell_angle_gamma   102.86001103
_symmetry_Int_Tables_number   1
_chemical_formula_structural   Ca2SmDy(NiB4)4
_chemical_formula_sum   'Ca2 Sm1 Dy1 Ni4 B16'
_cell_volume   246.21203101
_cell_formula_units_Z   1
loop_
 _symmetry_equiv_pos_site_id
 _symmetry_equiv_pos_as_xyz
  1  'x, y, z'
loop_
 _atom_site_type_symbol
 _atom_site_label
 _atom_site_symmetry_multiplicity
 _atom_site_fract_x
 _atom_site_fract_y
 _atom_site_fract_z
 _atom_site_occupancy
  Ca  Ca0  1  0.797648  0.797648  0.000000  1
  Ca  Ca1  1  0.202352  0.202352  0.000000  1
  Sm  Sm2  1  0.750000  0.250000  0.500000  1
  Dy  Dy3  1  0.250000  0.750000  0.500000  1
  Ni  Ni4  1  0.273266  0.500482  0.772785  1
  Ni  Ni5  1  0.727697  0.500482  0.227215  1
  Ni  Ni6  1  0.499518  0.726734  0.227215  1
  Ni  Ni7  1  0.499518  0.272303  0.772785  1
  B  B8  1  0.276618  0.112375  0.389331  1
  B  B9  1  0.723042  0.887285  0.610669  1
  B  B10  1  0.276618  0.887285  0.164243  1
  B  B11  1  0.723042  0.112375  0.835757  1
  B  B12  1  0.112715  0.723382  0.835757  1
  B  B13  1  0.887625  0.276958  0.164243  1
  B  B14  1  0.112715  0.276958  0.389331  1
  B  B15  1  0.887625  0.723382  0.610669  1
  B  B16  1  0.113656  0.112724  0.529744  1
  B  B17  1  0.582979  0.583911  0.470256  1
  B  B18  1  0.113656  0.583911  0.000932  1
  B  B19  1  0.582979  0.112724  0.999068  1
  B  B20  1  0.887276  0.886344  0.470256  1
  B  B21  1  0.416089  0.417021  0.529744  1
  B  B22  1  0.887276  0.417021  0.000932  1
  B  B23  1  0.416089  0.886344  0.999068  1
