# generated using pymatgen
data_K2Li6TiSi24(SnO20)3
_symmetry_space_group_name_H-M   'P 1'
_cell_length_a   10.15712100
_cell_length_b   10.15712178
_cell_length_c   14.51307200
_cell_angle_alpha   90.00000000
_cell_angle_beta   90.00000000
_cell_angle_gamma   119.99999422
_symmetry_Int_Tables_number   1
_chemical_formula_structural   K2Li6TiSi24(SnO20)3
_chemical_formula_sum   'K2 Li6 Ti1 Si24 Sn3 O60'
_cell_volume   1296.67546168
_cell_formula_units_Z   1
loop_
 _symmetry_equiv_pos_site_id
 _symmetry_equiv_pos_as_xyz
  1  'x, y, z'
loop_
 _atom_site_type_symbol
 _atom_site_label
 _atom_site_symmetry_multiplicity
 _atom_site_fract_x
 _atom_site_fract_y
 _atom_site_fract_z
 _atom_site_occupancy
  K  K0  1  0.000000  0.000000  0.250000  1
  K  K1  1  0.000000  0.000000  0.750000  1
  Li  Li2  1  0.496402  0.503598  0.250000  1
  Li  Li3  1  0.499941  0.999883  0.750000  1
  Li  Li4  1  0.000117  0.500059  0.750000  1
  Li  Li5  1  0.499941  0.500059  0.750000  1
  Li  Li6  1  0.496402  0.992803  0.250000  1
  Li  Li7  1  0.007197  0.503598  0.250000  1
  Ti  Ti8  1  0.333333  0.666667  0.250000  1
  Si  Si9  1  0.761990  0.118082  0.891634  1
  Si  Si10  1  0.881918  0.643908  0.891634  1
  Si  Si11  1  0.356092  0.238010  0.891634  1
  Si  Si12  1  0.643217  0.761443  0.891987  1
  Si  Si13  1  0.238557  0.356783  0.608013  1
  Si  Si14  1  0.238557  0.881774  0.891987  1
  Si  Si15  1  0.118226  0.356783  0.891987  1
  Si  Si16  1  0.881918  0.238010  0.608366  1
  Si  Si17  1  0.356092  0.118082  0.608366  1
  Si  Si18  1  0.643217  0.881774  0.608013  1
  Si  Si19  1  0.118226  0.761443  0.608013  1
  Si  Si20  1  0.761990  0.643908  0.608366  1
  Si  Si21  1  0.237856  0.879527  0.109816  1
  Si  Si22  1  0.120473  0.358329  0.109816  1
  Si  Si23  1  0.641671  0.762144  0.109816  1
  Si  Si24  1  0.237856  0.358329  0.390184  1
  Si  Si25  1  0.762998  0.643524  0.390617  1
  Si  Si26  1  0.762998  0.119474  0.109383  1
  Si  Si27  1  0.880526  0.643524  0.109383  1
  Si  Si28  1  0.120473  0.762144  0.390184  1
  Si  Si29  1  0.641671  0.879527  0.390184  1
  Si  Si30  1  0.356476  0.119474  0.390617  1
  Si  Si31  1  0.880526  0.237002  0.390617  1
  Si  Si32  1  0.356476  0.237002  0.109383  1
  Sn  Sn33  1  0.666667  0.333333  0.250000  1
  Sn  Sn34  1  0.666667  0.333333  0.750000  1
  Sn  Sn35  1  0.333333  0.666667  0.750000  1
  O  O36  1  0.221143  0.276355  0.132643  1
  O  O37  1  0.157303  0.656016  0.672706  1
  O  O38  1  0.157303  0.501287  0.827294  1
  O  O39  1  0.498713  0.842697  0.672706  1
  O  O40  1  0.500925  0.157222  0.672841  1
  O  O41  1  0.656297  0.499075  0.672841  1
  O  O42  1  0.343984  0.501287  0.672706  1
  O  O43  1  0.656297  0.157222  0.827159  1
  O  O44  1  0.500925  0.343703  0.827159  1
  O  O45  1  0.498713  0.656016  0.827294  1
  O  O46  1  0.343984  0.842697  0.827294  1
  O  O47  1  0.842778  0.499075  0.827159  1
  O  O48  1  0.169161  0.663699  0.325262  1
  O  O49  1  0.336301  0.505462  0.325262  1
  O  O50  1  0.494538  0.830839  0.325262  1
  O  O51  1  0.501058  0.155930  0.326661  1
  O  O52  1  0.844070  0.498942  0.173339  1
  O  O53  1  0.844070  0.345128  0.326661  1
  O  O54  1  0.654872  0.498942  0.326661  1
  O  O55  1  0.336301  0.830839  0.174738  1
  O  O56  1  0.494538  0.663699  0.174738  1
  O  O57  1  0.501058  0.345128  0.173339  1
  O  O58  1  0.654872  0.155930  0.173339  1
  O  O59  1  0.056871  0.279024  0.631855  1
  O  O60  1  0.777594  0.056333  0.632082  1
  O  O61  1  0.943667  0.721260  0.632082  1
  O  O62  1  0.278740  0.222406  0.632082  1
  O  O63  1  0.720976  0.777847  0.631855  1
  O  O64  1  0.222153  0.279024  0.868145  1
  O  O65  1  0.222153  0.943129  0.631855  1
  O  O66  1  0.133625  0.402153  0.000792  1
  O  O67  1  0.733361  0.133708  0.000456  1
  O  O68  1  0.400348  0.266639  0.000456  1
  O  O69  1  0.597847  0.731471  0.000792  1
  O  O70  1  0.268529  0.866375  0.000792  1
  O  O71  1  0.733361  0.599652  0.499544  1
  O  O72  1  0.866292  0.266639  0.499544  1
  O  O73  1  0.866292  0.599652  0.000456  1
  O  O74  1  0.400348  0.133708  0.499544  1
  O  O75  1  0.597847  0.866375  0.499208  1
  O  O76  1  0.268529  0.402153  0.499208  1
  O  O77  1  0.133625  0.731471  0.499208  1
  O  O78  1  0.842778  0.343703  0.672841  1
  O  O79  1  0.944444  0.226375  0.133899  1
  O  O80  1  0.281931  0.055556  0.133899  1
  O  O81  1  0.723645  0.944787  0.132643  1
  O  O82  1  0.055213  0.778857  0.132643  1
  O  O83  1  0.944444  0.718069  0.366101  1
  O  O84  1  0.773625  0.055556  0.366101  1
  O  O85  1  0.773625  0.718069  0.133899  1
  O  O86  1  0.281931  0.226375  0.366101  1
  O  O87  1  0.723645  0.778857  0.367357  1
  O  O88  1  0.055213  0.276355  0.367357  1
  O  O89  1  0.221143  0.944787  0.367357  1
  O  O90  1  0.777594  0.721260  0.867918  1
  O  O91  1  0.056871  0.777847  0.868145  1
  O  O92  1  0.720976  0.943129  0.868145  1
  O  O93  1  0.278740  0.056333  0.867918  1
  O  O94  1  0.943667  0.222406  0.867918  1
  O  O95  1  0.169161  0.505462  0.174738  1
