# generated using pymatgen
data_RbAlVF6
_symmetry_space_group_name_H-M   'P 1'
_cell_length_a   7.20118500
_cell_length_b   7.33680100
_cell_length_c   10.11469800
_cell_angle_alpha   90.00000000
_cell_angle_beta   90.00000000
_cell_angle_gamma   90.00000000
_symmetry_Int_Tables_number   1
_chemical_formula_structural   RbAlVF6
_chemical_formula_sum   'Rb4 Al4 V4 F24'
_cell_volume   534.39652838
_cell_formula_units_Z   4
loop_
 _symmetry_equiv_pos_site_id
 _symmetry_equiv_pos_as_xyz
  1  'x, y, z'
loop_
 _atom_site_type_symbol
 _atom_site_label
 _atom_site_symmetry_multiplicity
 _atom_site_fract_x
 _atom_site_fract_y
 _atom_site_fract_z
 _atom_site_occupancy
  Rb  Rb0  1  0.250000  0.482297  0.871450  1
  Rb  Rb1  1  0.750000  0.017703  0.371450  1
  Rb  Rb2  1  0.750000  0.517703  0.128550  1
  Rb  Rb3  1  0.250000  0.982297  0.628550  1
  Al  Al4  1  0.000000  0.500000  0.500000  1
  Al  Al5  1  0.500000  0.500000  0.500000  1
  Al  Al6  1  0.500000  0.000000  0.000000  1
  Al  Al7  1  0.000000  0.000000  0.000000  1
  V  V8  1  0.750000  0.217997  0.737875  1
  V  V9  1  0.750000  0.717997  0.762125  1
  V  V10  1  0.250000  0.282003  0.237875  1
  V  V11  1  0.250000  0.782003  0.262125  1
  F  F12  1  0.543017  0.794695  0.903473  1
  F  F13  1  0.043017  0.205305  0.096527  1
  F  F14  1  0.956983  0.294695  0.596527  1
  F  F15  1  0.456983  0.705305  0.403473  1
  F  F16  1  0.456983  0.205305  0.096527  1
  F  F17  1  0.956983  0.794695  0.903473  1
  F  F18  1  0.043017  0.705305  0.403473  1
  F  F19  1  0.543017  0.294695  0.596527  1
  F  F20  1  0.990258  0.637518  0.649126  1
  F  F21  1  0.490258  0.362482  0.350874  1
  F  F22  1  0.509742  0.137518  0.850874  1
  F  F23  1  0.009742  0.862482  0.149126  1
  F  F24  1  0.750000  0.960189  0.650746  1
  F  F25  1  0.250000  0.039811  0.349254  1
  F  F26  1  0.750000  0.460189  0.849254  1
  F  F27  1  0.250000  0.539811  0.150746  1
  F  F28  1  0.750000  0.035265  0.026799  1
  F  F29  1  0.250000  0.964735  0.973201  1
  F  F30  1  0.750000  0.535265  0.473201  1
  F  F31  1  0.250000  0.464735  0.526799  1
  F  F32  1  0.990258  0.137518  0.850874  1
  F  F33  1  0.490258  0.862482  0.149126  1
  F  F34  1  0.509742  0.637518  0.649126  1
  F  F35  1  0.009742  0.362482  0.350874  1
