# generated using pymatgen
data_Sr4ZnSnPt4
_symmetry_space_group_name_H-M   'P 1'
_cell_length_a   5.89886008
_cell_length_b   5.89886010
_cell_length_c   8.31144670
_cell_angle_alpha   79.54349130
_cell_angle_beta   79.54348834
_cell_angle_gamma   61.80608831
_symmetry_Int_Tables_number   1
_chemical_formula_structural   Sr4ZnSnPt4
_chemical_formula_sum   'Sr4 Zn1 Sn1 Pt4'
_cell_volume   249.12883452
_cell_formula_units_Z   1
loop_
 _symmetry_equiv_pos_site_id
 _symmetry_equiv_pos_as_xyz
  1  'x, y, z'
loop_
 _atom_site_type_symbol
 _atom_site_label
 _atom_site_symmetry_multiplicity
 _atom_site_fract_x
 _atom_site_fract_y
 _atom_site_fract_z
 _atom_site_occupancy
  Sr  Sr0  1  0.781661  0.516721  0.849664  1
  Sr  Sr1  1  0.483279  0.218339  0.650336  1
  Sr  Sr2  1  0.210538  0.490491  0.147171  1
  Sr  Sr3  1  0.509509  0.789462  0.352829  1
  Zn  Zn4  1  0.888223  0.111777  0.250000  1
  Sn  Sn5  1  0.132814  0.867186  0.750000  1
  Pt  Pt6  1  0.995168  0.729312  0.495628  1
  Pt  Pt7  1  0.270688  0.004832  0.004372  1
  Pt  Pt8  1  0.992845  0.264725  0.491015  1
  Pt  Pt9  1  0.735275  0.007155  0.008985  1
