# generated using pymatgen
data_Th2Si7(IrRh)6
_symmetry_space_group_name_H-M   'P 1'
_cell_length_a   9.78683700
_cell_length_b   9.78683648
_cell_length_c   3.91802800
_cell_angle_alpha   90.00000000
_cell_angle_beta   90.00000000
_cell_angle_gamma   120.00001189
_symmetry_Int_Tables_number   1
_chemical_formula_structural   Th2Si7(IrRh)6
_chemical_formula_sum   'Th2 Si7 Ir6 Rh6'
_cell_volume   324.99958197
_cell_formula_units_Z   1
loop_
 _symmetry_equiv_pos_site_id
 _symmetry_equiv_pos_as_xyz
  1  'x, y, z'
loop_
 _atom_site_type_symbol
 _atom_site_label
 _atom_site_symmetry_multiplicity
 _atom_site_fract_x
 _atom_site_fract_y
 _atom_site_fract_z
 _atom_site_occupancy
  Th  Th0  1  0.333333  0.666667  0.748446  1
  Th  Th1  1  0.666667  0.333333  0.251554  1
  Si  Si2  1  0.000000  0.000000  0.500000  1
  Si  Si3  1  0.891635  0.602476  0.751294  1
  Si  Si4  1  0.397524  0.289161  0.751294  1
  Si  Si5  1  0.710839  0.108365  0.751294  1
  Si  Si6  1  0.108365  0.397524  0.248706  1
  Si  Si7  1  0.602476  0.710839  0.248706  1
  Si  Si8  1  0.289161  0.891635  0.248706  1
  Ir  Ir9  1  0.620941  0.555909  0.751941  1
  Ir  Ir10  1  0.444091  0.065033  0.751941  1
  Ir  Ir11  1  0.934967  0.379059  0.751941  1
  Ir  Ir12  1  0.379059  0.444091  0.248059  1
  Ir  Ir13  1  0.555909  0.934967  0.248059  1
  Ir  Ir14  1  0.065033  0.620941  0.248059  1
  Rh  Rh15  1  0.118728  0.857416  0.745460  1
  Rh  Rh16  1  0.142584  0.261312  0.745460  1
  Rh  Rh17  1  0.738688  0.881272  0.745460  1
  Rh  Rh18  1  0.881272  0.142584  0.254540  1
  Rh  Rh19  1  0.857416  0.738688  0.254540  1
  Rh  Rh20  1  0.261312  0.118728  0.254540  1
