# generated using pymatgen
data_Dy2Ho10Os3Pt
_symmetry_space_group_name_H-M   'P 1'
_cell_length_a   6.38493854
_cell_length_b   7.33330646
_cell_length_c   9.02931800
_cell_angle_alpha   90.00000000
_cell_angle_beta   90.00000000
_cell_angle_gamma   90.09964419
_symmetry_Int_Tables_number   1
_chemical_formula_structural   Dy2Ho10Os3Pt
_chemical_formula_sum   'Dy2 Ho10 Os3 Pt1'
_cell_volume   422.77650837
_cell_formula_units_Z   1
loop_
 _symmetry_equiv_pos_site_id
 _symmetry_equiv_pos_as_xyz
  1  'x, y, z'
loop_
 _atom_site_type_symbol
 _atom_site_label
 _atom_site_symmetry_multiplicity
 _atom_site_fract_x
 _atom_site_fract_y
 _atom_site_fract_z
 _atom_site_occupancy
  Dy  Dy0  1  0.871125  0.534064  0.250000  1
  Dy  Dy1  1  0.624962  0.039365  0.250000  1
  Ho  Ho2  1  0.335705  0.671418  0.059431  1
  Ho  Ho3  1  0.171219  0.181717  0.440998  1
  Ho  Ho4  1  0.670232  0.323731  0.563282  1
  Ho  Ho5  1  0.824868  0.823671  0.932868  1
  Ho  Ho6  1  0.670232  0.323731  0.936718  1
  Ho  Ho7  1  0.824868  0.823671  0.567132  1
  Ho  Ho8  1  0.335705  0.671418  0.440569  1
  Ho  Ho9  1  0.171219  0.181717  0.059002  1
  Ho  Ho10  1  0.126826  0.461937  0.750000  1
  Ho  Ho11  1  0.368646  0.962250  0.750000  1
  Os  Os12  1  0.459805  0.383942  0.250000  1
  Os  Os13  1  0.963451  0.114947  0.750000  1
  Os  Os14  1  0.535151  0.615745  0.750000  1
  Pt  Pt15  1  0.045988  0.886676  0.250000  1
