# generated using pymatgen
data_Lu10In3Ru
_symmetry_space_group_name_H-M   'P 1'
_cell_length_a   9.50861800
_cell_length_b   9.50861686
_cell_length_c   9.57330300
_cell_angle_alpha   90.00000000
_cell_angle_beta   90.00000000
_cell_angle_gamma   119.99999702
_symmetry_Int_Tables_number   1
_chemical_formula_structural   Lu10In3Ru
_chemical_formula_sum   'Lu20 In6 Ru2'
_cell_volume   749.59589234
_cell_formula_units_Z   2
loop_
 _symmetry_equiv_pos_site_id
 _symmetry_equiv_pos_as_xyz
  1  'x, y, z'
loop_
 _atom_site_type_symbol
 _atom_site_label
 _atom_site_symmetry_multiplicity
 _atom_site_fract_x
 _atom_site_fract_y
 _atom_site_fract_z
 _atom_site_occupancy
  Lu  Lu0  1  0.000000  0.000000  0.500000  1
  Lu  Lu1  1  0.000000  0.000000  0.000000  1
  Lu  Lu2  1  0.209916  0.790084  0.438817  1
  Lu  Lu3  1  0.209916  0.419834  0.438817  1
  Lu  Lu4  1  0.580166  0.790084  0.438817  1
  Lu  Lu5  1  0.790084  0.209916  0.561183  1
  Lu  Lu6  1  0.790084  0.580166  0.561183  1
  Lu  Lu7  1  0.419834  0.209916  0.561183  1
  Lu  Lu8  1  0.790084  0.209916  0.938817  1
  Lu  Lu9  1  0.790084  0.580166  0.938817  1
  Lu  Lu10  1  0.419834  0.209916  0.938817  1
  Lu  Lu11  1  0.209916  0.790084  0.061183  1
  Lu  Lu12  1  0.209916  0.419834  0.061183  1
  Lu  Lu13  1  0.580166  0.790084  0.061183  1
  Lu  Lu14  1  0.538364  0.461636  0.250000  1
  Lu  Lu15  1  0.538364  0.076729  0.250000  1
  Lu  Lu16  1  0.923271  0.461636  0.250000  1
  Lu  Lu17  1  0.461636  0.538364  0.750000  1
  Lu  Lu18  1  0.461636  0.923271  0.750000  1
  Lu  Lu19  1  0.076729  0.538364  0.750000  1
  In  In20  1  0.884333  0.115667  0.250000  1
  In  In21  1  0.884333  0.768667  0.250000  1
  In  In22  1  0.231333  0.115667  0.250000  1
  In  In23  1  0.115667  0.884333  0.750000  1
  In  In24  1  0.115667  0.231333  0.750000  1
  In  In25  1  0.768667  0.884333  0.750000  1
  Ru  Ru26  1  0.333333  0.666667  0.250000  1
  Ru  Ru27  1  0.666667  0.333333  0.750000  1
