# generated using pymatgen
data_La4CeNd3Te8
_symmetry_space_group_name_H-M   'P 1'
_cell_length_a   9.09938443
_cell_length_b   9.09938455
_cell_length_c   9.09938300
_cell_angle_alpha   59.80322691
_cell_angle_beta   59.80323377
_cell_angle_gamma   59.80322542
_symmetry_Int_Tables_number   1
_chemical_formula_structural   La4CeNd3Te8
_chemical_formula_sum   'La4 Ce1 Nd3 Te8'
_cell_volume   530.36729228
_cell_formula_units_Z   1
loop_
 _symmetry_equiv_pos_site_id
 _symmetry_equiv_pos_as_xyz
  1  'x, y, z'
loop_
 _atom_site_type_symbol
 _atom_site_label
 _atom_site_symmetry_multiplicity
 _atom_site_fract_x
 _atom_site_fract_y
 _atom_site_fract_z
 _atom_site_occupancy
  La  La0  1  0.125000  0.625000  0.125000  1
  La  La1  1  0.125000  0.125000  0.625000  1
  La  La2  1  0.625000  0.125000  0.125000  1
  La  La3  1  0.125000  0.125000  0.125000  1
  Ce  Ce4  1  0.625000  0.625000  0.625000  1
  Nd  Nd5  1  0.625000  0.125000  0.625000  1
  Nd  Nd6  1  0.125000  0.625000  0.625000  1
  Nd  Nd7  1  0.625000  0.625000  0.125000  1
  Te  Te8  1  0.376605  0.869917  0.376605  1
  Te  Te9  1  0.873395  0.380083  0.873395  1
  Te  Te10  1  0.873395  0.873395  0.380083  1
  Te  Te11  1  0.873275  0.873275  0.873275  1
  Te  Te12  1  0.869917  0.376605  0.376605  1
  Te  Te13  1  0.376605  0.376605  0.869917  1
  Te  Te14  1  0.376725  0.376725  0.376725  1
  Te  Te15  1  0.380083  0.873395  0.873395  1
