# generated using pymatgen
data_Tb3Er3FeTe2
_symmetry_space_group_name_H-M   'P 1'
_cell_length_a   8.33174400
_cell_length_b   8.33174353
_cell_length_c   3.94577000
_cell_angle_alpha   90.00000000
_cell_angle_beta   90.00000000
_cell_angle_gamma   119.99999391
_symmetry_Int_Tables_number   1
_chemical_formula_structural   Tb3Er3FeTe2
_chemical_formula_sum   'Tb3 Er3 Fe1 Te2'
_cell_volume   237.21067827
_cell_formula_units_Z   1
loop_
 _symmetry_equiv_pos_site_id
 _symmetry_equiv_pos_as_xyz
  1  'x, y, z'
loop_
 _atom_site_type_symbol
 _atom_site_label
 _atom_site_symmetry_multiplicity
 _atom_site_fract_x
 _atom_site_fract_y
 _atom_site_fract_z
 _atom_site_occupancy
  Tb  Tb0  1  0.000000  0.399244  0.500000  1
  Tb  Tb1  1  0.600756  0.600756  0.500000  1
  Tb  Tb2  1  0.399244  0.000000  0.500000  1
  Er  Er3  1  0.000000  0.766456  0.000000  1
  Er  Er4  1  0.233544  0.233544  0.000000  1
  Er  Er5  1  0.766456  0.000000  0.000000  1
  Fe  Fe6  1  0.000000  0.000000  0.500000  1
  Te  Te7  1  0.333333  0.666667  0.000000  1
  Te  Te8  1  0.666667  0.333333  0.000000  1
