# generated using pymatgen
data_Ac2Ga10Pt
_symmetry_space_group_name_H-M   'P 1'
_cell_length_a   4.56976611
_cell_length_b   4.56976667
_cell_length_c   13.43874545
_cell_angle_alpha   99.78910633
_cell_angle_beta   99.78910489
_cell_angle_gamma   90.00000479
_symmetry_Int_Tables_number   1
_chemical_formula_structural   Ac2Ga10Pt
_chemical_formula_sum   'Ac2 Ga10 Pt1'
_cell_volume   272.40483196
_cell_formula_units_Z   1
loop_
 _symmetry_equiv_pos_site_id
 _symmetry_equiv_pos_as_xyz
  1  'x, y, z'
loop_
 _atom_site_type_symbol
 _atom_site_label
 _atom_site_symmetry_multiplicity
 _atom_site_fract_x
 _atom_site_fract_y
 _atom_site_fract_z
 _atom_site_occupancy
  Ac  Ac0  1  0.646334  0.646334  0.292669  1
  Ac  Ac1  1  0.353666  0.353666  0.707331  1
  Ga  Ga2  1  0.551111  0.051111  0.102221  1
  Ga  Ga3  1  0.051111  0.551111  0.102221  1
  Ga  Ga4  1  0.102592  0.102592  0.205184  1
  Ga  Ga5  1  0.198607  0.198607  0.397216  1
  Ga  Ga6  1  0.750000  0.250000  0.500000  1
  Ga  Ga7  1  0.250000  0.750000  0.500000  1
  Ga  Ga8  1  0.801393  0.801393  0.602784  1
  Ga  Ga9  1  0.897408  0.897408  0.794815  1
  Ga  Ga10  1  0.948889  0.448889  0.897778  1
  Ga  Ga11  1  0.448889  0.948889  0.897778  1
  Pt  Pt12  1  0.500000  0.500000  0.000000  1
