# generated using pymatgen
data_Dy4LuIn4PtRh
_symmetry_space_group_name_H-M   'P 1'
_cell_length_a   3.61336900
_cell_length_b   8.10526356
_cell_length_c   18.21044554
_cell_angle_alpha   90.05630702
_cell_angle_beta   90.00000000
_cell_angle_gamma   90.00000000
_symmetry_Int_Tables_number   1
_chemical_formula_structural   Dy4LuIn4PtRh
_chemical_formula_sum   'Dy8 Lu2 In8 Pt2 Rh2'
_cell_volume   533.33467102
_cell_formula_units_Z   2
loop_
 _symmetry_equiv_pos_site_id
 _symmetry_equiv_pos_as_xyz
  1  'x, y, z'
loop_
 _atom_site_type_symbol
 _atom_site_label
 _atom_site_symmetry_multiplicity
 _atom_site_fract_x
 _atom_site_fract_y
 _atom_site_fract_z
 _atom_site_occupancy
  Dy  Dy0  1  0.000000  0.382714  0.913878  1
  Dy  Dy1  1  0.000000  0.617286  0.086122  1
  Dy  Dy2  1  0.000000  0.237908  0.222313  1
  Dy  Dy3  1  0.000000  0.762092  0.777687  1
  Dy  Dy4  1  0.000000  0.250581  0.719206  1
  Dy  Dy5  1  0.000000  0.749419  0.280794  1
  Dy  Dy6  1  0.000000  0.000000  0.000000  1
  Dy  Dy7  1  0.000000  0.500000  0.500000  1
  Lu  Lu8  1  0.000000  0.114891  0.412026  1
  Lu  Lu9  1  0.000000  0.885109  0.587974  1
  In  In10  1  0.500000  0.419978  0.352145  1
  In  In11  1  0.500000  0.580022  0.647855  1
  In  In12  1  0.500000  0.071891  0.849421  1
  In  In13  1  0.500000  0.928109  0.150579  1
  In  In14  1  0.500000  0.291808  0.067027  1
  In  In15  1  0.500000  0.708192  0.932973  1
  In  In16  1  0.500000  0.202589  0.565801  1
  In  In17  1  0.500000  0.797411  0.434199  1
  Pt  Pt18  1  0.500000  0.477149  0.802360  1
  Pt  Pt19  1  0.500000  0.522851  0.197640  1
  Rh  Rh20  1  0.500000  0.022997  0.306846  1
  Rh  Rh21  1  0.500000  0.977003  0.693154  1
