# generated using pymatgen
data_PrY5HfCo17P12
_symmetry_space_group_name_H-M   'P 1'
_cell_length_a   3.71132700
_cell_length_b   10.60659900
_cell_length_c   12.31229500
_cell_angle_alpha   90.00000000
_cell_angle_beta   90.00000000
_cell_angle_gamma   90.00000000
_symmetry_Int_Tables_number   1
_chemical_formula_structural   PrY5HfCo17P12
_chemical_formula_sum   'Pr1 Y5 Hf1 Co17 P12'
_cell_volume   484.66804137
_cell_formula_units_Z   1
loop_
 _symmetry_equiv_pos_site_id
 _symmetry_equiv_pos_as_xyz
  1  'x, y, z'
loop_
 _atom_site_type_symbol
 _atom_site_label
 _atom_site_symmetry_multiplicity
 _atom_site_fract_x
 _atom_site_fract_y
 _atom_site_fract_z
 _atom_site_occupancy
  Pr  Pr0  1  0.500000  0.000000  0.476894  1
  Y  Y1  1  0.000000  0.500000  0.527937  1
  Y  Y2  1  0.500000  0.820862  0.206267  1
  Y  Y3  1  0.500000  0.179138  0.206267  1
  Y  Y4  1  0.000000  0.682288  0.796331  1
  Y  Y5  1  0.000000  0.317712  0.796331  1
  Hf  Hf6  1  0.500000  0.500000  0.153021  1
  Co  Co7  1  0.000000  0.000000  0.840081  1
  Co  Co8  1  0.500000  0.500000  0.704012  1
  Co  Co9  1  0.000000  0.000000  0.293096  1
  Co  Co10  1  0.000000  0.500000  0.984541  1
  Co  Co11  1  0.500000  0.000000  0.012201  1
  Co  Co12  1  0.500000  0.327898  0.989840  1
  Co  Co13  1  0.500000  0.672102  0.989840  1
  Co  Co14  1  0.000000  0.162563  0.002021  1
  Co  Co15  1  0.000000  0.837437  0.002021  1
  Co  Co16  1  0.500000  0.297758  0.433308  1
  Co  Co17  1  0.500000  0.702242  0.433308  1
  Co  Co18  1  0.000000  0.206412  0.571045  1
  Co  Co19  1  0.000000  0.793588  0.571045  1
  Co  Co20  1  0.500000  0.879765  0.709617  1
  Co  Co21  1  0.500000  0.120235  0.709617  1
  Co  Co22  1  0.000000  0.621135  0.293897  1
  Co  Co23  1  0.000000  0.378865  0.293897  1
  P  P24  1  0.500000  0.500000  0.882261  1
  P  P25  1  0.000000  0.000000  0.114942  1
  P  P26  1  0.500000  0.500000  0.359673  1
  P  P27  1  0.000000  0.000000  0.659915  1
  P  P28  1  0.500000  0.310186  0.617992  1
  P  P29  1  0.500000  0.689814  0.617992  1
  P  P30  1  0.000000  0.193353  0.384872  1
  P  P31  1  0.000000  0.806647  0.384872  1
  P  P32  1  0.500000  0.850970  0.889736  1
  P  P33  1  0.500000  0.149030  0.889736  1
  P  P34  1  0.000000  0.663721  0.100784  1
  P  P35  1  0.000000  0.336279  0.100784  1
