# generated using pymatgen
data_PrNbCo3P3Rh
_symmetry_space_group_name_H-M   'P 1'
_cell_length_a   3.78567600
_cell_length_b   10.68919500
_cell_length_c   12.47955700
_cell_angle_alpha   90.00000000
_cell_angle_beta   90.00000000
_cell_angle_gamma   90.00000000
_symmetry_Int_Tables_number   1
_chemical_formula_structural   PrNbCo3P3Rh
_chemical_formula_sum   'Pr4 Nb4 Co12 P12 Rh4'
_cell_volume   504.99561919
_cell_formula_units_Z   4
loop_
 _symmetry_equiv_pos_site_id
 _symmetry_equiv_pos_as_xyz
  1  'x, y, z'
loop_
 _atom_site_type_symbol
 _atom_site_label
 _atom_site_symmetry_multiplicity
 _atom_site_fract_x
 _atom_site_fract_y
 _atom_site_fract_z
 _atom_site_occupancy
  Pr  Pr0  1  0.250000  0.582644  0.708890  1
  Pr  Pr1  1  0.250000  0.917356  0.208890  1
  Pr  Pr2  1  0.750000  0.417356  0.291110  1
  Pr  Pr3  1  0.750000  0.082644  0.791110  1
  Nb  Nb4  1  0.250000  0.702619  0.989662  1
  Nb  Nb5  1  0.250000  0.797381  0.489662  1
  Nb  Nb6  1  0.750000  0.297381  0.010338  1
  Nb  Nb7  1  0.750000  0.202619  0.510338  1
  Co  Co8  1  0.250000  0.222550  0.177694  1
  Co  Co9  1  0.250000  0.277450  0.677694  1
  Co  Co10  1  0.750000  0.777450  0.822306  1
  Co  Co11  1  0.750000  0.722550  0.322306  1
  Co  Co12  1  0.250000  0.885363  0.696898  1
  Co  Co13  1  0.250000  0.614637  0.196898  1
  Co  Co14  1  0.750000  0.114637  0.303102  1
  Co  Co15  1  0.750000  0.385363  0.803102  1
  Co  Co16  1  0.250000  0.466025  0.934296  1
  Co  Co17  1  0.250000  0.033975  0.434296  1
  Co  Co18  1  0.750000  0.533975  0.065704  1
  Co  Co19  1  0.750000  0.966025  0.565704  1
  P  P20  1  0.250000  0.422765  0.111392  1
  P  P21  1  0.250000  0.077235  0.611392  1
  P  P22  1  0.750000  0.577235  0.888608  1
  P  P23  1  0.750000  0.922765  0.388608  1
  P  P24  1  0.250000  0.278081  0.858915  1
  P  P25  1  0.250000  0.221919  0.358915  1
  P  P26  1  0.750000  0.721919  0.141085  1
  P  P27  1  0.750000  0.778081  0.641085  1
  P  P28  1  0.250000  0.603786  0.382139  1
  P  P29  1  0.250000  0.896214  0.882139  1
  P  P30  1  0.750000  0.396214  0.617861  1
  P  P31  1  0.750000  0.103786  0.117861  1
  Rh  Rh32  1  0.250000  0.402776  0.486514  1
  Rh  Rh33  1  0.250000  0.097224  0.986514  1
  Rh  Rh34  1  0.750000  0.597224  0.513486  1
  Rh  Rh35  1  0.750000  0.902776  0.013486  1
