# generated using pymatgen
data_Sm3CdIr8
_symmetry_space_group_name_H-M   'P 1'
_cell_length_a   5.35126000
_cell_length_b   5.35125941
_cell_length_c   8.69676800
_cell_angle_alpha   90.00000000
_cell_angle_beta   90.00000000
_cell_angle_gamma   119.99999127
_symmetry_Int_Tables_number   1
_chemical_formula_structural   Sm3CdIr8
_chemical_formula_sum   'Sm3 Cd1 Ir8'
_cell_volume   215.67539976
_cell_formula_units_Z   1
loop_
 _symmetry_equiv_pos_site_id
 _symmetry_equiv_pos_as_xyz
  1  'x, y, z'
loop_
 _atom_site_type_symbol
 _atom_site_label
 _atom_site_symmetry_multiplicity
 _atom_site_fract_x
 _atom_site_fract_y
 _atom_site_fract_z
 _atom_site_occupancy
  Sm  Sm0  1  0.333333  0.666667  0.081311  1
  Sm  Sm1  1  0.666667  0.333333  0.557299  1
  Sm  Sm2  1  0.666667  0.333333  0.928847  1
  Cd  Cd3  1  0.333333  0.666667  0.443667  1
  Ir  Ir4  1  0.000000  0.000000  0.996207  1
  Ir  Ir5  1  0.000000  0.000000  0.497125  1
  Ir  Ir6  1  0.830919  0.661838  0.249716  1
  Ir  Ir7  1  0.170144  0.829856  0.748798  1
  Ir  Ir8  1  0.659713  0.829856  0.748798  1
  Ir  Ir9  1  0.338162  0.169081  0.249716  1
  Ir  Ir10  1  0.830919  0.169081  0.249716  1
  Ir  Ir11  1  0.170144  0.340287  0.748798  1
