# generated using pymatgen
data_YTmP7Ru12
_symmetry_space_group_name_H-M   'P 1'
_cell_length_a   9.40489400
_cell_length_b   9.40489339
_cell_length_c   3.95673200
_cell_angle_alpha   90.00000000
_cell_angle_beta   90.00000000
_cell_angle_gamma   119.99999510
_symmetry_Int_Tables_number   1
_chemical_formula_structural   YTmP7Ru12
_chemical_formula_sum   'Y1 Tm1 P7 Ru12'
_cell_volume   303.09241675
_cell_formula_units_Z   1
loop_
 _symmetry_equiv_pos_site_id
 _symmetry_equiv_pos_as_xyz
  1  'x, y, z'
loop_
 _atom_site_type_symbol
 _atom_site_label
 _atom_site_symmetry_multiplicity
 _atom_site_fract_x
 _atom_site_fract_y
 _atom_site_fract_z
 _atom_site_occupancy
  Y  Y0  1  0.333333  0.666667  0.000000  1
  Tm  Tm1  1  0.666667  0.333333  0.500000  1
  P  P2  1  0.601101  0.718817  0.500000  1
  P  P3  1  0.000000  0.000000  0.000000  1
  P  P4  1  0.281183  0.882284  0.500000  1
  P  P5  1  0.117716  0.398899  0.500000  1
  P  P6  1  0.884846  0.573101  0.000000  1
  P  P7  1  0.426899  0.311745  0.000000  1
  P  P8  1  0.688255  0.115154  0.000000  1
  Ru  Ru9  1  0.556793  0.951032  0.500000  1
  Ru  Ru10  1  0.394240  0.443207  0.500000  1
  Ru  Ru11  1  0.914844  0.121623  0.500000  1
  Ru  Ru12  1  0.206779  0.085156  0.500000  1
  Ru  Ru13  1  0.878377  0.793221  0.500000  1
  Ru  Ru14  1  0.727771  0.892401  0.000000  1
  Ru  Ru15  1  0.107599  0.835368  0.000000  1
  Ru  Ru16  1  0.164632  0.272229  0.000000  1
  Ru  Ru17  1  0.423731  0.067205  0.000000  1
  Ru  Ru18  1  0.932795  0.356527  0.000000  1
  Ru  Ru19  1  0.643473  0.576269  0.000000  1
  Ru  Ru20  1  0.048968  0.605760  0.500000  1
