# generated using pymatgen
data_ErTh3(ZnRu)4
_symmetry_space_group_name_H-M   'P 1'
_cell_length_a   4.00022200
_cell_length_b   7.00646694
_cell_length_c   8.41713080
_cell_angle_alpha   90.35659370
_cell_angle_beta   90.00000000
_cell_angle_gamma   90.00000000
_symmetry_Int_Tables_number   1
_chemical_formula_structural   ErTh3(ZnRu)4
_chemical_formula_sum   'Er1 Th3 Zn4 Ru4'
_cell_volume   235.90591790
_cell_formula_units_Z   1
loop_
 _symmetry_equiv_pos_site_id
 _symmetry_equiv_pos_as_xyz
  1  'x, y, z'
loop_
 _atom_site_type_symbol
 _atom_site_label
 _atom_site_symmetry_multiplicity
 _atom_site_fract_x
 _atom_site_fract_y
 _atom_site_fract_z
 _atom_site_occupancy
  Er  Er0  1  0.250000  0.042639  0.314405  1
  Th  Th1  1  0.250000  0.540824  0.188348  1
  Th  Th2  1  0.750000  0.463496  0.815878  1
  Th  Th3  1  0.750000  0.959021  0.677631  1
  Zn  Zn4  1  0.250000  0.625414  0.553558  1
  Zn  Zn5  1  0.750000  0.358765  0.443681  1
  Zn  Zn6  1  0.750000  0.882395  0.062925  1
  Zn  Zn7  1  0.250000  0.126000  0.949050  1
  Ru  Ru8  1  0.250000  0.746782  0.866547  1
  Ru  Ru9  1  0.750000  0.267844  0.127532  1
  Ru  Ru10  1  0.750000  0.745707  0.365473  1
  Ru  Ru11  1  0.250000  0.241113  0.634973  1
