# generated using pymatgen
data_DyEr7SiPd24
_symmetry_space_group_name_H-M   'P 1'
_cell_length_a   8.30459600
_cell_length_b   8.30459600
_cell_length_c   8.30459600
_cell_angle_alpha   90.00049675
_cell_angle_beta   90.00049675
_cell_angle_gamma   90.00049674
_symmetry_Int_Tables_number   1
_chemical_formula_structural   DyEr7SiPd24
_chemical_formula_sum   'Dy1 Er7 Si1 Pd24'
_cell_volume   572.73738139
_cell_formula_units_Z   1
loop_
 _symmetry_equiv_pos_site_id
 _symmetry_equiv_pos_as_xyz
  1  'x, y, z'
loop_
 _atom_site_type_symbol
 _atom_site_label
 _atom_site_symmetry_multiplicity
 _atom_site_fract_x
 _atom_site_fract_y
 _atom_site_fract_z
 _atom_site_occupancy
  Dy  Dy0  1  0.253777  0.253777  0.253777  1
  Er  Er1  1  0.746085  0.746085  0.746085  1
  Er  Er2  1  0.746086  0.746086  0.253922  1
  Er  Er3  1  0.746086  0.253922  0.746086  1
  Er  Er4  1  0.253881  0.253881  0.746146  1
  Er  Er5  1  0.253881  0.746146  0.253881  1
  Er  Er6  1  0.253922  0.746086  0.746086  1
  Er  Er7  1  0.746146  0.253881  0.253881  1
  Si  Si8  1  0.000039  0.000039  0.000039  1
  Pd  Pd9  1  0.257185  0.500437  0.999533  1
  Pd  Pd10  1  0.742805  0.500052  0.999953  1
  Pd  Pd11  1  0.999533  0.257185  0.500437  1
  Pd  Pd12  1  0.500437  0.257185  0.999533  1
  Pd  Pd13  1  0.999953  0.742805  0.500052  1
  Pd  Pd14  1  0.500052  0.742805  0.999953  1
  Pd  Pd15  1  0.500437  0.999533  0.257185  1
  Pd  Pd16  1  0.257185  0.999533  0.500437  1
  Pd  Pd17  1  0.500052  0.999953  0.742805  1
  Pd  Pd18  1  0.742805  0.999953  0.500052  1
  Pd  Pd19  1  0.999533  0.500437  0.257185  1
  Pd  Pd20  1  0.999953  0.500052  0.742805  1
  Pd  Pd21  1  0.252127  0.500506  0.500506  1
  Pd  Pd22  1  0.747879  0.500053  0.500053  1
  Pd  Pd23  1  0.500506  0.252127  0.500506  1
  Pd  Pd24  1  0.500053  0.747879  0.500053  1
  Pd  Pd25  1  0.500506  0.500506  0.252127  1
  Pd  Pd26  1  0.500053  0.500053  0.747879  1
  Pd  Pd27  1  0.280079  0.999496  0.999496  1
  Pd  Pd28  1  0.720061  0.999957  0.999957  1
  Pd  Pd29  1  0.999496  0.280079  0.999496  1
  Pd  Pd30  1  0.999957  0.720061  0.999957  1
  Pd  Pd31  1  0.999496  0.999496  0.280079  1
  Pd  Pd32  1  0.999957  0.999957  0.720061  1
