# generated using pymatgen
data_Fe3Si2Ni3Mo3W
_symmetry_space_group_name_H-M   'P 1'
_cell_length_a   4.74653900
_cell_length_b   4.74653844
_cell_length_c   7.63364300
_cell_angle_alpha   90.00000000
_cell_angle_beta   90.00000000
_cell_angle_gamma   119.99999691
_symmetry_Int_Tables_number   1
_chemical_formula_structural   Fe3Si2Ni3Mo3W
_chemical_formula_sum   'Fe3 Si2 Ni3 Mo3 W1'
_cell_volume   148.94178251
_cell_formula_units_Z   1
loop_
 _symmetry_equiv_pos_site_id
 _symmetry_equiv_pos_as_xyz
  1  'x, y, z'
loop_
 _atom_site_type_symbol
 _atom_site_label
 _atom_site_symmetry_multiplicity
 _atom_site_fract_x
 _atom_site_fract_y
 _atom_site_fract_z
 _atom_site_occupancy
  Fe  Fe0  1  0.830382  0.169618  0.250703  1
  Fe  Fe1  1  0.830382  0.660763  0.250703  1
  Fe  Fe2  1  0.339237  0.169618  0.250703  1
  Si  Si3  1  0.000000  0.000000  0.507284  1
  Si  Si4  1  0.000000  0.000000  0.993353  1
  Ni  Ni5  1  0.170086  0.829914  0.749591  1
  Ni  Ni6  1  0.170086  0.340171  0.749591  1
  Ni  Ni7  1  0.659829  0.829914  0.749591  1
  Mo  Mo8  1  0.666667  0.333333  0.561208  1
  Mo  Mo9  1  0.666667  0.333333  0.938870  1
  Mo  Mo10  1  0.333333  0.666667  0.063894  1
  W  W11  1  0.333333  0.666667  0.434508  1
