# generated using pymatgen
data_Dy3ErPd4F28
_symmetry_space_group_name_H-M   'P 1'
_cell_length_a   5.52004867
_cell_length_b   8.83317044
_cell_length_c   11.93164100
_cell_angle_alpha   62.53739221
_cell_angle_beta   89.97185058
_cell_angle_gamma   89.99179884
_symmetry_Int_Tables_number   1
_chemical_formula_structural   Dy3ErPd4F28
_chemical_formula_sum   'Dy3 Er1 Pd4 F28'
_cell_volume   516.22138324
_cell_formula_units_Z   1
loop_
 _symmetry_equiv_pos_site_id
 _symmetry_equiv_pos_as_xyz
  1  'x, y, z'
loop_
 _atom_site_type_symbol
 _atom_site_label
 _atom_site_symmetry_multiplicity
 _atom_site_fract_x
 _atom_site_fract_y
 _atom_site_fract_z
 _atom_site_occupancy
  Dy  Dy0  1  0.762403  0.812933  0.764432  1
  Dy  Dy1  1  0.262308  0.186901  0.735522  1
  Dy  Dy2  1  0.237921  0.185681  0.235714  1
  Er  Er3  1  0.737468  0.813130  0.264088  1
  Pd  Pd4  1  0.758834  0.272087  0.957139  1
  Pd  Pd5  1  0.259232  0.727609  0.542503  1
  Pd  Pd6  1  0.240297  0.727513  0.044138  1
  Pd  Pd7  1  0.740813  0.273471  0.456218  1
  F  F8  1  0.433309  0.702261  0.917370  1
  F  F9  1  0.932564  0.298312  0.583433  1
  F  F10  1  0.566924  0.297524  0.084045  1
  F  F11  1  0.066083  0.702373  0.415877  1
  F  F12  1  0.439446  0.278092  0.540503  1
  F  F13  1  0.939937  0.722378  0.959454  1
  F  F14  1  0.560499  0.723280  0.457573  1
  F  F15  1  0.060180  0.276957  0.041175  1
  F  F16  1  0.776767  0.520093  0.859180  1
  F  F17  1  0.277674  0.479797  0.640378  1
  F  F18  1  0.222973  0.479472  0.141636  1
  F  F19  1  0.723468  0.521847  0.358570  1
  F  F20  1  0.753008  0.024518  0.049446  1
  F  F21  1  0.252636  0.975072  0.450886  1
  F  F22  1  0.246582  0.974986  0.951801  1
  F  F23  1  0.746791  0.025965  0.548305  1
  F  F24  1  0.965670  0.723546  0.634476  1
  F  F25  1  0.464825  0.276180  0.865660  1
  F  F26  1  0.034605  0.276562  0.364820  1
  F  F27  1  0.533688  0.724393  0.136121  1
  F  F28  1  0.052038  0.746171  0.176251  1
  F  F29  1  0.554708  0.255222  0.323679  1
  F  F30  1  0.944981  0.254057  0.824440  1
  F  F31  1  0.446321  0.745550  0.675086  1
  F  F32  1  0.415479  0.968360  0.232313  1
  F  F33  1  0.913012  0.027984  0.267765  1
  F  F34  1  0.588307  0.030802  0.768197  1
  F  F35  1  0.088248  0.968921  0.731808  1
