# generated using pymatgen
data_CeSCl6O
_symmetry_space_group_name_H-M   'P 1'
_cell_length_a   25.81438100
_cell_length_b   7.41082617
_cell_length_c   7.62010131
_cell_angle_alpha   66.60876651
_cell_angle_beta   90.00000000
_cell_angle_gamma   90.00000000
_symmetry_Int_Tables_number   1
_chemical_formula_structural   CeSCl6O
_chemical_formula_sum   'Ce4 S4 Cl24 O4'
_cell_volume   1337.96396997
_cell_formula_units_Z   4
loop_
 _symmetry_equiv_pos_site_id
 _symmetry_equiv_pos_as_xyz
  1  'x, y, z'
loop_
 _atom_site_type_symbol
 _atom_site_label
 _atom_site_symmetry_multiplicity
 _atom_site_fract_x
 _atom_site_fract_y
 _atom_site_fract_z
 _atom_site_occupancy
  Ce  Ce0  1  0.928531  0.996863  0.150523  1
  Ce  Ce1  1  0.071469  0.003137  0.849477  1
  Ce  Ce2  1  0.428531  0.503137  0.849477  1
  Ce  Ce3  1  0.571469  0.496863  0.150523  1
  S  S4  1  0.369370  0.119605  0.328926  1
  S  S5  1  0.130630  0.619605  0.328926  1
  S  S6  1  0.630630  0.880395  0.671074  1
  S  S7  1  0.869370  0.380395  0.671074  1
  Cl  Cl8  1  0.299311  0.252426  0.336297  1
  Cl  Cl9  1  0.964247  0.748559  0.461615  1
  Cl  Cl10  1  0.106361  0.758480  0.722854  1
  Cl  Cl11  1  0.978029  0.806898  0.951383  1
  Cl  Cl12  1  0.535753  0.248559  0.461615  1
  Cl  Cl13  1  0.478029  0.693102  0.048617  1
  Cl  Cl14  1  0.843998  0.814435  0.173059  1
  Cl  Cl15  1  0.606361  0.741520  0.277146  1
  Cl  Cl16  1  0.700689  0.747574  0.663703  1
  Cl  Cl17  1  0.844076  0.581082  0.777848  1
  Cl  Cl18  1  0.155924  0.418918  0.222152  1
  Cl  Cl19  1  0.156002  0.185565  0.826941  1
  Cl  Cl20  1  0.521971  0.306898  0.951383  1
  Cl  Cl21  1  0.655924  0.081082  0.777848  1
  Cl  Cl22  1  0.035753  0.251441  0.538385  1
  Cl  Cl23  1  0.021971  0.193102  0.048617  1
  Cl  Cl24  1  0.464247  0.751441  0.538385  1
  Cl  Cl25  1  0.393639  0.258480  0.722854  1
  Cl  Cl26  1  0.893639  0.241520  0.277146  1
  Cl  Cl27  1  0.343998  0.685565  0.826941  1
  Cl  Cl28  1  0.656002  0.314435  0.173059  1
  Cl  Cl29  1  0.344076  0.918918  0.222152  1
  Cl  Cl30  1  0.799311  0.247574  0.663703  1
  Cl  Cl31  1  0.200689  0.752426  0.336297  1
  O  O32  1  0.900010  0.232701  0.824659  1
  O  O33  1  0.599990  0.732701  0.824659  1
  O  O34  1  0.099990  0.767299  0.175341  1
  O  O35  1  0.400010  0.267299  0.175341  1
