# generated using pymatgen
data_Y7Zn(Co3Sn11)2
_symmetry_space_group_name_H-M   'P 1'
_cell_length_a   9.68163700
_cell_length_b   9.68163810
_cell_length_c   9.97275800
_cell_angle_alpha   90.00000000
_cell_angle_beta   90.00000000
_cell_angle_gamma   120.00000648
_symmetry_Int_Tables_number   1
_chemical_formula_structural   Y7Zn(Co3Sn11)2
_chemical_formula_sum   'Y7 Zn1 Co6 Sn22'
_cell_volume   809.54971456
_cell_formula_units_Z   1
loop_
 _symmetry_equiv_pos_site_id
 _symmetry_equiv_pos_as_xyz
  1  'x, y, z'
loop_
 _atom_site_type_symbol
 _atom_site_label
 _atom_site_symmetry_multiplicity
 _atom_site_fract_x
 _atom_site_fract_y
 _atom_site_fract_z
 _atom_site_occupancy
  Y  Y0  1  0.478942  0.521058  0.306056  1
  Y  Y1  1  0.521058  0.478942  0.693944  1
  Y  Y2  1  0.478942  0.957885  0.306056  1
  Y  Y3  1  0.521058  0.042115  0.693944  1
  Y  Y4  1  0.042115  0.521058  0.306056  1
  Y  Y5  1  0.957885  0.478942  0.693944  1
  Y  Y6  1  0.000000  0.000000  0.000000  1
  Zn  Zn7  1  0.000000  0.000000  0.500000  1
  Co  Co8  1  0.832125  0.167875  0.197164  1
  Co  Co9  1  0.167875  0.832125  0.802836  1
  Co  Co10  1  0.832125  0.664252  0.197164  1
  Co  Co11  1  0.167875  0.335748  0.802836  1
  Co  Co12  1  0.335748  0.167875  0.197164  1
  Co  Co13  1  0.664252  0.832125  0.802836  1
  Sn  Sn14  1  0.113492  0.886508  0.276509  1
  Sn  Sn15  1  0.886508  0.113492  0.723491  1
  Sn  Sn16  1  0.113492  0.226984  0.276509  1
  Sn  Sn17  1  0.886508  0.773016  0.723491  1
  Sn  Sn18  1  0.773016  0.886508  0.276509  1
  Sn  Sn19  1  0.226984  0.113492  0.723491  1
  Sn  Sn20  1  0.783081  0.216919  0.453103  1
  Sn  Sn21  1  0.216919  0.783081  0.546897  1
  Sn  Sn22  1  0.783081  0.566162  0.453103  1
  Sn  Sn23  1  0.216919  0.433838  0.546897  1
  Sn  Sn24  1  0.433838  0.216919  0.453103  1
  Sn  Sn25  1  0.566162  0.783081  0.546897  1
  Sn  Sn26  1  0.345425  0.000000  0.000000  1
  Sn  Sn27  1  0.654575  0.000000  0.000000  1
  Sn  Sn28  1  0.000000  0.345425  0.000000  1
  Sn  Sn29  1  0.000000  0.654575  0.000000  1
  Sn  Sn30  1  0.654575  0.654575  0.000000  1
  Sn  Sn31  1  0.345425  0.345425  0.000000  1
  Sn  Sn32  1  0.333333  0.666667  0.117045  1
  Sn  Sn33  1  0.666667  0.333333  0.882955  1
  Sn  Sn34  1  0.333333  0.666667  0.820118  1
  Sn  Sn35  1  0.666667  0.333333  0.179882  1
