# generated using pymatgen
data_Dy3Y2(SiBi)2
_symmetry_space_group_name_H-M   'P 1'
_cell_length_a   8.65874100
_cell_length_b   8.65874112
_cell_length_c   7.93100800
_cell_angle_alpha   90.00000000
_cell_angle_beta   90.00000000
_cell_angle_gamma   125.59361105
_symmetry_Int_Tables_number   1
_chemical_formula_structural   Dy3Y2(SiBi)2
_chemical_formula_sum   'Dy6 Y4 Si4 Bi4'
_cell_volume   483.52276524
_cell_formula_units_Z   2
loop_
 _symmetry_equiv_pos_site_id
 _symmetry_equiv_pos_as_xyz
  1  'x, y, z'
loop_
 _atom_site_type_symbol
 _atom_site_label
 _atom_site_symmetry_multiplicity
 _atom_site_fract_x
 _atom_site_fract_y
 _atom_site_fract_z
 _atom_site_occupancy
  Dy  Dy0  1  0.544059  0.788369  0.165757  1
  Dy  Dy1  1  0.211631  0.455941  0.834243  1
  Dy  Dy2  1  0.711631  0.955941  0.665757  1
  Dy  Dy3  1  0.288369  0.044059  0.334243  1
  Dy  Dy4  1  0.000000  0.000000  0.000000  1
  Dy  Dy5  1  0.500000  0.500000  0.500000  1
  Y  Y6  1  0.044059  0.288369  0.334243  1
  Y  Y7  1  0.955941  0.711631  0.665757  1
  Y  Y8  1  0.455941  0.211631  0.834243  1
  Y  Y9  1  0.788369  0.544059  0.165757  1
  Si  Si10  1  0.367657  0.367657  0.131304  1
  Si  Si11  1  0.632343  0.632343  0.868696  1
  Si  Si12  1  0.132343  0.132343  0.631304  1
  Si  Si13  1  0.867657  0.867657  0.368696  1
  Bi  Bi14  1  0.792209  0.207791  0.000000  1
  Bi  Bi15  1  0.207791  0.792209  0.000000  1
  Bi  Bi16  1  0.707791  0.292209  0.500000  1
  Bi  Bi17  1  0.292209  0.707791  0.500000  1
