# generated using pymatgen
data_Dy13Tm3In4(PtRh)2
_symmetry_space_group_name_H-M   'P 1'
_cell_length_a   9.67323013
_cell_length_b   9.66628871
_cell_length_c   9.66879527
_cell_angle_alpha   60.05128170
_cell_angle_beta   59.98483089
_cell_angle_gamma   59.97624381
_symmetry_Int_Tables_number   1
_chemical_formula_structural   Dy13Tm3In4(PtRh)2
_chemical_formula_sum   'Dy13 Tm3 In4 Pt2 Rh2'
_cell_volume   639.33540477
_cell_formula_units_Z   1
loop_
 _symmetry_equiv_pos_site_id
 _symmetry_equiv_pos_as_xyz
  1  'x, y, z'
loop_
 _atom_site_type_symbol
 _atom_site_label
 _atom_site_symmetry_multiplicity
 _atom_site_fract_x
 _atom_site_fract_y
 _atom_site_fract_z
 _atom_site_occupancy
  Dy  Dy0  1  0.939048  0.936754  0.561436  1
  Dy  Dy1  1  0.150280  0.145761  0.553679  1
  Dy  Dy2  1  0.562761  0.936754  0.561436  1
  Dy  Dy3  1  0.153305  0.148580  0.149569  1
  Dy  Dy4  1  0.310383  0.309974  0.692355  1
  Dy  Dy5  1  0.939329  0.561180  0.560161  1
  Dy  Dy6  1  0.562117  0.561871  0.937684  1
  Dy  Dy7  1  0.563044  0.936149  0.937763  1
  Dy  Dy8  1  0.938328  0.561871  0.937684  1
  Dy  Dy9  1  0.149773  0.554484  0.145969  1
  Dy  Dy10  1  0.310978  0.689744  0.688300  1
  Dy  Dy11  1  0.687288  0.309974  0.692355  1
  Dy  Dy12  1  0.548545  0.148580  0.149569  1
  Tm  Tm13  1  0.690321  0.310172  0.309185  1
  Tm  Tm14  1  0.686756  0.692651  0.309566  1
  Tm  Tm15  1  0.311027  0.692651  0.309566  1
  In  In16  1  0.916774  0.917820  0.248632  1
  In  In17  1  0.249306  0.916875  0.917556  1
  In  In18  1  0.916648  0.248324  0.918379  1
  In  In19  1  0.916263  0.916875  0.917556  1
  Pt  Pt20  1  0.356854  0.359294  0.357796  1
  Pt  Pt21  1  0.926056  0.359294  0.357796  1
  Rh  Rh22  1  0.356892  0.358940  0.927277  1
  Rh  Rh23  1  0.357924  0.925425  0.358727  1
