# generated using pymatgen
data_CsSmSe4
_symmetry_space_group_name_H-M   'P 1'
_cell_length_a   6.38179000
_cell_length_b   6.38179000
_cell_length_c   9.15880200
_cell_angle_alpha   90.00000000
_cell_angle_beta   90.00000000
_cell_angle_gamma   90.00000000
_symmetry_Int_Tables_number   1
_chemical_formula_structural   CsSmSe4
_chemical_formula_sum   'Cs2 Sm2 Se8'
_cell_volume   373.01276018
_cell_formula_units_Z   2
loop_
 _symmetry_equiv_pos_site_id
 _symmetry_equiv_pos_as_xyz
  1  'x, y, z'
loop_
 _atom_site_type_symbol
 _atom_site_label
 _atom_site_symmetry_multiplicity
 _atom_site_fract_x
 _atom_site_fract_y
 _atom_site_fract_z
 _atom_site_occupancy
  Cs  Cs0  1  0.000000  0.000000  0.000000  1
  Cs  Cs1  1  0.500000  0.500000  0.000000  1
  Sm  Sm2  1  0.000000  0.000000  0.500000  1
  Sm  Sm3  1  0.500000  0.500000  0.500000  1
  Se  Se4  1  0.634957  0.134955  0.308261  1
  Se  Se5  1  0.134955  0.365044  0.308261  1
  Se  Se6  1  0.865044  0.634957  0.308261  1
  Se  Se7  1  0.365044  0.865044  0.308261  1
  Se  Se8  1  0.365044  0.134955  0.691739  1
  Se  Se9  1  0.865044  0.365044  0.691739  1
  Se  Se10  1  0.134955  0.634957  0.691739  1
  Se  Se11  1  0.634957  0.865044  0.691739  1
