# generated using pymatgen
data_Ac12Os3RuBr12
_symmetry_space_group_name_H-M   'P 1'
_cell_length_a   11.05490813
_cell_length_b   11.05519668
_cell_length_c   11.05473918
_cell_angle_alpha   109.44971354
_cell_angle_beta   109.44844137
_cell_angle_gamma   109.45073601
_symmetry_Int_Tables_number   1
_chemical_formula_structural   Ac12Os3RuBr12
_chemical_formula_sum   'Ac12 Os3 Ru1 Br12'
_cell_volume   1040.86617044
_cell_formula_units_Z   1
loop_
 _symmetry_equiv_pos_site_id
 _symmetry_equiv_pos_as_xyz
  1  'x, y, z'
loop_
 _atom_site_type_symbol
 _atom_site_label
 _atom_site_symmetry_multiplicity
 _atom_site_fract_x
 _atom_site_fract_y
 _atom_site_fract_z
 _atom_site_occupancy
  Ac  Ac0  1  0.266798  0.750000  0.233205  1
  Ac  Ac1  1  0.483117  0.749999  0.016879  1
  Ac  Ac2  1  0.233152  0.466257  0.483174  1
  Ac  Ac3  1  0.016828  0.033744  0.266848  1
  Ac  Ac4  1  0.233209  0.266805  0.750004  1
  Ac  Ac5  1  0.016877  0.483118  0.750003  1
  Ac  Ac6  1  0.483169  0.233145  0.466259  1
  Ac  Ac7  1  0.266856  0.016830  0.033741  1
  Ac  Ac8  1  0.749995  0.233193  0.266788  1
  Ac  Ac9  1  0.749997  0.016882  0.483122  1
  Ac  Ac10  1  0.466257  0.483172  0.233148  1
  Ac  Ac11  1  0.033745  0.266856  0.016831  1
  Os  Os12  1  0.499449  0.000549  0.250000  1
  Os  Os13  1  0.250001  0.499452  0.000550  1
  Os  Os14  1  0.000545  0.250000  0.499454  1
  Ru  Ru15  1  0.250004  0.249995  0.249985  1
  Br  Br16  1  0.250003  0.996087  0.503916  1
  Br  Br17  1  0.508032  0.504092  0.753701  1
  Br  Br18  1  0.250000  0.754159  0.745844  1
  Br  Br19  1  0.991985  0.746313  0.995920  1
  Br  Br20  1  0.996087  0.503911  0.250002  1
  Br  Br21  1  0.746299  0.995908  0.991968  1
  Br  Br22  1  0.754158  0.745844  0.250000  1
  Br  Br23  1  0.504082  0.753689  0.508021  1
  Br  Br24  1  0.503917  0.250000  0.996082  1
  Br  Br25  1  0.753680  0.508007  0.504074  1
  Br  Br26  1  0.745836  0.250001  0.754164  1
  Br  Br27  1  0.995922  0.991990  0.746316  1
