# generated using pymatgen
data_Th8AlSe17
_symmetry_space_group_name_H-M   'P 1'
_cell_length_a   8.44415819
_cell_length_b   8.44415761
_cell_length_c   11.25543537
_cell_angle_alpha   79.88207200
_cell_angle_beta   79.88206405
_cell_angle_gamma   64.99421548
_symmetry_Int_Tables_number   1
_chemical_formula_structural   Th8AlSe17
_chemical_formula_sum   'Th8 Al1 Se17'
_cell_volume   711.37565763
_cell_formula_units_Z   1
loop_
 _symmetry_equiv_pos_site_id
 _symmetry_equiv_pos_as_xyz
  1  'x, y, z'
loop_
 _atom_site_type_symbol
 _atom_site_label
 _atom_site_symmetry_multiplicity
 _atom_site_fract_x
 _atom_site_fract_y
 _atom_site_fract_z
 _atom_site_occupancy
  Th  Th0  1  0.817355  0.305502  0.296587  1
  Th  Th1  1  0.305502  0.817355  0.296587  1
  Th  Th2  1  0.182645  0.694498  0.703413  1
  Th  Th3  1  0.694498  0.182645  0.703413  1
  Th  Th4  1  0.203583  0.203583  0.545871  1
  Th  Th5  1  0.796417  0.796417  0.454129  1
  Th  Th6  1  0.679479  0.679479  0.980850  1
  Th  Th7  1  0.320521  0.320521  0.019150  1
  Al  Al8  1  0.000000  0.000000  0.000000  1
  Se  Se9  1  0.821855  0.431814  0.534742  1
  Se  Se10  1  0.431814  0.821855  0.534742  1
  Se  Se11  1  0.178145  0.568186  0.465258  1
  Se  Se12  1  0.568186  0.178145  0.465258  1
  Se  Se13  1  0.945678  0.320770  0.030939  1
  Se  Se14  1  0.320770  0.945678  0.030939  1
  Se  Se15  1  0.054322  0.679230  0.969061  1
  Se  Se16  1  0.679230  0.054322  0.969061  1
  Se  Se17  1  0.212250  0.212250  0.279454  1
  Se  Se18  1  0.787750  0.787750  0.720546  1
  Se  Se19  1  0.054186  0.054186  0.774392  1
  Se  Se20  1  0.945814  0.945814  0.225608  1
  Se  Se21  1  0.301242  0.301242  0.755145  1
  Se  Se22  1  0.698758  0.698758  0.244855  1
  Se  Se23  1  0.519109  0.519109  0.830912  1
  Se  Se24  1  0.480891  0.480891  0.169088  1
  Se  Se25  1  0.000000  0.000000  0.500000  1
