# generated using pymatgen
data_HgPd2PbO7
_symmetry_space_group_name_H-M   'P 1'
_cell_length_a   7.30835117
_cell_length_b   7.16023103
_cell_length_c   7.30835089
_cell_angle_alpha   60.66818870
_cell_angle_beta   60.74414357
_cell_angle_gamma   60.66819214
_symmetry_Int_Tables_number   1
_chemical_formula_structural   HgPd2PbO7
_chemical_formula_sum   'Hg2 Pd4 Pb2 O14'
_cell_volume   274.66024903
_cell_formula_units_Z   2
loop_
 _symmetry_equiv_pos_site_id
 _symmetry_equiv_pos_as_xyz
  1  'x, y, z'
loop_
 _atom_site_type_symbol
 _atom_site_label
 _atom_site_symmetry_multiplicity
 _atom_site_fract_x
 _atom_site_fract_y
 _atom_site_fract_z
 _atom_site_occupancy
  Hg  Hg0  1  0.125000  0.125000  0.125000  1
  Hg  Hg1  1  0.125000  0.625000  0.125000  1
  Pd  Pd2  1  0.625000  0.625000  0.125000  1
  Pd  Pd3  1  0.625000  0.625000  0.625000  1
  Pd  Pd4  1  0.625000  0.125000  0.625000  1
  Pd  Pd5  1  0.125000  0.625000  0.625000  1
  Pb  Pb6  1  0.625000  0.125000  0.125000  1
  Pb  Pb7  1  0.125000  0.125000  0.625000  1
  O  O8  1  0.702596  0.288349  0.292480  1
  O  O9  1  0.709337  0.290663  0.709337  1
  O  O10  1  0.985487  0.014513  0.985487  1
  O  O11  1  0.292095  0.707905  0.292095  1
  O  O12  1  0.702596  0.716574  0.292480  1
  O  O13  1  0.957520  0.533426  0.547404  1
  O  O14  1  0.292480  0.716574  0.702596  1
  O  O15  1  0.264513  0.235487  0.264513  1
  O  O16  1  0.957905  0.542095  0.957905  1
  O  O17  1  0.540663  0.959337  0.540663  1
  O  O18  1  0.547404  0.533426  0.957520  1
  O  O19  1  0.957520  0.961651  0.547404  1
  O  O20  1  0.547404  0.961651  0.957520  1
  O  O21  1  0.292480  0.288349  0.702596  1
