# generated using pymatgen
data_AcTm3Sb10
_symmetry_space_group_name_H-M   'P 1'
_cell_length_a   4.30190600
_cell_length_b   13.40069350
_cell_length_c   14.66207793
_cell_angle_alpha   78.48579835
_cell_angle_beta   90.00000000
_cell_angle_gamma   90.00000000
_symmetry_Int_Tables_number   1
_chemical_formula_structural   AcTm3Sb10
_chemical_formula_sum   'Ac2 Tm6 Sb20'
_cell_volume   828.23676769
_cell_formula_units_Z   2
loop_
 _symmetry_equiv_pos_site_id
 _symmetry_equiv_pos_as_xyz
  1  'x, y, z'
loop_
 _atom_site_type_symbol
 _atom_site_label
 _atom_site_symmetry_multiplicity
 _atom_site_fract_x
 _atom_site_fract_y
 _atom_site_fract_z
 _atom_site_occupancy
  Ac  Ac0  1  0.250000  0.952859  0.360610  1
  Ac  Ac1  1  0.750000  0.047141  0.639390  1
  Tm  Tm2  1  0.250000  0.402056  0.773120  1
  Tm  Tm3  1  0.750000  0.597944  0.226880  1
  Tm  Tm4  1  0.250000  0.658796  0.859098  1
  Tm  Tm5  1  0.750000  0.341204  0.140902  1
  Tm  Tm6  1  0.250000  0.661029  0.578895  1
  Tm  Tm7  1  0.750000  0.338971  0.421105  1
  Sb  Sb8  1  0.250000  0.150005  0.790349  1
  Sb  Sb9  1  0.750000  0.849995  0.209651  1
  Sb  Sb10  1  0.250000  0.162770  0.471124  1
  Sb  Sb11  1  0.750000  0.837230  0.528876  1
  Sb  Sb12  1  0.250000  0.160654  0.164536  1
  Sb  Sb13  1  0.750000  0.839346  0.835464  1
  Sb  Sb14  1  0.250000  0.421776  0.976454  1
  Sb  Sb15  1  0.750000  0.578224  0.023546  1
  Sb  Sb16  1  0.750000  0.033021  0.901175  1
  Sb  Sb17  1  0.250000  0.966979  0.098825  1
  Sb  Sb18  1  0.750000  0.154334  0.314113  1
  Sb  Sb19  1  0.250000  0.845666  0.685887  1
  Sb  Sb20  1  0.750000  0.286481  0.935672  1
  Sb  Sb21  1  0.250000  0.713519  0.064328  1
  Sb  Sb22  1  0.750000  0.299732  0.650756  1
  Sb  Sb23  1  0.250000  0.700268  0.349244  1
  Sb  Sb24  1  0.750000  0.576280  0.737345  1
  Sb  Sb25  1  0.250000  0.423720  0.262655  1
  Sb  Sb26  1  0.750000  0.573121  0.443435  1
  Sb  Sb27  1  0.250000  0.426879  0.556565  1
