# generated using pymatgen
data_Y16In6CuAg
_symmetry_space_group_name_H-M   'P 1'
_cell_length_a   10.66222500
_cell_length_b   10.66222687
_cell_length_c   6.92316800
_cell_angle_alpha   90.00000000
_cell_angle_beta   90.00000000
_cell_angle_gamma   120.00000352
_symmetry_Int_Tables_number   1
_chemical_formula_structural   Y16In6CuAg
_chemical_formula_sum   'Y16 In6 Cu1 Ag1'
_cell_volume   681.60261635
_cell_formula_units_Z   1
loop_
 _symmetry_equiv_pos_site_id
 _symmetry_equiv_pos_as_xyz
  1  'x, y, z'
loop_
 _atom_site_type_symbol
 _atom_site_label
 _atom_site_symmetry_multiplicity
 _atom_site_fract_x
 _atom_site_fract_y
 _atom_site_fract_z
 _atom_site_occupancy
  Y  Y0  1  0.476467  0.523533  0.475538  1
  Y  Y1  1  0.047066  0.523533  0.475538  1
  Y  Y2  1  0.476467  0.952934  0.475538  1
  Y  Y3  1  0.528033  0.471967  0.975458  1
  Y  Y4  1  0.943934  0.471967  0.975458  1
  Y  Y5  1  0.528033  0.056066  0.975458  1
  Y  Y6  1  0.825761  0.174239  0.264120  1
  Y  Y7  1  0.348477  0.174239  0.264120  1
  Y  Y8  1  0.825761  0.651523  0.264120  1
  Y  Y9  1  0.171956  0.828044  0.768236  1
  Y  Y10  1  0.656087  0.828044  0.768236  1
  Y  Y11  1  0.171956  0.343913  0.768236  1
  Y  Y12  1  0.333333  0.666667  0.121869  1
  Y  Y13  1  0.666667  0.333333  0.605812  1
  Y  Y14  1  0.000000  0.000000  0.499750  1
  Y  Y15  1  0.000000  0.000000  0.001469  1
  In  In16  1  0.163393  0.836607  0.244349  1
  In  In17  1  0.673214  0.836607  0.244349  1
  In  In18  1  0.163393  0.326786  0.244349  1
  In  In19  1  0.835856  0.164144  0.741062  1
  In  In20  1  0.328287  0.164144  0.741062  1
  In  In21  1  0.835856  0.671713  0.741062  1
  Cu  Cu22  1  0.666667  0.333333  0.204827  1
  Ag  Ag23  1  0.333333  0.666667  0.704542  1
