# generated using pymatgen
data_YErHPd6
_symmetry_space_group_name_H-M   'P 1'
_cell_length_a   4.14398400
_cell_length_b   4.14398400
_cell_length_c   8.29453800
_cell_angle_alpha   90.00000000
_cell_angle_beta   90.00000000
_cell_angle_gamma   90.00000000
_symmetry_Int_Tables_number   1
_chemical_formula_structural   YErHPd6
_chemical_formula_sum   'Y1 Er1 H1 Pd6'
_cell_volume   142.43881140
_cell_formula_units_Z   1
loop_
 _symmetry_equiv_pos_site_id
 _symmetry_equiv_pos_as_xyz
  1  'x, y, z'
loop_
 _atom_site_type_symbol
 _atom_site_label
 _atom_site_symmetry_multiplicity
 _atom_site_fract_x
 _atom_site_fract_y
 _atom_site_fract_z
 _atom_site_occupancy
  Y  Y0  1  0.000000  0.000000  0.993755  1
  Er  Er1  1  0.000000  0.000000  0.505948  1
  H  H2  1  0.500000  0.500000  0.249850  1
  Pd  Pd3  1  0.500000  0.500000  0.999110  1
  Pd  Pd4  1  0.500000  0.500000  0.501357  1
  Pd  Pd5  1  0.500000  0.000000  0.252663  1
  Pd  Pd6  1  0.500000  0.000000  0.747327  1
  Pd  Pd7  1  0.000000  0.500000  0.252663  1
  Pd  Pd8  1  0.000000  0.500000  0.747327  1
