# generated using pymatgen
data_Li3Dy3ZnGe4
_symmetry_space_group_name_H-M   'P 1'
_cell_length_a   8.16046274
_cell_length_b   8.20201537
_cell_length_c   8.20201625
_cell_angle_alpha   149.63203000
_cell_angle_beta   131.02169515
_cell_angle_gamma   58.77215997
_symmetry_Int_Tables_number   1
_chemical_formula_structural   Li3Dy3ZnGe4
_chemical_formula_sum   'Li3 Dy3 Zn1 Ge4'
_cell_volume   207.73689720
_cell_formula_units_Z   1
loop_
 _symmetry_equiv_pos_site_id
 _symmetry_equiv_pos_as_xyz
  1  'x, y, z'
loop_
 _atom_site_type_symbol
 _atom_site_label
 _atom_site_symmetry_multiplicity
 _atom_site_fract_x
 _atom_site_fract_y
 _atom_site_fract_z
 _atom_site_occupancy
  Li  Li0  1  0.518429  0.829131  0.689299  1
  Li  Li1  1  0.860215  0.170182  0.690033  1
  Li  Li2  1  0.138980  0.827586  0.311395  1
  Dy  Dy3  1  0.868145  0.373972  0.494172  1
  Dy  Dy4  1  0.127014  0.627951  0.499062  1
  Dy  Dy5  1  0.503052  0.500227  0.002826  1
  Zn  Zn6  1  0.478268  0.172405  0.305863  1
  Ge  Ge7  1  0.810309  0.000192  0.810118  1
  Ge  Ge8  1  0.191324  0.998734  0.192590  1
  Ge  Ge9  1  0.286889  0.285202  0.001687  1
  Ge  Ge10  1  0.717373  0.714418  0.002955  1
