# generated using pymatgen
data_CsEr2Sc8(C2I9)2
_symmetry_space_group_name_H-M   'P 1'
_cell_length_a   11.41665457
_cell_length_b   11.31099467
_cell_length_c   11.19027114
_cell_angle_alpha   112.41485797
_cell_angle_beta   85.83841744
_cell_angle_gamma   121.06344457
_symmetry_Int_Tables_number   1
_chemical_formula_structural   CsEr2Sc8(C2I9)2
_chemical_formula_sum   'Cs1 Er2 Sc8 C4 I18'
_cell_volume   1130.13873566
_cell_formula_units_Z   1
loop_
 _symmetry_equiv_pos_site_id
 _symmetry_equiv_pos_as_xyz
  1  'x, y, z'
loop_
 _atom_site_type_symbol
 _atom_site_label
 _atom_site_symmetry_multiplicity
 _atom_site_fract_x
 _atom_site_fract_y
 _atom_site_fract_z
 _atom_site_occupancy
  Cs  Cs0  1  0.497684  0.999118  0.500550  1
  Er  Er1  1  0.720637  0.643736  0.989372  1
  Er  Er2  1  0.896194  0.054597  0.998578  1
  Sc  Sc3  1  0.700998  0.736648  0.724558  1
  Sc  Sc4  1  0.270470  0.344134  0.014946  1
  Sc  Sc5  1  0.092514  0.369049  0.277763  1
  Sc  Sc6  1  0.966543  0.037336  0.318614  1
  Sc  Sc7  1  0.911752  0.634316  0.722725  1
  Sc  Sc8  1  0.096578  0.945972  0.999383  1
  Sc  Sc9  1  0.035927  0.964877  0.682564  1
  Sc  Sc10  1  0.298950  0.259713  0.273446  1
  C  C11  1  0.147526  0.211753  0.112272  1
  C  C12  1  0.853577  0.787492  0.886668  1
  C  C13  1  0.931883  0.866806  0.808377  1
  C  C14  1  0.069217  0.133062  0.190338  1
  I  I15  1  0.456086  0.533395  0.831834  1
  I  I16  1  0.370591  0.045394  0.154033  1
  I  I17  1  0.790429  0.861100  0.510659  1
  I  I18  1  0.848920  0.311478  0.158460  1
  I  I19  1  0.534983  0.461632  0.164847  1
  I  I20  1  0.212663  0.141576  0.489417  1
  I  I21  1  0.310216  0.103939  0.828395  1
  I  I22  1  0.687467  0.901169  0.179275  1
  I  I23  1  0.970624  0.760856  0.175283  1
  I  I24  1  0.938721  0.286281  0.488706  1
  I  I25  1  0.038954  0.245915  0.827890  1
  I  I26  1  0.067565  0.718246  0.512785  1
  I  I27  1  0.254546  0.603394  0.173046  1
  I  I28  1  0.750197  0.387197  0.818505  1
  I  I29  1  0.662287  0.460436  0.522696  1
  I  I30  1  0.152635  0.700681  0.849513  1
  I  I31  1  0.621721  0.949230  0.838842  1
  I  I32  1  0.340948  0.539470  0.475663  1
