# generated using pymatgen
data_Yb4Hf(TcO4)3
_symmetry_space_group_name_H-M   'P 1'
_cell_length_a   5.40437322
_cell_length_b   5.63712698
_cell_length_c   7.77484404
_cell_angle_alpha   89.71685593
_cell_angle_beta   89.76615512
_cell_angle_gamma   90.06502125
_symmetry_Int_Tables_number   1
_chemical_formula_structural   Yb4Hf(TcO4)3
_chemical_formula_sum   'Yb4 Hf1 Tc3 O12'
_cell_volume   236.85667430
_cell_formula_units_Z   1
loop_
 _symmetry_equiv_pos_site_id
 _symmetry_equiv_pos_as_xyz
  1  'x, y, z'
loop_
 _atom_site_type_symbol
 _atom_site_label
 _atom_site_symmetry_multiplicity
 _atom_site_fract_x
 _atom_site_fract_y
 _atom_site_fract_z
 _atom_site_occupancy
  Yb  Yb0  1  0.982914  0.058957  0.244022  1
  Yb  Yb1  1  0.484190  0.436529  0.755343  1
  Yb  Yb2  1  0.515810  0.563471  0.244657  1
  Yb  Yb3  1  0.017086  0.941043  0.755978  1
  Hf  Hf4  1  0.000000  0.500000  0.500000  1
  Tc  Tc5  1  0.500000  0.000000  0.000000  1
  Tc  Tc6  1  0.500000  0.000000  0.500000  1
  Tc  Tc7  1  0.000000  0.500000  0.000000  1
  O  O8  1  0.599342  0.032204  0.749410  1
  O  O9  1  0.196668  0.195980  0.556353  1
  O  O10  1  0.198550  0.203837  0.950718  1
  O  O11  1  0.699411  0.296041  0.048858  1
  O  O12  1  0.690742  0.300287  0.444712  1
  O  O13  1  0.104859  0.463812  0.247336  1
  O  O14  1  0.895141  0.536188  0.752664  1
  O  O15  1  0.309258  0.699713  0.555288  1
  O  O16  1  0.300589  0.703959  0.951142  1
  O  O17  1  0.801450  0.796163  0.049282  1
  O  O18  1  0.803332  0.804020  0.443647  1
  O  O19  1  0.400658  0.967796  0.250590  1
