# generated using pymatgen
data_Ti8Al11Si4Ir7
_symmetry_space_group_name_H-M   'P 1'
_cell_length_a   8.57682178
_cell_length_b   8.60883064
_cell_length_c   8.60883116
_cell_angle_alpha   120.06729164
_cell_angle_beta   119.89499081
_cell_angle_gamma   90.13943421
_symmetry_Int_Tables_number   1
_chemical_formula_structural   Ti8Al11Si4Ir7
_chemical_formula_sum   'Ti8 Al11 Si4 Ir7'
_cell_volume   449.17513546
_cell_formula_units_Z   1
loop_
 _symmetry_equiv_pos_site_id
 _symmetry_equiv_pos_as_xyz
  1  'x, y, z'
loop_
 _atom_site_type_symbol
 _atom_site_label
 _atom_site_symmetry_multiplicity
 _atom_site_fract_x
 _atom_site_fract_y
 _atom_site_fract_z
 _atom_site_occupancy
  Ti  Ti0  1  0.802127  0.295482  0.087654  1
  Ti  Ti1  1  0.202584  0.299814  0.497600  1
  Ti  Ti2  1  0.200263  0.699978  0.500285  1
  Ti  Ti3  1  0.202584  0.704985  0.902771  1
  Ti  Ti4  1  0.802127  0.714474  0.506644  1
  Ti  Ti5  1  0.797462  0.291325  0.506137  1
  Ti  Ti6  1  0.377763  0.124437  0.746601  1
  Ti  Ti7  1  0.377763  0.631162  0.253326  1
  Al  Al8  1  0.545557  0.346893  0.198665  1
  Al  Al9  1  0.838435  0.660422  0.821667  1
  Al  Al10  1  0.838435  0.016769  0.178012  1
  Al  Al11  1  0.837230  0.661432  0.175798  1
  Al  Al12  1  0.486421  0.661311  0.825109  1
  Al  Al13  1  0.382404  0.122121  0.260284  1
  Al  Al14  1  0.863365  0.121230  0.742134  1
  Al  Al15  1  0.617804  0.878811  0.258230  1
  Al  Al16  1  0.617804  0.359575  0.738993  1
  Al  Al17  1  0.619875  0.879088  0.740787  1
  Al  Al18  1  0.138209  0.880085  0.258125  1
  Si  Si19  1  0.989130  0.495612  0.493518  1
  Si  Si20  1  0.156762  0.346615  0.193521  1
  Si  Si21  1  0.156762  0.963240  0.810149  1
  Si  Si22  1  0.152932  0.348983  0.803950  1
  Ir  Ir23  1  0.006599  0.006568  0.513521  1
  Ir  Ir24  1  0.492494  0.999134  0.995001  1
  Ir  Ir25  1  0.492462  0.495065  0.997397  1
  Ir  Ir26  1  0.492494  0.497492  0.493360  1
  Ir  Ir27  1  0.006599  0.493077  0.000031  1
  Ir  Ir28  1  0.008516  0.008074  0.000441  1
  Ir  Ir29  1  0.497033  0.996743  0.500290  1
