# generated using pymatgen
data_Cs6YSe4F
_symmetry_space_group_name_H-M   'P 1'
_cell_length_a   11.48753800
_cell_length_b   11.48753836
_cell_length_c   8.57187800
_cell_angle_alpha   90.00000000
_cell_angle_beta   90.00000000
_cell_angle_gamma   120.00001047
_symmetry_Int_Tables_number   1
_chemical_formula_structural   Cs6YSe4F
_chemical_formula_sum   'Cs12 Y2 Se8 F2'
_cell_volume   979.62645072
_cell_formula_units_Z   2
loop_
 _symmetry_equiv_pos_site_id
 _symmetry_equiv_pos_as_xyz
  1  'x, y, z'
loop_
 _atom_site_type_symbol
 _atom_site_label
 _atom_site_symmetry_multiplicity
 _atom_site_fract_x
 _atom_site_fract_y
 _atom_site_fract_z
 _atom_site_occupancy
  Cs  Cs0  1  0.115772  0.884228  0.506798  1
  Cs  Cs1  1  0.768456  0.884228  0.506798  1
  Cs  Cs2  1  0.939490  0.469745  0.315481  1
  Cs  Cs3  1  0.530255  0.469745  0.315481  1
  Cs  Cs4  1  0.884228  0.768456  0.006798  1
  Cs  Cs5  1  0.231544  0.115772  0.006798  1
  Cs  Cs6  1  0.530255  0.060510  0.315481  1
  Cs  Cs7  1  0.115772  0.231544  0.506798  1
  Cs  Cs8  1  0.884228  0.115772  0.006798  1
  Cs  Cs9  1  0.060510  0.530255  0.815481  1
  Cs  Cs10  1  0.469745  0.939490  0.815481  1
  Cs  Cs11  1  0.469745  0.530255  0.815481  1
  Y  Y12  1  0.666667  0.333333  0.719936  1
  Y  Y13  1  0.333333  0.666667  0.219936  1
  Se  Se14  1  0.408430  0.204216  0.611705  1
  Se  Se15  1  0.591570  0.795784  0.111705  1
  Se  Se16  1  0.666667  0.333333  0.036647  1
  Se  Se17  1  0.795784  0.591570  0.611705  1
  Se  Se18  1  0.204216  0.408430  0.111705  1
  Se  Se19  1  0.333333  0.666667  0.536647  1
  Se  Se20  1  0.204216  0.795784  0.111705  1
  Se  Se21  1  0.795784  0.204216  0.611705  1
  F  F22  1  0.000000  0.000000  0.282066  1
  F  F23  1  0.000000  0.000000  0.782066  1
