# generated using pymatgen
data_Li8Ac7ErPb8
_symmetry_space_group_name_H-M   'P 1'
_cell_length_a   9.93134514
_cell_length_b   9.93134446
_cell_length_c   8.24991607
_cell_angle_alpha   89.97925553
_cell_angle_beta   90.02074543
_cell_angle_gamma   119.96337124
_symmetry_Int_Tables_number   1
_chemical_formula_structural   Li8Ac7ErPb8
_chemical_formula_sum   'Li8 Ac7 Er1 Pb8'
_cell_volume   704.94692752
_cell_formula_units_Z   1
loop_
 _symmetry_equiv_pos_site_id
 _symmetry_equiv_pos_as_xyz
  1  'x, y, z'
loop_
 _atom_site_type_symbol
 _atom_site_label
 _atom_site_symmetry_multiplicity
 _atom_site_fract_x
 _atom_site_fract_y
 _atom_site_fract_z
 _atom_site_occupancy
  Li  Li0  1  0.171916  0.336253  0.232067  1
  Li  Li1  1  0.164897  0.835103  0.220140  1
  Li  Li2  1  0.663747  0.828084  0.232067  1
  Li  Li3  1  0.665526  0.334474  0.339726  1
  Li  Li4  1  0.828139  0.662928  0.696516  1
  Li  Li5  1  0.337072  0.171861  0.696516  1
  Li  Li6  1  0.831322  0.168678  0.709744  1
  Li  Li7  1  0.335803  0.664197  0.822615  1
  Ac  Ac8  1  0.996831  0.003169  0.999742  1
  Ac  Ac9  1  0.511174  0.025122  0.003625  1
  Ac  Ac10  1  0.513907  0.486093  0.004252  1
  Ac  Ac11  1  0.974878  0.488826  0.003625  1
  Ac  Ac12  1  0.998708  0.001292  0.501852  1
  Ac  Ac13  1  0.485502  0.968805  0.504360  1
  Ac  Ac14  1  0.031195  0.514498  0.504360  1
  Er  Er15  1  0.489865  0.510135  0.504121  1
  Pb  Pb16  1  0.335560  0.664440  0.225730  1
  Pb  Pb17  1  0.825822  0.661709  0.284794  1
  Pb  Pb18  1  0.338291  0.174178  0.284794  1
  Pb  Pb19  1  0.832768  0.167232  0.268650  1
  Pb  Pb20  1  0.663575  0.336425  0.717551  1
  Pb  Pb21  1  0.174156  0.336498  0.760662  1
  Pb  Pb22  1  0.165840  0.834160  0.779811  1
  Pb  Pb23  1  0.663502  0.825844  0.760662  1
