# generated using pymatgen
data_Ti6Sn3Sb2
_symmetry_space_group_name_H-M   'P 1'
_cell_length_a   9.33294863
_cell_length_b   9.26651354
_cell_length_c   5.67335000
_cell_angle_alpha   90.00000000
_cell_angle_beta   90.00000000
_cell_angle_gamma   119.76480643
_symmetry_Int_Tables_number   1
_chemical_formula_structural   Ti6Sn3Sb2
_chemical_formula_sum   'Ti12 Sn6 Sb4'
_cell_volume   425.92177256
_cell_formula_units_Z   2
loop_
 _symmetry_equiv_pos_site_id
 _symmetry_equiv_pos_as_xyz
  1  'x, y, z'
loop_
 _atom_site_type_symbol
 _atom_site_label
 _atom_site_symmetry_multiplicity
 _atom_site_fract_x
 _atom_site_fract_y
 _atom_site_fract_z
 _atom_site_occupancy
  Ti  Ti0  1  0.841652  0.686993  0.750000  1
  Ti  Ti1  1  0.158348  0.845342  0.250000  1
  Ti  Ti2  1  0.687039  0.845087  0.250000  1
  Ti  Ti3  1  0.312961  0.158048  0.750000  1
  Ti  Ti4  1  0.846817  0.152862  0.750000  1
  Ti  Ti5  1  0.153183  0.306045  0.250000  1
  Ti  Ti6  1  0.501726  0.001984  0.499621  1
  Ti  Ti7  1  0.498274  0.500259  0.999621  1
  Ti  Ti8  1  0.000000  0.498070  0.000000  1
  Ti  Ti9  1  0.000000  0.498070  0.500000  1
  Ti  Ti10  1  0.501726  0.001984  0.000379  1
  Ti  Ti11  1  0.498274  0.500259  0.500379  1
  Sn  Sn12  1  0.202615  0.798367  0.750000  1
  Sn  Sn13  1  0.797385  0.595753  0.250000  1
  Sn  Sn14  1  0.668877  0.336044  0.750000  1
  Sn  Sn15  1  0.331123  0.667167  0.250000  1
  Sn  Sn16  1  0.000000  0.995512  0.500000  1
  Sn  Sn17  1  0.000000  0.995512  0.000000  1
  Sb  Sb18  1  0.202197  0.407124  0.750000  1
  Sb  Sb19  1  0.797803  0.204927  0.250000  1
  Sb  Sb20  1  0.407465  0.206029  0.250000  1
  Sb  Sb21  1  0.592535  0.798564  0.750000  1
