# generated using pymatgen
data_LiHo16Cd3(IrPt)2
_symmetry_space_group_name_H-M   'P 1'
_cell_length_a   9.63275891
_cell_length_b   9.63275971
_cell_length_c   9.61044424
_cell_angle_alpha   59.89225935
_cell_angle_beta   59.89225919
_cell_angle_gamma   60.05565877
_symmetry_Int_Tables_number   1
_chemical_formula_structural   LiHo16Cd3(IrPt)2
_chemical_formula_sum   'Li1 Ho16 Cd3 Ir2 Pt2'
_cell_volume   629.79971806
_cell_formula_units_Z   1
loop_
 _symmetry_equiv_pos_site_id
 _symmetry_equiv_pos_as_xyz
  1  'x, y, z'
loop_
 _atom_site_type_symbol
 _atom_site_label
 _atom_site_symmetry_multiplicity
 _atom_site_fract_x
 _atom_site_fract_y
 _atom_site_fract_z
 _atom_site_occupancy
  Li  Li0  1  0.822629  0.822629  0.822386  1
  Ho  Ho1  1  0.601603  0.601603  0.597990  1
  Ho  Ho2  1  0.599835  0.599835  0.204327  1
  Ho  Ho3  1  0.603513  0.199730  0.599255  1
  Ho  Ho4  1  0.199730  0.603513  0.599255  1
  Ho  Ho5  1  0.056266  0.441441  0.440835  1
  Ho  Ho6  1  0.435813  0.058873  0.064423  1
  Ho  Ho7  1  0.441441  0.056266  0.440835  1
  Ho  Ho8  1  0.058873  0.435813  0.064423  1
  Ho  Ho9  1  0.442075  0.442075  0.058296  1
  Ho  Ho10  1  0.062716  0.062716  0.434407  1
  Ho  Ho11  1  0.188295  0.815182  0.811888  1
  Ho  Ho12  1  0.814686  0.185954  0.186230  1
  Ho  Ho13  1  0.815182  0.188295  0.811888  1
  Ho  Ho14  1  0.185954  0.814686  0.186230  1
  Ho  Ho15  1  0.812937  0.812937  0.188254  1
  Ho  Ho16  1  0.185491  0.185491  0.813746  1
  Cd  Cd17  1  0.832646  0.832646  0.505423  1
  Cd  Cd18  1  0.832527  0.505715  0.832415  1
  Cd  Cd19  1  0.505715  0.832527  0.832415  1
  Ir  Ir20  1  0.392774  0.824007  0.393916  1
  Ir  Ir21  1  0.824007  0.392774  0.393916  1
  Pt  Pt22  1  0.392275  0.392275  0.393814  1
  Pt  Pt23  1  0.393018  0.393018  0.823432  1
