# generated using pymatgen
data_Tb9Lu11Si15Sn
_symmetry_space_group_name_H-M   'P 1'
_cell_length_a   7.39348453
_cell_length_b   7.60768018
_cell_length_c   14.45424800
_cell_angle_alpha   90.01884333
_cell_angle_beta   90.13501185
_cell_angle_gamma   90.29485949
_symmetry_Int_Tables_number   1
_chemical_formula_structural   Tb9Lu11Si15Sn
_chemical_formula_sum   'Tb9 Lu11 Si15 Sn1'
_cell_volume   812.99885769
_cell_formula_units_Z   1
loop_
 _symmetry_equiv_pos_site_id
 _symmetry_equiv_pos_as_xyz
  1  'x, y, z'
loop_
 _atom_site_type_symbol
 _atom_site_label
 _atom_site_symmetry_multiplicity
 _atom_site_fract_x
 _atom_site_fract_y
 _atom_site_fract_z
 _atom_site_occupancy
  Tb  Tb0  1  0.851508  0.672211  0.878134  1
  Tb  Tb1  1  0.500471  0.320119  0.902209  1
  Tb  Tb2  1  0.999273  0.179265  0.598318  1
  Tb  Tb3  1  0.506652  0.680884  0.407501  1
  Tb  Tb4  1  0.994784  0.829255  0.091482  1
  Tb  Tb5  1  0.504560  0.681288  0.093133  1
  Tb  Tb6  1  0.995246  0.829025  0.409823  1
  Tb  Tb7  1  0.498535  0.321030  0.596892  1
  Tb  Tb8  1  0.000690  0.179599  0.900822  1
  Lu  Lu9  1  0.350642  0.827052  0.876134  1
  Lu  Lu10  1  0.849239  0.673369  0.623211  1
  Lu  Lu11  1  0.653453  0.172151  0.379650  1
  Lu  Lu12  1  0.146105  0.321292  0.119065  1
  Lu  Lu13  1  0.651378  0.171403  0.121768  1
  Lu  Lu14  1  0.147854  0.318947  0.380432  1
  Lu  Lu15  1  0.349332  0.825705  0.622516  1
  Lu  Lu16  1  0.185138  0.493885  0.749951  1
  Lu  Lu17  1  0.684248  0.005919  0.749160  1
  Lu  Lu18  1  0.805125  0.502464  0.249997  1
  Lu  Lu19  1  0.321735  0.007243  0.250067  1
  Si  Si20  1  0.319477  0.035144  0.038830  1
  Si  Si21  1  0.821226  0.464089  0.460632  1
  Si  Si22  1  0.681751  0.964090  0.541937  1
  Si  Si23  1  0.190525  0.535330  0.959192  1
  Si  Si24  1  0.680637  0.967246  0.958542  1
  Si  Si25  1  0.178523  0.535607  0.540154  1
  Si  Si26  1  0.321401  0.034047  0.460530  1
  Si  Si27  1  0.814796  0.462416  0.042814  1
  Si  Si28  1  0.554492  0.609855  0.748114  1
  Si  Si29  1  0.057442  0.890888  0.749186  1
  Si  Si30  1  0.445512  0.373556  0.250896  1
  Si  Si31  1  0.944020  0.109521  0.250187  1
  Si  Si32  1  0.298930  0.127408  0.749018  1
  Si  Si33  1  0.797666  0.370606  0.748370  1
  Si  Si34  1  0.702757  0.872911  0.250707  1
  Sn  Sn35  1  0.194873  0.635180  0.250623  1
