# generated using pymatgen
data_Ba3Sr2Re3IO15
_symmetry_space_group_name_H-M   'P 1'
_cell_length_a   11.01324100
_cell_length_b   11.01324120
_cell_length_c   7.91352200
_cell_angle_alpha   90.00000000
_cell_angle_beta   90.00000000
_cell_angle_gamma   119.99999641
_symmetry_Int_Tables_number   1
_chemical_formula_structural   Ba3Sr2Re3IO15
_chemical_formula_sum   'Ba6 Sr4 Re6 I2 O30'
_cell_volume   831.24827108
_cell_formula_units_Z   2
loop_
 _symmetry_equiv_pos_site_id
 _symmetry_equiv_pos_as_xyz
  1  'x, y, z'
loop_
 _atom_site_type_symbol
 _atom_site_label
 _atom_site_symmetry_multiplicity
 _atom_site_fract_x
 _atom_site_fract_y
 _atom_site_fract_z
 _atom_site_occupancy
  Ba  Ba0  1  0.726899  0.000000  0.227675  1
  Ba  Ba1  1  0.000000  0.726899  0.227675  1
  Ba  Ba2  1  0.273101  0.000000  0.727675  1
  Ba  Ba3  1  0.000000  0.273101  0.727675  1
  Ba  Ba4  1  0.273101  0.273101  0.227675  1
  Ba  Ba5  1  0.726899  0.726899  0.727675  1
  Sr  Sr6  1  0.333333  0.666667  0.476325  1
  Sr  Sr7  1  0.666667  0.333333  0.976325  1
  Sr  Sr8  1  0.333333  0.666667  0.976325  1
  Sr  Sr9  1  0.666667  0.333333  0.476325  1
  Re  Re10  1  0.392305  0.000000  0.169848  1
  Re  Re11  1  0.000000  0.392305  0.169848  1
  Re  Re12  1  0.607695  0.000000  0.669848  1
  Re  Re13  1  0.000000  0.607695  0.669848  1
  Re  Re14  1  0.607695  0.607695  0.169848  1
  Re  Re15  1  0.392305  0.392305  0.669848  1
  I  I16  1  0.000000  0.000000  0.992986  1
  I  I17  1  0.000000  0.000000  0.492986  1
  O  O18  1  0.134931  0.579031  0.215107  1
  O  O19  1  0.420969  0.555900  0.215107  1
  O  O20  1  0.865069  0.420969  0.715107  1
  O  O21  1  0.420969  0.865069  0.715107  1
  O  O22  1  0.444100  0.865069  0.215107  1
  O  O23  1  0.579031  0.444100  0.715107  1
  O  O24  1  0.444100  0.579031  0.715107  1
  O  O25  1  0.579031  0.134931  0.215107  1
  O  O26  1  0.555900  0.134931  0.715107  1
  O  O27  1  0.555900  0.420969  0.215107  1
  O  O28  1  0.134931  0.555900  0.715107  1
  O  O29  1  0.865069  0.444100  0.215107  1
  O  O30  1  0.133999  0.395356  0.026122  1
  O  O31  1  0.604644  0.738644  0.026122  1
  O  O32  1  0.866001  0.604644  0.526122  1
  O  O33  1  0.604644  0.866001  0.526122  1
  O  O34  1  0.261356  0.866001  0.026122  1
  O  O35  1  0.395356  0.261356  0.526122  1
  O  O36  1  0.261356  0.395356  0.526122  1
  O  O37  1  0.395356  0.133999  0.026122  1
  O  O38  1  0.738644  0.133999  0.526122  1
  O  O39  1  0.738644  0.604644  0.026122  1
  O  O40  1  0.133999  0.738644  0.526122  1
  O  O41  1  0.866001  0.261356  0.026122  1
  O  O42  1  0.293633  0.000000  0.344341  1
  O  O43  1  0.000000  0.293633  0.344341  1
  O  O44  1  0.706367  0.000000  0.844341  1
  O  O45  1  0.000000  0.706367  0.844341  1
  O  O46  1  0.706367  0.706367  0.344341  1
  O  O47  1  0.293633  0.293633  0.844341  1
