# generated using pymatgen
data_Na3Al2As3
_symmetry_space_group_name_H-M   'P 1'
_cell_length_a   9.54379388
_cell_length_b   9.54379363
_cell_length_c   13.71010400
_cell_angle_alpha   90.00000000
_cell_angle_beta   90.00000000
_cell_angle_gamma   142.31127659
_symmetry_Int_Tables_number   1
_chemical_formula_structural   Na3Al2As3
_chemical_formula_sum   'Na12 Al8 As12'
_cell_volume   763.46281832
_cell_formula_units_Z   4
loop_
 _symmetry_equiv_pos_site_id
 _symmetry_equiv_pos_as_xyz
  1  'x, y, z'
loop_
 _atom_site_type_symbol
 _atom_site_label
 _atom_site_symmetry_multiplicity
 _atom_site_fract_x
 _atom_site_fract_y
 _atom_site_fract_z
 _atom_site_occupancy
  Na  Na0  1  0.615556  0.931073  0.678298  1
  Na  Na1  1  0.568927  0.884444  0.178298  1
  Na  Na2  1  0.068927  0.384444  0.321702  1
  Na  Na3  1  0.115556  0.431073  0.821702  1
  Na  Na4  1  0.651087  0.651087  0.860014  1
  Na  Na5  1  0.431073  0.115556  0.821702  1
  Na  Na6  1  0.348913  0.348913  0.139986  1
  Na  Na7  1  0.931073  0.615556  0.678298  1
  Na  Na8  1  0.151087  0.151087  0.639986  1
  Na  Na9  1  0.884444  0.568927  0.178298  1
  Na  Na10  1  0.848913  0.848913  0.360014  1
  Na  Na11  1  0.384444  0.068927  0.321702  1
  Al  Al12  1  0.242362  0.757638  0.500000  1
  Al  Al13  1  0.257638  0.742362  0.000000  1
  Al  Al14  1  0.742362  0.257638  0.000000  1
  Al  Al15  1  0.918073  0.081927  0.000000  1
  Al  Al16  1  0.757638  0.242362  0.500000  1
  Al  Al17  1  0.081927  0.918073  0.000000  1
  Al  Al18  1  0.418073  0.581927  0.500000  1
  Al  Al19  1  0.581927  0.418073  0.500000  1
  As  As20  1  0.058950  0.403957  0.102479  1
  As  As21  1  0.670333  0.670333  0.622389  1
  As  As22  1  0.403957  0.058950  0.102479  1
  As  As23  1  0.596043  0.941050  0.897521  1
  As  As24  1  0.941050  0.596043  0.897521  1
  As  As25  1  0.441050  0.096043  0.602479  1
  As  As26  1  0.558950  0.903957  0.397521  1
  As  As27  1  0.170333  0.170333  0.877611  1
  As  As28  1  0.096043  0.441050  0.602479  1
  As  As29  1  0.829667  0.829667  0.122389  1
  As  As30  1  0.329667  0.329667  0.377611  1
  As  As31  1  0.903957  0.558950  0.397521  1
