# generated using pymatgen
data_Fe3Os8RhO24
_symmetry_space_group_name_H-M   'P 1'
_cell_length_a   4.59108926
_cell_length_b   10.48578636
_cell_length_c   9.17975452
_cell_angle_alpha   64.04127155
_cell_angle_beta   89.91516373
_cell_angle_gamma   89.96286517
_symmetry_Int_Tables_number   1
_chemical_formula_structural   Fe3Os8RhO24
_chemical_formula_sum   'Fe3 Os8 Rh1 O24'
_cell_volume   397.33786984
_cell_formula_units_Z   1
loop_
 _symmetry_equiv_pos_site_id
 _symmetry_equiv_pos_as_xyz
  1  'x, y, z'
loop_
 _atom_site_type_symbol
 _atom_site_label
 _atom_site_symmetry_multiplicity
 _atom_site_fract_x
 _atom_site_fract_y
 _atom_site_fract_z
 _atom_site_occupancy
  Fe  Fe0  1  0.000000  0.000000  0.500000  1
  Fe  Fe1  1  0.500000  0.500000  0.500000  1
  Fe  Fe2  1  0.000000  0.000000  0.000000  1
  Os  Os3  1  0.001086  0.668715  0.164814  1
  Os  Os4  1  0.998914  0.668715  0.666470  1
  Os  Os5  1  0.500000  0.167098  0.166451  1
  Os  Os6  1  0.500000  0.170097  0.664951  1
  Os  Os7  1  0.500000  0.832902  0.833549  1
  Os  Os8  1  0.500000  0.829903  0.335049  1
  Os  Os9  1  0.001086  0.331285  0.333530  1
  Os  Os10  1  0.998914  0.331285  0.835186  1
  Rh  Rh11  1  0.500000  0.500000  0.000000  1
  O  O12  1  0.686921  0.998954  0.156725  1
  O  O13  1  0.686921  0.001046  0.655679  1
  O  O14  1  0.817943  0.500000  0.157796  1
  O  O15  1  0.811864  0.500000  0.656849  1
  O  O16  1  0.182057  0.500000  0.842204  1
  O  O17  1  0.188136  0.500000  0.343151  1
  O  O18  1  0.313079  0.998954  0.344321  1
  O  O19  1  0.313079  0.001046  0.843275  1
  O  O20  1  0.698686  0.673018  0.814048  1
  O  O21  1  0.700488  0.671444  0.313867  1
  O  O22  1  0.301314  0.673018  0.012935  1
  O  O23  1  0.299512  0.671444  0.514690  1
  O  O24  1  0.301314  0.326982  0.185952  1
  O  O25  1  0.299512  0.328556  0.686133  1
  O  O26  1  0.200473  0.829437  0.685679  1
  O  O27  1  0.200101  0.828760  0.185628  1
  O  O28  1  0.799527  0.829437  0.984883  1
  O  O29  1  0.799899  0.828760  0.485612  1
  O  O30  1  0.799527  0.170563  0.314321  1
  O  O31  1  0.799899  0.171240  0.814372  1
  O  O32  1  0.200473  0.170563  0.015117  1
  O  O33  1  0.200101  0.171240  0.514388  1
  O  O34  1  0.698686  0.326982  0.987065  1
  O  O35  1  0.700488  0.328556  0.485310  1
