# generated using pymatgen
data_YHo14Er(Ga3Co)2
_symmetry_space_group_name_H-M   'P 1'
_cell_length_a   9.98300600
_cell_length_b   9.98185658
_cell_length_c   6.91390300
_cell_angle_alpha   89.99975373
_cell_angle_beta   89.99901748
_cell_angle_gamma   120.00372356
_symmetry_Int_Tables_number   1
_chemical_formula_structural   YHo14Er(Ga3Co)2
_chemical_formula_sum   'Y1 Ho14 Er1 Ga6 Co2'
_cell_volume   596.63712732
_cell_formula_units_Z   1
loop_
 _symmetry_equiv_pos_site_id
 _symmetry_equiv_pos_as_xyz
  1  'x, y, z'
loop_
 _atom_site_type_symbol
 _atom_site_label
 _atom_site_symmetry_multiplicity
 _atom_site_fract_x
 _atom_site_fract_y
 _atom_site_fract_z
 _atom_site_occupancy
  Y  Y0  1  0.999985  0.999953  0.270146  1
  Ho  Ho1  1  0.000009  0.000016  0.769503  1
  Ho  Ho2  1  0.173409  0.826856  0.990317  1
  Ho  Ho3  1  0.826615  0.173223  0.491563  1
  Ho  Ho4  1  0.173239  0.346475  0.990438  1
  Ho  Ho5  1  0.653447  0.826857  0.990314  1
  Ho  Ho6  1  0.346615  0.173221  0.491564  1
  Ho  Ho7  1  0.826745  0.653491  0.491458  1
  Ho  Ho8  1  0.333401  0.666793  0.673217  1
  Ho  Ho9  1  0.666587  0.333178  0.172547  1
  Ho  Ho10  1  0.463543  0.536479  0.292866  1
  Ho  Ho11  1  0.536461  0.463448  0.792878  1
  Ho  Ho12  1  0.463576  0.927157  0.292881  1
  Ho  Ho13  1  0.072943  0.536483  0.292865  1
  Ho  Ho14  1  0.926986  0.463445  0.792875  1
  Er  Er15  1  0.536590  0.073232  0.793008  1
  Ga  Ga16  1  0.163545  0.836456  0.541054  1
  Ga  Ga17  1  0.836291  0.163560  0.039751  1
  Ga  Ga18  1  0.163539  0.327070  0.540994  1
  Ga  Ga19  1  0.672910  0.836455  0.541056  1
  Ga  Ga20  1  0.327277  0.163563  0.039754  1
  Ga  Ga21  1  0.836413  0.672832  0.039874  1
  Co  Co22  1  0.333336  0.666668  0.057881  1
  Co  Co23  1  0.666541  0.333087  0.557314  1
