# generated using pymatgen
data_Ho4Er7LuCo5Bi
_symmetry_space_group_name_H-M   'P 1'
_cell_length_a   8.23036198
_cell_length_b   8.23960632
_cell_length_c   8.23960580
_cell_angle_alpha   110.90761508
_cell_angle_beta   110.80894028
_cell_angle_gamma   106.77459856
_symmetry_Int_Tables_number   1
_chemical_formula_structural   Ho4Er7LuCo5Bi
_chemical_formula_sum   'Ho4 Er7 Lu1 Co5 Bi1'
_cell_volume   429.18850375
_cell_formula_units_Z   1
loop_
 _symmetry_equiv_pos_site_id
 _symmetry_equiv_pos_as_xyz
  1  'x, y, z'
loop_
 _atom_site_type_symbol
 _atom_site_label
 _atom_site_symmetry_multiplicity
 _atom_site_fract_x
 _atom_site_fract_y
 _atom_site_fract_z
 _atom_site_occupancy
  Ho  Ho0  1  0.289353  0.184389  0.472000  1
  Ho  Ho1  1  0.710904  0.814700  0.527114  1
  Ho  Ho2  1  0.289353  0.817352  0.104964  1
  Ho  Ho3  1  0.710904  0.183791  0.896205  1
  Er  Er4  1  0.378153  0.688137  0.690016  1
  Er  Er5  1  0.001461  0.311360  0.690100  1
  Er  Er6  1  0.997995  0.688301  0.309695  1
  Er  Er7  1  0.207728  0.401211  0.194418  1
  Er  Er8  1  0.792233  0.597662  0.804767  1
  Er  Er9  1  0.207728  0.013311  0.806518  1
  Er  Er10  1  0.792233  0.987465  0.194569  1
  Lu  Lu11  1  0.623580  0.312359  0.311221  1
  Co  Co12  1  0.998577  0.374931  0.374497  1
  Co  Co13  1  0.998577  0.624080  0.623646  1
  Co  Co14  1  0.389271  0.888724  0.500546  1
  Co  Co15  1  0.612334  0.112730  0.499604  1
  Co  Co16  1  0.999435  0.999768  0.999668  1
  Bi  Bi17  1  0.500181  0.499729  0.000452  1
