# generated using pymatgen
data_PaCuAsN
_symmetry_space_group_name_H-M   'P 1'
_cell_length_a   3.83617200
_cell_length_b   3.83618100
_cell_length_c   8.37354000
_cell_angle_alpha   90.00011949
_cell_angle_beta   89.99985064
_cell_angle_gamma   90.00008961
_symmetry_Int_Tables_number   1
_chemical_formula_structural   PaCuAsN
_chemical_formula_sum   'Pa2 Cu2 As2 N2'
_cell_volume   123.22710919
_cell_formula_units_Z   2
loop_
 _symmetry_equiv_pos_site_id
 _symmetry_equiv_pos_as_xyz
  1  'x, y, z'
loop_
 _atom_site_type_symbol
 _atom_site_label
 _atom_site_symmetry_multiplicity
 _atom_site_fract_x
 _atom_site_fract_y
 _atom_site_fract_z
 _atom_site_occupancy
  Pa  Pa0  1  0.249992  0.249994  0.147151  1
  Pa  Pa1  1  0.750005  0.750002  0.852883  1
  Cu  Cu2  1  0.749996  0.250004  0.500027  1
  Cu  Cu3  1  0.250004  0.749997  0.500011  1
  As  As4  1  0.750000  0.750000  0.315178  1
  As  As5  1  0.249999  0.250000  0.684844  1
  N  N6  1  0.749996  0.250001  0.999949  1
  N  N7  1  0.250001  0.749996  0.999956  1
