# generated using pymatgen
data_Nd4Ho2Zn4IrPd12
_symmetry_space_group_name_H-M   'P 1'
_cell_length_a   8.33270809
_cell_length_b   8.32680090
_cell_length_c   8.32680122
_cell_angle_alpha   109.49751444
_cell_angle_beta   109.44371722
_cell_angle_gamma   109.44372205
_symmetry_Int_Tables_number   1
_chemical_formula_structural   Nd4Ho2Zn4IrPd12
_chemical_formula_sum   'Nd4 Ho2 Zn4 Ir1 Pd12'
_cell_volume   444.91221912
_cell_formula_units_Z   1
loop_
 _symmetry_equiv_pos_site_id
 _symmetry_equiv_pos_as_xyz
  1  'x, y, z'
loop_
 _atom_site_type_symbol
 _atom_site_label
 _atom_site_symmetry_multiplicity
 _atom_site_fract_x
 _atom_site_fract_y
 _atom_site_fract_z
 _atom_site_occupancy
  Nd  Nd0  1  0.000000  0.294605  0.295346  1
  Nd  Nd1  1  0.294352  0.293870  0.000482  1
  Nd  Nd2  1  0.705648  0.999518  0.706130  1
  Nd  Nd3  1  0.000000  0.704654  0.705395  1
  Ho  Ho4  1  0.700798  0.700357  0.000442  1
  Ho  Ho5  1  0.299202  0.999558  0.299643  1
  Zn  Zn6  1  0.000000  0.000196  0.495115  1
  Zn  Zn7  1  0.000000  0.504885  0.999804  1
  Zn  Zn8  1  0.500000  0.000209  0.999791  1
  Zn  Zn9  1  0.500000  0.500209  0.499791  1
  Ir  Ir10  1  0.000000  0.992051  0.007949  1
  Pd  Pd11  1  0.334851  0.333884  0.666241  1
  Pd  Pd12  1  0.665149  0.999033  0.331390  1
  Pd  Pd13  1  0.000000  0.671826  0.328174  1
  Pd  Pd14  1  0.666607  0.336146  0.000152  1
  Pd  Pd15  1  0.333393  0.669539  0.333544  1
  Pd  Pd16  1  0.000000  0.331957  0.668043  1
  Pd  Pd17  1  0.334851  0.668610  0.000967  1
  Pd  Pd18  1  0.333393  0.999848  0.663854  1
  Pd  Pd19  1  0.660290  0.329560  0.330730  1
  Pd  Pd20  1  0.666607  0.666456  0.330461  1
  Pd  Pd21  1  0.665149  0.333759  0.666116  1
  Pd  Pd22  1  0.339710  0.669270  0.670440  1
