# generated using pymatgen
data_Yb3(LuGe2)2
_symmetry_space_group_name_H-M   'P 1'
_cell_length_a   7.31542600
_cell_length_b   7.83581400
_cell_length_c   14.99722600
_cell_angle_alpha   90.00000000
_cell_angle_beta   90.00000000
_cell_angle_gamma   90.00000000
_symmetry_Int_Tables_number   1
_chemical_formula_structural   Yb3(LuGe2)2
_chemical_formula_sum   'Yb12 Lu8 Ge16'
_cell_volume   859.67574989
_cell_formula_units_Z   4
loop_
 _symmetry_equiv_pos_site_id
 _symmetry_equiv_pos_as_xyz
  1  'x, y, z'
loop_
 _atom_site_type_symbol
 _atom_site_label
 _atom_site_symmetry_multiplicity
 _atom_site_fract_x
 _atom_site_fract_y
 _atom_site_fract_z
 _atom_site_occupancy
  Yb  Yb0  1  0.983366  0.813929  0.405769  1
  Yb  Yb1  1  0.483366  0.686071  0.094231  1
  Yb  Yb2  1  0.516634  0.313929  0.594231  1
  Yb  Yb3  1  0.016634  0.186071  0.905769  1
  Yb  Yb4  1  0.016634  0.186071  0.594231  1
  Yb  Yb5  1  0.516634  0.313929  0.905769  1
  Yb  Yb6  1  0.483366  0.686071  0.405769  1
  Yb  Yb7  1  0.983366  0.813929  0.094231  1
  Yb  Yb8  1  0.341926  0.019465  0.750000  1
  Yb  Yb9  1  0.841926  0.480535  0.750000  1
  Yb  Yb10  1  0.158074  0.519465  0.250000  1
  Yb  Yb11  1  0.658074  0.980535  0.250000  1
  Lu  Lu12  1  0.319552  0.171302  0.121349  1
  Lu  Lu13  1  0.819552  0.328698  0.378651  1
  Lu  Lu14  1  0.180448  0.671302  0.878651  1
  Lu  Lu15  1  0.680448  0.828698  0.621349  1
  Lu  Lu16  1  0.319552  0.171302  0.378651  1
  Lu  Lu17  1  0.819552  0.328698  0.121349  1
  Lu  Lu18  1  0.180448  0.671302  0.621349  1
  Lu  Lu19  1  0.680448  0.828698  0.878651  1
  Ge  Ge20  1  0.842176  0.534336  0.539817  1
  Ge  Ge21  1  0.342176  0.965664  0.960183  1
  Ge  Ge22  1  0.657824  0.034336  0.460183  1
  Ge  Ge23  1  0.157824  0.465664  0.039817  1
  Ge  Ge24  1  0.157824  0.465664  0.460183  1
  Ge  Ge25  1  0.657824  0.034336  0.039817  1
  Ge  Ge26  1  0.342176  0.965664  0.539817  1
  Ge  Ge27  1  0.842176  0.534336  0.960183  1
  Ge  Ge28  1  0.975886  0.873712  0.750000  1
  Ge  Ge29  1  0.475886  0.626288  0.750000  1
  Ge  Ge30  1  0.524114  0.373712  0.250000  1
  Ge  Ge31  1  0.024114  0.126288  0.250000  1
  Ge  Ge32  1  0.235292  0.387047  0.750000  1
  Ge  Ge33  1  0.735292  0.112953  0.750000  1
  Ge  Ge34  1  0.264708  0.887047  0.250000  1
  Ge  Ge35  1  0.764708  0.612953  0.250000  1
