# generated using pymatgen
data_Li3Lu(Si4Tc3)2
_symmetry_space_group_name_H-M   'P 1'
_cell_length_a   6.40148500
_cell_length_b   6.70079596
_cell_length_c   12.27802596
_cell_angle_alpha   90.36877377
_cell_angle_beta   90.00000000
_cell_angle_gamma   90.00000000
_symmetry_Int_Tables_number   1
_chemical_formula_structural   Li3Lu(Si4Tc3)2
_chemical_formula_sum   'Li6 Lu2 Si16 Tc12'
_cell_volume   526.65556451
_cell_formula_units_Z   2
loop_
 _symmetry_equiv_pos_site_id
 _symmetry_equiv_pos_as_xyz
  1  'x, y, z'
loop_
 _atom_site_type_symbol
 _atom_site_label
 _atom_site_symmetry_multiplicity
 _atom_site_fract_x
 _atom_site_fract_y
 _atom_site_fract_z
 _atom_site_occupancy
  Li  Li0  1  0.479625  0.334507  0.086236  1
  Li  Li1  1  0.979625  0.165493  0.413764  1
  Li  Li2  1  0.520853  0.668371  0.593559  1
  Li  Li3  1  0.020853  0.831629  0.906441  1
  Li  Li4  1  0.522220  0.662289  0.908420  1
  Li  Li5  1  0.022220  0.837711  0.591580  1
  Lu  Lu6  1  0.495489  0.333185  0.418307  1
  Lu  Lu7  1  0.995489  0.166815  0.081693  1
  Si  Si8  1  0.670070  0.020106  0.549428  1
  Si  Si9  1  0.170070  0.479894  0.950572  1
  Si  Si10  1  0.346395  0.955976  0.043113  1
  Si  Si11  1  0.846395  0.544024  0.456887  1
  Si  Si12  1  0.327213  0.956312  0.458604  1
  Si  Si13  1  0.827213  0.543688  0.041396  1
  Si  Si14  1  0.663906  0.026159  0.945922  1
  Si  Si15  1  0.163906  0.473841  0.554078  1
  Si  Si16  1  0.524845  0.390377  0.750938  1
  Si  Si17  1  0.024845  0.109623  0.749062  1
  Si  Si18  1  0.470096  0.622516  0.244621  1
  Si  Si19  1  0.970096  0.877484  0.255379  1
  Si  Si20  1  0.810810  0.657600  0.748948  1
  Si  Si21  1  0.310810  0.842400  0.751052  1
  Si  Si22  1  0.187205  0.350884  0.253430  1
  Si  Si23  1  0.687205  0.149116  0.246570  1
  Tc  Tc24  1  0.820703  0.333834  0.625212  1
  Tc  Tc25  1  0.320703  0.166166  0.874788  1
  Tc  Tc26  1  0.168286  0.666596  0.125330  1
  Tc  Tc27  1  0.668286  0.833404  0.374670  1
  Tc  Tc28  1  0.176230  0.660829  0.374652  1
  Tc  Tc29  1  0.676230  0.839171  0.125348  1
  Tc  Tc30  1  0.824235  0.334452  0.872484  1
  Tc  Tc31  1  0.324235  0.165548  0.627516  1
  Tc  Tc32  1  0.662019  0.992551  0.748008  1
  Tc  Tc33  1  0.162019  0.507449  0.751992  1
  Tc  Tc34  1  0.329800  0.008887  0.251965  1
  Tc  Tc35  1  0.829800  0.491113  0.248035  1
