# generated using pymatgen
data_Be9Fe3(Mo6C)2
_symmetry_space_group_name_H-M   'P 1'
_cell_length_a   7.54147866
_cell_length_b   7.54147987
_cell_length_c   7.54147871
_cell_angle_alpha   59.84983328
_cell_angle_beta   59.84982848
_cell_angle_gamma   59.84983424
_symmetry_Int_Tables_number   1
_chemical_formula_structural   Be9Fe3(Mo6C)2
_chemical_formula_sum   'Be9 Fe3 Mo12 C2'
_cell_volume   302.25398839
_cell_formula_units_Z   1
loop_
 _symmetry_equiv_pos_site_id
 _symmetry_equiv_pos_as_xyz
  1  'x, y, z'
loop_
 _atom_site_type_symbol
 _atom_site_label
 _atom_site_symmetry_multiplicity
 _atom_site_fract_x
 _atom_site_fract_y
 _atom_site_fract_z
 _atom_site_occupancy
  Be  Be0  1  0.421164  0.421164  0.736343  1
  Be  Be1  1  0.421164  0.736343  0.421164  1
  Be  Be2  1  0.736343  0.421164  0.421164  1
  Be  Be3  1  0.422422  0.422422  0.422422  1
  Be  Be4  1  0.828836  0.828836  0.513657  1
  Be  Be5  1  0.828836  0.513657  0.828836  1
  Be  Be6  1  0.513657  0.828836  0.828836  1
  Be  Be7  1  0.827578  0.827578  0.827578  1
  Be  Be8  1  0.625000  0.625000  0.625000  1
  Fe  Fe9  1  0.625000  0.625000  0.125000  1
  Fe  Fe10  1  0.625000  0.125000  0.625000  1
  Fe  Fe11  1  0.125000  0.625000  0.625000  1
  Mo  Mo12  1  0.048154  0.048154  0.451188  1
  Mo  Mo13  1  0.451783  0.047203  0.451783  1
  Mo  Mo14  1  0.047203  0.451783  0.451783  1
  Mo  Mo15  1  0.451783  0.451783  0.047203  1
  Mo  Mo16  1  0.048154  0.451188  0.048154  1
  Mo  Mo17  1  0.451188  0.048154  0.048154  1
  Mo  Mo18  1  0.201846  0.201846  0.798812  1
  Mo  Mo19  1  0.798217  0.202797  0.798217  1
  Mo  Mo20  1  0.202797  0.798217  0.798217  1
  Mo  Mo21  1  0.798217  0.798217  0.202797  1
  Mo  Mo22  1  0.201846  0.798812  0.201846  1
  Mo  Mo23  1  0.798812  0.201846  0.201846  1
  C  C24  1  0.249760  0.249760  0.249760  1
  C  C25  1  0.000240  0.000240  0.000240  1
