# generated using pymatgen
data_Zr6Ti4Al12Pt7
_symmetry_space_group_name_H-M   'P 1'
_cell_length_a   8.85565528
_cell_length_b   8.85625671
_cell_length_c   8.85705402
_cell_angle_alpha   59.99325467
_cell_angle_beta   59.99928271
_cell_angle_gamma   60.00515340
_symmetry_Int_Tables_number   1
_chemical_formula_structural   Zr6Ti4Al12Pt7
_chemical_formula_sum   'Zr6 Ti4 Al12 Pt7'
_cell_volume   491.17652944
_cell_formula_units_Z   1
loop_
 _symmetry_equiv_pos_site_id
 _symmetry_equiv_pos_as_xyz
  1  'x, y, z'
loop_
 _atom_site_type_symbol
 _atom_site_label
 _atom_site_symmetry_multiplicity
 _atom_site_fract_x
 _atom_site_fract_y
 _atom_site_fract_z
 _atom_site_occupancy
  Zr  Zr0  1  0.688003  0.687998  0.312002  1
  Zr  Zr1  1  0.312039  0.687996  0.311989  1
  Zr  Zr2  1  0.688003  0.312033  0.311984  1
  Zr  Zr3  1  0.311975  0.311973  0.688027  1
  Zr  Zr4  1  0.687993  0.312044  0.687970  1
  Zr  Zr5  1  0.312035  0.688002  0.687981  1
  Ti  Ti6  1  0.881067  0.881099  0.356770  1
  Ti  Ti7  1  0.881063  0.356799  0.881087  1
  Ti  Ti8  1  0.356799  0.881063  0.881054  1
  Ti  Ti9  1  0.881090  0.881060  0.881056  1
  Al  Al10  1  0.120287  0.120252  0.639212  1
  Al  Al11  1  0.120312  0.639190  0.120230  1
  Al  Al12  1  0.639190  0.120311  0.120264  1
  Al  Al13  1  0.120256  0.120288  0.120247  1
  Al  Al14  1  0.665187  0.665182  0.004366  1
  Al  Al15  1  0.665126  0.004393  0.665243  1
  Al  Al16  1  0.004393  0.665127  0.665251  1
  Al  Al17  1  0.665173  0.665182  0.665272  1
  Al  Al18  1  0.334319  0.334328  0.997024  1
  Al  Al19  1  0.334330  0.997026  0.334326  1
  Al  Al20  1  0.997025  0.334331  0.334317  1
  Al  Al21  1  0.334329  0.334320  0.334329  1
  Pt  Pt22  1  0.999989  0.999987  0.000031  1
  Pt  Pt23  1  0.999532  0.999532  0.500453  1
  Pt  Pt24  1  0.500484  0.999547  0.500422  1
  Pt  Pt25  1  0.999550  0.500481  0.500420  1
  Pt  Pt26  1  0.500438  0.500439  0.999560  1
  Pt  Pt27  1  0.999557  0.500461  0.999557  1
  Pt  Pt28  1  0.500457  0.999560  0.999560  1
