# generated using pymatgen
data_PrNdY2(SiO5)2
_symmetry_space_group_name_H-M   'P 1'
_cell_length_a   8.15046248
_cell_length_b   8.15046159
_cell_length_c   10.81625237
_cell_angle_alpha   61.10139549
_cell_angle_beta   61.10139776
_cell_angle_gamma   50.29046419
_symmetry_Int_Tables_number   1
_chemical_formula_structural   PrNdY2(SiO5)2
_chemical_formula_sum   'Pr2 Nd2 Y4 Si4 O20'
_cell_volume   467.39787213
_cell_formula_units_Z   2
loop_
 _symmetry_equiv_pos_site_id
 _symmetry_equiv_pos_as_xyz
  1  'x, y, z'
loop_
 _atom_site_type_symbol
 _atom_site_label
 _atom_site_symmetry_multiplicity
 _atom_site_fract_x
 _atom_site_fract_y
 _atom_site_fract_z
 _atom_site_occupancy
  Pr  Pr0  1  0.216905  0.708901  0.964529  1
  Pr  Pr1  1  0.291099  0.783095  0.535471  1
  Nd  Nd2  1  0.782114  0.292098  0.035031  1
  Nd  Nd3  1  0.707902  0.217886  0.464969  1
  Y  Y4  1  0.237240  0.477131  0.336942  1
  Y  Y5  1  0.522869  0.762760  0.163058  1
  Y  Y6  1  0.763528  0.522137  0.663198  1
  Y  Y7  1  0.477863  0.236472  0.836802  1
  Si  Si8  1  0.728333  0.903962  0.306637  1
  Si  Si9  1  0.096038  0.271667  0.193363  1
  Si  Si10  1  0.271653  0.096954  0.693357  1
  Si  Si11  1  0.903046  0.728347  0.806643  1
  O  O12  1  0.423111  0.610444  0.108822  1
  O  O13  1  0.389556  0.576889  0.391178  1
  O  O14  1  0.579546  0.387269  0.891423  1
  O  O15  1  0.612731  0.420454  0.608577  1
  O  O16  1  0.867253  0.724157  0.432484  1
  O  O17  1  0.275843  0.132747  0.067516  1
  O  O18  1  0.132847  0.275621  0.567449  1
  O  O19  1  0.724379  0.867153  0.932551  1
  O  O20  1  0.565335  0.843295  0.317198  1
  O  O21  1  0.156705  0.434665  0.182802  1
  O  O22  1  0.435560  0.157209  0.681763  1
  O  O23  1  0.842791  0.564440  0.818237  1
  O  O24  1  0.158622  0.588271  0.822598  1
  O  O25  1  0.411729  0.841378  0.677402  1
  O  O26  1  0.841092  0.411171  0.176760  1
  O  O27  1  0.588829  0.158908  0.323240  1
  O  O28  1  0.907663  0.906132  0.645236  1
  O  O29  1  0.093868  0.092337  0.854764  1
  O  O30  1  0.089123  0.095173  0.355115  1
  O  O31  1  0.904827  0.910877  0.144885  1
