# generated using pymatgen
data_Sc20Cd6OsRu
_symmetry_space_group_name_H-M   'P 1'
_cell_length_a   8.99071300
_cell_length_b   8.99071201
_cell_length_c   9.21503600
_cell_angle_alpha   90.00000000
_cell_angle_beta   90.00000000
_cell_angle_gamma   119.99999997
_symmetry_Int_Tables_number   1
_chemical_formula_structural   Sc20Cd6OsRu
_chemical_formula_sum   'Sc20 Cd6 Os1 Ru1'
_cell_volume   645.08343368
_cell_formula_units_Z   1
loop_
 _symmetry_equiv_pos_site_id
 _symmetry_equiv_pos_as_xyz
  1  'x, y, z'
loop_
 _atom_site_type_symbol
 _atom_site_label
 _atom_site_symmetry_multiplicity
 _atom_site_fract_x
 _atom_site_fract_y
 _atom_site_fract_z
 _atom_site_occupancy
  Sc  Sc0  1  0.000000  0.000000  0.499807  1
  Sc  Sc1  1  0.000000  0.000000  0.000193  1
  Sc  Sc2  1  0.209745  0.790255  0.442315  1
  Sc  Sc3  1  0.209745  0.419492  0.442315  1
  Sc  Sc4  1  0.580508  0.790255  0.442315  1
  Sc  Sc5  1  0.789949  0.210051  0.558264  1
  Sc  Sc6  1  0.789949  0.579896  0.558264  1
  Sc  Sc7  1  0.420104  0.210051  0.558264  1
  Sc  Sc8  1  0.789949  0.210051  0.941736  1
  Sc  Sc9  1  0.789949  0.579896  0.941736  1
  Sc  Sc10  1  0.420104  0.210051  0.941736  1
  Sc  Sc11  1  0.209745  0.790255  0.057685  1
  Sc  Sc12  1  0.209745  0.419492  0.057685  1
  Sc  Sc13  1  0.580508  0.790255  0.057685  1
  Sc  Sc14  1  0.539610  0.460390  0.250000  1
  Sc  Sc15  1  0.539610  0.079221  0.250000  1
  Sc  Sc16  1  0.920779  0.460390  0.250000  1
  Sc  Sc17  1  0.458998  0.541002  0.750000  1
  Sc  Sc18  1  0.458998  0.917996  0.750000  1
  Sc  Sc19  1  0.082004  0.541002  0.750000  1
  Cd  Cd20  1  0.884844  0.115156  0.250000  1
  Cd  Cd21  1  0.884844  0.769690  0.250000  1
  Cd  Cd22  1  0.230310  0.115156  0.250000  1
  Cd  Cd23  1  0.115121  0.884879  0.750000  1
  Cd  Cd24  1  0.115121  0.230240  0.750000  1
  Cd  Cd25  1  0.769760  0.884879  0.750000  1
  Os  Os26  1  0.333333  0.666667  0.250000  1
  Ru  Ru27  1  0.666667  0.333333  0.750000  1
