# generated using pymatgen
data_Ce3Tm2Ru3
_symmetry_space_group_name_H-M   'P 1'
_cell_length_a   6.72815900
_cell_length_b   7.92148950
_cell_length_c   7.92148900
_cell_angle_alpha   120.00000208
_cell_angle_beta   90.00000000
_cell_angle_gamma   90.00000000
_symmetry_Int_Tables_number   1
_chemical_formula_structural   Ce3Tm2Ru3
_chemical_formula_sum   'Ce6 Tm4 Ru6'
_cell_volume   365.62892298
_cell_formula_units_Z   2
loop_
 _symmetry_equiv_pos_site_id
 _symmetry_equiv_pos_as_xyz
  1  'x, y, z'
loop_
 _atom_site_type_symbol
 _atom_site_label
 _atom_site_symmetry_multiplicity
 _atom_site_fract_x
 _atom_site_fract_y
 _atom_site_fract_z
 _atom_site_occupancy
  Ce  Ce0  1  0.750000  0.755634  0.755634  1
  Ce  Ce1  1  0.250000  0.244366  0.244366  1
  Ce  Ce2  1  0.750000  0.000000  0.244366  1
  Ce  Ce3  1  0.250000  0.000000  0.755634  1
  Ce  Ce4  1  0.750000  0.244366  0.000000  1
  Ce  Ce5  1  0.250000  0.755634  0.000000  1
  Tm  Tm6  1  0.000000  0.666667  0.333333  1
  Tm  Tm7  1  0.000000  0.333333  0.666667  1
  Tm  Tm8  1  0.500000  0.333333  0.666667  1
  Tm  Tm9  1  0.500000  0.666667  0.333333  1
  Ru  Ru10  1  0.750000  0.367021  0.367021  1
  Ru  Ru11  1  0.250000  0.632979  0.632979  1
  Ru  Ru12  1  0.750000  0.000000  0.632979  1
  Ru  Ru13  1  0.250000  0.000000  0.367021  1
  Ru  Ru14  1  0.750000  0.632979  0.000000  1
  Ru  Ru15  1  0.250000  0.367021  0.000000  1
