# generated using pymatgen
data_Lu4AlPd
_symmetry_space_group_name_H-M   'P 1'
_cell_length_a   9.38395110
_cell_length_b   9.38397872
_cell_length_c   9.38410200
_cell_angle_alpha   59.99984405
_cell_angle_beta   60.00001778
_cell_angle_gamma   60.00012956
_symmetry_Int_Tables_number   1
_chemical_formula_structural   Lu4AlPd
_chemical_formula_sum   'Lu16 Al4 Pd4'
_cell_volume   584.31958609
_cell_formula_units_Z   4
loop_
 _symmetry_equiv_pos_site_id
 _symmetry_equiv_pos_as_xyz
  1  'x, y, z'
loop_
 _atom_site_type_symbol
 _atom_site_label
 _atom_site_symmetry_multiplicity
 _atom_site_fract_x
 _atom_site_fract_y
 _atom_site_fract_z
 _atom_site_occupancy
  Lu  Lu0  1  0.607167  0.607181  0.607176  1
  Lu  Lu1  1  0.607174  0.607178  0.178471  1
  Lu  Lu2  1  0.607170  0.178466  0.607182  1
  Lu  Lu3  1  0.178466  0.607178  0.607178  1
  Lu  Lu4  1  0.058712  0.441287  0.441290  1
  Lu  Lu5  1  0.441280  0.058717  0.058713  1
  Lu  Lu6  1  0.441294  0.058708  0.441285  1
  Lu  Lu7  1  0.058716  0.441290  0.058712  1
  Lu  Lu8  1  0.441285  0.441284  0.058713  1
  Lu  Lu9  1  0.058718  0.058712  0.441280  1
  Lu  Lu10  1  0.184276  0.815717  0.815726  1
  Lu  Lu11  1  0.815718  0.184282  0.184282  1
  Lu  Lu12  1  0.815715  0.184280  0.815723  1
  Lu  Lu13  1  0.184277  0.815717  0.184283  1
  Lu  Lu14  1  0.815719  0.815716  0.184284  1
  Lu  Lu15  1  0.184280  0.184280  0.815723  1
  Al  Al16  1  0.829401  0.829397  0.829396  1
  Al  Al17  1  0.829403  0.829400  0.511800  1
  Al  Al18  1  0.829403  0.511806  0.829397  1
  Al  Al19  1  0.511805  0.829399  0.829397  1
  Pd  Pd20  1  0.395448  0.395448  0.395449  1
  Pd  Pd21  1  0.395444  0.395445  0.813662  1
  Pd  Pd22  1  0.395437  0.813677  0.395444  1
  Pd  Pd23  1  0.813693  0.395433  0.395437  1
