# generated using pymatgen
data_Ho4TmRh5
_symmetry_space_group_name_H-M   'P 1'
_cell_length_a   3.40641600
_cell_length_b   3.40641600
_cell_length_c   17.00850200
_cell_angle_alpha   90.00000000
_cell_angle_beta   90.00000000
_cell_angle_gamma   90.00000000
_symmetry_Int_Tables_number   1
_chemical_formula_structural   Ho4TmRh5
_chemical_formula_sum   'Ho4 Tm1 Rh5'
_cell_volume   197.36104381
_cell_formula_units_Z   1
loop_
 _symmetry_equiv_pos_site_id
 _symmetry_equiv_pos_as_xyz
  1  'x, y, z'
loop_
 _atom_site_type_symbol
 _atom_site_label
 _atom_site_symmetry_multiplicity
 _atom_site_fract_x
 _atom_site_fract_y
 _atom_site_fract_z
 _atom_site_occupancy
  Ho  Ho0  1  0.000000  0.000000  0.198361  1
  Ho  Ho1  1  0.000000  0.000000  0.399361  1
  Ho  Ho2  1  0.000000  0.000000  0.600639  1
  Ho  Ho3  1  0.000000  0.000000  0.801639  1
  Tm  Tm4  1  0.000000  0.000000  0.000000  1
  Rh  Rh5  1  0.500000  0.500000  0.096858  1
  Rh  Rh6  1  0.500000  0.500000  0.298237  1
  Rh  Rh7  1  0.500000  0.500000  0.500000  1
  Rh  Rh8  1  0.500000  0.500000  0.701763  1
  Rh  Rh9  1  0.500000  0.500000  0.903142  1
