# generated using pymatgen
data_Er8Ta3Ti9Si15Pt
_symmetry_space_group_name_H-M   'P 1'
_cell_length_a   7.06486502
_cell_length_b   7.01006302
_cell_length_c   12.94412136
_cell_angle_alpha   89.84730726
_cell_angle_beta   90.03499989
_cell_angle_gamma   89.94382151
_symmetry_Int_Tables_number   1
_chemical_formula_structural   Er8Ta3Ti9Si15Pt
_chemical_formula_sum   'Er8 Ta3 Ti9 Si15 Pt1'
_cell_volume   641.05683374
_cell_formula_units_Z   1
loop_
 _symmetry_equiv_pos_site_id
 _symmetry_equiv_pos_as_xyz
  1  'x, y, z'
loop_
 _atom_site_type_symbol
 _atom_site_label
 _atom_site_symmetry_multiplicity
 _atom_site_fract_x
 _atom_site_fract_y
 _atom_site_fract_z
 _atom_site_occupancy
  Er  Er0  1  0.338578  0.000715  0.466147  1
  Er  Er1  1  0.500888  0.838489  0.718839  1
  Er  Er2  1  0.499397  0.160740  0.217267  1
  Er  Er3  1  0.841291  0.497950  0.282608  1
  Er  Er4  1  0.157866  0.498646  0.783112  1
  Er  Er5  1  0.660409  0.998800  0.968237  1
  Er  Er6  1  0.999210  0.336469  0.534484  1
  Er  Er7  1  0.999462  0.660116  0.032677  1
  Ta  Ta8  1  0.326903  0.327332  0.001211  1
  Ta  Ta9  1  0.172522  0.827779  0.249811  1
  Ta  Ta10  1  0.822914  0.172460  0.751204  1
  Ti  Ti11  1  0.672076  0.671400  0.499080  1
  Ti  Ti12  1  0.154699  0.014133  0.875827  1
  Ti  Ti13  1  0.490184  0.652970  0.126373  1
  Ti  Ti14  1  0.507102  0.344348  0.625968  1
  Ti  Ti15  1  0.655120  0.493698  0.875555  1
  Ti  Ti16  1  0.345744  0.508288  0.373743  1
  Ti  Ti17  1  0.847360  0.991538  0.374080  1
  Ti  Ti18  1  0.009138  0.153564  0.125442  1
  Ti  Ti19  1  0.987698  0.851455  0.621318  1
  Si  Si20  1  0.369512  0.702572  0.934018  1
  Si  Si21  1  0.630309  0.295947  0.432627  1
  Si  Si22  1  0.702584  0.370272  0.067235  1
  Si  Si23  1  0.300080  0.630558  0.565055  1
  Si  Si24  1  0.796051  0.869031  0.183062  1
  Si  Si25  1  0.129800  0.202695  0.316096  1
  Si  Si26  1  0.869820  0.798069  0.816507  1
  Si  Si27  1  0.293180  0.955171  0.064336  1
  Si  Si28  1  0.546323  0.791852  0.314786  1
  Si  Si29  1  0.459068  0.209119  0.817132  1
  Si  Si30  1  0.791484  0.547872  0.685993  1
  Si  Si31  1  0.206146  0.455527  0.185946  1
  Si  Si32  1  0.705065  0.045100  0.563040  1
  Si  Si33  1  0.953390  0.293309  0.937180  1
  Si  Si34  1  0.045621  0.705648  0.434750  1
  Pt  Pt35  1  0.213009  0.126365  0.679254  1
