# generated using pymatgen
data_Tm5Mg(Rh2Pb)6
_symmetry_space_group_name_H-M   'P 1'
_cell_length_a   4.57052100
_cell_length_b   7.14878100
_cell_length_c   13.56679000
_cell_angle_alpha   89.99928036
_cell_angle_beta   89.99902529
_cell_angle_gamma   89.99995088
_symmetry_Int_Tables_number   1
_chemical_formula_structural   Tm5Mg(Rh2Pb)6
_chemical_formula_sum   'Tm5 Mg1 Rh12 Pb6'
_cell_volume   443.27659803
_cell_formula_units_Z   1
loop_
 _symmetry_equiv_pos_site_id
 _symmetry_equiv_pos_as_xyz
  1  'x, y, z'
loop_
 _atom_site_type_symbol
 _atom_site_label
 _atom_site_symmetry_multiplicity
 _atom_site_fract_x
 _atom_site_fract_y
 _atom_site_fract_z
 _atom_site_occupancy
  Tm  Tm0  1  0.999982  0.999953  0.997628  1
  Tm  Tm1  1  0.500003  0.500035  0.164526  1
  Tm  Tm2  1  0.999963  0.999989  0.333379  1
  Tm  Tm3  1  0.500005  0.499994  0.502088  1
  Tm  Tm4  1  0.000045  0.999996  0.668962  1
  Mg  Mg5  1  0.500022  0.500009  0.833300  1
  Rh  Rh6  1  0.500044  0.254529  0.996212  1
  Rh  Rh7  1  0.500043  0.745461  0.996215  1
  Rh  Rh8  1  0.999972  0.249458  0.165253  1
  Rh  Rh9  1  0.999971  0.750554  0.165251  1
  Rh  Rh10  1  0.499994  0.249992  0.333360  1
  Rh  Rh11  1  0.499997  0.750010  0.333366  1
  Rh  Rh12  1  0.000027  0.249479  0.501355  1
  Rh  Rh13  1  0.000027  0.750511  0.501353  1
  Rh  Rh14  1  0.500025  0.254745  0.670437  1
  Rh  Rh15  1  0.500027  0.745261  0.670444  1
  Rh  Rh16  1  0.000033  0.250322  0.833355  1
  Rh  Rh17  1  0.000033  0.749672  0.833364  1
  Pb  Pb18  1  0.000081  0.499862  0.994943  1
  Pb  Pb19  1  0.499568  0.000113  0.163512  1
  Pb  Pb20  1  0.999935  0.499982  0.333284  1
  Pb  Pb21  1  0.500080  0.999974  0.503843  1
  Pb  Pb22  1  0.000006  0.500028  0.671765  1
  Pb  Pb23  1  0.500113  0.000070  0.832806  1
