# generated using pymatgen
data_Tb13Nd7Sn16
_symmetry_space_group_name_H-M   'P 1'
_cell_length_a   8.15299595
_cell_length_b   8.31129725
_cell_length_c   15.70579560
_cell_angle_alpha   89.98651894
_cell_angle_beta   90.11209284
_cell_angle_gamma   89.81172917
_symmetry_Int_Tables_number   1
_chemical_formula_structural   Tb13Nd7Sn16
_chemical_formula_sum   'Tb13 Nd7 Sn16'
_cell_volume   1064.24788060
_cell_formula_units_Z   1
loop_
 _symmetry_equiv_pos_site_id
 _symmetry_equiv_pos_as_xyz
  1  'x, y, z'
loop_
 _atom_site_type_symbol
 _atom_site_label
 _atom_site_symmetry_multiplicity
 _atom_site_fract_x
 _atom_site_fract_y
 _atom_site_fract_z
 _atom_site_occupancy
  Tb  Tb0  1  0.019051  0.180656  0.401609  1
  Tb  Tb1  1  0.366819  0.836904  0.121212  1
  Tb  Tb2  1  0.131789  0.337598  0.622094  1
  Tb  Tb3  1  0.480927  0.679260  0.901281  1
  Tb  Tb4  1  0.868023  0.662481  0.122500  1
  Tb  Tb5  1  0.134356  0.337328  0.877824  1
  Tb  Tb6  1  0.198574  0.503124  0.249848  1
  Tb  Tb7  1  0.699600  0.997189  0.250796  1
  Tb  Tb8  1  0.480840  0.679016  0.599015  1
  Tb  Tb9  1  0.301115  0.002619  0.750038  1
  Tb  Tb10  1  0.632616  0.162412  0.621462  1
  Tb  Tb11  1  0.800660  0.497615  0.749232  1
  Tb  Tb12  1  0.866723  0.663220  0.378379  1
  Nd  Nd13  1  0.016591  0.180286  0.096994  1
  Nd  Nd14  1  0.982633  0.817883  0.901579  1
  Nd  Nd15  1  0.632895  0.164231  0.879102  1
  Nd  Nd16  1  0.517988  0.319947  0.098425  1
  Nd  Nd17  1  0.368036  0.835607  0.380405  1
  Nd  Nd18  1  0.982645  0.819269  0.598054  1
  Nd  Nd19  1  0.518239  0.319878  0.402379  1
  Sn  Sn20  1  0.792867  0.463081  0.542676  1
  Sn  Sn21  1  0.712509  0.965440  0.457719  1
  Sn  Sn22  1  0.670303  0.852831  0.749029  1
  Sn  Sn23  1  0.202256  0.534553  0.459024  1
  Sn  Sn24  1  0.292279  0.035654  0.957833  1
  Sn  Sn25  1  0.827942  0.355729  0.251351  1
  Sn  Sn26  1  0.795841  0.467415  0.957380  1
  Sn  Sn27  1  0.567222  0.619101  0.248966  1
  Sn  Sn28  1  0.206556  0.540403  0.040554  1
  Sn  Sn29  1  0.433368  0.382654  0.748654  1
  Sn  Sn30  1  0.177369  0.642967  0.749726  1
  Sn  Sn31  1  0.935569  0.121095  0.748571  1
  Sn  Sn32  1  0.293825  0.040515  0.543653  1
  Sn  Sn33  1  0.703783  0.958529  0.043893  1
  Sn  Sn34  1  0.323609  0.144069  0.249704  1
  Sn  Sn35  1  0.064584  0.879439  0.249041  1
