# generated using pymatgen
data_Sr20Cd3Pt8Au
_symmetry_space_group_name_H-M   'P 1'
_cell_length_a   8.30948600
_cell_length_b   8.30948600
_cell_length_c   15.74858600
_cell_angle_alpha   90.00000000
_cell_angle_beta   90.00000000
_cell_angle_gamma   90.00000000
_symmetry_Int_Tables_number   1
_chemical_formula_structural   Sr20Cd3Pt8Au
_chemical_formula_sum   'Sr20 Cd3 Pt8 Au1'
_cell_volume   1087.40139870
_cell_formula_units_Z   1
loop_
 _symmetry_equiv_pos_site_id
 _symmetry_equiv_pos_as_xyz
  1  'x, y, z'
loop_
 _atom_site_type_symbol
 _atom_site_label
 _atom_site_symmetry_multiplicity
 _atom_site_fract_x
 _atom_site_fract_y
 _atom_site_fract_z
 _atom_site_occupancy
  Sr  Sr0  1  0.000000  0.000000  0.756016  1
  Sr  Sr1  1  0.500000  0.500000  0.251280  1
  Sr  Sr2  1  0.000000  0.000000  0.243984  1
  Sr  Sr3  1  0.500000  0.500000  0.748720  1
  Sr  Sr4  1  0.173580  0.660693  0.115873  1
  Sr  Sr5  1  0.667478  0.165173  0.620258  1
  Sr  Sr6  1  0.826420  0.339307  0.115873  1
  Sr  Sr7  1  0.332522  0.834827  0.620258  1
  Sr  Sr8  1  0.339307  0.173580  0.115873  1
  Sr  Sr9  1  0.834827  0.667478  0.620258  1
  Sr  Sr10  1  0.660693  0.826420  0.115873  1
  Sr  Sr11  1  0.165173  0.332522  0.620258  1
  Sr  Sr12  1  0.339307  0.826420  0.884127  1
  Sr  Sr13  1  0.834827  0.332522  0.379742  1
  Sr  Sr14  1  0.660693  0.173580  0.884127  1
  Sr  Sr15  1  0.165173  0.667478  0.379742  1
  Sr  Sr16  1  0.173580  0.339307  0.884127  1
  Sr  Sr17  1  0.667478  0.834827  0.379742  1
  Sr  Sr18  1  0.826420  0.660693  0.884127  1
  Sr  Sr19  1  0.332522  0.165173  0.379742  1
  Cd  Cd20  1  0.000000  0.000000  0.500000  1
  Cd  Cd21  1  0.000000  0.000000  0.000000  1
  Cd  Cd22  1  0.500000  0.500000  0.500000  1
  Pt  Pt23  1  0.627556  0.127299  0.247869  1
  Pt  Pt24  1  0.127299  0.627556  0.752131  1
  Pt  Pt25  1  0.872701  0.372444  0.752131  1
  Pt  Pt26  1  0.372444  0.872701  0.247869  1
  Pt  Pt27  1  0.372444  0.127299  0.752131  1
  Pt  Pt28  1  0.872701  0.627556  0.247869  1
  Pt  Pt29  1  0.127299  0.372444  0.247869  1
  Pt  Pt30  1  0.627556  0.872701  0.752131  1
  Au  Au31  1  0.500000  0.500000  0.000000  1
