# generated using pymatgen
data_NaDy4Mn3(P3Ir4)4
_symmetry_space_group_name_H-M   'P 1'
_cell_length_a   12.65351313
_cell_length_b   12.69159776
_cell_length_c   3.96084700
_cell_angle_alpha   90.00000000
_cell_angle_beta   90.00000000
_cell_angle_gamma   120.09961786
_symmetry_Int_Tables_number   1
_chemical_formula_structural   NaDy4Mn3(P3Ir4)4
_chemical_formula_sum   'Na1 Dy4 Mn3 P12 Ir16'
_cell_volume   550.31238917
_cell_formula_units_Z   1
loop_
 _symmetry_equiv_pos_site_id
 _symmetry_equiv_pos_as_xyz
  1  'x, y, z'
loop_
 _atom_site_type_symbol
 _atom_site_label
 _atom_site_symmetry_multiplicity
 _atom_site_fract_x
 _atom_site_fract_y
 _atom_site_fract_z
 _atom_site_occupancy
  Na  Na0  1  0.000000  0.812378  0.000000  1
  Dy  Dy1  1  0.334041  0.666159  0.500000  1
  Dy  Dy2  1  0.665959  0.332117  0.500000  1
  Dy  Dy3  1  0.187807  0.188064  0.000000  1
  Dy  Dy4  1  0.812193  0.000257  0.000000  1
  Mn  Mn5  1  0.000000  0.456684  0.500000  1
  Mn  Mn6  1  0.540462  0.542614  0.500000  1
  Mn  Mn7  1  0.459538  0.002152  0.500000  1
  P  P8  1  0.000000  0.634847  0.500000  1
  P  P9  1  0.365019  0.364798  0.500000  1
  P  P10  1  0.634981  0.999779  0.500000  1
  P  P11  1  0.518072  0.686849  0.000000  1
  P  P12  1  0.312057  0.830737  0.000000  1
  P  P13  1  0.168010  0.482556  0.000000  1
  P  P14  1  0.481928  0.168777  0.000000  1
  P  P15  1  0.687943  0.518680  0.000000  1
  P  P16  1  0.831990  0.314546  0.000000  1
  P  P17  1  0.000000  0.178712  0.500000  1
  P  P18  1  0.821821  0.820665  0.500000  1
  P  P19  1  0.178179  0.998844  0.500000  1
  Ir  Ir20  1  0.506469  0.867783  0.000000  1
  Ir  Ir21  1  0.131180  0.639038  0.000000  1
  Ir  Ir22  1  0.360083  0.492697  0.000000  1
  Ir  Ir23  1  0.493531  0.361314  0.000000  1
  Ir  Ir24  1  0.868820  0.507858  0.000000  1
  Ir  Ir25  1  0.639917  0.132613  0.000000  1
  Ir  Ir26  1  0.000000  0.281707  0.000000  1
  Ir  Ir27  1  0.718262  0.718494  0.000000  1
  Ir  Ir28  1  0.281738  0.000232  0.000000  1
  Ir  Ir29  1  0.624193  0.803841  0.500000  1
  Ir  Ir30  1  0.199495  0.820027  0.500000  1
  Ir  Ir31  1  0.179452  0.375977  0.500000  1
  Ir  Ir32  1  0.375807  0.179648  0.500000  1
  Ir  Ir33  1  0.800505  0.620532  0.500000  1
  Ir  Ir34  1  0.820548  0.196525  0.500000  1
  Ir  Ir35  1  0.000000  0.001500  0.500000  1
