# generated using pymatgen
data_La8SbPd23Rh
_symmetry_space_group_name_H-M   'P 1'
_cell_length_a   8.58837000
_cell_length_b   8.58837000
_cell_length_c   8.61386600
_cell_angle_alpha   90.00000000
_cell_angle_beta   90.00000000
_cell_angle_gamma   90.00000000
_symmetry_Int_Tables_number   1
_chemical_formula_structural   La8SbPd23Rh
_chemical_formula_sum   'La8 Sb1 Pd23 Rh1'
_cell_volume   635.35961115
_cell_formula_units_Z   1
loop_
 _symmetry_equiv_pos_site_id
 _symmetry_equiv_pos_as_xyz
  1  'x, y, z'
loop_
 _atom_site_type_symbol
 _atom_site_label
 _atom_site_symmetry_multiplicity
 _atom_site_fract_x
 _atom_site_fract_y
 _atom_site_fract_z
 _atom_site_occupancy
  La  La0  1  0.749832  0.749832  0.253638  1
  La  La1  1  0.746852  0.253148  0.746784  1
  La  La2  1  0.253148  0.746852  0.746784  1
  La  La3  1  0.746852  0.746852  0.746784  1
  La  La4  1  0.749832  0.250168  0.253638  1
  La  La5  1  0.253148  0.253148  0.746784  1
  La  La6  1  0.250168  0.749832  0.253638  1
  La  La7  1  0.250168  0.250168  0.253638  1
  Sb  Sb8  1  0.000000  0.000000  0.004266  1
  Pd  Pd9  1  0.735573  0.000000  0.499554  1
  Pd  Pd10  1  0.733293  0.500000  0.000526  1
  Pd  Pd11  1  0.500000  0.000000  0.732942  1
  Pd  Pd12  1  0.000000  0.735573  0.499554  1
  Pd  Pd13  1  0.500000  0.000000  0.266610  1
  Pd  Pd14  1  0.000000  0.264427  0.499554  1
  Pd  Pd15  1  0.500000  0.733293  0.000526  1
  Pd  Pd16  1  0.255442  0.500000  0.500018  1
  Pd  Pd17  1  0.500000  0.500000  0.745119  1
  Pd  Pd18  1  0.500000  0.500000  0.255523  1
  Pd  Pd19  1  0.500000  0.255442  0.500018  1
  Pd  Pd20  1  0.500000  0.744558  0.500018  1
  Pd  Pd21  1  0.744558  0.500000  0.500018  1
  Pd  Pd22  1  0.311907  0.000000  0.999150  1
  Pd  Pd23  1  0.000000  0.000000  0.692375  1
  Pd  Pd24  1  0.000000  0.500000  0.266610  1
  Pd  Pd25  1  0.000000  0.311907  0.999150  1
  Pd  Pd26  1  0.000000  0.688093  0.999150  1
  Pd  Pd27  1  0.688093  0.000000  0.999150  1
  Pd  Pd28  1  0.266707  0.500000  0.000526  1
  Pd  Pd29  1  0.264427  0.000000  0.499554  1
  Pd  Pd30  1  0.000000  0.500000  0.732942  1
  Pd  Pd31  1  0.500000  0.266707  0.000526  1
  Rh  Rh32  1  0.000000  0.000000  0.304932  1
