# generated using pymatgen
data_Tb4Co18SiP11Ru2
_symmetry_space_group_name_H-M   'P 1'
_cell_length_a   3.68194300
_cell_length_b   10.34287416
_cell_length_c   11.77589618
_cell_angle_alpha   90.02017090
_cell_angle_beta   90.00000000
_cell_angle_gamma   90.00000000
_symmetry_Int_Tables_number   1
_chemical_formula_structural   Tb4Co18SiP11Ru2
_chemical_formula_sum   'Tb4 Co18 Si1 P11 Ru2'
_cell_volume   448.44815644
_cell_formula_units_Z   1
loop_
 _symmetry_equiv_pos_site_id
 _symmetry_equiv_pos_as_xyz
  1  'x, y, z'
loop_
 _atom_site_type_symbol
 _atom_site_label
 _atom_site_symmetry_multiplicity
 _atom_site_fract_x
 _atom_site_fract_y
 _atom_site_fract_z
 _atom_site_occupancy
  Tb  Tb0  1  0.250000  0.582273  0.700441  1
  Tb  Tb1  1  0.250000  0.917220  0.201765  1
  Tb  Tb2  1  0.750000  0.413593  0.296543  1
  Tb  Tb3  1  0.750000  0.086238  0.795447  1
  Co  Co4  1  0.750000  0.284912  0.008892  1
  Co  Co5  1  0.750000  0.215546  0.508482  1
  Co  Co6  1  0.250000  0.405762  0.487760  1
  Co  Co7  1  0.250000  0.093755  0.987778  1
  Co  Co8  1  0.750000  0.591061  0.509529  1
  Co  Co9  1  0.750000  0.908682  0.010498  1
  Co  Co10  1  0.250000  0.219810  0.176611  1
  Co  Co11  1  0.250000  0.279244  0.675167  1
  Co  Co12  1  0.750000  0.785965  0.821752  1
  Co  Co13  1  0.750000  0.721659  0.323711  1
  Co  Co14  1  0.250000  0.888016  0.700610  1
  Co  Co15  1  0.250000  0.614735  0.202642  1
  Co  Co16  1  0.750000  0.116336  0.300948  1
  Co  Co17  1  0.750000  0.380900  0.799981  1
  Co  Co18  1  0.250000  0.461066  0.935144  1
  Co  Co19  1  0.250000  0.034848  0.431965  1
  Co  Co20  1  0.750000  0.530917  0.073353  1
  Co  Co21  1  0.750000  0.967631  0.568063  1
  Si  Si22  1  0.750000  0.581732  0.889036  1
  P  P23  1  0.250000  0.417262  0.113411  1
  P  P24  1  0.250000  0.082904  0.611175  1
  P  P25  1  0.750000  0.921214  0.386937  1
  P  P26  1  0.250000  0.270860  0.867664  1
  P  P27  1  0.250000  0.228515  0.369002  1
  P  P28  1  0.750000  0.727396  0.133145  1
  P  P29  1  0.750000  0.772613  0.632934  1
  P  P30  1  0.250000  0.595380  0.390931  1
  P  P31  1  0.250000  0.904079  0.890496  1
  P  P32  1  0.750000  0.396311  0.608248  1
  P  P33  1  0.750000  0.103449  0.107958  1
  Ru  Ru34  1  0.250000  0.713056  0.990333  1
  Ru  Ru35  1  0.250000  0.785061  0.491653  1
