# generated using pymatgen
data_Ce10ZnGeSb6
_symmetry_space_group_name_H-M   'P 1'
_cell_length_a   9.47352500
_cell_length_b   9.47352498
_cell_length_c   6.40264500
_cell_angle_alpha   90.00000000
_cell_angle_beta   90.00000000
_cell_angle_gamma   120.00000357
_symmetry_Int_Tables_number   1
_chemical_formula_structural   Ce10ZnGeSb6
_chemical_formula_sum   'Ce10 Zn1 Ge1 Sb6'
_cell_volume   497.63767096
_cell_formula_units_Z   1
loop_
 _symmetry_equiv_pos_site_id
 _symmetry_equiv_pos_as_xyz
  1  'x, y, z'
loop_
 _atom_site_type_symbol
 _atom_site_label
 _atom_site_symmetry_multiplicity
 _atom_site_fract_x
 _atom_site_fract_y
 _atom_site_fract_z
 _atom_site_occupancy
  Ce  Ce0  1  0.666667  0.333333  0.000000  1
  Ce  Ce1  1  0.333333  0.666667  0.000000  1
  Ce  Ce2  1  0.333333  0.666667  0.500000  1
  Ce  Ce3  1  0.666667  0.333333  0.500000  1
  Ce  Ce4  1  0.733320  0.733320  0.746221  1
  Ce  Ce5  1  0.266680  0.000000  0.746221  1
  Ce  Ce6  1  0.000000  0.266680  0.746221  1
  Ce  Ce7  1  0.266680  0.266680  0.253779  1
  Ce  Ce8  1  0.733320  0.000000  0.253779  1
  Ce  Ce9  1  0.000000  0.733320  0.253779  1
  Zn  Zn10  1  0.000000  0.000000  0.000000  1
  Ge  Ge11  1  0.000000  0.000000  0.500000  1
  Sb  Sb12  1  0.380260  0.380260  0.751841  1
  Sb  Sb13  1  0.619740  0.000000  0.751841  1
  Sb  Sb14  1  0.000000  0.619740  0.751841  1
  Sb  Sb15  1  0.619740  0.619740  0.248159  1
  Sb  Sb16  1  0.380260  0.000000  0.248159  1
  Sb  Sb17  1  0.000000  0.380260  0.248159  1
