# generated using pymatgen
data_Dy8Mg3Sc8Si16Tc
_symmetry_space_group_name_H-M   'P 1'
_cell_length_a   6.94072638
_cell_length_b   7.37506805
_cell_length_c   13.89242100
_cell_angle_alpha   90.00000000
_cell_angle_beta   90.00000000
_cell_angle_gamma   90.24504133
_symmetry_Int_Tables_number   1
_chemical_formula_structural   Dy8Mg3Sc8Si16Tc
_chemical_formula_sum   'Dy8 Mg3 Sc8 Si16 Tc1'
_cell_volume   711.12331794
_cell_formula_units_Z   1
loop_
 _symmetry_equiv_pos_site_id
 _symmetry_equiv_pos_as_xyz
  1  'x, y, z'
loop_
 _atom_site_type_symbol
 _atom_site_label
 _atom_site_symmetry_multiplicity
 _atom_site_fract_x
 _atom_site_fract_y
 _atom_site_fract_z
 _atom_site_occupancy
  Dy  Dy0  1  0.013589  0.178856  0.093963  1
  Dy  Dy1  1  0.990544  0.820109  0.901168  1
  Dy  Dy2  1  0.489453  0.675671  0.901912  1
  Dy  Dy3  1  0.990544  0.820109  0.598832  1
  Dy  Dy4  1  0.513260  0.322786  0.095874  1
  Dy  Dy5  1  0.013589  0.178856  0.406037  1
  Dy  Dy6  1  0.513260  0.322786  0.404126  1
  Dy  Dy7  1  0.489453  0.675671  0.598088  1
  Mg  Mg8  1  0.842953  0.494924  0.250000  1
  Mg  Mg9  1  0.342885  0.004880  0.250000  1
  Mg  Mg10  1  0.658464  0.993354  0.750000  1
  Sc  Sc11  1  0.330124  0.178874  0.626381  1
  Sc  Sc12  1  0.671056  0.821257  0.375746  1
  Sc  Sc13  1  0.171028  0.677096  0.377351  1
  Sc  Sc14  1  0.671056  0.821257  0.124254  1
  Sc  Sc15  1  0.824451  0.325500  0.627632  1
  Sc  Sc16  1  0.330124  0.178874  0.873619  1
  Sc  Sc17  1  0.824451  0.325500  0.872368  1
  Sc  Sc18  1  0.171028  0.677096  0.122649  1
  Si  Si19  1  0.037333  0.123025  0.750000  1
  Si  Si20  1  0.967739  0.891392  0.250000  1
  Si  Si21  1  0.465215  0.607662  0.250000  1
  Si  Si22  1  0.516107  0.405299  0.750000  1
  Si  Si23  1  0.276355  0.865006  0.750000  1
  Si  Si24  1  0.720896  0.121203  0.250000  1
  Si  Si25  1  0.218241  0.379927  0.250000  1
  Si  Si26  1  0.796324  0.618358  0.750000  1
  Si  Si27  1  0.155714  0.465788  0.547028  1
  Si  Si28  1  0.840104  0.536850  0.466596  1
  Si  Si29  1  0.342545  0.962231  0.466753  1
  Si  Si30  1  0.840104  0.536850  0.033404  1
  Si  Si31  1  0.661069  0.036736  0.535868  1
  Si  Si32  1  0.155714  0.465788  0.952972  1
  Si  Si33  1  0.661069  0.036736  0.964132  1
  Si  Si34  1  0.342545  0.962231  0.033247  1
  Tc  Tc35  1  0.151620  0.491462  0.750000  1
