# generated using pymatgen
data_Dy4Er4Re3B24Ir
_symmetry_space_group_name_H-M   'P 1'
_cell_length_a   3.66213500
_cell_length_b   9.14379873
_cell_length_c   11.53017004
_cell_angle_alpha   90.12311906
_cell_angle_beta   90.00000000
_cell_angle_gamma   90.00000000
_symmetry_Int_Tables_number   1
_chemical_formula_structural   Dy4Er4Re3B24Ir
_chemical_formula_sum   'Dy4 Er4 Re3 B24 Ir1'
_cell_volume   386.09636867
_cell_formula_units_Z   1
loop_
 _symmetry_equiv_pos_site_id
 _symmetry_equiv_pos_as_xyz
  1  'x, y, z'
loop_
 _atom_site_type_symbol
 _atom_site_label
 _atom_site_symmetry_multiplicity
 _atom_site_fract_x
 _atom_site_fract_y
 _atom_site_fract_z
 _atom_site_occupancy
  Dy  Dy0  1  0.000000  0.318156  0.415577  1
  Dy  Dy1  1  0.000000  0.678687  0.591230  1
  Dy  Dy2  1  0.000000  0.826840  0.081543  1
  Dy  Dy3  1  0.000000  0.177446  0.912587  1
  Er  Er4  1  0.000000  0.944268  0.370544  1
  Er  Er5  1  0.000000  0.055870  0.628911  1
  Er  Er6  1  0.000000  0.440997  0.128207  1
  Er  Er7  1  0.000000  0.556663  0.871599  1
  Re  Re8  1  0.000000  0.362473  0.677826  1
  Re  Re9  1  0.000000  0.138519  0.180166  1
  Re  Re10  1  0.000000  0.861532  0.820771  1
  B  B11  1  0.500000  0.553885  0.433593  1
  B  B12  1  0.500000  0.446664  0.566803  1
  B  B13  1  0.500000  0.053461  0.066802  1
  B  B14  1  0.500000  0.946924  0.932557  1
  B  B15  1  0.500000  0.749540  0.419920  1
  B  B16  1  0.500000  0.250175  0.581117  1
  B  B17  1  0.500000  0.249412  0.081328  1
  B  B18  1  0.500000  0.751214  0.918803  1
  B  B19  1  0.500000  0.791402  0.265315  1
  B  B20  1  0.500000  0.208251  0.733999  1
  B  B21  1  0.500000  0.291870  0.234896  1
  B  B22  1  0.500000  0.707942  0.766013  1
  B  B23  1  0.500000  0.631390  0.184241  1
  B  B24  1  0.500000  0.369605  0.814251  1
  B  B25  1  0.500000  0.130620  0.314964  1
  B  B26  1  0.500000  0.868713  0.685340  1
  B  B27  1  0.500000  0.982838  0.212345  1
  B  B28  1  0.500000  0.017453  0.786734  1
  B  B29  1  0.500000  0.482802  0.287613  1
  B  B30  1  0.500000  0.518248  0.712661  1
  B  B31  1  0.500000  0.602945  0.029143  1
  B  B32  1  0.500000  0.397981  0.972085  1
  B  B33  1  0.500000  0.101343  0.471333  1
  B  B34  1  0.500000  0.895885  0.528106  1
  Ir  Ir35  1  0.000000  0.637993  0.321075  1
