# generated using pymatgen
data_Y2Ho6Re3B24Ru
_symmetry_space_group_name_H-M   'P 1'
_cell_length_a   3.67093800
_cell_length_b   9.15415733
_cell_length_c   11.53757801
_cell_angle_alpha   90.10768496
_cell_angle_beta   90.00000000
_cell_angle_gamma   90.00000000
_symmetry_Int_Tables_number   1
_chemical_formula_structural   Y2Ho6Re3B24Ru
_chemical_formula_sum   'Y2 Ho6 Re3 B24 Ru1'
_cell_volume   387.71205559
_cell_formula_units_Z   1
loop_
 _symmetry_equiv_pos_site_id
 _symmetry_equiv_pos_as_xyz
  1  'x, y, z'
loop_
 _atom_site_type_symbol
 _atom_site_label
 _atom_site_symmetry_multiplicity
 _atom_site_fract_x
 _atom_site_fract_y
 _atom_site_fract_z
 _atom_site_occupancy
  Y  Y0  1  0.000000  0.322016  0.414228  1
  Y  Y1  1  0.000000  0.677351  0.587507  1
  Ho  Ho2  1  0.000000  0.824737  0.084235  1
  Ho  Ho3  1  0.000000  0.176477  0.913746  1
  Ho  Ho4  1  0.000000  0.941953  0.369584  1
  Ho  Ho5  1  0.000000  0.056360  0.629481  1
  Ho  Ho6  1  0.000000  0.443192  0.130352  1
  Ho  Ho7  1  0.000000  0.556816  0.870992  1
  Re  Re8  1  0.000000  0.361671  0.678532  1
  Re  Re9  1  0.000000  0.138351  0.179438  1
  Re  Re10  1  0.000000  0.861666  0.821027  1
  B  B11  1  0.500000  0.554220  0.432476  1
  B  B12  1  0.500000  0.446791  0.566924  1
  B  B13  1  0.500000  0.053202  0.066719  1
  B  B14  1  0.500000  0.946869  0.933099  1
  B  B15  1  0.500000  0.748756  0.418282  1
  B  B16  1  0.500000  0.250375  0.581325  1
  B  B17  1  0.500000  0.249521  0.081172  1
  B  B18  1  0.500000  0.751112  0.918934  1
  B  B19  1  0.500000  0.790998  0.265393  1
  B  B20  1  0.500000  0.207789  0.734385  1
  B  B21  1  0.500000  0.291887  0.234711  1
  B  B22  1  0.500000  0.707851  0.765998  1
  B  B23  1  0.500000  0.631658  0.185729  1
  B  B24  1  0.500000  0.369175  0.814214  1
  B  B25  1  0.500000  0.130970  0.314746  1
  B  B26  1  0.500000  0.868910  0.685705  1
  B  B27  1  0.500000  0.982382  0.211793  1
  B  B28  1  0.500000  0.017614  0.787832  1
  B  B29  1  0.500000  0.483865  0.288021  1
  B  B30  1  0.500000  0.517816  0.712197  1
  B  B31  1  0.500000  0.601941  0.028871  1
  B  B32  1  0.500000  0.398562  0.972128  1
  B  B33  1  0.500000  0.100443  0.471497  1
  B  B34  1  0.500000  0.897931  0.528057  1
  Ru  Ru35  1  0.000000  0.638775  0.320675  1
