# generated using pymatgen
data_Ho5ErSbO12
_symmetry_space_group_name_H-M   'P 1'
_cell_length_a   6.46100106
_cell_length_b   6.46085469
_cell_length_c   6.46011638
_cell_angle_alpha   98.93228752
_cell_angle_beta   98.89562637
_cell_angle_gamma   98.89948524
_symmetry_Int_Tables_number   1
_chemical_formula_structural   Ho5ErSbO12
_chemical_formula_sum   'Ho5 Er1 Sb1 O12'
_cell_volume   258.74387277
_cell_formula_units_Z   1
loop_
 _symmetry_equiv_pos_site_id
 _symmetry_equiv_pos_as_xyz
  1  'x, y, z'
loop_
 _atom_site_type_symbol
 _atom_site_label
 _atom_site_symmetry_multiplicity
 _atom_site_fract_x
 _atom_site_fract_y
 _atom_site_fract_z
 _atom_site_occupancy
  Ho  Ho0  1  0.391200  0.696041  0.860199  1
  Ho  Ho1  1  0.859765  0.390697  0.695375  1
  Ho  Ho2  1  0.304259  0.139954  0.608916  1
  Ho  Ho3  1  0.609309  0.304159  0.140232  1
  Ho  Ho4  1  0.139688  0.609426  0.304039  1
  Er  Er5  1  0.695663  0.860117  0.390911  1
  Sb  Sb6  1  0.999649  0.999761  0.999835  1
  O  O7  1  0.436156  0.588015  0.178851  1
  O  O8  1  0.178173  0.435613  0.586975  1
  O  O9  1  0.587598  0.177153  0.435186  1
  O  O10  1  0.564404  0.412757  0.821855  1
  O  O11  1  0.821268  0.565606  0.412961  1
  O  O12  1  0.414079  0.821705  0.564318  1
  O  O13  1  0.927773  0.042174  0.694579  1
  O  O14  1  0.956999  0.304931  0.071234  1
  O  O15  1  0.304674  0.071434  0.956729  1
  O  O16  1  0.071017  0.957005  0.305035  1
  O  O17  1  0.043164  0.694961  0.928683  1
  O  O18  1  0.695163  0.928490  0.044087  1
