# generated using pymatgen
data_SrTb4PrErCoI12
_symmetry_space_group_name_H-M   'P 1'
_cell_length_a   9.81667431
_cell_length_b   9.85826194
_cell_length_c   9.86359455
_cell_angle_alpha   106.21079607
_cell_angle_beta   106.55237265
_cell_angle_gamma   105.92354989
_symmetry_Int_Tables_number   1
_chemical_formula_structural   SrTb4PrErCoI12
_chemical_formula_sum   'Sr1 Tb4 Pr1 Er1 Co1 I12'
_cell_volume   811.08256046
_cell_formula_units_Z   1
loop_
 _symmetry_equiv_pos_site_id
 _symmetry_equiv_pos_as_xyz
  1  'x, y, z'
loop_
 _atom_site_type_symbol
 _atom_site_label
 _atom_site_symmetry_multiplicity
 _atom_site_fract_x
 _atom_site_fract_y
 _atom_site_fract_z
 _atom_site_occupancy
  Sr  Sr0  1  0.501194  0.497800  0.499786  1
  Tb  Tb1  1  0.978714  0.906054  0.706087  1
  Tb  Tb2  1  0.019432  0.092945  0.293798  1
  Tb  Tb3  1  0.094411  0.293796  0.020590  1
  Tb  Tb4  1  0.275725  0.018209  0.088338  1
  Pr  Pr5  1  0.712639  0.981585  0.908964  1
  Er  Er6  1  0.909865  0.711600  0.980224  1
  Co  Co7  1  0.998314  0.000807  0.999512  1
  I  I8  1  0.555253  0.624803  0.864084  1
  I  I9  1  0.447210  0.363793  0.135497  1
  I  I10  1  0.317005  0.925085  0.777809  1
  I  I11  1  0.366504  0.134194  0.445872  1
  I  I12  1  0.927779  0.775642  0.319466  1
  I  I13  1  0.681435  0.077231  0.233179  1
  I  I14  1  0.073878  0.222633  0.677922  1
  I  I15  1  0.783204  0.333947  0.929056  1
  I  I16  1  0.222969  0.680774  0.074294  1
  I  I17  1  0.866913  0.553256  0.635737  1
  I  I18  1  0.136516  0.447712  0.367233  1
  I  I19  1  0.631041  0.858135  0.542551  1
