# generated using pymatgen
data_La2SmTl(TeO6)2
_symmetry_space_group_name_H-M   'P 1'
_cell_length_a   5.47313300
_cell_length_b   9.41708726
_cell_length_c   10.37675017
_cell_angle_alpha   90.39828566
_cell_angle_beta   90.00000000
_cell_angle_gamma   90.00000000
_symmetry_Int_Tables_number   1
_chemical_formula_structural   La2SmTl(TeO6)2
_chemical_formula_sum   'La4 Sm2 Tl2 Te4 O24'
_cell_volume   534.81485854
_cell_formula_units_Z   2
loop_
 _symmetry_equiv_pos_site_id
 _symmetry_equiv_pos_as_xyz
  1  'x, y, z'
loop_
 _atom_site_type_symbol
 _atom_site_label
 _atom_site_symmetry_multiplicity
 _atom_site_fract_x
 _atom_site_fract_y
 _atom_site_fract_z
 _atom_site_occupancy
  La  La0  1  0.524932  0.215637  0.356630  1
  La  La1  1  0.024932  0.284363  0.643370  1
  La  La2  1  0.478101  0.720562  0.143552  1
  La  La3  1  0.978101  0.779438  0.856448  1
  Sm  Sm4  1  0.483429  0.603517  0.544916  1
  Sm  Sm5  1  0.983429  0.896483  0.455084  1
  Tl  Tl6  1  0.510399  0.115527  0.945075  1
  Tl  Tl7  1  0.010399  0.384473  0.054925  1
  Te  Te8  1  0.468581  0.992361  0.642967  1
  Te  Te9  1  0.968581  0.507639  0.357033  1
  Te  Te10  1  0.534189  0.492162  0.857791  1
  Te  Te11  1  0.034189  0.007838  0.142209  1
  O  O12  1  0.270523  0.156689  0.176047  1
  O  O13  1  0.770523  0.343311  0.823953  1
  O  O14  1  0.699356  0.640822  0.329963  1
  O  O15  1  0.199356  0.859178  0.670037  1
  O  O16  1  0.728087  0.108015  0.564156  1
  O  O17  1  0.228087  0.391985  0.435844  1
  O  O18  1  0.312216  0.632129  0.932513  1
  O  O19  1  0.812216  0.867871  0.067487  1
  O  O20  1  0.698038  0.624786  0.743935  1
  O  O21  1  0.198038  0.875214  0.256065  1
  O  O22  1  0.318962  0.136390  0.753727  1
  O  O23  1  0.818962  0.363610  0.246273  1
  O  O24  1  0.669009  0.948627  0.790463  1
  O  O25  1  0.169009  0.551373  0.209537  1
  O  O26  1  0.320176  0.458695  0.712065  1
  O  O27  1  0.820176  0.041305  0.287935  1
  O  O28  1  0.259480  0.078974  0.507671  1
  O  O29  1  0.759480  0.421026  0.492329  1
  O  O30  1  0.755597  0.560798  0.997084  1
  O  O31  1  0.255597  0.939202  0.002916  1
  O  O32  1  0.098692  0.657739  0.467955  1
  O  O33  1  0.598692  0.842261  0.532045  1
  O  O34  1  0.870234  0.152039  0.031877  1
  O  O35  1  0.370234  0.347961  0.968123  1
