# generated using pymatgen
data_Th2CuSi3Ni4
_symmetry_space_group_name_H-M   'P 1'
_cell_length_a   4.08025100
_cell_length_b   4.08025100
_cell_length_c   9.57547800
_cell_angle_alpha   90.00000000
_cell_angle_beta   90.00000000
_cell_angle_gamma   90.00000000
_symmetry_Int_Tables_number   1
_chemical_formula_structural   Th2CuSi3Ni4
_chemical_formula_sum   'Th2 Cu1 Si3 Ni4'
_cell_volume   159.41684969
_cell_formula_units_Z   1
loop_
 _symmetry_equiv_pos_site_id
 _symmetry_equiv_pos_as_xyz
  1  'x, y, z'
loop_
 _atom_site_type_symbol
 _atom_site_label
 _atom_site_symmetry_multiplicity
 _atom_site_fract_x
 _atom_site_fract_y
 _atom_site_fract_z
 _atom_site_occupancy
  Th  Th0  1  0.000000  0.500000  0.248667  1
  Th  Th1  1  0.500000  0.000000  0.751333  1
  Cu  Cu2  1  0.000000  0.000000  0.500000  1
  Si  Si3  1  0.500000  0.500000  0.500000  1
  Si  Si4  1  0.000000  0.500000  0.875248  1
  Si  Si5  1  0.500000  0.000000  0.124752  1
  Ni  Ni6  1  0.000000  0.000000  0.000000  1
  Ni  Ni7  1  0.500000  0.500000  0.000000  1
  Ni  Ni8  1  0.000000  0.500000  0.630067  1
  Ni  Ni9  1  0.500000  0.000000  0.369933  1
