# generated using pymatgen
data_DyEr7Re2(TcB12)2
_symmetry_space_group_name_H-M   'P 1'
_cell_length_a   3.66233300
_cell_length_b   9.13293159
_cell_length_c   11.50920001
_cell_angle_alpha   90.04806636
_cell_angle_beta   90.00000000
_cell_angle_gamma   90.00000000
_symmetry_Int_Tables_number   1
_chemical_formula_structural   DyEr7Re2(TcB12)2
_chemical_formula_sum   'Dy1 Er7 Re2 Tc2 B24'
_cell_volume   384.95770773
_cell_formula_units_Z   1
loop_
 _symmetry_equiv_pos_site_id
 _symmetry_equiv_pos_as_xyz
  1  'x, y, z'
loop_
 _atom_site_type_symbol
 _atom_site_label
 _atom_site_symmetry_multiplicity
 _atom_site_fract_x
 _atom_site_fract_y
 _atom_site_fract_z
 _atom_site_occupancy
  Dy  Dy0  1  0.000000  0.323845  0.414002  1
  Er  Er1  1  0.000000  0.676006  0.586041  1
  Er  Er2  1  0.000000  0.823495  0.086053  1
  Er  Er3  1  0.000000  0.176580  0.913929  1
  Er  Er4  1  0.000000  0.942301  0.369902  1
  Er  Er5  1  0.000000  0.057627  0.630169  1
  Er  Er6  1  0.000000  0.443824  0.130362  1
  Er  Er7  1  0.000000  0.556120  0.869525  1
  Re  Re8  1  0.000000  0.138725  0.179086  1
  Re  Re9  1  0.000000  0.861109  0.820686  1
  Tc  Tc10  1  0.000000  0.639298  0.320581  1
  Tc  Tc11  1  0.000000  0.361011  0.679592  1
  B  B12  1  0.500000  0.553727  0.433140  1
  B  B13  1  0.500000  0.446752  0.567154  1
  B  B14  1  0.500000  0.053222  0.066663  1
  B  B15  1  0.500000  0.946727  0.933290  1
  B  B16  1  0.500000  0.749342  0.419025  1
  B  B17  1  0.500000  0.250677  0.581449  1
  B  B18  1  0.500000  0.249740  0.080871  1
  B  B19  1  0.500000  0.750258  0.919055  1
  B  B20  1  0.500000  0.792472  0.265357  1
  B  B21  1  0.500000  0.207545  0.734703  1
  B  B22  1  0.500000  0.292654  0.234430  1
  B  B23  1  0.500000  0.707200  0.765262  1
  B  B24  1  0.500000  0.631176  0.185364  1
  B  B25  1  0.500000  0.368907  0.814611  1
  B  B26  1  0.500000  0.130538  0.314611  1
  B  B27  1  0.500000  0.869172  0.685152  1
  B  B28  1  0.500000  0.981689  0.211860  1
  B  B29  1  0.500000  0.018215  0.788126  1
  B  B30  1  0.500000  0.482546  0.287974  1
  B  B31  1  0.500000  0.517898  0.711868  1
  B  B32  1  0.500000  0.600254  0.027901  1
  B  B33  1  0.500000  0.399778  0.972061  1
  B  B34  1  0.500000  0.099553  0.472050  1
  B  B35  1  0.500000  0.900016  0.528097  1
