# generated using pymatgen
data_Nd4Ga12Pd
_symmetry_space_group_name_H-M   'P 1'
_cell_length_a   7.66176576
_cell_length_b   7.66176744
_cell_length_c   7.66176600
_cell_angle_alpha   109.47121684
_cell_angle_beta   109.47122128
_cell_angle_gamma   109.47122302
_symmetry_Int_Tables_number   1
_chemical_formula_structural   Nd4Ga12Pd
_chemical_formula_sum   'Nd4 Ga12 Pd1'
_cell_volume   346.23010924
_cell_formula_units_Z   1
loop_
 _symmetry_equiv_pos_site_id
 _symmetry_equiv_pos_as_xyz
  1  'x, y, z'
loop_
 _atom_site_type_symbol
 _atom_site_label
 _atom_site_symmetry_multiplicity
 _atom_site_fract_x
 _atom_site_fract_y
 _atom_site_fract_z
 _atom_site_occupancy
  Nd  Nd0  1  0.000000  0.000000  0.500000  1
  Nd  Nd1  1  0.000000  0.500000  0.000000  1
  Nd  Nd2  1  0.500000  0.000000  0.000000  1
  Nd  Nd3  1  0.500000  0.500000  0.500000  1
  Ga  Ga4  1  0.750000  0.250000  0.500000  1
  Ga  Ga5  1  0.750000  0.500000  0.250000  1
  Ga  Ga6  1  0.500000  0.250000  0.750000  1
  Ga  Ga7  1  0.250000  0.500000  0.750000  1
  Ga  Ga8  1  0.250000  0.750000  0.500000  1
  Ga  Ga9  1  0.500000  0.750000  0.250000  1
  Ga  Ga10  1  0.703380  0.703380  0.000000  1
  Ga  Ga11  1  0.296620  0.000000  0.296620  1
  Ga  Ga12  1  0.000000  0.296620  0.296620  1
  Ga  Ga13  1  0.296620  0.296620  0.000000  1
  Ga  Ga14  1  0.703380  0.000000  0.703380  1
  Ga  Ga15  1  0.000000  0.703380  0.703380  1
  Pd  Pd16  1  0.000000  0.000000  0.000000  1
