# generated using pymatgen
data_Zr13Ta7Si16
_symmetry_space_group_name_H-M   'P 1'
_cell_length_a   6.99242271
_cell_length_b   7.00024751
_cell_length_c   12.88250428
_cell_angle_alpha   90.21439811
_cell_angle_beta   90.20708571
_cell_angle_gamma   89.83517409
_symmetry_Int_Tables_number   1
_chemical_formula_structural   Zr13Ta7Si16
_chemical_formula_sum   'Zr13 Ta7 Si16'
_cell_volume   630.57058483
_cell_formula_units_Z   1
loop_
 _symmetry_equiv_pos_site_id
 _symmetry_equiv_pos_as_xyz
  1  'x, y, z'
loop_
 _atom_site_type_symbol
 _atom_site_label
 _atom_site_symmetry_multiplicity
 _atom_site_fract_x
 _atom_site_fract_y
 _atom_site_fract_z
 _atom_site_occupancy
  Zr  Zr0  1  0.998993  0.851948  0.624550  1
  Zr  Zr1  1  0.647970  0.496201  0.877546  1
  Zr  Zr2  1  0.501623  0.351252  0.621919  1
  Zr  Zr3  1  0.500158  0.647180  0.125210  1
  Zr  Zr4  1  0.146060  0.000673  0.874650  1
  Zr  Zr5  1  0.001632  0.653211  0.035508  1
  Zr  Zr6  1  0.000882  0.346582  0.527823  1
  Zr  Zr7  1  0.652844  0.998613  0.970783  1
  Zr  Zr8  1  0.150913  0.497790  0.785302  1
  Zr  Zr9  1  0.846623  0.498340  0.281288  1
  Zr  Zr10  1  0.501413  0.154144  0.220563  1
  Zr  Zr11  1  0.500628  0.847748  0.712978  1
  Zr  Zr12  1  0.344445  0.001177  0.465363  1
  Ta  Ta13  1  0.351466  0.505041  0.374249  1
  Ta  Ta14  1  0.852894  0.994959  0.374195  1
  Ta  Ta15  1  0.008423  0.148193  0.127096  1
  Ta  Ta16  1  0.672979  0.673307  0.497241  1
  Ta  Ta17  1  0.825438  0.173413  0.749729  1
  Ta  Ta18  1  0.172221  0.830343  0.251485  1
  Ta  Ta19  1  0.326230  0.324451  0.002619  1
  Si  Si20  1  0.048209  0.700673  0.433602  1
  Si  Si21  1  0.953672  0.299318  0.939173  1
  Si  Si22  1  0.701138  0.048256  0.560962  1
  Si  Si23  1  0.201190  0.450383  0.187489  1
  Si  Si24  1  0.801088  0.546284  0.684830  1
  Si  Si25  1  0.452856  0.197465  0.814759  1
  Si  Si26  1  0.548829  0.798694  0.315138  1
  Si  Si27  1  0.299215  0.954143  0.066300  1
  Si  Si28  1  0.851106  0.797683  0.820368  1
  Si  Si29  1  0.137726  0.207611  0.322705  1
  Si  Si30  1  0.799294  0.863942  0.179739  1
  Si  Si31  1  0.297127  0.644559  0.566037  1
  Si  Si32  1  0.710219  0.352151  0.074877  1
  Si  Si33  1  0.640456  0.293467  0.424204  1
  Si  Si34  1  0.353555  0.702721  0.930746  1
  Si  Si35  1  0.200484  0.148082  0.678975  1
