# generated using pymatgen
data_Pr4Nd(BN3)2
_symmetry_space_group_name_H-M   'P 1'
_cell_length_a   6.46364670
_cell_length_b   6.46364663
_cell_length_c   8.94224001
_cell_angle_alpha   74.86603305
_cell_angle_beta   74.86603479
_cell_angle_gamma   32.73544601
_symmetry_Int_Tables_number   1
_chemical_formula_structural   Pr4Nd(BN3)2
_chemical_formula_sum   'Pr4 Nd1 B2 N6'
_cell_volume   194.40287118
_cell_formula_units_Z   1
loop_
 _symmetry_equiv_pos_site_id
 _symmetry_equiv_pos_as_xyz
  1  'x, y, z'
loop_
 _atom_site_type_symbol
 _atom_site_label
 _atom_site_symmetry_multiplicity
 _atom_site_fract_x
 _atom_site_fract_y
 _atom_site_fract_z
 _atom_site_occupancy
  Pr  Pr0  1  0.624296  0.624296  0.627511  1
  Pr  Pr1  1  0.307892  0.307892  0.820503  1
  Pr  Pr2  1  0.692108  0.692108  0.179497  1
  Pr  Pr3  1  0.375704  0.375704  0.372489  1
  Nd  Nd4  1  0.000000  0.000000  0.000000  1
  B  B5  1  0.055031  0.055031  0.409816  1
  B  B6  1  0.944969  0.944969  0.590184  1
  N  N7  1  0.025364  0.025364  0.261079  1
  N  N8  1  0.345068  0.345068  0.080214  1
  N  N9  1  0.827733  0.827733  0.584106  1
  N  N10  1  0.974636  0.974636  0.738921  1
  N  N11  1  0.654932  0.654932  0.919786  1
  N  N12  1  0.172267  0.172267  0.415894  1
