# generated using pymatgen
data_NdY5C2Br7
_symmetry_space_group_name_H-M   'P 1'
_cell_length_a   10.58619640
_cell_length_b   10.58619575
_cell_length_c   12.07196596
_cell_angle_alpha   57.48837020
_cell_angle_beta   57.48837272
_cell_angle_gamma   20.88379113
_symmetry_Int_Tables_number   1
_chemical_formula_structural   NdY5C2Br7
_chemical_formula_sum   'Nd1 Y5 C2 Br7'
_cell_volume   403.87006295
_cell_formula_units_Z   1
loop_
 _symmetry_equiv_pos_site_id
 _symmetry_equiv_pos_as_xyz
  1  'x, y, z'
loop_
 _atom_site_type_symbol
 _atom_site_label
 _atom_site_symmetry_multiplicity
 _atom_site_fract_x
 _atom_site_fract_y
 _atom_site_fract_z
 _atom_site_occupancy
  Nd  Nd0  1  0.229706  0.229706  0.839929  1
  Y  Y1  1  0.313321  0.313321  0.366591  1
  Y  Y2  1  0.131648  0.131648  0.442850  1
  Y  Y3  1  0.867039  0.867039  0.558282  1
  Y  Y4  1  0.687709  0.687709  0.633762  1
  Y  Y5  1  0.769177  0.769177  0.167022  1
  C  C6  1  0.280923  0.280923  0.600699  1
  C  C7  1  0.719951  0.719951  0.393866  1
  Br  Br8  1  0.164557  0.164557  0.168307  1
  Br  Br9  1  0.842733  0.842733  0.830695  1
  Br  Br10  1  0.060476  0.060476  0.715969  1
  Br  Br11  1  0.939990  0.939990  0.281611  1
  Br  Br12  1  0.500940  0.500940  0.498585  1
  Br  Br13  1  0.387280  0.387280  0.070949  1
  Br  Br14  1  0.604547  0.604547  0.930882  1
