# generated using pymatgen
data_Nb15Ni8MoN4
_symmetry_space_group_name_H-M   'P 1'
_cell_length_a   8.23859563
_cell_length_b   8.26193998
_cell_length_c   8.23859500
_cell_angle_alpha   60.09342232
_cell_angle_beta   59.99999851
_cell_angle_gamma   60.09342743
_symmetry_Int_Tables_number   1
_chemical_formula_structural   Nb15Ni8MoN4
_chemical_formula_sum   'Nb15 Ni8 Mo1 N4'
_cell_volume   397.08657752
_cell_formula_units_Z   1
loop_
 _symmetry_equiv_pos_site_id
 _symmetry_equiv_pos_as_xyz
  1  'x, y, z'
loop_
 _atom_site_type_symbol
 _atom_site_label
 _atom_site_symmetry_multiplicity
 _atom_site_fract_x
 _atom_site_fract_y
 _atom_site_fract_z
 _atom_site_occupancy
  Nb  Nb0  1  0.315688  0.682921  0.685702  1
  Nb  Nb1  1  0.125000  0.125000  0.625000  1
  Nb  Nb2  1  0.564298  0.567079  0.934312  1
  Nb  Nb3  1  0.315688  0.682921  0.315688  1
  Nb  Nb4  1  0.317614  0.317374  0.682506  1
  Nb  Nb5  1  0.682506  0.317374  0.317614  1
  Nb  Nb6  1  0.932386  0.932626  0.567494  1
  Nb  Nb7  1  0.934312  0.567079  0.934312  1
  Nb  Nb8  1  0.934312  0.567079  0.564298  1
  Nb  Nb9  1  0.567494  0.932626  0.932386  1
  Nb  Nb10  1  0.125000  0.125000  0.125000  1
  Nb  Nb11  1  0.685702  0.682921  0.315688  1
  Nb  Nb12  1  0.682506  0.317374  0.682506  1
  Nb  Nb13  1  0.567494  0.932626  0.567494  1
  Nb  Nb14  1  0.625000  0.125000  0.125000  1
  Ni  Ni15  1  0.012372  0.332889  0.327370  1
  Ni  Ni16  1  0.922630  0.917111  0.922630  1
  Ni  Ni17  1  0.327370  0.332889  0.012372  1
  Ni  Ni18  1  0.922630  0.917111  0.237628  1
  Ni  Ni19  1  0.237628  0.917111  0.922630  1
  Ni  Ni20  1  0.330469  0.008593  0.330469  1
  Ni  Ni21  1  0.919531  0.241407  0.919531  1
  Ni  Ni22  1  0.327370  0.332889  0.327370  1
  Mo  Mo23  1  0.125000  0.625000  0.125000  1
  N  N24  1  0.625000  0.125000  0.625000  1
  N  N25  1  0.625000  0.625000  0.125000  1
  N  N26  1  0.125000  0.625000  0.625000  1
  N  N27  1  0.625000  0.625000  0.625000  1
