# generated using pymatgen
data_Sc4InPd11
_symmetry_space_group_name_H-M   'P 1'
_cell_length_a   4.08560500
_cell_length_b   5.70494272
_cell_length_c   11.36541400
_cell_angle_alpha   86.77823730
_cell_angle_beta   90.00000000
_cell_angle_gamma   90.00000000
_symmetry_Int_Tables_number   1
_chemical_formula_structural   Sc4InPd11
_chemical_formula_sum   'Sc4 In1 Pd11'
_cell_volume   264.48800138
_cell_formula_units_Z   1
loop_
 _symmetry_equiv_pos_site_id
 _symmetry_equiv_pos_as_xyz
  1  'x, y, z'
loop_
 _atom_site_type_symbol
 _atom_site_label
 _atom_site_symmetry_multiplicity
 _atom_site_fract_x
 _atom_site_fract_y
 _atom_site_fract_z
 _atom_site_occupancy
  Sc  Sc0  1  0.500000  0.754968  0.377580  1
  Sc  Sc1  1  0.500000  0.714669  0.858340  1
  Sc  Sc2  1  0.500000  0.285331  0.141660  1
  Sc  Sc3  1  0.500000  0.245032  0.622420  1
  In  In4  1  0.000000  0.000000  0.000000  1
  Pd  Pd5  1  0.000000  0.013024  0.249105  1
  Pd  Pd6  1  0.000000  0.986976  0.750895  1
  Pd  Pd7  1  0.000000  0.500000  0.000000  1
  Pd  Pd8  1  0.000000  0.500000  0.500000  1
  Pd  Pd9  1  0.000000  0.516326  0.250531  1
  Pd  Pd10  1  0.000000  0.483674  0.749469  1
  Pd  Pd11  1  0.500000  0.253613  0.377316  1
  Pd  Pd12  1  0.500000  0.228101  0.881744  1
  Pd  Pd13  1  0.500000  0.771899  0.118256  1
  Pd  Pd14  1  0.500000  0.746387  0.622684  1
  Pd  Pd15  1  0.000000  0.000000  0.500000  1
