# generated using pymatgen
data_Tb10B2Cl15
_symmetry_space_group_name_H-M   'P 1'
_cell_length_a   8.71998810
_cell_length_b   9.47803519
_cell_length_c   10.30799890
_cell_angle_alpha   90.66940825
_cell_angle_beta   114.69529781
_cell_angle_gamma   111.07415876
_symmetry_Int_Tables_number   1
_chemical_formula_structural   Tb10B2Cl15
_chemical_formula_sum   'Tb10 B2 Cl15'
_cell_volume   708.95863271
_cell_formula_units_Z   1
loop_
 _symmetry_equiv_pos_site_id
 _symmetry_equiv_pos_as_xyz
  1  'x, y, z'
loop_
 _atom_site_type_symbol
 _atom_site_label
 _atom_site_symmetry_multiplicity
 _atom_site_fract_x
 _atom_site_fract_y
 _atom_site_fract_z
 _atom_site_occupancy
  Tb  Tb0  1  0.809339  0.418418  0.279611  1
  Tb  Tb1  1  0.190661  0.581582  0.720389  1
  Tb  Tb2  1  0.680534  0.742234  0.819430  1
  Tb  Tb3  1  0.319466  0.257766  0.180570  1
  Tb  Tb4  1  0.526292  0.697567  0.099836  1
  Tb  Tb5  1  0.473708  0.302433  0.900164  1
  Tb  Tb6  1  0.589534  0.039084  0.332326  1
  Tb  Tb7  1  0.410466  0.960916  0.667674  1
  Tb  Tb8  1  0.731572  0.077734  0.049876  1
  Tb  Tb9  1  0.268428  0.922266  0.950124  1
  B  B10  1  0.466384  0.817708  0.875498  1
  B  B11  1  0.533616  0.182292  0.124502  1
  Cl  Cl12  1  0.000000  0.000000  0.000000  1
  Cl  Cl13  1  0.637141  0.883978  0.586391  1
  Cl  Cl14  1  0.362859  0.116022  0.413609  1
  Cl  Cl15  1  0.883403  0.299274  0.525423  1
  Cl  Cl16  1  0.116597  0.700726  0.474577  1
  Cl  Cl17  1  0.297071  0.763928  0.182136  1
  Cl  Cl18  1  0.702929  0.236072  0.817864  1
  Cl  Cl19  1  0.057467  0.345382  0.229361  1
  Cl  Cl20  1  0.170677  0.060341  0.704751  1
  Cl  Cl21  1  0.829323  0.939659  0.295249  1
  Cl  Cl22  1  0.232307  0.409886  0.944063  1
  Cl  Cl23  1  0.767693  0.590114  0.055937  1
  Cl  Cl24  1  0.406339  0.466032  0.656919  1
  Cl  Cl25  1  0.593661  0.533968  0.343081  1
  Cl  Cl26  1  0.942533  0.654618  0.770639  1
