# generated using pymatgen
data_Nd2VMoF14
_symmetry_space_group_name_H-M   'P 1'
_cell_length_a   5.67176400
_cell_length_b   9.15569118
_cell_length_c   12.20210100
_cell_angle_alpha   62.22115095
_cell_angle_beta   90.00000000
_cell_angle_gamma   90.00000000
_symmetry_Int_Tables_number   1
_chemical_formula_structural   Nd2VMoF14
_chemical_formula_sum   'Nd4 V2 Mo2 F28'
_cell_volume   560.61664424
_cell_formula_units_Z   2
loop_
 _symmetry_equiv_pos_site_id
 _symmetry_equiv_pos_as_xyz
  1  'x, y, z'
loop_
 _atom_site_type_symbol
 _atom_site_label
 _atom_site_symmetry_multiplicity
 _atom_site_fract_x
 _atom_site_fract_y
 _atom_site_fract_z
 _atom_site_occupancy
  Nd  Nd0  1  0.758738  0.813986  0.267557  1
  Nd  Nd1  1  0.258738  0.186014  0.232443  1
  Nd  Nd2  1  0.241984  0.193030  0.736118  1
  Nd  Nd3  1  0.741984  0.806970  0.763882  1
  V  V4  1  0.244313  0.724077  0.543990  1
  V  V5  1  0.744313  0.275923  0.956010  1
  Mo  Mo6  1  0.753675  0.272915  0.457097  1
  Mo  Mo7  1  0.253675  0.727085  0.042903  1
  F  F8  1  0.969861  0.714593  0.456293  1
  F  F9  1  0.469861  0.285407  0.043707  1
  F  F10  1  0.049259  0.284644  0.540217  1
  F  F11  1  0.549259  0.715356  0.959783  1
  F  F12  1  0.051417  0.705555  0.913506  1
  F  F13  1  0.551417  0.294445  0.586494  1
  F  F14  1  0.942103  0.287927  0.073265  1
  F  F15  1  0.442103  0.712073  0.426735  1
  F  F16  1  0.730175  0.505659  0.861174  1
  F  F17  1  0.230175  0.494341  0.638826  1
  F  F18  1  0.262848  0.483649  0.138968  1
  F  F19  1  0.762848  0.516351  0.361032  1
  F  F20  1  0.743386  0.045832  0.051025  1
  F  F21  1  0.243386  0.954168  0.448975  1
  F  F22  1  0.265852  0.969944  0.949758  1
  F  F23  1  0.765852  0.030056  0.550242  1
  F  F24  1  0.049353  0.739523  0.662066  1
  F  F25  1  0.549353  0.260477  0.837934  1
  F  F26  1  0.949345  0.254748  0.323901  1
  F  F27  1  0.449345  0.745252  0.176099  1
  F  F28  1  0.010401  0.270761  0.864132  1
  F  F29  1  0.510401  0.729239  0.635868  1
  F  F30  1  0.964311  0.732487  0.131204  1
  F  F31  1  0.464311  0.267513  0.368796  1
  F  F32  1  0.099674  0.965074  0.224658  1
  F  F33  1  0.599674  0.034926  0.275342  1
  F  F34  1  0.913305  0.031710  0.766029  1
  F  F35  1  0.413305  0.968290  0.733971  1
