# generated using pymatgen
data_Tb10B2I15
_symmetry_space_group_name_H-M   'P 1'
_cell_length_a   9.64667991
_cell_length_b   10.38065195
_cell_length_c   11.32912769
_cell_angle_alpha   91.64157969
_cell_angle_beta   114.45625683
_cell_angle_gamma   110.49563700
_symmetry_Int_Tables_number   1
_chemical_formula_structural   Tb10B2I15
_chemical_formula_sum   'Tb10 B2 I15'
_cell_volume   947.06396318
_cell_formula_units_Z   1
loop_
 _symmetry_equiv_pos_site_id
 _symmetry_equiv_pos_as_xyz
  1  'x, y, z'
loop_
 _atom_site_type_symbol
 _atom_site_label
 _atom_site_symmetry_multiplicity
 _atom_site_fract_x
 _atom_site_fract_y
 _atom_site_fract_z
 _atom_site_occupancy
  Tb  Tb0  1  0.785523  0.394957  0.268447  1
  Tb  Tb1  1  0.214477  0.605043  0.731553  1
  Tb  Tb2  1  0.663475  0.751251  0.824820  1
  Tb  Tb3  1  0.336525  0.248749  0.175180  1
  Tb  Tb4  1  0.523168  0.711643  0.086327  1
  Tb  Tb5  1  0.476832  0.288357  0.913673  1
  Tb  Tb6  1  0.581112  0.043727  0.310398  1
  Tb  Tb7  1  0.418888  0.956273  0.689602  1
  Tb  Tb8  1  0.708362  0.070257  0.045668  1
  Tb  Tb9  1  0.291638  0.929743  0.954332  1
  B  B10  1  0.468200  0.822137  0.879432  1
  B  B11  1  0.531800  0.177863  0.120568  1
  I  I12  1  0.000000  0.000000  0.000000  1
  I  I13  1  0.639086  0.882738  0.582445  1
  I  I14  1  0.360914  0.117262  0.417555  1
  I  I15  1  0.885384  0.299295  0.531662  1
  I  I16  1  0.114616  0.700705  0.468338  1
  I  I17  1  0.285045  0.759976  0.178364  1
  I  I18  1  0.714955  0.240024  0.821636  1
  I  I19  1  0.055706  0.340861  0.226041  1
  I  I20  1  0.160038  0.056430  0.701547  1
  I  I21  1  0.839962  0.943570  0.298453  1
  I  I22  1  0.227417  0.409455  0.942114  1
  I  I23  1  0.772583  0.590545  0.057886  1
  I  I24  1  0.409153  0.459575  0.658742  1
  I  I25  1  0.590847  0.540425  0.341258  1
  I  I26  1  0.944294  0.659139  0.773959  1
