# generated using pymatgen
data_Sr5P3F
_symmetry_space_group_name_H-M   'P 1'
_cell_length_a   6.99038900
_cell_length_b   8.79168874
_cell_length_c   8.79168900
_cell_angle_alpha   119.99999723
_cell_angle_beta   90.00000000
_cell_angle_gamma   90.00000000
_symmetry_Int_Tables_number   1
_chemical_formula_structural   Sr5P3F
_chemical_formula_sum   'Sr10 P6 F2'
_cell_volume   467.92538718
_cell_formula_units_Z   2
loop_
 _symmetry_equiv_pos_site_id
 _symmetry_equiv_pos_as_xyz
  1  'x, y, z'
loop_
 _atom_site_type_symbol
 _atom_site_label
 _atom_site_symmetry_multiplicity
 _atom_site_fract_x
 _atom_site_fract_y
 _atom_site_fract_z
 _atom_site_occupancy
  Sr  Sr0  1  0.500000  0.333333  0.666667  1
  Sr  Sr1  1  0.500000  0.666666  0.333333  1
  Sr  Sr2  1  0.000000  0.666667  0.333333  1
  Sr  Sr3  1  0.000000  0.333334  0.666667  1
  Sr  Sr4  1  0.750000  0.248634  0.000000  1
  Sr  Sr5  1  0.750000  0.751366  0.751366  1
  Sr  Sr6  1  0.750000  0.000000  0.248634  1
  Sr  Sr7  1  0.250000  0.751366  0.000000  1
  Sr  Sr8  1  0.250000  0.248634  0.248634  1
  Sr  Sr9  1  0.250000  0.000000  0.751366  1
  P  P10  1  0.750000  0.607795  0.000000  1
  P  P11  1  0.750000  0.392205  0.392205  1
  P  P12  1  0.750000  0.000000  0.607795  1
  P  P13  1  0.250000  0.392205  0.000000  1
  P  P14  1  0.250000  0.607795  0.607795  1
  P  P15  1  0.250000  0.000000  0.392205  1
  F  F16  1  0.500000  0.000000  0.000000  1
  F  F17  1  0.000000  0.000000  0.000000  1
