# generated using pymatgen
data_TiZn8Pt3O16
_symmetry_space_group_name_H-M   'P 1'
_cell_length_a   6.15747400
_cell_length_b   6.11818631
_cell_length_c   8.60299752
_cell_angle_alpha   88.79211946
_cell_angle_beta   90.00000000
_cell_angle_gamma   90.00000000
_symmetry_Int_Tables_number   1
_chemical_formula_structural   TiZn8Pt3O16
_chemical_formula_sum   'Ti1 Zn8 Pt3 O16'
_cell_volume   324.02503697
_cell_formula_units_Z   1
loop_
 _symmetry_equiv_pos_site_id
 _symmetry_equiv_pos_as_xyz
  1  'x, y, z'
loop_
 _atom_site_type_symbol
 _atom_site_label
 _atom_site_symmetry_multiplicity
 _atom_site_fract_x
 _atom_site_fract_y
 _atom_site_fract_z
 _atom_site_occupancy
  Ti  Ti0  1  0.780409  0.500000  0.750000  1
  Zn  Zn1  1  0.997403  0.233840  0.000971  1
  Zn  Zn2  1  0.997403  0.766160  0.499029  1
  Zn  Zn3  1  0.261568  0.241815  0.627766  1
  Zn  Zn4  1  0.261568  0.758185  0.872234  1
  Zn  Zn5  1  0.233301  0.000000  0.250000  1
  Zn  Zn6  1  0.754607  0.000000  0.750000  1
  Zn  Zn7  1  0.746927  0.254526  0.375069  1
  Zn  Zn8  1  0.746927  0.745474  0.124931  1
  Pt  Pt9  1  0.245305  0.500000  0.250000  1
  Pt  Pt10  1  0.499305  0.748201  0.502559  1
  Pt  Pt11  1  0.499305  0.251799  0.997441  1
  O  O12  1  0.523847  0.736639  0.738572  1
  O  O13  1  0.523847  0.263361  0.761428  1
  O  O14  1  0.739964  0.977711  0.508123  1
  O  O15  1  0.739964  0.022289  0.991877  1
  O  O16  1  0.737408  0.511649  0.519343  1
  O  O17  1  0.737408  0.488351  0.980657  1
  O  O18  1  0.980684  0.732013  0.755415  1
  O  O19  1  0.980684  0.267987  0.744585  1
  O  O20  1  0.015285  0.739310  0.255153  1
  O  O21  1  0.015285  0.260690  0.244847  1
  O  O22  1  0.252675  0.521202  0.487743  1
  O  O23  1  0.252675  0.478798  0.012257  1
  O  O24  1  0.260726  0.978373  0.495476  1
  O  O25  1  0.260726  0.021627  0.004524  1
  O  O26  1  0.477397  0.743411  0.263581  1
  O  O27  1  0.477397  0.256589  0.236419  1
