# generated using pymatgen
data_Na2Li4(ReH9)3
_symmetry_space_group_name_H-M   'P 1'
_cell_length_a   8.27908719
_cell_length_b   8.24984545
_cell_length_c   4.94169100
_cell_angle_alpha   90.00000000
_cell_angle_beta   90.00000000
_cell_angle_gamma   119.88324674
_symmetry_Int_Tables_number   1
_chemical_formula_structural   Na2Li4(ReH9)3
_chemical_formula_sum   'Na2 Li4 Re3 H27'
_cell_volume   292.64710045
_cell_formula_units_Z   1
loop_
 _symmetry_equiv_pos_site_id
 _symmetry_equiv_pos_as_xyz
  1  'x, y, z'
loop_
 _atom_site_type_symbol
 _atom_site_label
 _atom_site_symmetry_multiplicity
 _atom_site_fract_x
 _atom_site_fract_y
 _atom_site_fract_z
 _atom_site_occupancy
  Na  Na0  1  0.402594  0.403151  0.000000  1
  Na  Na1  1  0.597406  0.000558  0.000000  1
  Li  Li2  1  0.000000  0.274158  0.500000  1
  Li  Li3  1  0.734755  0.731414  0.500000  1
  Li  Li4  1  0.265245  0.996659  0.500000  1
  Li  Li5  1  0.000000  0.607762  0.000000  1
  Re  Re6  1  0.674333  0.340119  0.500000  1
  Re  Re7  1  0.325667  0.665786  0.500000  1
  Re  Re8  1  0.000000  0.989340  0.000000  1
  H  H9  1  0.818074  0.337799  0.747961  1
  H  H10  1  0.685195  0.489155  0.747306  1
  H  H11  1  0.519795  0.197171  0.741116  1
  H  H12  1  0.181926  0.519728  0.252039  1
  H  H13  1  0.519795  0.197171  0.258884  1
  H  H14  1  0.818074  0.337799  0.252039  1
  H  H15  1  0.685195  0.489155  0.252694  1
  H  H16  1  0.314805  0.803962  0.747306  1
  H  H17  1  0.480205  0.677378  0.741116  1
  H  H18  1  0.207288  0.998444  0.000000  1
  H  H19  1  0.792712  0.791155  0.000000  1
  H  H20  1  0.000000  0.193996  0.000000  1
  H  H21  1  0.858561  0.991589  0.250514  1
  H  H22  1  0.141439  0.133028  0.749486  1
  H  H23  1  0.000000  0.837327  0.763358  1
  H  H24  1  0.000000  0.837327  0.236642  1
  H  H25  1  0.141439  0.133028  0.250514  1
  H  H26  1  0.858561  0.991589  0.749486  1
  H  H27  1  0.121906  0.661287  0.500000  1
  H  H28  1  0.518136  0.875869  0.500000  1
  H  H29  1  0.327508  0.463213  0.500000  1
  H  H30  1  0.481864  0.357732  0.500000  1
  H  H31  1  0.878094  0.539380  0.500000  1
  H  H32  1  0.672492  0.135703  0.500000  1
  H  H33  1  0.181926  0.519728  0.747961  1
  H  H34  1  0.314805  0.803962  0.252694  1
  H  H35  1  0.480205  0.677378  0.258884  1
