# generated using pymatgen
data_Tb3Th5(BiPt2)4
_symmetry_space_group_name_H-M   'P 1'
_cell_length_a   8.03706000
_cell_length_b   8.03705907
_cell_length_c   7.52596900
_cell_angle_alpha   90.00000000
_cell_angle_beta   90.00000000
_cell_angle_gamma   90.55280149
_symmetry_Int_Tables_number   1
_chemical_formula_structural   Tb3Th5(BiPt2)4
_chemical_formula_sum   'Tb3 Th5 Bi4 Pt8'
_cell_volume   486.11226857
_cell_formula_units_Z   1
loop_
 _symmetry_equiv_pos_site_id
 _symmetry_equiv_pos_as_xyz
  1  'x, y, z'
loop_
 _atom_site_type_symbol
 _atom_site_label
 _atom_site_symmetry_multiplicity
 _atom_site_fract_x
 _atom_site_fract_y
 _atom_site_fract_z
 _atom_site_occupancy
  Tb  Tb0  1  0.664809  0.664809  0.500000  1
  Tb  Tb1  1  0.837718  0.161436  0.000000  1
  Tb  Tb2  1  0.161436  0.837718  0.000000  1
  Th  Th3  1  0.677682  0.677682  0.000000  1
  Th  Th4  1  0.338321  0.338321  0.500000  1
  Th  Th5  1  0.823703  0.175472  0.500000  1
  Th  Th6  1  0.323342  0.323342  0.000000  1
  Th  Th7  1  0.175472  0.823703  0.500000  1
  Bi  Bi8  1  0.501794  0.996288  0.751881  1
  Bi  Bi9  1  0.501794  0.996288  0.248119  1
  Bi  Bi10  1  0.996288  0.501794  0.751881  1
  Bi  Bi11  1  0.996288  0.501794  0.248119  1
  Pt  Pt12  1  0.874652  0.874652  0.735253  1
  Pt  Pt13  1  0.127468  0.127468  0.736212  1
  Pt  Pt14  1  0.625623  0.372936  0.765150  1
  Pt  Pt15  1  0.625623  0.372936  0.234850  1
  Pt  Pt16  1  0.372936  0.625623  0.234850  1
  Pt  Pt17  1  0.127468  0.127468  0.263788  1
  Pt  Pt18  1  0.874652  0.874652  0.264747  1
  Pt  Pt19  1  0.372936  0.625623  0.765150  1
