# generated using pymatgen
data_Zr2UMnAl3Co2
_symmetry_space_group_name_H-M   'P 1'
_cell_length_a   6.88759914
_cell_length_b   7.15592748
_cell_length_c   3.49549000
_cell_angle_alpha   90.00000000
_cell_angle_beta   90.00000000
_cell_angle_gamma   122.50626771
_symmetry_Int_Tables_number   1
_chemical_formula_structural   Zr2UMnAl3Co2
_chemical_formula_sum   'Zr2 U1 Mn1 Al3 Co2'
_cell_volume   145.29169138
_cell_formula_units_Z   1
loop_
 _symmetry_equiv_pos_site_id
 _symmetry_equiv_pos_as_xyz
  1  'x, y, z'
loop_
 _atom_site_type_symbol
 _atom_site_label
 _atom_site_symmetry_multiplicity
 _atom_site_fract_x
 _atom_site_fract_y
 _atom_site_fract_z
 _atom_site_occupancy
  Zr  Zr0  1  0.412016  0.410295  0.500000  1
  Zr  Zr1  1  0.584954  0.987764  0.500000  1
  U  U2  1  0.979579  0.561631  0.500000  1
  Mn  Mn3  1  0.716039  0.378385  0.000000  1
  Al  Al4  1  0.742325  0.756683  0.000000  1
  Al  Al5  1  0.255394  0.006698  0.000000  1
  Al  Al6  1  0.000805  0.231185  0.000000  1
  Co  Co7  1  0.306368  0.667712  0.000000  1
  Co  Co8  1  0.002521  0.999648  0.500000  1
