# generated using pymatgen
data_V9PdSe16
_symmetry_space_group_name_H-M   'P 1'
_cell_length_a   6.74829800
_cell_length_b   6.74829757
_cell_length_c   12.77573900
_cell_angle_alpha   90.00000000
_cell_angle_beta   90.00000000
_cell_angle_gamma   120.00000212
_symmetry_Int_Tables_number   1
_chemical_formula_structural   V9PdSe16
_chemical_formula_sum   'V9 Pd1 Se16'
_cell_volume   503.85448685
_cell_formula_units_Z   1
loop_
 _symmetry_equiv_pos_site_id
 _symmetry_equiv_pos_as_xyz
  1  'x, y, z'
loop_
 _atom_site_type_symbol
 _atom_site_label
 _atom_site_symmetry_multiplicity
 _atom_site_fract_x
 _atom_site_fract_y
 _atom_site_fract_z
 _atom_site_occupancy
  V  V0  1  0.000000  0.000000  0.253042  1
  V  V1  1  0.000000  0.000000  0.746958  1
  V  V2  1  0.509973  0.019947  0.252154  1
  V  V3  1  0.490027  0.980053  0.747846  1
  V  V4  1  0.980053  0.490027  0.252154  1
  V  V5  1  0.019947  0.509973  0.747846  1
  V  V6  1  0.509973  0.490027  0.252154  1
  V  V7  1  0.490027  0.509973  0.747846  1
  V  V8  1  0.000000  0.000000  0.500000  1
  Pd  Pd9  1  0.000000  0.000000  0.000000  1
  Se  Se10  1  0.333333  0.666667  0.618884  1
  Se  Se11  1  0.666667  0.333333  0.381116  1
  Se  Se12  1  0.666667  0.333333  0.123574  1
  Se  Se13  1  0.333333  0.666667  0.876426  1
  Se  Se14  1  0.169815  0.339631  0.131780  1
  Se  Se15  1  0.830185  0.660369  0.868220  1
  Se  Se16  1  0.660369  0.830185  0.131780  1
  Se  Se17  1  0.832694  0.665387  0.626549  1
  Se  Se18  1  0.339631  0.169815  0.868220  1
  Se  Se19  1  0.167306  0.334613  0.373451  1
  Se  Se20  1  0.169815  0.830185  0.131780  1
  Se  Se21  1  0.334613  0.167306  0.626549  1
  Se  Se22  1  0.830185  0.169815  0.868220  1
  Se  Se23  1  0.665387  0.832694  0.373451  1
  Se  Se24  1  0.832694  0.167306  0.626549  1
  Se  Se25  1  0.167306  0.832694  0.373451  1
