# generated using pymatgen
data_Tm16In4Ir2RuRh
_symmetry_space_group_name_H-M   'P 1'
_cell_length_a   9.56437601
_cell_length_b   9.52969576
_cell_length_c   9.53378021
_cell_angle_alpha   59.78472350
_cell_angle_beta   59.89378114
_cell_angle_gamma   59.87954380
_symmetry_Int_Tables_number   1
_chemical_formula_structural   Tm16In4Ir2RuRh
_chemical_formula_sum   'Tm16 In4 Ir2 Ru1 Rh1'
_cell_volume   612.39346220
_cell_formula_units_Z   1
loop_
 _symmetry_equiv_pos_site_id
 _symmetry_equiv_pos_as_xyz
  1  'x, y, z'
loop_
 _atom_site_type_symbol
 _atom_site_label
 _atom_site_symmetry_multiplicity
 _atom_site_fract_x
 _atom_site_fract_y
 _atom_site_fract_z
 _atom_site_occupancy
  Tm  Tm0  1  0.059047  0.059137  0.439100  1
  Tm  Tm1  1  0.442716  0.059137  0.439100  1
  Tm  Tm2  1  0.061038  0.440094  0.060158  1
  Tm  Tm3  1  0.046590  0.651462  0.649938  1
  Tm  Tm4  1  0.438710  0.440094  0.060158  1
  Tm  Tm5  1  0.651710  0.046552  0.650028  1
  Tm  Tm6  1  0.189238  0.809325  0.193432  1
  Tm  Tm7  1  0.191047  0.191984  0.809020  1
  Tm  Tm8  1  0.808007  0.809325  0.193432  1
  Tm  Tm9  1  0.440384  0.060013  0.059218  1
  Tm  Tm10  1  0.808919  0.189211  0.192953  1
  Tm  Tm11  1  0.060216  0.442370  0.437199  1
  Tm  Tm12  1  0.807949  0.191984  0.809020  1
  Tm  Tm13  1  0.191554  0.808587  0.808305  1
  Tm  Tm14  1  0.650786  0.650438  0.047990  1
  Tm  Tm15  1  0.652012  0.651462  0.649938  1
  In  In16  1  0.416336  0.416399  0.416533  1
  In  In17  1  0.750732  0.416399  0.416533  1
  In  In18  1  0.416488  0.750390  0.416634  1
  In  In19  1  0.416871  0.416908  0.749350  1
  Ir  Ir20  1  0.859250  0.858610  0.859754  1
  Ir  Ir21  1  0.422387  0.858610  0.859754  1
  Ru  Ru22  1  0.859108  0.858157  0.423625  1
  Rh  Rh23  1  0.858906  0.423356  0.858832  1
