# generated using pymatgen
data_KLiPdSe5
_symmetry_space_group_name_H-M   'P 1'
_cell_length_a   7.73991500
_cell_length_b   6.19007734
_cell_length_c   9.14243529
_cell_angle_alpha   78.32533089
_cell_angle_beta   90.00000000
_cell_angle_gamma   90.00000000
_symmetry_Int_Tables_number   1
_chemical_formula_structural   KLiPdSe5
_chemical_formula_sum   'K2 Li2 Pd2 Se10'
_cell_volume   428.95862187
_cell_formula_units_Z   2
loop_
 _symmetry_equiv_pos_site_id
 _symmetry_equiv_pos_as_xyz
  1  'x, y, z'
loop_
 _atom_site_type_symbol
 _atom_site_label
 _atom_site_symmetry_multiplicity
 _atom_site_fract_x
 _atom_site_fract_y
 _atom_site_fract_z
 _atom_site_occupancy
  K  K0  1  0.250000  0.252109  0.954557  1
  K  K1  1  0.750000  0.747891  0.045443  1
  Li  Li2  1  0.750000  0.865074  0.604514  1
  Li  Li3  1  0.250000  0.134926  0.395486  1
  Pd  Pd4  1  0.500000  0.500000  0.500000  1
  Pd  Pd5  1  0.000000  0.500000  0.500000  1
  Se  Se6  1  0.750000  0.282275  0.618894  1
  Se  Se7  1  0.250000  0.717725  0.381106  1
  Se  Se8  1  0.750000  0.300759  0.876432  1
  Se  Se9  1  0.250000  0.699241  0.123568  1
  Se  Se10  1  0.250000  0.936818  0.677805  1
  Se  Se11  1  0.750000  0.063182  0.322195  1
  Se  Se12  1  0.018627  0.664334  0.727759  1
  Se  Se13  1  0.518627  0.335666  0.272241  1
  Se  Se14  1  0.981373  0.335666  0.272241  1
  Se  Se15  1  0.481373  0.664334  0.727759  1
