# generated using pymatgen
data_Sr5CaSn8AsAu
_symmetry_space_group_name_H-M   'P 1'
_cell_length_a   8.86408376
_cell_length_b   8.86408464
_cell_length_c   8.86408414
_cell_angle_alpha   120.26959561
_cell_angle_beta   120.26959487
_cell_angle_gamma   89.53367895
_symmetry_Int_Tables_number   1
_chemical_formula_structural   Sr5CaSn8AsAu
_chemical_formula_sum   'Sr5 Ca1 Sn8 As1 Au1'
_cell_volume   490.45333229
_cell_formula_units_Z   1
loop_
 _symmetry_equiv_pos_site_id
 _symmetry_equiv_pos_as_xyz
  1  'x, y, z'
loop_
 _atom_site_type_symbol
 _atom_site_label
 _atom_site_symmetry_multiplicity
 _atom_site_fract_x
 _atom_site_fract_y
 _atom_site_fract_z
 _atom_site_occupancy
  Sr  Sr0  1  0.760566  0.760566  0.000000  1
  Sr  Sr1  1  0.153774  0.676105  0.828733  1
  Sr  Sr2  1  0.847375  0.325044  0.171267  1
  Sr  Sr3  1  0.676105  0.847375  0.522332  1
  Sr  Sr4  1  0.325044  0.153774  0.477668  1
  Ca  Ca5  1  0.237190  0.237190  0.000000  1
  Sn  Sn6  1  0.828164  0.335747  0.786678  1
  Sn  Sn7  1  0.174935  0.660742  0.211456  1
  Sn  Sn8  1  0.549069  0.041486  0.213322  1
  Sn  Sn9  1  0.335747  0.549069  0.507583  1
  Sn  Sn10  1  0.963478  0.174935  0.514193  1
  Sn  Sn11  1  0.449286  0.963478  0.788544  1
  Sn  Sn12  1  0.660742  0.449286  0.485807  1
  Sn  Sn13  1  0.041486  0.828164  0.492417  1
  As  As14  1  0.005927  0.005927  0.000000  1
  Au  Au15  1  0.491113  0.491113  0.000000  1
