# generated using pymatgen
data_Ho3Er17Bi12
_symmetry_space_group_name_H-M   'P 1'
_cell_length_a   8.20140500
_cell_length_b   9.47714400
_cell_length_c   11.95456800
_cell_angle_alpha   90.00000000
_cell_angle_beta   90.00218259
_cell_angle_gamma   90.00000000
_symmetry_Int_Tables_number   1
_chemical_formula_structural   Ho3Er17Bi12
_chemical_formula_sum   'Ho3 Er17 Bi12'
_cell_volume   929.17951100
_cell_formula_units_Z   1
loop_
 _symmetry_equiv_pos_site_id
 _symmetry_equiv_pos_as_xyz
  1  'x, y, z'
loop_
 _atom_site_type_symbol
 _atom_site_label
 _atom_site_symmetry_multiplicity
 _atom_site_fract_x
 _atom_site_fract_y
 _atom_site_fract_z
 _atom_site_occupancy
  Ho  Ho0  1  0.814605  0.250000  0.281911  1
  Ho  Ho1  1  0.685374  0.750000  0.781898  1
  Ho  Ho2  1  0.185375  0.750000  0.718099  1
  Er  Er3  1  0.353787  0.750000  0.216244  1
  Er  Er4  1  0.853802  0.750000  0.283761  1
  Er  Er5  1  0.646208  0.250000  0.783781  1
  Er  Er6  1  0.146212  0.250000  0.716221  1
  Er  Er7  1  0.692118  0.564395  0.059060  1
  Er  Er8  1  0.192099  0.935601  0.440938  1
  Er  Er9  1  0.307886  0.064397  0.940950  1
  Er  Er10  1  0.807897  0.435605  0.559058  1
  Er  Er11  1  0.307886  0.435603  0.940950  1
  Er  Er12  1  0.807897  0.064395  0.559058  1
  Er  Er13  1  0.692118  0.935605  0.059060  1
  Er  Er14  1  0.192099  0.564399  0.440938  1
  Er  Er15  1  0.477009  0.250000  0.489052  1
  Er  Er16  1  0.977029  0.250000  0.010936  1
  Er  Er17  1  0.522996  0.750000  0.510920  1
  Er  Er18  1  0.023019  0.750000  0.989079  1
  Er  Er19  1  0.314617  0.250000  0.218038  1
  Bi  Bi20  1  0.405349  0.750000  0.957572  1
  Bi  Bi21  1  0.905344  0.750000  0.542431  1
  Bi  Bi22  1  0.594566  0.250000  0.042496  1
  Bi  Bi23  1  0.094687  0.250000  0.457546  1
  Bi  Bi24  1  0.565846  0.996231  0.325707  1
  Bi  Bi25  1  0.065946  0.503748  0.174282  1
  Bi  Bi26  1  0.434114  0.496195  0.674282  1
  Bi  Bi27  1  0.934105  0.003810  0.825731  1
  Bi  Bi28  1  0.434114  0.003805  0.674282  1
  Bi  Bi29  1  0.934105  0.496190  0.825731  1
  Bi  Bi30  1  0.565846  0.503769  0.325707  1
  Bi  Bi31  1  0.065946  0.996252  0.174282  1
