# generated using pymatgen
data_Y4HgPd3Pb2
_symmetry_space_group_name_H-M   'P 1'
_cell_length_a   8.09194062
_cell_length_b   8.09194062
_cell_length_c   3.65201900
_cell_angle_alpha   90.00000000
_cell_angle_beta   90.00000000
_cell_angle_gamma   89.23013494
_symmetry_Int_Tables_number   1
_chemical_formula_structural   Y4HgPd3Pb2
_chemical_formula_sum   'Y4 Hg1 Pd3 Pb2'
_cell_volume   239.11080230
_cell_formula_units_Z   1
loop_
 _symmetry_equiv_pos_site_id
 _symmetry_equiv_pos_as_xyz
  1  'x, y, z'
loop_
 _atom_site_type_symbol
 _atom_site_label
 _atom_site_symmetry_multiplicity
 _atom_site_fract_x
 _atom_site_fract_y
 _atom_site_fract_z
 _atom_site_occupancy
  Y  Y0  1  0.654842  0.154842  0.500000  1
  Y  Y1  1  0.190838  0.334617  0.500000  1
  Y  Y2  1  0.834617  0.690838  0.500000  1
  Y  Y3  1  0.327206  0.827206  0.500000  1
  Hg  Hg4  1  0.875585  0.375585  0.000000  1
  Pd  Pd5  1  0.372061  0.120704  0.000000  1
  Pd  Pd6  1  0.620704  0.872061  0.000000  1
  Pd  Pd7  1  0.123445  0.623445  0.000000  1
  Pb  Pb8  1  0.004793  0.995909  0.000000  1
  Pb  Pb9  1  0.495909  0.504793  0.000000  1
