# generated using pymatgen
data_Ta4CuAs
_symmetry_space_group_name_H-M   'P 1'
_cell_length_a   5.07644700
_cell_length_b   5.07644726
_cell_length_c   5.07644735
_cell_angle_alpha   104.13042418
_cell_angle_beta   104.13042849
_cell_angle_gamma   120.77980035
_symmetry_Int_Tables_number   1
_chemical_formula_structural   Ta4CuAs
_chemical_formula_sum   'Ta4 Cu1 As1'
_cell_volume   97.71636161
_cell_formula_units_Z   1
loop_
 _symmetry_equiv_pos_site_id
 _symmetry_equiv_pos_as_xyz
  1  'x, y, z'
loop_
 _atom_site_type_symbol
 _atom_site_label
 _atom_site_symmetry_multiplicity
 _atom_site_fract_x
 _atom_site_fract_y
 _atom_site_fract_z
 _atom_site_occupancy
  Ta  Ta0  1  0.157984  0.657984  0.815968  1
  Ta  Ta1  1  0.342016  0.157984  0.500000  1
  Ta  Ta2  1  0.657984  0.842016  0.500000  1
  Ta  Ta3  1  0.842016  0.342016  0.184032  1
  Cu  Cu4  1  0.750000  0.750000  0.000000  1
  As  As5  1  0.250000  0.250000  0.000000  1
