# generated using pymatgen
data_Tb7Tm(Sc3Sn4)4
_symmetry_space_group_name_H-M   'P 1'
_cell_length_a   7.70050891
_cell_length_b   7.95575225
_cell_length_c   14.84634024
_cell_angle_alpha   90.00258023
_cell_angle_beta   90.07556197
_cell_angle_gamma   90.02863118
_symmetry_Int_Tables_number   1
_chemical_formula_structural   Tb7Tm(Sc3Sn4)4
_chemical_formula_sum   'Tb7 Tm1 Sc12 Sn16'
_cell_volume   909.53550061
_cell_formula_units_Z   1
loop_
 _symmetry_equiv_pos_site_id
 _symmetry_equiv_pos_as_xyz
  1  'x, y, z'
loop_
 _atom_site_type_symbol
 _atom_site_label
 _atom_site_symmetry_multiplicity
 _atom_site_fract_x
 _atom_site_fract_y
 _atom_site_fract_z
 _atom_site_occupancy
  Tb  Tb0  1  0.993256  0.177002  0.094062  1
  Tb  Tb1  1  0.006749  0.822709  0.905309  1
  Tb  Tb2  1  0.506321  0.677207  0.906331  1
  Tb  Tb3  1  0.006576  0.822471  0.594167  1
  Tb  Tb4  1  0.493469  0.322788  0.094033  1
  Tb  Tb5  1  0.993756  0.177202  0.406321  1
  Tb  Tb6  1  0.493070  0.323027  0.406301  1
  Tm  Tm7  1  0.507704  0.677840  0.594322  1
  Sc  Sc8  1  0.166829  0.495892  0.749747  1
  Sc  Sc9  1  0.833057  0.504507  0.250109  1
  Sc  Sc10  1  0.333130  0.995445  0.250102  1
  Sc  Sc11  1  0.666732  0.004468  0.749754  1
  Sc  Sc12  1  0.338295  0.160914  0.627627  1
  Sc  Sc13  1  0.661308  0.838573  0.372696  1
  Sc  Sc14  1  0.161545  0.660826  0.372747  1
  Sc  Sc15  1  0.661688  0.839235  0.127480  1
  Sc  Sc16  1  0.838086  0.339601  0.627376  1
  Sc  Sc17  1  0.338307  0.160595  0.872092  1
  Sc  Sc18  1  0.838104  0.339201  0.872253  1
  Sc  Sc19  1  0.161661  0.660971  0.127471  1
  Sn  Sn20  1  0.029555  0.124509  0.749861  1
  Sn  Sn21  1  0.970382  0.875534  0.250141  1
  Sn  Sn22  1  0.470252  0.624292  0.249953  1
  Sn  Sn23  1  0.529425  0.376433  0.749910  1
  Sn  Sn24  1  0.310688  0.848816  0.749144  1
  Sn  Sn25  1  0.690730  0.150083  0.250094  1
  Sn  Sn26  1  0.190660  0.349866  0.250001  1
  Sn  Sn27  1  0.807982  0.650160  0.749491  1
  Sn  Sn28  1  0.183570  0.458379  0.542869  1
  Sn  Sn29  1  0.817347  0.543253  0.457943  1
  Sn  Sn30  1  0.319282  0.956442  0.457680  1
  Sn  Sn31  1  0.818644  0.542990  0.042625  1
  Sn  Sn32  1  0.680780  0.041799  0.542801  1
  Sn  Sn33  1  0.181036  0.456892  0.957284  1
  Sn  Sn34  1  0.681569  0.042858  0.957336  1
  Sn  Sn35  1  0.318455  0.957218  0.042566  1
