# generated using pymatgen
data_Dy7Ho5(TcIr)2
_symmetry_space_group_name_H-M   'P 1'
_cell_length_a   6.32531057
_cell_length_b   7.32458127
_cell_length_c   9.16204655
_cell_angle_alpha   89.99778850
_cell_angle_beta   90.19702231
_cell_angle_gamma   90.03086853
_symmetry_Int_Tables_number   1
_chemical_formula_structural   Dy7Ho5(TcIr)2
_chemical_formula_sum   'Dy7 Ho5 Tc2 Ir2'
_cell_volume   424.47734793
_cell_formula_units_Z   1
loop_
 _symmetry_equiv_pos_site_id
 _symmetry_equiv_pos_as_xyz
  1  'x, y, z'
loop_
 _atom_site_type_symbol
 _atom_site_label
 _atom_site_symmetry_multiplicity
 _atom_site_fract_x
 _atom_site_fract_y
 _atom_site_fract_z
 _atom_site_occupancy
  Dy  Dy0  1  0.328268  0.677145  0.065618  1
  Dy  Dy1  1  0.171654  0.177087  0.434220  1
  Dy  Dy2  1  0.668891  0.323433  0.560684  1
  Dy  Dy3  1  0.873488  0.537868  0.249790  1
  Dy  Dy4  1  0.626562  0.037635  0.249848  1
  Dy  Dy5  1  0.133347  0.460152  0.750515  1
  Dy  Dy6  1  0.366624  0.959928  0.749731  1
  Ho  Ho7  1  0.831185  0.823612  0.939156  1
  Ho  Ho8  1  0.667950  0.323873  0.938995  1
  Ho  Ho9  1  0.832170  0.823760  0.561242  1
  Ho  Ho10  1  0.329561  0.676956  0.434378  1
  Ho  Ho11  1  0.170350  0.176819  0.065545  1
  Tc  Tc12  1  0.035270  0.886195  0.250247  1
  Tc  Tc13  1  0.464452  0.386312  0.249473  1
  Ir  Ir14  1  0.954476  0.114304  0.751308  1
  Ir  Ir15  1  0.545754  0.614919  0.749251  1
