# generated using pymatgen
data_HoBi3O7
_symmetry_space_group_name_H-M   'P 1'
_cell_length_a   6.64727089
_cell_length_b   6.85851245
_cell_length_c   7.84639287
_cell_angle_alpha   106.68313328
_cell_angle_beta   89.38234878
_cell_angle_gamma   99.22972083
_symmetry_Int_Tables_number   1
_chemical_formula_structural   HoBi3O7
_chemical_formula_sum   'Ho2 Bi6 O14'
_cell_volume   337.99088696
_cell_formula_units_Z   2
loop_
 _symmetry_equiv_pos_site_id
 _symmetry_equiv_pos_as_xyz
  1  'x, y, z'
loop_
 _atom_site_type_symbol
 _atom_site_label
 _atom_site_symmetry_multiplicity
 _atom_site_fract_x
 _atom_site_fract_y
 _atom_site_fract_z
 _atom_site_occupancy
  Ho  Ho0  1  0.460830  0.003734  0.248865  1
  Ho  Ho1  1  0.539170  0.996266  0.751135  1
  Bi  Bi2  1  0.000000  0.000000  0.500000  1
  Bi  Bi3  1  0.000000  0.000000  0.000000  1
  Bi  Bi4  1  0.260449  0.517094  0.878780  1
  Bi  Bi5  1  0.739551  0.482906  0.121220  1
  Bi  Bi6  1  0.722297  0.462270  0.608525  1
  Bi  Bi7  1  0.277703  0.537730  0.391475  1
  O  O8  1  0.464642  0.660299  0.184143  1
  O  O9  1  0.535358  0.339701  0.815857  1
  O  O10  1  0.304689  0.944158  0.953011  1
  O  O11  1  0.695311  0.055842  0.046989  1
  O  O12  1  0.298234  0.918702  0.512236  1
  O  O13  1  0.701766  0.081298  0.487764  1
  O  O14  1  0.530189  0.348906  0.351539  1
  O  O15  1  0.469811  0.651094  0.648461  1
  O  O16  1  0.916163  0.675192  0.960670  1
  O  O17  1  0.083837  0.324808  0.039330  1
  O  O18  1  0.097162  0.324625  0.623517  1
  O  O19  1  0.902838  0.675375  0.376483  1
  O  O20  1  0.876651  0.933669  0.733104  1
  O  O21  1  0.123349  0.066331  0.266896  1
