# generated using pymatgen
data_Hf18Mn2ZnRe6P
_symmetry_space_group_name_H-M   'P 1'
_cell_length_a   8.51900700
_cell_length_b   8.51900684
_cell_length_c   8.56034200
_cell_angle_alpha   90.00000000
_cell_angle_beta   90.00000000
_cell_angle_gamma   120.00000452
_symmetry_Int_Tables_number   1
_chemical_formula_structural   Hf18Mn2ZnRe6P
_chemical_formula_sum   'Hf18 Mn2 Zn1 Re6 P1'
_cell_volume   538.02154792
_cell_formula_units_Z   1
loop_
 _symmetry_equiv_pos_site_id
 _symmetry_equiv_pos_as_xyz
  1  'x, y, z'
loop_
 _atom_site_type_symbol
 _atom_site_label
 _atom_site_symmetry_multiplicity
 _atom_site_fract_x
 _atom_site_fract_y
 _atom_site_fract_z
 _atom_site_occupancy
  Hf  Hf0  1  0.191980  0.808020  0.449969  1
  Hf  Hf1  1  0.191980  0.383959  0.449969  1
  Hf  Hf2  1  0.616041  0.808020  0.449969  1
  Hf  Hf3  1  0.805847  0.194153  0.549942  1
  Hf  Hf4  1  0.805847  0.611694  0.549942  1
  Hf  Hf5  1  0.388306  0.194153  0.549942  1
  Hf  Hf6  1  0.805847  0.194153  0.950058  1
  Hf  Hf7  1  0.805847  0.611694  0.950058  1
  Hf  Hf8  1  0.388306  0.194153  0.950058  1
  Hf  Hf9  1  0.191980  0.808020  0.050031  1
  Hf  Hf10  1  0.191980  0.383959  0.050031  1
  Hf  Hf11  1  0.616041  0.808020  0.050031  1
  Hf  Hf12  1  0.541412  0.458588  0.250000  1
  Hf  Hf13  1  0.541412  0.082825  0.250000  1
  Hf  Hf14  1  0.917175  0.458588  0.250000  1
  Hf  Hf15  1  0.458961  0.541039  0.750000  1
  Hf  Hf16  1  0.458961  0.917923  0.750000  1
  Hf  Hf17  1  0.082077  0.541039  0.750000  1
  Mn  Mn18  1  0.000000  0.000000  0.500876  1
  Mn  Mn19  1  0.000000  0.000000  0.999124  1
  Zn  Zn20  1  0.333333  0.666667  0.250000  1
  Re  Re21  1  0.892721  0.107279  0.250000  1
  Re  Re22  1  0.892721  0.785441  0.250000  1
  Re  Re23  1  0.214559  0.107279  0.250000  1
  Re  Re24  1  0.106899  0.893101  0.750000  1
  Re  Re25  1  0.106899  0.213801  0.750000  1
  Re  Re26  1  0.786199  0.893101  0.750000  1
  P  P27  1  0.666667  0.333333  0.750000  1
