# generated using pymatgen
data_Th4In2AgRu3
_symmetry_space_group_name_H-M   'P 1'
_cell_length_a   7.85180800
_cell_length_b   7.85180820
_cell_length_c   3.75541900
_cell_angle_alpha   90.00000000
_cell_angle_beta   90.00000000
_cell_angle_gamma   89.55464349
_symmetry_Int_Tables_number   1
_chemical_formula_structural   Th4In2AgRu3
_chemical_formula_sum   'Th4 In2 Ag1 Ru3'
_cell_volume   231.51793105
_cell_formula_units_Z   1
loop_
 _symmetry_equiv_pos_site_id
 _symmetry_equiv_pos_as_xyz
  1  'x, y, z'
loop_
 _atom_site_type_symbol
 _atom_site_label
 _atom_site_symmetry_multiplicity
 _atom_site_fract_x
 _atom_site_fract_y
 _atom_site_fract_z
 _atom_site_occupancy
  Th  Th0  1  0.645137  0.145137  0.500000  1
  Th  Th1  1  0.195386  0.340202  0.500000  1
  Th  Th2  1  0.322906  0.822906  0.500000  1
  Th  Th3  1  0.840202  0.695386  0.500000  1
  In  In4  1  0.003619  0.010180  0.000000  1
  In  In5  1  0.510180  0.503619  0.000000  1
  Ag  Ag6  1  0.866580  0.366580  0.000000  1
  Ru  Ru7  1  0.631707  0.859112  0.000000  1
  Ru  Ru8  1  0.125170  0.625170  0.000000  1
  Ru  Ru9  1  0.359112  0.131707  0.000000  1
