# generated using pymatgen
data_PrSm5OsI10
_symmetry_space_group_name_H-M   'P 1'
_cell_length_a   7.91969046
_cell_length_b   9.91430094
_cell_length_c   9.97351099
_cell_angle_alpha   107.49490573
_cell_angle_beta   96.97238635
_cell_angle_gamma   105.13953692
_symmetry_Int_Tables_number   1
_chemical_formula_structural   PrSm5OsI10
_chemical_formula_sum   'Pr1 Sm5 Os1 I10'
_cell_volume   703.75545076
_cell_formula_units_Z   1
loop_
 _symmetry_equiv_pos_site_id
 _symmetry_equiv_pos_as_xyz
  1  'x, y, z'
loop_
 _atom_site_type_symbol
 _atom_site_label
 _atom_site_symmetry_multiplicity
 _atom_site_fract_x
 _atom_site_fract_y
 _atom_site_fract_z
 _atom_site_occupancy
  Pr  Pr0  1  0.383659  0.457881  0.742721  1
  Sm  Sm1  1  0.530007  0.217463  0.415068  1
  Sm  Sm2  1  0.470135  0.782610  0.582941  1
  Sm  Sm3  1  0.144748  0.370047  0.329195  1
  Sm  Sm4  1  0.855760  0.630411  0.670162  1
  Sm  Sm5  1  0.614959  0.541577  0.260784  1
  Os  Os6  1  0.500000  0.499854  0.499660  1
  I  I7  1  0.146893  0.046633  0.227015  1
  I  I8  1  0.852755  0.953407  0.773043  1
  I  I9  1  0.238200  0.410969  0.042376  1
  I  I10  1  0.767305  0.590880  0.962469  1
  I  I11  1  0.708721  0.240128  0.150981  1
  I  I12  1  0.290072  0.765029  0.848872  1
  I  I13  1  0.046865  0.681494  0.409045  1
  I  I14  1  0.948614  0.316834  0.588613  1
  I  I15  1  0.414188  0.126527  0.677140  1
  I  I16  1  0.587120  0.868258  0.319914  1
