# generated using pymatgen
data_LiHo6Si6Rh
_symmetry_space_group_name_H-M   'P 1'
_cell_length_a   5.67734321
_cell_length_b   5.67734223
_cell_length_c   13.57926403
_cell_angle_alpha   108.76530075
_cell_angle_beta   108.76529723
_cell_angle_gamma   43.44488870
_symmetry_Int_Tables_number   1
_chemical_formula_structural   LiHo6Si6Rh
_chemical_formula_sum   'Li1 Ho6 Si6 Rh1'
_cell_volume   282.35869415
_cell_formula_units_Z   1
loop_
 _symmetry_equiv_pos_site_id
 _symmetry_equiv_pos_as_xyz
  1  'x, y, z'
loop_
 _atom_site_type_symbol
 _atom_site_label
 _atom_site_symmetry_multiplicity
 _atom_site_fract_x
 _atom_site_fract_y
 _atom_site_fract_z
 _atom_site_occupancy
  Li  Li0  1  0.245325  0.245325  0.413374  1
  Ho  Ho1  1  0.396409  0.396409  0.078949  1
  Ho  Ho2  1  0.744516  0.744516  0.222792  1
  Ho  Ho3  1  0.527518  0.527518  0.379518  1
  Ho  Ho4  1  0.476025  0.476025  0.624326  1
  Ho  Ho5  1  0.255424  0.255424  0.770970  1
  Ho  Ho6  1  0.602176  0.602176  0.922004  1
  Si  Si7  1  0.110854  0.110854  0.074584  1
  Si  Si8  1  0.037901  0.037901  0.228979  1
  Si  Si9  1  0.879960  0.879960  0.456744  1
  Si  Si10  1  0.126565  0.126565  0.549692  1
  Si  Si11  1  0.954846  0.954846  0.765985  1
  Si  Si12  1  0.886381  0.886381  0.924024  1
  Rh  Rh13  1  0.756099  0.756099  0.588059  1
