# generated using pymatgen
data_Nb6Al16Ir7
_symmetry_space_group_name_H-M   'P 1'
_cell_length_a   8.59255532
_cell_length_b   8.59255544
_cell_length_c   8.59255500
_cell_angle_alpha   59.99999784
_cell_angle_beta   59.99999740
_cell_angle_gamma   59.99999871
_symmetry_Int_Tables_number   1
_chemical_formula_structural   Nb6Al16Ir7
_chemical_formula_sum   'Nb6 Al16 Ir7'
_cell_volume   448.59247378
_cell_formula_units_Z   1
loop_
 _symmetry_equiv_pos_site_id
 _symmetry_equiv_pos_as_xyz
  1  'x, y, z'
loop_
 _atom_site_type_symbol
 _atom_site_label
 _atom_site_symmetry_multiplicity
 _atom_site_fract_x
 _atom_site_fract_y
 _atom_site_fract_z
 _atom_site_occupancy
  Nb  Nb0  1  0.683393  0.316607  0.316607  1
  Nb  Nb1  1  0.316607  0.683393  0.683393  1
  Nb  Nb2  1  0.316607  0.683393  0.316607  1
  Nb  Nb3  1  0.683393  0.316607  0.683393  1
  Nb  Nb4  1  0.316607  0.316607  0.683393  1
  Nb  Nb5  1  0.683393  0.683393  0.316607  1
  Al  Al6  1  0.338464  0.338464  0.338464  1
  Al  Al7  1  0.661536  0.661536  0.661536  1
  Al  Al8  1  0.338464  0.338464  0.984607  1
  Al  Al9  1  0.338464  0.984607  0.338464  1
  Al  Al10  1  0.661536  0.661536  0.015393  1
  Al  Al11  1  0.661536  0.015393  0.661536  1
  Al  Al12  1  0.984607  0.338464  0.338464  1
  Al  Al13  1  0.015393  0.661536  0.661536  1
  Al  Al14  1  0.119920  0.119920  0.119920  1
  Al  Al15  1  0.880080  0.880080  0.880080  1
  Al  Al16  1  0.119920  0.119920  0.640239  1
  Al  Al17  1  0.119920  0.640239  0.119920  1
  Al  Al18  1  0.880080  0.880080  0.359761  1
  Al  Al19  1  0.880080  0.359761  0.880080  1
  Al  Al20  1  0.640239  0.119920  0.119920  1
  Al  Al21  1  0.359761  0.880080  0.880080  1
  Ir  Ir22  1  0.500000  0.000000  0.000000  1
  Ir  Ir23  1  0.000000  0.500000  0.500000  1
  Ir  Ir24  1  0.000000  0.500000  0.000000  1
  Ir  Ir25  1  0.500000  0.000000  0.500000  1
  Ir  Ir26  1  0.000000  0.000000  0.500000  1
  Ir  Ir27  1  0.500000  0.500000  0.000000  1
  Ir  Ir28  1  0.000000  0.000000  0.000000  1
