# generated using pymatgen
data_Nd3Ho(Sn5Pd3)2
_symmetry_space_group_name_H-M   'P 1'
_cell_length_a   13.64364104
_cell_length_b   13.64364207
_cell_length_c   7.43279001
_cell_angle_alpha   90.14155682
_cell_angle_beta   89.85844418
_cell_angle_gamma   160.53975369
_symmetry_Int_Tables_number   1
_chemical_formula_structural   Nd3Ho(Sn5Pd3)2
_chemical_formula_sum   'Nd3 Ho1 Sn10 Pd6'
_cell_volume   460.95071721
_cell_formula_units_Z   1
loop_
 _symmetry_equiv_pos_site_id
 _symmetry_equiv_pos_as_xyz
  1  'x, y, z'
loop_
 _atom_site_type_symbol
 _atom_site_label
 _atom_site_symmetry_multiplicity
 _atom_site_fract_x
 _atom_site_fract_y
 _atom_site_fract_z
 _atom_site_occupancy
  Nd  Nd0  1  0.172818  0.827182  0.750486  1
  Nd  Nd1  1  0.826692  0.173308  0.249656  1
  Nd  Nd2  1  0.478765  0.521235  0.759957  1
  Ho  Ho3  1  0.522610  0.477390  0.257922  1
  Sn  Sn4  1  0.880639  0.119361  0.763499  1
  Sn  Sn5  1  0.119624  0.880376  0.265100  1
  Sn  Sn6  1  0.702236  0.297764  0.452383  1
  Sn  Sn7  1  0.296508  0.703492  0.950726  1
  Sn  Sn8  1  0.597970  0.402030  0.896156  1
  Sn  Sn9  1  0.402560  0.597440  0.394638  1
  Sn  Sn10  1  0.953276  0.046724  0.096879  1
  Sn  Sn11  1  0.047581  0.952419  0.596382  1
  Sn  Sn12  1  0.288776  0.711224  0.525703  1
  Sn  Sn13  1  0.711316  0.288684  0.026915  1
  Pd  Pd14  1  0.051327  0.948673  0.986389  1
  Pd  Pd15  1  0.949866  0.050134  0.473380  1
  Pd  Pd16  1  0.777377  0.222623  0.728442  1
  Pd  Pd17  1  0.222459  0.777541  0.229913  1
  Pd  Pd18  1  0.396038  0.603962  0.022203  1
  Pd  Pd19  1  0.601559  0.398441  0.517272  1
