# generated using pymatgen
data_DyEr3(Al3Rh)6
_symmetry_space_group_name_H-M   'P 1'
_cell_length_a   7.54700481
_cell_length_b   7.54681354
_cell_length_c   9.43952300
_cell_angle_alpha   90.00000000
_cell_angle_beta   90.00000000
_cell_angle_gamma   119.33035286
_symmetry_Int_Tables_number   1
_chemical_formula_structural   DyEr3(Al3Rh)6
_chemical_formula_sum   'Dy1 Er3 Al18 Rh6'
_cell_volume   468.71633560
_cell_formula_units_Z   1
loop_
 _symmetry_equiv_pos_site_id
 _symmetry_equiv_pos_as_xyz
  1  'x, y, z'
loop_
 _atom_site_type_symbol
 _atom_site_label
 _atom_site_symmetry_multiplicity
 _atom_site_fract_x
 _atom_site_fract_y
 _atom_site_fract_z
 _atom_site_occupancy
  Dy  Dy0  1  0.994503  0.671149  0.750000  1
  Er  Er1  1  0.005461  0.328751  0.250000  1
  Er  Er2  1  0.671205  0.994605  0.750000  1
  Er  Er3  1  0.328751  0.005378  0.250000  1
  Al  Al4  1  0.127409  0.127737  0.750000  1
  Al  Al5  1  0.872386  0.872548  0.250000  1
  Al  Al6  1  0.000724  0.334959  0.574648  1
  Al  Al7  1  0.999271  0.664479  0.424532  1
  Al  Al8  1  0.999271  0.664479  0.075468  1
  Al  Al9  1  0.335789  0.001079  0.925231  1
  Al  Al10  1  0.000724  0.334959  0.925352  1
  Al  Al11  1  0.664598  0.999457  0.074864  1
  Al  Al12  1  0.664598  0.999457  0.425136  1
  Al  Al13  1  0.335789  0.001079  0.574769  1
  Al  Al14  1  0.332863  0.332834  0.051403  1
  Al  Al15  1  0.666785  0.667166  0.949450  1
  Al  Al16  1  0.666785  0.667166  0.550550  1
  Al  Al17  1  0.332863  0.332834  0.448597  1
  Al  Al18  1  0.339591  0.550115  0.750000  1
  Al  Al19  1  0.660755  0.450122  0.250000  1
  Al  Al20  1  0.549654  0.338699  0.750000  1
  Al  Al21  1  0.450285  0.660914  0.250000  1
  Rh  Rh22  1  0.672008  0.327744  0.499848  1
  Rh  Rh23  1  0.327714  0.672061  0.499794  1
  Rh  Rh24  1  0.327714  0.672061  0.000206  1
  Rh  Rh25  1  0.672008  0.327744  0.000152  1
  Rh  Rh26  1  0.000248  0.000211  0.499660  1
  Rh  Rh27  1  0.000248  0.000211  0.000340  1
