# generated using pymatgen
data_Re5Os3
_symmetry_space_group_name_H-M   'P 1'
_cell_length_a   5.56939300
_cell_length_b   5.56939254
_cell_length_c   4.40826300
_cell_angle_alpha   90.00000000
_cell_angle_beta   90.00000000
_cell_angle_gamma   120.00000868
_symmetry_Int_Tables_number   1
_chemical_formula_structural   Re5Os3
_chemical_formula_sum   'Re5 Os3'
_cell_volume   118.41692625
_cell_formula_units_Z   1
loop_
 _symmetry_equiv_pos_site_id
 _symmetry_equiv_pos_as_xyz
  1  'x, y, z'
loop_
 _atom_site_type_symbol
 _atom_site_label
 _atom_site_symmetry_multiplicity
 _atom_site_fract_x
 _atom_site_fract_y
 _atom_site_fract_z
 _atom_site_occupancy
  Re  Re0  1  0.333333  0.666667  0.750000  1
  Re  Re1  1  0.666667  0.333333  0.250000  1
  Re  Re2  1  0.167025  0.334050  0.250000  1
  Re  Re3  1  0.665950  0.832975  0.250000  1
  Re  Re4  1  0.167025  0.832975  0.250000  1
  Os  Os5  1  0.831257  0.662514  0.750000  1
  Os  Os6  1  0.337486  0.168743  0.750000  1
  Os  Os7  1  0.831257  0.168743  0.750000  1
