# generated using pymatgen
data_Tb6InRhO12
_symmetry_space_group_name_H-M   'P 1'
_cell_length_a   6.63955977
_cell_length_b   6.63956017
_cell_length_c   6.63955902
_cell_angle_alpha   94.03273410
_cell_angle_beta   94.03274667
_cell_angle_gamma   94.03276277
_symmetry_Int_Tables_number   1
_chemical_formula_structural   Tb6InRhO12
_chemical_formula_sum   'Tb6 In1 Rh1 O12'
_cell_volume   290.41455564
_cell_formula_units_Z   1
loop_
 _symmetry_equiv_pos_site_id
 _symmetry_equiv_pos_as_xyz
  1  'x, y, z'
loop_
 _atom_site_type_symbol
 _atom_site_label
 _atom_site_symmetry_multiplicity
 _atom_site_fract_x
 _atom_site_fract_y
 _atom_site_fract_z
 _atom_site_occupancy
  Tb  Tb0  1  0.568484  0.081246  0.261872  1
  Tb  Tb1  1  0.081246  0.261872  0.568484  1
  Tb  Tb2  1  0.738128  0.431516  0.918754  1
  Tb  Tb3  1  0.261872  0.568484  0.081246  1
  Tb  Tb4  1  0.918754  0.738128  0.431516  1
  Tb  Tb5  1  0.431516  0.918754  0.738128  1
  In  In6  1  0.000000  0.000000  0.000000  1
  Rh  Rh7  1  0.500000  0.500000  0.500000  1
  O  O8  1  0.686314  0.085227  0.932497  1
  O  O9  1  0.914773  0.067503  0.313686  1
  O  O10  1  0.412773  0.196752  0.543034  1
  O  O11  1  0.067503  0.313686  0.914773  1
  O  O12  1  0.543034  0.412773  0.196752  1
  O  O13  1  0.803248  0.456966  0.587227  1
  O  O14  1  0.196752  0.543034  0.412773  1
  O  O15  1  0.456966  0.587227  0.803248  1
  O  O16  1  0.932497  0.686314  0.085227  1
  O  O17  1  0.587227  0.803248  0.456966  1
  O  O18  1  0.085227  0.932497  0.686314  1
  O  O19  1  0.313686  0.914773  0.067503  1
