# generated using pymatgen
data_Zr3Ga2GeOs3
_symmetry_space_group_name_H-M   'P 1'
_cell_length_a   6.94747100
_cell_length_b   6.94747092
_cell_length_c   3.64162500
_cell_angle_alpha   90.00000000
_cell_angle_beta   90.00000000
_cell_angle_gamma   120.00000513
_symmetry_Int_Tables_number   1
_chemical_formula_structural   Zr3Ga2GeOs3
_chemical_formula_sum   'Zr3 Ga2 Ge1 Os3'
_cell_volume   152.22266169
_cell_formula_units_Z   1
loop_
 _symmetry_equiv_pos_site_id
 _symmetry_equiv_pos_as_xyz
  1  'x, y, z'
loop_
 _atom_site_type_symbol
 _atom_site_label
 _atom_site_symmetry_multiplicity
 _atom_site_fract_x
 _atom_site_fract_y
 _atom_site_fract_z
 _atom_site_occupancy
  Zr  Zr0  1  0.410133  0.409581  0.500000  1
  Zr  Zr1  1  0.590419  0.000552  0.500000  1
  Zr  Zr2  1  0.999448  0.589867  0.500000  1
  Ga  Ga3  1  0.666667  0.333333  0.000000  1
  Ga  Ga4  1  0.000000  0.000000  0.500000  1
  Ge  Ge5  1  0.333333  0.666667  0.000000  1
  Os  Os6  1  0.747213  0.751310  0.000000  1
  Os  Os7  1  0.248690  0.995903  0.000000  1
  Os  Os8  1  0.004097  0.252787  0.000000  1
