# generated using pymatgen
data_Ac8Ir5Au3
_symmetry_space_group_name_H-M   'P 1'
_cell_length_a   4.53655600
_cell_length_b   6.24489022
_cell_length_c   15.98471676
_cell_angle_alpha   89.98944553
_cell_angle_beta   90.00000000
_cell_angle_gamma   90.00000000
_symmetry_Int_Tables_number   1
_chemical_formula_structural   Ac8Ir5Au3
_chemical_formula_sum   'Ac8 Ir5 Au3'
_cell_volume   452.85172099
_cell_formula_units_Z   1
loop_
 _symmetry_equiv_pos_site_id
 _symmetry_equiv_pos_as_xyz
  1  'x, y, z'
loop_
 _atom_site_type_symbol
 _atom_site_label
 _atom_site_symmetry_multiplicity
 _atom_site_fract_x
 _atom_site_fract_y
 _atom_site_fract_z
 _atom_site_occupancy
  Ac  Ac0  1  0.250000  0.541891  0.288423  1
  Ac  Ac1  1  0.750000  0.469805  0.718923  1
  Ac  Ac2  1  0.250000  0.965781  0.776910  1
  Ac  Ac3  1  0.250000  0.760214  0.528971  1
  Ac  Ac4  1  0.250000  0.740406  0.044439  1
  Ac  Ac5  1  0.750000  0.267028  0.958309  1
  Ac  Ac6  1  0.750000  0.026786  0.226102  1
  Ac  Ac7  1  0.750000  0.243413  0.455883  1
  Ir  Ir8  1  0.250000  0.050745  0.353417  1
  Ir  Ir9  1  0.750000  0.550505  0.145705  1
  Ir  Ir10  1  0.750000  0.731411  0.399929  1
  Ir  Ir11  1  0.250000  0.441540  0.850401  1
  Ir  Ir12  1  0.750000  0.953907  0.647193  1
  Au  Au13  1  0.750000  0.760687  0.898539  1
  Au  Au14  1  0.250000  0.243593  0.105727  1
  Au  Au15  1  0.250000  0.252290  0.601126  1
