# generated using pymatgen
data_Y3Ho5(AlPt)2
_symmetry_space_group_name_H-M   'P 1'
_cell_length_a   9.59588236
_cell_length_b   9.59588308
_cell_length_c   9.59588400
_cell_angle_alpha   60.00000372
_cell_angle_beta   60.00000124
_cell_angle_gamma   60.00000132
_symmetry_Int_Tables_number   1
_chemical_formula_structural   Y3Ho5(AlPt)2
_chemical_formula_sum   'Y6 Ho10 Al4 Pt4'
_cell_volume   624.79835152
_cell_formula_units_Z   2
loop_
 _symmetry_equiv_pos_site_id
 _symmetry_equiv_pos_as_xyz
  1  'x, y, z'
loop_
 _atom_site_type_symbol
 _atom_site_label
 _atom_site_symmetry_multiplicity
 _atom_site_fract_x
 _atom_site_fract_y
 _atom_site_fract_z
 _atom_site_occupancy
  Y  Y0  1  0.936805  0.563195  0.563195  1
  Y  Y1  1  0.563195  0.936805  0.936805  1
  Y  Y2  1  0.563195  0.936805  0.563195  1
  Y  Y3  1  0.936805  0.563195  0.936805  1
  Y  Y4  1  0.563195  0.563195  0.936805  1
  Y  Y5  1  0.936805  0.936805  0.563195  1
  Ho  Ho6  1  0.354015  0.354015  0.354015  1
  Ho  Ho7  1  0.354015  0.354015  0.937956  1
  Ho  Ho8  1  0.354015  0.937956  0.354015  1
  Ho  Ho9  1  0.937956  0.354015  0.354015  1
  Ho  Ho10  1  0.807532  0.192468  0.192468  1
  Ho  Ho11  1  0.192468  0.807532  0.807532  1
  Ho  Ho12  1  0.192468  0.807532  0.192468  1
  Ho  Ho13  1  0.807532  0.192468  0.807532  1
  Ho  Ho14  1  0.192468  0.192468  0.807532  1
  Ho  Ho15  1  0.807532  0.807532  0.192468  1
  Al  Al16  1  0.578066  0.578066  0.578066  1
  Al  Al17  1  0.578066  0.578066  0.265801  1
  Al  Al18  1  0.578066  0.265801  0.578066  1
  Al  Al19  1  0.265801  0.578066  0.578066  1
  Pt  Pt20  1  0.143514  0.143514  0.143514  1
  Pt  Pt21  1  0.143514  0.143514  0.569458  1
  Pt  Pt22  1  0.143514  0.569458  0.143514  1
  Pt  Pt23  1  0.569458  0.143514  0.143514  1
