# generated using pymatgen
data_Hf6Zr4Ga2(SnBi)3
_symmetry_space_group_name_H-M   'P 1'
_cell_length_a   8.79046825
_cell_length_b   8.75506529
_cell_length_c   5.87837100
_cell_angle_alpha   90.00000000
_cell_angle_beta   90.00000000
_cell_angle_gamma   120.01234792
_symmetry_Int_Tables_number   1
_chemical_formula_structural   Hf6Zr4Ga2(SnBi)3
_chemical_formula_sum   'Hf6 Zr4 Ga2 Sn3 Bi3'
_cell_volume   391.74636167
_cell_formula_units_Z   1
loop_
 _symmetry_equiv_pos_site_id
 _symmetry_equiv_pos_as_xyz
  1  'x, y, z'
loop_
 _atom_site_type_symbol
 _atom_site_label
 _atom_site_symmetry_multiplicity
 _atom_site_fract_x
 _atom_site_fract_y
 _atom_site_fract_z
 _atom_site_occupancy
  Hf  Hf0  1  0.001306  0.269561  0.250000  1
  Hf  Hf1  1  0.739363  0.731115  0.250000  1
  Hf  Hf2  1  0.672891  0.339371  0.501288  1
  Hf  Hf3  1  0.329544  0.662578  0.998679  1
  Hf  Hf4  1  0.672891  0.339371  0.998712  1
  Hf  Hf5  1  0.329544  0.662578  0.501321  1
  Zr  Zr6  1  0.736327  0.000556  0.750000  1
  Zr  Zr7  1  0.992902  0.728875  0.750000  1
  Zr  Zr8  1  0.262981  0.270309  0.750000  1
  Zr  Zr9  1  0.261873  0.994616  0.250000  1
  Ga  Ga10  1  0.999721  0.000507  0.001267  1
  Ga  Ga11  1  0.999721  0.000507  0.498733  1
  Sn  Sn12  1  0.000976  0.608704  0.250000  1
  Sn  Sn13  1  0.999188  0.389946  0.750000  1
  Sn  Sn14  1  0.609882  0.611760  0.750000  1
  Bi  Bi15  1  0.612073  0.999023  0.250000  1
  Bi  Bi16  1  0.387653  0.000945  0.750000  1
  Bi  Bi17  1  0.391166  0.389676  0.250000  1
