# generated using pymatgen
data_BeV20Ga9
_symmetry_space_group_name_H-M   'P 1'
_cell_length_a   9.28089300
_cell_length_b   9.28089368
_cell_length_c   4.74415200
_cell_angle_alpha   90.00000000
_cell_angle_beta   90.00000000
_cell_angle_gamma   89.97799140
_symmetry_Int_Tables_number   1
_chemical_formula_structural   BeV20Ga9
_chemical_formula_sum   'Be1 V20 Ga9'
_cell_volume   408.63741333
_cell_formula_units_Z   1
loop_
 _symmetry_equiv_pos_site_id
 _symmetry_equiv_pos_as_xyz
  1  'x, y, z'
loop_
 _atom_site_type_symbol
 _atom_site_label
 _atom_site_symmetry_multiplicity
 _atom_site_fract_x
 _atom_site_fract_y
 _atom_site_fract_z
 _atom_site_occupancy
  Be  Be0  1  0.000000  0.000000  0.000000  1
  V  V1  1  0.395974  0.395974  0.000000  1
  V  V2  1  0.902214  0.097786  0.500000  1
  V  V3  1  0.097786  0.902214  0.500000  1
  V  V4  1  0.604026  0.604026  0.000000  1
  V  V5  1  0.126231  0.467735  0.000000  1
  V  V6  1  0.964464  0.371489  0.500000  1
  V  V7  1  0.035536  0.628511  0.500000  1
  V  V8  1  0.873769  0.532265  0.000000  1
  V  V9  1  0.371489  0.964464  0.500000  1
  V  V10  1  0.628511  0.035536  0.500000  1
  V  V11  1  0.467735  0.126231  0.000000  1
  V  V12  1  0.532265  0.873769  0.000000  1
  V  V13  1  0.179108  0.179108  0.254181  1
  V  V14  1  0.682426  0.317574  0.754340  1
  V  V15  1  0.317574  0.682426  0.754340  1
  V  V16  1  0.820892  0.820892  0.254181  1
  V  V17  1  0.317574  0.682426  0.245660  1
  V  V18  1  0.682426  0.317574  0.245660  1
  V  V19  1  0.179108  0.179108  0.745819  1
  V  V20  1  0.820892  0.820892  0.745819  1
  Ga  Ga21  1  0.500000  0.500000  0.500000  1
  Ga  Ga22  1  0.258218  0.937448  0.000000  1
  Ga  Ga23  1  0.433683  0.232886  0.500000  1
  Ga  Ga24  1  0.566317  0.767114  0.500000  1
  Ga  Ga25  1  0.741782  0.062552  0.000000  1
  Ga  Ga26  1  0.232886  0.433683  0.500000  1
  Ga  Ga27  1  0.767114  0.566317  0.500000  1
  Ga  Ga28  1  0.937448  0.258218  0.000000  1
  Ga  Ga29  1  0.062552  0.741782  0.000000  1
