# generated using pymatgen
data_ThSc6MnBr12
_symmetry_space_group_name_H-M   'P 1'
_cell_length_a   8.93813143
_cell_length_b   8.84636019
_cell_length_c   8.99337458
_cell_angle_alpha   107.21511358
_cell_angle_beta   107.36773592
_cell_angle_gamma   108.15390542
_symmetry_Int_Tables_number   1
_chemical_formula_structural   ThSc6MnBr12
_chemical_formula_sum   'Th1 Sc6 Mn1 Br12'
_cell_volume   582.57541885
_cell_formula_units_Z   1
loop_
 _symmetry_equiv_pos_site_id
 _symmetry_equiv_pos_as_xyz
  1  'x, y, z'
loop_
 _atom_site_type_symbol
 _atom_site_label
 _atom_site_symmetry_multiplicity
 _atom_site_fract_x
 _atom_site_fract_y
 _atom_site_fract_z
 _atom_site_occupancy
  Th  Th0  1  0.896619  0.695019  0.967092  1
  Sc  Sc1  1  0.972359  0.902601  0.697192  1
  Sc  Sc2  1  0.690262  0.965000  0.897597  1
  Sc  Sc3  1  0.097291  0.277023  0.029402  1
  Sc  Sc4  1  0.028377  0.104146  0.306326  1
  Sc  Sc5  1  0.310696  0.030254  0.102295  1
  Sc  Sc6  1  0.501692  0.505862  0.499701  1
  Mn  Mn7  1  0.991773  0.976139  0.999212  1
  Br  Br8  1  0.788595  0.313529  0.928541  1
  Br  Br9  1  0.931096  0.793276  0.332077  1
  Br  Br10  1  0.319264  0.936334  0.786998  1
  Br  Br11  1  0.245067  0.698176  0.084552  1
  Br  Br12  1  0.074872  0.223173  0.698498  1
  Br  Br13  1  0.687715  0.078285  0.215769  1
  Br  Br14  1  0.511786  0.612347  0.824041  1
  Br  Br15  1  0.837427  0.539171  0.592383  1
  Br  Br16  1  0.616353  0.844982  0.543571  1
  Br  Br17  1  0.454647  0.382269  0.160623  1
  Br  Br18  1  0.158577  0.454592  0.374352  1
  Br  Br19  1  0.385535  0.167820  0.459779  1
