# generated using pymatgen
data_Cs5(CrSe4)2
_symmetry_space_group_name_H-M   'P 1'
_cell_length_a   12.58466773
_cell_length_b   12.58466752
_cell_length_c   12.58699459
_cell_angle_alpha   132.88161073
_cell_angle_beta   126.89352549
_cell_angle_gamma   73.67697428
_symmetry_Int_Tables_number   1
_chemical_formula_structural   Cs5(CrSe4)2
_chemical_formula_sum   'Cs10 Cr4 Se16'
_cell_volume   1140.24963737
_cell_formula_units_Z   2
loop_
 _symmetry_equiv_pos_site_id
 _symmetry_equiv_pos_as_xyz
  1  'x, y, z'
loop_
 _atom_site_type_symbol
 _atom_site_label
 _atom_site_symmetry_multiplicity
 _atom_site_fract_x
 _atom_site_fract_y
 _atom_site_fract_z
 _atom_site_occupancy
  Cs  Cs0  1  0.496716  0.246716  0.250000  1
  Cs  Cs1  1  0.003316  0.753316  0.250000  1
  Cs  Cs2  1  0.575340  0.716697  0.141365  1
  Cs  Cs3  1  0.424660  0.283303  0.858635  1
  Cs  Cs4  1  0.503284  0.753284  0.750000  1
  Cs  Cs5  1  0.075332  0.433975  0.358635  1
  Cs  Cs6  1  0.924668  0.566025  0.641365  1
  Cs  Cs7  1  0.996684  0.246684  0.750000  1
  Cs  Cs8  1  0.249969  0.999969  0.250000  1
  Cs  Cs9  1  0.750031  0.000031  0.750000  1
  Cr  Cr10  1  0.136294  0.916644  0.781022  1
  Cr  Cr11  1  0.863706  0.083356  0.218978  1
  Cr  Cr12  1  0.364378  0.644727  0.281022  1
  Cr  Cr13  1  0.635622  0.355273  0.718978  1
  Se  Se14  1  0.572393  0.597348  0.352654  1
  Se  Se15  1  0.753681  0.004271  0.250477  1
  Se  Se16  1  0.883846  0.884564  0.000637  1
  Se  Se17  1  0.755107  0.402603  0.974789  1
  Se  Se18  1  0.744694  0.219739  0.147346  1
  Se  Se19  1  0.746207  0.496796  0.750477  1
  Se  Se20  1  0.246319  0.995729  0.749523  1
  Se  Se21  1  0.244893  0.597397  0.025211  1
  Se  Se22  1  0.253793  0.503204  0.249523  1
  Se  Se23  1  0.255306  0.780261  0.852654  1
  Se  Se24  1  0.116154  0.115436  0.999363  1
  Se  Se25  1  0.927813  0.780318  0.525211  1
  Se  Se26  1  0.072187  0.219682  0.474789  1
  Se  Se27  1  0.616073  0.116792  0.500637  1
  Se  Se28  1  0.427607  0.402652  0.647346  1
  Se  Se29  1  0.383927  0.883208  0.499363  1
