# generated using pymatgen
data_CsNbW5O18
_symmetry_space_group_name_H-M   'P 1'
_cell_length_a   7.53393801
_cell_length_b   7.54945871
_cell_length_c   7.80484400
_cell_angle_alpha   90.00231476
_cell_angle_beta   89.99712530
_cell_angle_gamma   120.22263788
_symmetry_Int_Tables_number   1
_chemical_formula_structural   CsNbW5O18
_chemical_formula_sum   'Cs1 Nb1 W5 O18'
_cell_volume   383.57829119
_cell_formula_units_Z   1
loop_
 _symmetry_equiv_pos_site_id
 _symmetry_equiv_pos_as_xyz
  1  'x, y, z'
loop_
 _atom_site_type_symbol
 _atom_site_label
 _atom_site_symmetry_multiplicity
 _atom_site_fract_x
 _atom_site_fract_y
 _atom_site_fract_z
 _atom_site_occupancy
  Cs  Cs0  1  0.000052  0.000225  0.528489  1
  Nb  Nb1  1  0.999816  0.501015  0.766308  1
  W  W2  1  0.000687  0.497151  0.260429  1
  W  W3  1  0.499380  0.500036  0.764142  1
  W  W4  1  0.503002  0.502178  0.261401  1
  W  W5  1  0.497877  0.999817  0.260697  1
  W  W6  1  0.500380  0.000507  0.763284  1
  O  O7  1  0.999763  0.500388  0.005981  1
  O  O8  1  0.999816  0.499774  0.494180  1
  O  O9  1  0.213415  0.787639  0.248831  1
  O  O10  1  0.217087  0.794602  0.742316  1
  O  O11  1  0.216790  0.422678  0.744237  1
  O  O12  1  0.213920  0.424954  0.249581  1
  O  O13  1  0.573767  0.787080  0.249351  1
  O  O14  1  0.573152  0.786844  0.746982  1
  O  O15  1  0.499966  0.500040  0.001988  1
  O  O16  1  0.500013  0.500102  0.498516  1
  O  O17  1  0.426204  0.213056  0.249342  1
  O  O18  1  0.426717  0.213364  0.746988  1
  O  O19  1  0.499858  0.000009  0.497764  1
  O  O20  1  0.782830  0.577669  0.744081  1
  O  O21  1  0.786645  0.574141  0.249779  1
  O  O22  1  0.499865  0.999963  0.001217  1
  O  O23  1  0.786036  0.210892  0.248662  1
  O  O24  1  0.782960  0.205875  0.742458  1
