# generated using pymatgen
data_Eu9AgPt5
_symmetry_space_group_name_H-M   'P 1'
_cell_length_a   7.90351542
_cell_length_b   7.85869548
_cell_length_c   7.85280800
_cell_angle_alpha   71.02488863
_cell_angle_beta   70.52062974
_cell_angle_gamma   70.92376578
_symmetry_Int_Tables_number   1
_chemical_formula_structural   Eu9AgPt5
_chemical_formula_sum   'Eu9 Ag1 Pt5'
_cell_volume   421.59400232
_cell_formula_units_Z   1
loop_
 _symmetry_equiv_pos_site_id
 _symmetry_equiv_pos_as_xyz
  1  'x, y, z'
loop_
 _atom_site_type_symbol
 _atom_site_label
 _atom_site_symmetry_multiplicity
 _atom_site_fract_x
 _atom_site_fract_y
 _atom_site_fract_z
 _atom_site_occupancy
  Eu  Eu0  1  0.001918  0.993834  0.998797  1
  Eu  Eu1  1  0.389434  0.675575  0.151937  1
  Eu  Eu2  1  0.209241  0.195988  0.202956  1
  Eu  Eu3  1  0.849333  0.608012  0.343171  1
  Eu  Eu4  1  0.663849  0.141463  0.407469  1
  Eu  Eu5  1  0.329328  0.843474  0.604937  1
  Eu  Eu6  1  0.162980  0.395558  0.658958  1
  Eu  Eu7  1  0.801769  0.810883  0.796724  1
  Eu  Eu8  1  0.595011  0.325750  0.840831  1
  Ag  Ag9  1  0.841140  0.414173  0.046108  1
  Pt  Pt10  1  0.594567  0.951051  0.161668  1
  Pt  Pt11  1  0.045389  0.846974  0.408483  1
  Pt  Pt12  1  0.951558  0.168470  0.587533  1
  Pt  Pt13  1  0.408482  0.044393  0.835480  1
  Pt  Pt14  1  0.155999  0.584402  0.954948  1
