# generated using pymatgen
data_LaYb2(AlPt)4
_symmetry_space_group_name_H-M   'P 1'
_cell_length_a   8.20687950
_cell_length_b   8.20688058
_cell_length_c   8.20687927
_cell_angle_alpha   150.43003385
_cell_angle_beta   126.84862794
_cell_angle_gamma   62.00095370
_symmetry_Int_Tables_number   1
_chemical_formula_structural   LaYb2(AlPt)4
_chemical_formula_sum   'La1 Yb2 Al4 Pt4'
_cell_volume   216.37220096
_cell_formula_units_Z   1
loop_
 _symmetry_equiv_pos_site_id
 _symmetry_equiv_pos_as_xyz
  1  'x, y, z'
loop_
 _atom_site_type_symbol
 _atom_site_label
 _atom_site_symmetry_multiplicity
 _atom_site_fract_x
 _atom_site_fract_y
 _atom_site_fract_z
 _atom_site_occupancy
  La  La0  1  0.500000  0.000000  0.500000  1
  Yb  Yb1  1  0.884177  0.884177  0.000000  1
  Yb  Yb2  1  0.115823  0.115823  0.000000  1
  Al  Al3  1  0.483617  0.679691  0.803926  1
  Al  Al4  1  0.875764  0.679691  0.196074  1
  Al  Al5  1  0.124236  0.320309  0.803926  1
  Al  Al6  1  0.516383  0.320309  0.196074  1
  Pt  Pt7  1  0.277549  0.777549  0.500000  1
  Pt  Pt8  1  0.722451  0.222451  0.500000  1
  Pt  Pt9  1  0.794252  0.500000  0.294252  1
  Pt  Pt10  1  0.205748  0.500000  0.705748  1
