# generated using pymatgen
data_Tb5Dy3Sc12Si15Au
_symmetry_space_group_name_H-M   'P 1'
_cell_length_a   7.13252798
_cell_length_b   7.38863069
_cell_length_c   14.07759103
_cell_angle_alpha   89.93256739
_cell_angle_beta   89.70168868
_cell_angle_gamma   90.17653191
_symmetry_Int_Tables_number   1
_chemical_formula_structural   Tb5Dy3Sc12Si15Au
_chemical_formula_sum   'Tb5 Dy3 Sc12 Si15 Au1'
_cell_volume   741.86952504
_cell_formula_units_Z   1
loop_
 _symmetry_equiv_pos_site_id
 _symmetry_equiv_pos_as_xyz
  1  'x, y, z'
loop_
 _atom_site_type_symbol
 _atom_site_label
 _atom_site_symmetry_multiplicity
 _atom_site_fract_x
 _atom_site_fract_y
 _atom_site_fract_z
 _atom_site_occupancy
  Tb  Tb0  1  0.012430  0.175209  0.097534  1
  Tb  Tb1  1  0.987349  0.825381  0.903416  1
  Tb  Tb2  1  0.487104  0.676331  0.903314  1
  Tb  Tb3  1  0.988019  0.828152  0.597701  1
  Tb  Tb4  1  0.512221  0.324172  0.096680  1
  Dy  Dy5  1  0.010719  0.174169  0.399784  1
  Dy  Dy6  1  0.510507  0.324556  0.400740  1
  Dy  Dy7  1  0.490839  0.676106  0.599114  1
  Sc  Sc8  1  0.162521  0.501120  0.750933  1
  Sc  Sc9  1  0.837863  0.498456  0.250837  1
  Sc  Sc10  1  0.338109  0.000537  0.249374  1
  Sc  Sc11  1  0.663726  0.996581  0.750880  1
  Sc  Sc12  1  0.337855  0.176069  0.625581  1
  Sc  Sc13  1  0.667056  0.823694  0.373840  1
  Sc  Sc14  1  0.169166  0.673351  0.373604  1
  Sc  Sc15  1  0.670338  0.824194  0.125114  1
  Sc  Sc16  1  0.827967  0.325623  0.625215  1
  Sc  Sc17  1  0.328732  0.175168  0.875918  1
  Sc  Sc18  1  0.830027  0.322589  0.875809  1
  Sc  Sc19  1  0.169531  0.676671  0.125060  1
  Si  Si20  1  0.035145  0.119661  0.750611  1
  Si  Si21  1  0.966465  0.883214  0.249479  1
  Si  Si22  1  0.466603  0.616405  0.248569  1
  Si  Si23  1  0.535002  0.384151  0.752200  1
  Si  Si24  1  0.284970  0.874800  0.750649  1
  Si  Si25  1  0.713204  0.127140  0.249157  1
  Si  Si26  1  0.214618  0.371884  0.248400  1
  Si  Si27  1  0.786719  0.626395  0.752334  1
  Si  Si28  1  0.835390  0.537130  0.459303  1
  Si  Si29  1  0.341482  0.963287  0.460074  1
  Si  Si30  1  0.844138  0.535649  0.038977  1
  Si  Si31  1  0.657157  0.036223  0.537913  1
  Si  Si32  1  0.155294  0.464242  0.961527  1
  Si  Si33  1  0.656428  0.035071  0.960922  1
  Si  Si34  1  0.343431  0.964173  0.039353  1
  Au  Au35  1  0.161877  0.462449  0.540081  1
