# generated using pymatgen
data_HoSc9(In2Pt)4
_symmetry_space_group_name_H-M   'P 1'
_cell_length_a   3.45465000
_cell_length_b   7.79407649
_cell_length_c   17.63682346
_cell_angle_alpha   89.86906221
_cell_angle_beta   90.00000000
_cell_angle_gamma   90.00000000
_symmetry_Int_Tables_number   1
_chemical_formula_structural   HoSc9(In2Pt)4
_chemical_formula_sum   'Ho1 Sc9 In8 Pt4'
_cell_volume   474.88445317
_cell_formula_units_Z   1
loop_
 _symmetry_equiv_pos_site_id
 _symmetry_equiv_pos_as_xyz
  1  'x, y, z'
loop_
 _atom_site_type_symbol
 _atom_site_label
 _atom_site_symmetry_multiplicity
 _atom_site_fract_x
 _atom_site_fract_y
 _atom_site_fract_z
 _atom_site_occupancy
  Ho  Ho0  1  0.000000  0.747568  0.279817  1
  Sc  Sc1  1  0.000000  0.122012  0.417878  1
  Sc  Sc2  1  0.000000  0.880930  0.585515  1
  Sc  Sc3  1  0.000000  0.379086  0.915294  1
  Sc  Sc4  1  0.000000  0.618920  0.082206  1
  Sc  Sc5  1  0.000000  0.248887  0.221304  1
  Sc  Sc6  1  0.000000  0.749370  0.777816  1
  Sc  Sc7  1  0.000000  0.251345  0.722038  1
  Sc  Sc8  1  0.000000  0.999403  0.998292  1
  Sc  Sc9  1  0.000000  0.500976  0.500533  1
  In  In10  1  0.500000  0.420663  0.353954  1
  In  In11  1  0.500000  0.575122  0.647412  1
  In  In12  1  0.500000  0.074545  0.852215  1
  In  In13  1  0.500000  0.928127  0.144441  1
  In  In14  1  0.500000  0.291812  0.063856  1
  In  In15  1  0.500000  0.705353  0.933792  1
  In  In16  1  0.500000  0.207158  0.566314  1
  In  In17  1  0.500000  0.797691  0.438831  1
  Pt  Pt18  1  0.500000  0.041823  0.306188  1
  Pt  Pt19  1  0.500000  0.967272  0.695577  1
  Pt  Pt20  1  0.500000  0.466534  0.805070  1
  Pt  Pt21  1  0.500000  0.525406  0.191658  1
