# generated using pymatgen
data_Ho6Si19Pt30
_symmetry_space_group_name_H-M   'P 1'
_cell_length_a   16.11283400
_cell_length_b   16.11283487
_cell_length_c   4.00048300
_cell_angle_alpha   90.00000000
_cell_angle_beta   90.00000000
_cell_angle_gamma   120.00000232
_symmetry_Int_Tables_number   1
_chemical_formula_structural   Ho6Si19Pt30
_chemical_formula_sum   'Ho6 Si19 Pt30'
_cell_volume   899.47053246
_cell_formula_units_Z   1
loop_
 _symmetry_equiv_pos_site_id
 _symmetry_equiv_pos_as_xyz
  1  'x, y, z'
loop_
 _atom_site_type_symbol
 _atom_site_label
 _atom_site_symmetry_multiplicity
 _atom_site_fract_x
 _atom_site_fract_y
 _atom_site_fract_z
 _atom_site_occupancy
  Ho  Ho0  1  0.098569  0.704487  0.248978  1
  Ho  Ho1  1  0.605919  0.901431  0.248978  1
  Ho  Ho2  1  0.295513  0.394081  0.248978  1
  Ho  Ho3  1  0.901431  0.295513  0.751022  1
  Ho  Ho4  1  0.394081  0.098569  0.751022  1
  Ho  Ho5  1  0.704487  0.605919  0.751022  1
  Si  Si6  1  0.373659  0.939812  0.250565  1
  Si  Si7  1  0.566153  0.626341  0.250565  1
  Si  Si8  1  0.060188  0.433847  0.250565  1
  Si  Si9  1  0.626341  0.060188  0.749435  1
  Si  Si10  1  0.433847  0.373659  0.749435  1
  Si  Si11  1  0.939812  0.566153  0.749435  1
  Si  Si12  1  0.681463  0.447567  0.250548  1
  Si  Si13  1  0.766105  0.318537  0.250548  1
  Si  Si14  1  0.552433  0.233895  0.250548  1
  Si  Si15  1  0.318537  0.552433  0.749452  1
  Si  Si16  1  0.233895  0.681463  0.749452  1
  Si  Si17  1  0.447567  0.766105  0.749452  1
  Si  Si18  1  0.862804  0.743180  0.252577  1
  Si  Si19  1  0.880376  0.137196  0.252577  1
  Si  Si20  1  0.256820  0.119624  0.252577  1
  Si  Si21  1  0.137196  0.256820  0.747423  1
  Si  Si22  1  0.119624  0.862804  0.747423  1
  Si  Si23  1  0.743180  0.880376  0.747423  1
  Si  Si24  1  0.000000  0.000000  0.500000  1
  Pt  Pt25  1  0.344120  0.774452  0.249251  1
  Pt  Pt26  1  0.430331  0.655880  0.249251  1
  Pt  Pt27  1  0.225548  0.569669  0.249251  1
  Pt  Pt28  1  0.655880  0.225548  0.750749  1
  Pt  Pt29  1  0.569669  0.344120  0.750749  1
  Pt  Pt30  1  0.774452  0.430331  0.750749  1
  Pt  Pt31  1  0.543873  0.468028  0.250188  1
  Pt  Pt32  1  0.924154  0.456127  0.250188  1
  Pt  Pt33  1  0.531972  0.075846  0.250188  1
  Pt  Pt34  1  0.456127  0.531972  0.749812  1
  Pt  Pt35  1  0.075846  0.543873  0.749812  1
  Pt  Pt36  1  0.468028  0.924154  0.749812  1
  Pt  Pt37  1  0.239108  0.961777  0.249397  1
  Pt  Pt38  1  0.722671  0.760892  0.249397  1
  Pt  Pt39  1  0.038223  0.277329  0.249397  1
  Pt  Pt40  1  0.760892  0.038223  0.750603  1
  Pt  Pt41  1  0.277329  0.239108  0.750603  1
  Pt  Pt42  1  0.961777  0.722671  0.750603  1
  Pt  Pt43  1  0.028169  0.876924  0.243598  1
  Pt  Pt44  1  0.848755  0.971831  0.243598  1
  Pt  Pt45  1  0.123076  0.151245  0.243598  1
  Pt  Pt46  1  0.971831  0.123076  0.756402  1
  Pt  Pt47  1  0.151245  0.028169  0.756402  1
  Pt  Pt48  1  0.876924  0.848755  0.756402  1
  Pt  Pt49  1  0.839843  0.584972  0.251744  1
  Pt  Pt50  1  0.745129  0.160157  0.251744  1
  Pt  Pt51  1  0.415028  0.254871  0.251744  1
  Pt  Pt52  1  0.160157  0.415028  0.748256  1
  Pt  Pt53  1  0.254871  0.839843  0.748256  1
  Pt  Pt54  1  0.584972  0.745129  0.748256  1
