# generated using pymatgen
data_Nb8VBiSe16
_symmetry_space_group_name_H-M   'P 1'
_cell_length_a   7.03036800
_cell_length_b   7.03036825
_cell_length_c   13.87739600
_cell_angle_alpha   90.00000000
_cell_angle_beta   90.00000000
_cell_angle_gamma   120.00000822
_symmetry_Int_Tables_number   1
_chemical_formula_structural   Nb8VBiSe16
_chemical_formula_sum   'Nb8 V1 Bi1 Se16'
_cell_volume   594.01130388
_cell_formula_units_Z   1
loop_
 _symmetry_equiv_pos_site_id
 _symmetry_equiv_pos_as_xyz
  1  'x, y, z'
loop_
 _atom_site_type_symbol
 _atom_site_label
 _atom_site_symmetry_multiplicity
 _atom_site_fract_x
 _atom_site_fract_y
 _atom_site_fract_z
 _atom_site_occupancy
  Nb  Nb0  1  0.000000  0.000000  0.268547  1
  Nb  Nb1  1  0.000000  0.000000  0.731453  1
  Nb  Nb2  1  0.507775  0.015550  0.269322  1
  Nb  Nb3  1  0.492225  0.984450  0.730678  1
  Nb  Nb4  1  0.984450  0.492225  0.269322  1
  Nb  Nb5  1  0.015550  0.507775  0.730678  1
  Nb  Nb6  1  0.507775  0.492225  0.269322  1
  Nb  Nb7  1  0.492225  0.507775  0.730678  1
  V  V8  1  0.000000  0.000000  0.500000  1
  Bi  Bi9  1  0.000000  0.000000  0.000000  1
  Se  Se10  1  0.333333  0.666667  0.606456  1
  Se  Se11  1  0.666667  0.333333  0.393544  1
  Se  Se12  1  0.666667  0.333333  0.143808  1
  Se  Se13  1  0.333333  0.666667  0.856192  1
  Se  Se14  1  0.170517  0.341034  0.149452  1
  Se  Se15  1  0.829483  0.658966  0.850548  1
  Se  Se16  1  0.658966  0.829483  0.149452  1
  Se  Se17  1  0.833244  0.666488  0.612334  1
  Se  Se18  1  0.341034  0.170517  0.850548  1
  Se  Se19  1  0.166756  0.333512  0.387666  1
  Se  Se20  1  0.170517  0.829483  0.149452  1
  Se  Se21  1  0.333512  0.166756  0.612334  1
  Se  Se22  1  0.829483  0.170517  0.850548  1
  Se  Se23  1  0.666488  0.833244  0.387666  1
  Se  Se24  1  0.833244  0.166756  0.612334  1
  Se  Se25  1  0.166756  0.833244  0.387666  1
