# generated using pymatgen
data_Ce8Mg8Ir7Rh
_symmetry_space_group_name_H-M   'P 1'
_cell_length_a   4.03052900
_cell_length_b   7.55766772
_cell_length_c   16.75276100
_cell_angle_alpha   89.86911899
_cell_angle_beta   90.00000000
_cell_angle_gamma   90.00000000
_symmetry_Int_Tables_number   1
_chemical_formula_structural   Ce8Mg8Ir7Rh
_chemical_formula_sum   'Ce8 Mg8 Ir7 Rh1'
_cell_volume   510.31120425
_cell_formula_units_Z   1
loop_
 _symmetry_equiv_pos_site_id
 _symmetry_equiv_pos_as_xyz
  1  'x, y, z'
loop_
 _atom_site_type_symbol
 _atom_site_label
 _atom_site_symmetry_multiplicity
 _atom_site_fract_x
 _atom_site_fract_y
 _atom_site_fract_z
 _atom_site_occupancy
  Ce  Ce0  1  0.250000  0.170933  0.939633  1
  Ce  Ce1  1  0.250000  0.666967  0.559670  1
  Ce  Ce2  1  0.750000  0.331748  0.439286  1
  Ce  Ce3  1  0.750000  0.942552  0.280280  1
  Ce  Ce4  1  0.750000  0.833475  0.062380  1
  Ce  Ce5  1  0.750000  0.440953  0.219628  1
  Ce  Ce6  1  0.250000  0.056125  0.719900  1
  Ce  Ce7  1  0.250000  0.555295  0.778717  1
  Mg  Mg8  1  0.750000  0.005225  0.564517  1
  Mg  Mg9  1  0.250000  0.621506  0.348817  1
  Mg  Mg10  1  0.750000  0.377029  0.649651  1
  Mg  Mg11  1  0.250000  0.492802  0.065224  1
  Mg  Mg12  1  0.750000  0.508482  0.935330  1
  Mg  Mg13  1  0.250000  0.993444  0.434737  1
  Mg  Mg14  1  0.250000  0.120670  0.150771  1
  Mg  Mg15  1  0.750000  0.878085  0.849887  1
  Ir  Ir16  1  0.750000  0.742773  0.442313  1
  Ir  Ir17  1  0.250000  0.247868  0.311456  1
  Ir  Ir18  1  0.750000  0.253219  0.812104  1
  Ir  Ir19  1  0.750000  0.750546  0.688802  1
  Ir  Ir20  1  0.250000  0.256631  0.556832  1
  Ir  Ir21  1  0.250000  0.748838  0.186965  1
  Ir  Ir22  1  0.750000  0.243074  0.057477  1
  Rh  Rh23  1  0.250000  0.761759  0.945626  1
