# generated using pymatgen
data_Yb2LuTl(Pt2O7)2
_symmetry_space_group_name_H-M   'P 1'
_cell_length_a   7.18411679
_cell_length_b   7.28823341
_cell_length_c   7.28823198
_cell_angle_alpha   60.00674917
_cell_angle_beta   59.73205672
_cell_angle_gamma   59.73206005
_symmetry_Int_Tables_number   1
_chemical_formula_structural   Yb2LuTl(Pt2O7)2
_chemical_formula_sum   'Yb2 Lu1 Tl1 Pt4 O14'
_cell_volume   268.75343443
_cell_formula_units_Z   1
loop_
 _symmetry_equiv_pos_site_id
 _symmetry_equiv_pos_as_xyz
  1  'x, y, z'
loop_
 _atom_site_type_symbol
 _atom_site_label
 _atom_site_symmetry_multiplicity
 _atom_site_fract_x
 _atom_site_fract_y
 _atom_site_fract_z
 _atom_site_occupancy
  Yb  Yb0  1  0.625000  0.625000  0.125000  1
  Yb  Yb1  1  0.625000  0.125000  0.625000  1
  Lu  Lu2  1  0.625000  0.625000  0.625000  1
  Tl  Tl3  1  0.125000  0.625000  0.625000  1
  Pt  Pt4  1  0.125000  0.125000  0.125000  1
  Pt  Pt5  1  0.625000  0.125000  0.125000  1
  Pt  Pt6  1  0.125000  0.125000  0.625000  1
  Pt  Pt7  1  0.125000  0.625000  0.125000  1
  O  O8  1  0.029275  0.459116  0.459116  1
  O  O9  1  0.785284  0.787007  0.223635  1
  O  O10  1  0.786118  0.212019  0.212019  1
  O  O11  1  0.464716  0.026365  0.462993  1
  O  O12  1  0.760802  0.740472  0.740472  1
  O  O13  1  0.040876  0.457921  0.044910  1
  O  O14  1  0.040876  0.044910  0.457921  1
  O  O15  1  0.209124  0.792079  0.205090  1
  O  O16  1  0.209124  0.205090  0.792079  1
  O  O17  1  0.785284  0.223635  0.787007  1
  O  O18  1  0.489198  0.509528  0.509528  1
  O  O19  1  0.463882  0.037981  0.037981  1
  O  O20  1  0.464716  0.462993  0.026365  1
  O  O21  1  0.220725  0.790884  0.790884  1
