# generated using pymatgen
data_LiSc(Sn4Os)2
_symmetry_space_group_name_H-M   'P 1'
_cell_length_a   7.45683754
_cell_length_b   7.45683677
_cell_length_c   7.45683686
_cell_angle_alpha   126.15121707
_cell_angle_beta   126.15121162
_cell_angle_gamma   79.63975452
_symmetry_Int_Tables_number   1
_chemical_formula_structural   LiSc(Sn4Os)2
_chemical_formula_sum   'Li1 Sc1 Sn8 Os2'
_cell_volume   261.19221880
_cell_formula_units_Z   1
loop_
 _symmetry_equiv_pos_site_id
 _symmetry_equiv_pos_as_xyz
  1  'x, y, z'
loop_
 _atom_site_type_symbol
 _atom_site_label
 _atom_site_symmetry_multiplicity
 _atom_site_fract_x
 _atom_site_fract_y
 _atom_site_fract_z
 _atom_site_occupancy
  Li  Li0  1  0.000000  0.000000  0.000000  1
  Sc  Sc1  1  0.500000  0.500000  0.000000  1
  Sn  Sn2  1  0.710569  0.522355  0.508570  1
  Sn  Sn3  1  0.522355  0.013785  0.811787  1
  Sn  Sn4  1  0.201998  0.710569  0.188213  1
  Sn  Sn5  1  0.798002  0.289431  0.811787  1
  Sn  Sn6  1  0.477645  0.986215  0.188213  1
  Sn  Sn7  1  0.289431  0.477645  0.491430  1
  Sn  Sn8  1  0.986215  0.798002  0.508570  1
  Sn  Sn9  1  0.013785  0.201998  0.491430  1
  Os  Os10  1  0.252173  0.252173  0.000000  1
  Os  Os11  1  0.747827  0.747827  0.000000  1
