# generated using pymatgen
data_ErTmTc2F14
_symmetry_space_group_name_H-M   'P 1'
_cell_length_a   5.54784100
_cell_length_b   8.82430033
_cell_length_c   11.93206323
_cell_angle_alpha   62.74730914
_cell_angle_beta   90.00000000
_cell_angle_gamma   90.00000000
_symmetry_Int_Tables_number   1
_chemical_formula_structural   ErTmTc2F14
_chemical_formula_sum   'Er2 Tm2 Tc4 F28'
_cell_volume   519.30136228
_cell_formula_units_Z   2
loop_
 _symmetry_equiv_pos_site_id
 _symmetry_equiv_pos_as_xyz
  1  'x, y, z'
loop_
 _atom_site_type_symbol
 _atom_site_label
 _atom_site_symmetry_multiplicity
 _atom_site_fract_x
 _atom_site_fract_y
 _atom_site_fract_z
 _atom_site_occupancy
  Er  Er0  1  0.241321  0.186055  0.235477  1
  Er  Er1  1  0.741321  0.813945  0.264523  1
  Tm  Tm2  1  0.758552  0.814605  0.764558  1
  Tm  Tm3  1  0.258552  0.185395  0.735442  1
  Tc  Tc4  1  0.758291  0.273692  0.955748  1
  Tc  Tc5  1  0.258291  0.726308  0.544252  1
  Tc  Tc6  1  0.242176  0.727533  0.042089  1
  Tc  Tc7  1  0.742176  0.272467  0.457911  1
  F  F8  1  0.444756  0.705956  0.915994  1
  F  F9  1  0.944756  0.294044  0.584006  1
  F  F10  1  0.555626  0.294409  0.082248  1
  F  F11  1  0.055626  0.705591  0.417752  1
  F  F12  1  0.443738  0.275555  0.547458  1
  F  F13  1  0.943738  0.724445  0.952542  1
  F  F14  1  0.555606  0.723125  0.454388  1
  F  F15  1  0.055606  0.276875  0.045612  1
  F  F16  1  0.774539  0.523200  0.857833  1
  F  F17  1  0.274539  0.476800  0.642167  1
  F  F18  1  0.224408  0.478189  0.140856  1
  F  F19  1  0.724408  0.521811  0.359144  1
  F  F20  1  0.755971  0.025264  0.052550  1
  F  F21  1  0.255971  0.974736  0.447450  1
  F  F22  1  0.244808  0.975888  0.945749  1
  F  F23  1  0.744808  0.024112  0.554251  1
  F  F24  1  0.973001  0.728632  0.641085  1
  F  F25  1  0.473001  0.271368  0.858915  1
  F  F26  1  0.028438  0.272012  0.361332  1
  F  F27  1  0.528438  0.727988  0.138668  1
  F  F28  1  0.046360  0.747582  0.172932  1
  F  F29  1  0.546360  0.252418  0.327068  1
  F  F30  1  0.956276  0.252839  0.825908  1
  F  F31  1  0.456276  0.747161  0.674092  1
  F  F32  1  0.419155  0.970879  0.232199  1
  F  F33  1  0.919155  0.029121  0.267801  1
  F  F34  1  0.576978  0.027321  0.767110  1
  F  F35  1  0.076978  0.972679  0.732890  1
