# generated using pymatgen
data_UZnCu(AsO5)2
_symmetry_space_group_name_H-M   'P 1'
_cell_length_a   5.37352060
_cell_length_b   5.98405075
_cell_length_c   7.71885014
_cell_angle_alpha   108.13220337
_cell_angle_beta   110.96623381
_cell_angle_gamma   87.58346214
_symmetry_Int_Tables_number   1
_chemical_formula_structural   UZnCu(AsO5)2
_chemical_formula_sum   'U1 Zn1 Cu1 As2 O10'
_cell_volume   219.58971200
_cell_formula_units_Z   1
loop_
 _symmetry_equiv_pos_site_id
 _symmetry_equiv_pos_as_xyz
  1  'x, y, z'
loop_
 _atom_site_type_symbol
 _atom_site_label
 _atom_site_symmetry_multiplicity
 _atom_site_fract_x
 _atom_site_fract_y
 _atom_site_fract_z
 _atom_site_occupancy
  U  U0  1  0.000066  0.000008  0.000042  1
  Zn  Zn1  1  0.499999  0.999996  0.500018  1
  Cu  Cu2  1  0.500001  0.500011  0.500001  1
  As  As3  1  0.899162  0.632081  0.281529  1
  As  As4  1  0.100820  0.367922  0.718455  1
  O  O5  1  0.872102  0.340179  0.153891  1
  O  O6  1  0.813808  0.794358  0.124223  1
  O  O7  1  0.313041  0.041383  0.218859  1
  O  O8  1  0.682468  0.691786  0.407587  1
  O  O9  1  0.222957  0.720444  0.450241  1
  O  O10  1  0.777031  0.279544  0.549760  1
  O  O11  1  0.317489  0.308201  0.592384  1
  O  O12  1  0.686976  0.958617  0.781136  1
  O  O13  1  0.186189  0.205647  0.875769  1
  O  O14  1  0.127885  0.659819  0.846105  1
