# generated using pymatgen
data_La4B4SbIr9
_symmetry_space_group_name_H-M   'P 1'
_cell_length_a   11.00726855
_cell_length_b   11.00726815
_cell_length_c   11.00726816
_cell_angle_alpha   29.83396696
_cell_angle_beta   29.83396867
_cell_angle_gamma   29.83397230
_symmetry_Int_Tables_number   1
_chemical_formula_structural   La4B4SbIr9
_chemical_formula_sum   'La4 B4 Sb1 Ir9'
_cell_volume   292.29723520
_cell_formula_units_Z   1
loop_
 _symmetry_equiv_pos_site_id
 _symmetry_equiv_pos_as_xyz
  1  'x, y, z'
loop_
 _atom_site_type_symbol
 _atom_site_label
 _atom_site_symmetry_multiplicity
 _atom_site_fract_x
 _atom_site_fract_y
 _atom_site_fract_z
 _atom_site_occupancy
  La  La0  1  0.147056  0.147056  0.147056  1
  La  La1  1  0.950607  0.950607  0.950607  1
  La  La2  1  0.852944  0.852944  0.852944  1
  La  La3  1  0.049393  0.049393  0.049393  1
  B  B4  1  0.617254  0.617254  0.617254  1
  B  B5  1  0.716547  0.716547  0.716547  1
  B  B6  1  0.382746  0.382746  0.382746  1
  B  B7  1  0.283453  0.283453  0.283453  1
  Sb  Sb8  1  0.500000  0.500000  0.500000  1
  Ir  Ir9  1  0.405123  0.906610  0.405123  1
  Ir  Ir10  1  0.906610  0.405123  0.405123  1
  Ir  Ir11  1  0.500000  0.500000  0.000000  1
  Ir  Ir12  1  0.500000  0.000000  0.500000  1
  Ir  Ir13  1  0.000000  0.500000  0.500000  1
  Ir  Ir14  1  0.594877  0.093390  0.594877  1
  Ir  Ir15  1  0.594877  0.594877  0.093390  1
  Ir  Ir16  1  0.093390  0.594877  0.594877  1
  Ir  Ir17  1  0.405123  0.405123  0.906610  1
