# generated using pymatgen
data_YSc2PaNi4
_symmetry_space_group_name_H-M   'P 1'
_cell_length_a   4.28612200
_cell_length_b   5.18453728
_cell_length_c   6.50419645
_cell_angle_alpha   92.45174024
_cell_angle_beta   90.00000000
_cell_angle_gamma   90.00000000
_symmetry_Int_Tables_number   1
_chemical_formula_structural   YSc2PaNi4
_chemical_formula_sum   'Y1 Sc2 Pa1 Ni4'
_cell_volume   144.40108237
_cell_formula_units_Z   1
loop_
 _symmetry_equiv_pos_site_id
 _symmetry_equiv_pos_as_xyz
  1  'x, y, z'
loop_
 _atom_site_type_symbol
 _atom_site_label
 _atom_site_symmetry_multiplicity
 _atom_site_fract_x
 _atom_site_fract_y
 _atom_site_fract_z
 _atom_site_occupancy
  Y  Y0  1  0.500000  0.613015  0.818121  1
  Sc  Sc1  1  0.000000  0.109588  0.683869  1
  Sc  Sc2  1  0.000000  0.891781  0.180181  1
  Pa  Pa3  1  0.500000  0.391738  0.318982  1
  Ni  Ni4  1  0.000000  0.605476  0.519758  1
  Ni  Ni5  1  0.000000  0.379396  0.056782  1
  Ni  Ni6  1  0.500000  0.898137  0.438283  1
  Ni  Ni7  1  0.500000  0.110870  0.984024  1
