# generated using pymatgen
data_Pr8Tm2In5BiBr2
_symmetry_space_group_name_H-M   'P 1'
_cell_length_a   9.55815948
_cell_length_b   9.55816008
_cell_length_c   6.89890607
_cell_angle_alpha   90.00671190
_cell_angle_beta   90.00670999
_cell_angle_gamma   120.09925929
_symmetry_Int_Tables_number   1
_chemical_formula_structural   Pr8Tm2In5BiBr2
_chemical_formula_sum   'Pr8 Tm2 In5 Bi1 Br2'
_cell_volume   545.28578013
_cell_formula_units_Z   1
loop_
 _symmetry_equiv_pos_site_id
 _symmetry_equiv_pos_as_xyz
  1  'x, y, z'
loop_
 _atom_site_type_symbol
 _atom_site_label
 _atom_site_symmetry_multiplicity
 _atom_site_fract_x
 _atom_site_fract_y
 _atom_site_fract_z
 _atom_site_occupancy
  Pr  Pr0  1  0.269002  0.002708  0.745585  1
  Pr  Pr1  1  0.735837  0.005051  0.254241  1
  Pr  Pr2  1  0.002708  0.269002  0.745585  1
  Pr  Pr3  1  0.005051  0.735837  0.254241  1
  Pr  Pr4  1  0.733419  0.733419  0.747460  1
  Pr  Pr5  1  0.262401  0.262401  0.252038  1
  Pr  Pr6  1  0.667352  0.328598  0.997972  1
  Pr  Pr7  1  0.328598  0.667352  0.997972  1
  Tm  Tm8  1  0.331464  0.666423  0.501844  1
  Tm  Tm9  1  0.666423  0.331464  0.501844  1
  In  In10  1  0.605646  0.999337  0.740845  1
  In  In11  1  0.396121  0.000403  0.259758  1
  In  In12  1  0.999337  0.605646  0.740845  1
  In  In13  1  0.000403  0.396121  0.259758  1
  In  In14  1  0.391605  0.391605  0.741012  1
  Bi  Bi15  1  0.608005  0.608005  0.258940  1
  Br  Br16  1  0.998715  0.998715  0.499782  1
  Br  Br17  1  0.997912  0.997912  0.000280  1
