# generated using pymatgen
data_Li4Tm8Sc8Si15As
_symmetry_space_group_name_H-M   'P 1'
_cell_length_a   6.83392838
_cell_length_b   7.36245739
_cell_length_c   13.97253600
_cell_angle_alpha   90.00000000
_cell_angle_beta   90.00000000
_cell_angle_gamma   89.96407862
_symmetry_Int_Tables_number   1
_chemical_formula_structural   Li4Tm8Sc8Si15As
_chemical_formula_sum   'Li4 Tm8 Sc8 Si15 As1'
_cell_volume   703.02111448
_cell_formula_units_Z   1
loop_
 _symmetry_equiv_pos_site_id
 _symmetry_equiv_pos_as_xyz
  1  'x, y, z'
loop_
 _atom_site_type_symbol
 _atom_site_label
 _atom_site_symmetry_multiplicity
 _atom_site_fract_x
 _atom_site_fract_y
 _atom_site_fract_z
 _atom_site_occupancy
  Li  Li0  1  0.160434  0.514813  0.750000  1
  Li  Li1  1  0.840608  0.490940  0.250000  1
  Li  Li2  1  0.340485  0.009618  0.250000  1
  Li  Li3  1  0.658281  0.990238  0.750000  1
  Tm  Tm4  1  0.012219  0.182919  0.097965  1
  Tm  Tm5  1  0.987901  0.816316  0.901793  1
  Tm  Tm6  1  0.488225  0.681434  0.902790  1
  Tm  Tm7  1  0.987901  0.816316  0.598207  1
  Tm  Tm8  1  0.511944  0.318210  0.097415  1
  Tm  Tm9  1  0.012219  0.182919  0.402035  1
  Tm  Tm10  1  0.511944  0.318210  0.402585  1
  Tm  Tm11  1  0.488225  0.681434  0.597210  1
  Sc  Sc12  1  0.333080  0.178952  0.627614  1
  Sc  Sc13  1  0.668897  0.820716  0.373339  1
  Sc  Sc14  1  0.169328  0.679224  0.373477  1
  Sc  Sc15  1  0.668897  0.820716  0.126661  1
  Sc  Sc16  1  0.828817  0.322515  0.626541  1
  Sc  Sc17  1  0.333080  0.178952  0.872386  1
  Sc  Sc18  1  0.828817  0.322515  0.873459  1
  Sc  Sc19  1  0.169328  0.679224  0.126523  1
  Si  Si20  1  0.970538  0.901140  0.250000  1
  Si  Si21  1  0.470198  0.599763  0.250000  1
  Si  Si22  1  0.528480  0.400795  0.750000  1
  Si  Si23  1  0.289471  0.869094  0.750000  1
  Si  Si24  1  0.716561  0.123020  0.250000  1
  Si  Si25  1  0.216734  0.376933  0.250000  1
  Si  Si26  1  0.783488  0.622073  0.750000  1
  Si  Si27  1  0.160744  0.462812  0.535502  1
  Si  Si28  1  0.838845  0.536624  0.465556  1
  Si  Si29  1  0.337703  0.964292  0.466042  1
  Si  Si30  1  0.838845  0.536624  0.034444  1
  Si  Si31  1  0.661541  0.036257  0.534763  1
  Si  Si32  1  0.160744  0.462812  0.964498  1
  Si  Si33  1  0.661541  0.036257  0.965237  1
  Si  Si34  1  0.337703  0.964292  0.033958  1
  As  As35  1  0.026233  0.101028  0.750000  1
