# generated using pymatgen
data_Y4Tm4B24MoRh3
_symmetry_space_group_name_H-M   'P 1'
_cell_length_a   3.64976300
_cell_length_b   9.14203258
_cell_length_c   11.52135923
_cell_angle_alpha   90.20424164
_cell_angle_beta   90.00000000
_cell_angle_gamma   90.00000000
_symmetry_Int_Tables_number   1
_chemical_formula_structural   Y4Tm4B24MoRh3
_chemical_formula_sum   'Y4 Tm4 B24 Mo1 Rh3'
_cell_volume   384.42213582
_cell_formula_units_Z   1
loop_
 _symmetry_equiv_pos_site_id
 _symmetry_equiv_pos_as_xyz
  1  'x, y, z'
loop_
 _atom_site_type_symbol
 _atom_site_label
 _atom_site_symmetry_multiplicity
 _atom_site_fract_x
 _atom_site_fract_y
 _atom_site_fract_z
 _atom_site_occupancy
  Y  Y0  1  0.500000  0.318916  0.411205  1
  Y  Y1  1  0.500000  0.677034  0.584889  1
  Y  Y2  1  0.500000  0.178786  0.916767  1
  Y  Y3  1  0.500000  0.823468  0.086637  1
  Tm  Tm4  1  0.500000  0.445019  0.125941  1
  Tm  Tm5  1  0.500000  0.557159  0.871531  1
  Tm  Tm6  1  0.500000  0.055893  0.629088  1
  Tm  Tm7  1  0.500000  0.945091  0.373873  1
  B  B8  1  0.000000  0.104570  0.473555  1
  B  B9  1  0.000000  0.894276  0.529876  1
  B  B10  1  0.000000  0.397747  0.969886  1
  B  B11  1  0.000000  0.606267  0.027572  1
  B  B12  1  0.000000  0.131498  0.317309  1
  B  B13  1  0.000000  0.867273  0.683475  1
  B  B14  1  0.000000  0.369086  0.816390  1
  B  B15  1  0.000000  0.632350  0.183538  1
  B  B16  1  0.000000  0.052113  0.065040  1
  B  B17  1  0.000000  0.946008  0.932883  1
  B  B18  1  0.000000  0.444417  0.565764  1
  B  B19  1  0.000000  0.553478  0.433522  1
  B  B20  1  0.000000  0.483686  0.286712  1
  B  B21  1  0.000000  0.516773  0.712362  1
  B  B22  1  0.000000  0.016807  0.787102  1
  B  B23  1  0.000000  0.980052  0.214578  1
  B  B24  1  0.000000  0.252139  0.079134  1
  B  B25  1  0.000000  0.750469  0.918842  1
  B  B26  1  0.000000  0.249181  0.580063  1
  B  B27  1  0.000000  0.749632  0.420536  1
  B  B28  1  0.000000  0.295803  0.235769  1
  B  B29  1  0.000000  0.706030  0.763581  1
  B  B30  1  0.000000  0.207758  0.736060  1
  B  B31  1  0.000000  0.792167  0.266289  1
  Mo  Mo32  1  0.500000  0.138750  0.179706  1
  Rh  Rh33  1  0.500000  0.860442  0.820004  1
  Rh  Rh34  1  0.500000  0.360632  0.679716  1
  Rh  Rh35  1  0.500000  0.639227  0.320805  1
