# generated using pymatgen
data_Hf4ScSn3
_symmetry_space_group_name_H-M   'P 1'
_cell_length_a   8.46200828
_cell_length_b   8.45124573
_cell_length_c   5.78080300
_cell_angle_alpha   90.00000000
_cell_angle_beta   90.00000000
_cell_angle_gamma   119.95792534
_symmetry_Int_Tables_number   1
_chemical_formula_structural   Hf4ScSn3
_chemical_formula_sum   'Hf8 Sc2 Sn6'
_cell_volume   358.17638568
_cell_formula_units_Z   2
loop_
 _symmetry_equiv_pos_site_id
 _symmetry_equiv_pos_as_xyz
  1  'x, y, z'
loop_
 _atom_site_type_symbol
 _atom_site_label
 _atom_site_symmetry_multiplicity
 _atom_site_fract_x
 _atom_site_fract_y
 _atom_site_fract_z
 _atom_site_occupancy
  Hf  Hf0  1  0.000000  0.245410  0.750000  1
  Hf  Hf1  1  0.240047  0.241494  0.250000  1
  Hf  Hf2  1  0.759953  0.001446  0.250000  1
  Hf  Hf3  1  0.000000  0.757531  0.250000  1
  Hf  Hf4  1  0.667797  0.332771  0.000311  1
  Hf  Hf5  1  0.332203  0.664975  0.000311  1
  Hf  Hf6  1  0.332203  0.664975  0.499689  1
  Hf  Hf7  1  0.667797  0.332771  0.499689  1
  Sc  Sc8  1  0.756429  0.757332  0.750000  1
  Sc  Sc9  1  0.243571  0.000903  0.750000  1
  Sn  Sn10  1  0.392869  0.391482  0.750000  1
  Sn  Sn11  1  0.607131  0.998613  0.750000  1
  Sn  Sn12  1  0.000000  0.609023  0.750000  1
  Sn  Sn13  1  0.607807  0.608067  0.250000  1
  Sn  Sn14  1  0.392193  0.000260  0.250000  1
  Sn  Sn15  1  0.000000  0.392946  0.250000  1
