# generated using pymatgen
data_Li4ZnSb3Rh8
_symmetry_space_group_name_H-M   'P 1'
_cell_length_a   6.13640300
_cell_length_b   6.13271500
_cell_length_c   6.13620300
_cell_angle_alpha   90.00006538
_cell_angle_beta   89.99947712
_cell_angle_gamma   90.00000934
_symmetry_Int_Tables_number   1
_chemical_formula_structural   Li4ZnSb3Rh8
_chemical_formula_sum   'Li4 Zn1 Sb3 Rh8'
_cell_volume   230.92256606
_cell_formula_units_Z   1
loop_
 _symmetry_equiv_pos_site_id
 _symmetry_equiv_pos_as_xyz
  1  'x, y, z'
loop_
 _atom_site_type_symbol
 _atom_site_label
 _atom_site_symmetry_multiplicity
 _atom_site_fract_x
 _atom_site_fract_y
 _atom_site_fract_z
 _atom_site_occupancy
  Li  Li0  1  0.500018  0.750030  0.249987  1
  Li  Li1  1  0.999986  0.249965  0.249981  1
  Li  Li2  1  0.999990  0.750036  0.750022  1
  Li  Li3  1  0.500006  0.249967  0.750021  1
  Zn  Zn4  1  0.500007  0.250008  0.250032  1
  Sb  Sb5  1  0.999994  0.750000  0.250030  1
  Sb  Sb6  1  0.999994  0.249992  0.749968  1
  Sb  Sb7  1  0.500003  0.749997  0.749962  1
  Rh  Rh8  1  0.252287  0.002076  0.002293  1
  Rh  Rh9  1  0.747720  0.002082  0.002291  1
  Rh  Rh10  1  0.747724  0.497918  0.002280  1
  Rh  Rh11  1  0.252283  0.497930  0.002283  1
  Rh  Rh12  1  0.252294  0.497901  0.497717  1
  Rh  Rh13  1  0.252292  0.002096  0.497722  1
  Rh  Rh14  1  0.747703  0.497905  0.497700  1
  Rh  Rh15  1  0.747695  0.002097  0.497711  1
