# generated using pymatgen
data_YPa2(GaPt)3
_symmetry_space_group_name_H-M   'P 1'
_cell_length_a   7.18304507
_cell_length_b   7.19279039
_cell_length_c   4.03291200
_cell_angle_alpha   90.00000000
_cell_angle_beta   90.00000000
_cell_angle_gamma   120.04490202
_symmetry_Int_Tables_number   1
_chemical_formula_structural   YPa2(GaPt)3
_chemical_formula_sum   'Y1 Pa2 Ga3 Pt3'
_cell_volume   180.36766926
_cell_formula_units_Z   1
loop_
 _symmetry_equiv_pos_site_id
 _symmetry_equiv_pos_as_xyz
  1  'x, y, z'
loop_
 _atom_site_type_symbol
 _atom_site_label
 _atom_site_symmetry_multiplicity
 _atom_site_fract_x
 _atom_site_fract_y
 _atom_site_fract_z
 _atom_site_occupancy
  Y  Y0  1  0.000000  0.590054  0.500000  1
  Pa  Pa1  1  0.416269  0.414627  0.500000  1
  Pa  Pa2  1  0.583731  0.998358  0.500000  1
  Ga  Ga3  1  0.761509  0.751950  0.000000  1
  Ga  Ga4  1  0.238491  0.990441  0.000000  1
  Ga  Ga5  1  0.000000  0.253432  0.000000  1
  Pt  Pt6  1  0.651751  0.321029  0.000000  1
  Pt  Pt7  1  0.348249  0.669279  0.000000  1
  Pt  Pt8  1  0.000000  0.010829  0.500000  1
