# generated using pymatgen
data_Tm3Pa(B4Mo)4
_symmetry_space_group_name_H-M   'P 1'
_cell_length_a   3.62387200
_cell_length_b   6.00131842
_cell_length_c   11.60058236
_cell_angle_alpha   90.12457890
_cell_angle_beta   90.00000000
_cell_angle_gamma   90.00000000
_symmetry_Int_Tables_number   1
_chemical_formula_structural   Tm3Pa(B4Mo)4
_chemical_formula_sum   'Tm3 Pa1 B16 Mo4'
_cell_volume   252.28898212
_cell_formula_units_Z   1
loop_
 _symmetry_equiv_pos_site_id
 _symmetry_equiv_pos_as_xyz
  1  'x, y, z'
loop_
 _atom_site_type_symbol
 _atom_site_label
 _atom_site_symmetry_multiplicity
 _atom_site_fract_x
 _atom_site_fract_y
 _atom_site_fract_z
 _atom_site_occupancy
  Tm  Tm0  1  0.000000  0.626454  0.349957  1
  Tm  Tm1  1  0.000000  0.373281  0.648784  1
  Tm  Tm2  1  0.000000  0.127243  0.150876  1
  Pa  Pa3  1  0.000000  0.874460  0.849495  1
  B  B4  1  0.500000  0.786836  0.187680  1
  B  B5  1  0.500000  0.210796  0.813977  1
  B  B6  1  0.500000  0.288432  0.313779  1
  B  B7  1  0.500000  0.711457  0.685798  1
  B  B8  1  0.500000  0.866204  0.032225  1
  B  B9  1  0.500000  0.133252  0.967999  1
  B  B10  1  0.500000  0.367514  0.467550  1
  B  B11  1  0.500000  0.632629  0.531704  1
  B  B12  1  0.500000  0.884384  0.451953  1
  B  B13  1  0.500000  0.115661  0.547144  1
  B  B14  1  0.500000  0.383891  0.048388  1
  B  B15  1  0.500000  0.613665  0.953043  1
  B  B16  1  0.500000  0.976366  0.306019  1
  B  B17  1  0.500000  0.023665  0.692844  1
  B  B18  1  0.500000  0.476573  0.194278  1
  B  B19  1  0.500000  0.526117  0.806652  1
  Mo  Mo20  1  0.000000  0.631123  0.085467  1
  Mo  Mo21  1  0.000000  0.368035  0.913586  1
  Mo  Mo22  1  0.000000  0.131037  0.415519  1
  Mo  Mo23  1  0.000000  0.870924  0.585282  1
