# generated using pymatgen
data_Y5Ho5In4(HgPd)4
_symmetry_space_group_name_H-M   'P 1'
_cell_length_a   3.64112600
_cell_length_b   8.03481635
_cell_length_c   18.29803319
_cell_angle_alpha   89.78589952
_cell_angle_beta   90.00000000
_cell_angle_gamma   90.00000000
_symmetry_Int_Tables_number   1
_chemical_formula_structural   Y5Ho5In4(HgPd)4
_chemical_formula_sum   'Y5 Ho5 In4 Hg4 Pd4'
_cell_volume   535.31947294
_cell_formula_units_Z   1
loop_
 _symmetry_equiv_pos_site_id
 _symmetry_equiv_pos_as_xyz
  1  'x, y, z'
loop_
 _atom_site_type_symbol
 _atom_site_label
 _atom_site_symmetry_multiplicity
 _atom_site_fract_x
 _atom_site_fract_y
 _atom_site_fract_z
 _atom_site_occupancy
  Y  Y0  1  0.000000  0.500115  0.499890  1
  Y  Y1  1  0.000000  0.999353  0.000069  1
  Y  Y2  1  0.000000  0.744139  0.285579  1
  Y  Y3  1  0.000000  0.256815  0.714292  1
  Y  Y4  1  0.000000  0.756264  0.785881  1
  Ho  Ho5  1  0.000000  0.244065  0.214263  1
  Ho  Ho6  1  0.000000  0.608357  0.084084  1
  Ho  Ho7  1  0.000000  0.390189  0.916360  1
  Ho  Ho8  1  0.000000  0.890896  0.583965  1
  Ho  Ho9  1  0.000000  0.110007  0.415566  1
  In  In10  1  0.500000  0.582615  0.649905  1
  In  In11  1  0.500000  0.417736  0.350033  1
  In  In12  1  0.500000  0.917430  0.149586  1
  In  In13  1  0.500000  0.082479  0.850328  1
  Hg  Hg14  1  0.500000  0.709752  0.934505  1
  Hg  Hg15  1  0.500000  0.288699  0.066016  1
  Hg  Hg16  1  0.500000  0.790747  0.434509  1
  Hg  Hg17  1  0.500000  0.210216  0.565688  1
  Pd  Pd18  1  0.500000  0.530456  0.197597  1
  Pd  Pd19  1  0.500000  0.466501  0.802954  1
  Pd  Pd20  1  0.500000  0.967019  0.697282  1
  Pd  Pd21  1  0.500000  0.036150  0.301647  1
