# generated using pymatgen
data_TbHo(ThPd6)2
_symmetry_space_group_name_H-M   'P 1'
_cell_length_a   5.88663800
_cell_length_b   5.88663796
_cell_length_c   9.69921900
_cell_angle_alpha   90.00000000
_cell_angle_beta   90.00000000
_cell_angle_gamma   120.00000025
_symmetry_Int_Tables_number   1
_chemical_formula_structural   TbHo(ThPd6)2
_chemical_formula_sum   'Tb1 Ho1 Th2 Pd12'
_cell_volume   291.07308710
_cell_formula_units_Z   1
loop_
 _symmetry_equiv_pos_site_id
 _symmetry_equiv_pos_as_xyz
  1  'x, y, z'
loop_
 _atom_site_type_symbol
 _atom_site_label
 _atom_site_symmetry_multiplicity
 _atom_site_fract_x
 _atom_site_fract_y
 _atom_site_fract_z
 _atom_site_occupancy
  Tb  Tb0  1  0.333333  0.666667  0.250000  1
  Ho  Ho1  1  0.666667  0.333333  0.750000  1
  Th  Th2  1  0.000000  0.000000  0.500056  1
  Th  Th3  1  0.000000  0.000000  0.999944  1
  Pd  Pd4  1  0.500057  0.499943  0.500092  1
  Pd  Pd5  1  0.500057  0.000115  0.500092  1
  Pd  Pd6  1  0.999885  0.499943  0.500092  1
  Pd  Pd7  1  0.500057  0.499943  0.999908  1
  Pd  Pd8  1  0.500057  0.000115  0.999908  1
  Pd  Pd9  1  0.999885  0.499943  0.999908  1
  Pd  Pd10  1  0.826335  0.652671  0.250000  1
  Pd  Pd11  1  0.347329  0.173665  0.250000  1
  Pd  Pd12  1  0.826335  0.173665  0.250000  1
  Pd  Pd13  1  0.173653  0.347306  0.750000  1
  Pd  Pd14  1  0.652694  0.826347  0.750000  1
  Pd  Pd15  1  0.173653  0.826347  0.750000  1
