# generated using pymatgen
data_La2AsPd14
_symmetry_space_group_name_H-M   'P 1'
_cell_length_a   9.06109900
_cell_length_b   9.06109900
_cell_length_c   7.19319700
_cell_angle_alpha   90.00000000
_cell_angle_beta   90.00000000
_cell_angle_gamma   90.00000000
_symmetry_Int_Tables_number   1
_chemical_formula_structural   La2AsPd14
_chemical_formula_sum   'La4 As2 Pd28'
_cell_volume   590.58675842
_cell_formula_units_Z   2
loop_
 _symmetry_equiv_pos_site_id
 _symmetry_equiv_pos_as_xyz
  1  'x, y, z'
loop_
 _atom_site_type_symbol
 _atom_site_label
 _atom_site_symmetry_multiplicity
 _atom_site_fract_x
 _atom_site_fract_y
 _atom_site_fract_z
 _atom_site_occupancy
  La  La0  1  0.500000  0.000000  0.936846  1
  La  La1  1  0.000000  0.500000  0.063154  1
  La  La2  1  0.000000  0.000000  0.500000  1
  La  La3  1  0.500000  0.500000  0.500000  1
  As  As4  1  0.500000  0.000000  0.449461  1
  As  As5  1  0.000000  0.500000  0.550539  1
  Pd  Pd6  1  0.331228  0.831228  0.620743  1
  Pd  Pd7  1  0.331228  0.168772  0.620743  1
  Pd  Pd8  1  0.668772  0.831228  0.620743  1
  Pd  Pd9  1  0.668772  0.168772  0.620743  1
  Pd  Pd10  1  0.168772  0.668772  0.379257  1
  Pd  Pd11  1  0.168772  0.331228  0.379257  1
  Pd  Pd12  1  0.831228  0.668772  0.379257  1
  Pd  Pd13  1  0.831228  0.331228  0.379257  1
  Pd  Pd14  1  0.500000  0.765884  0.252809  1
  Pd  Pd15  1  0.500000  0.234116  0.252809  1
  Pd  Pd16  1  0.265884  0.000000  0.252809  1
  Pd  Pd17  1  0.734116  0.000000  0.252809  1
  Pd  Pd18  1  0.000000  0.734116  0.747191  1
  Pd  Pd19  1  0.000000  0.265884  0.747191  1
  Pd  Pd20  1  0.234116  0.500000  0.747191  1
  Pd  Pd21  1  0.765884  0.500000  0.747191  1
  Pd  Pd22  1  0.500000  0.349182  0.856106  1
  Pd  Pd23  1  0.500000  0.650818  0.856106  1
  Pd  Pd24  1  0.849182  0.000000  0.856106  1
  Pd  Pd25  1  0.150818  0.000000  0.856106  1
  Pd  Pd26  1  0.000000  0.150818  0.143894  1
  Pd  Pd27  1  0.000000  0.849182  0.143894  1
  Pd  Pd28  1  0.650818  0.500000  0.143894  1
  Pd  Pd29  1  0.349182  0.500000  0.143894  1
  Pd  Pd30  1  0.250000  0.750000  0.000000  1
  Pd  Pd31  1  0.250000  0.250000  0.000000  1
  Pd  Pd32  1  0.750000  0.750000  0.000000  1
  Pd  Pd33  1  0.750000  0.250000  0.000000  1
