# generated using pymatgen
data_Dy2Ho6Ti11Si16Pt
_symmetry_space_group_name_H-M   'P 1'
_cell_length_a   7.04295579
_cell_length_b   7.04235750
_cell_length_c   12.84914882
_cell_angle_alpha   90.18033367
_cell_angle_beta   89.80843022
_cell_angle_gamma   89.70074941
_symmetry_Int_Tables_number   1
_chemical_formula_structural   Dy2Ho6Ti11Si16Pt
_chemical_formula_sum   'Dy2 Ho6 Ti11 Si16 Pt1'
_cell_volume   637.28964649
_cell_formula_units_Z   1
loop_
 _symmetry_equiv_pos_site_id
 _symmetry_equiv_pos_as_xyz
  1  'x, y, z'
loop_
 _atom_site_type_symbol
 _atom_site_label
 _atom_site_symmetry_multiplicity
 _atom_site_fract_x
 _atom_site_fract_y
 _atom_site_fract_z
 _atom_site_occupancy
  Dy  Dy0  1  0.340497  0.003956  0.466871  1
  Dy  Dy1  1  0.496389  0.842030  0.717834  1
  Ho  Ho2  1  0.501355  0.157186  0.214314  1
  Ho  Ho3  1  0.842254  0.496702  0.282029  1
  Ho  Ho4  1  0.157071  0.501340  0.785762  1
  Ho  Ho5  1  0.655981  0.999107  0.968744  1
  Ho  Ho6  1  0.003511  0.340730  0.533025  1
  Ho  Ho7  1  0.998994  0.656003  0.031420  1
  Ti  Ti8  1  0.175934  0.825772  0.248487  1
  Ti  Ti9  1  0.825892  0.175908  0.751584  1
  Ti  Ti10  1  0.673511  0.673240  0.499861  1
  Ti  Ti11  1  0.148307  0.004863  0.877313  1
  Ti  Ti12  1  0.494561  0.654117  0.124007  1
  Ti  Ti13  1  0.507234  0.350447  0.627303  1
  Ti  Ti14  1  0.654400  0.494807  0.876240  1
  Ti  Ti15  1  0.350706  0.507081  0.372485  1
  Ti  Ti16  1  0.849766  0.993230  0.374219  1
  Ti  Ti17  1  0.004833  0.148288  0.122962  1
  Ti  Ti18  1  0.993071  0.849315  0.625454  1
  Si  Si19  1  0.200730  0.133550  0.685892  1
  Si  Si20  1  0.372581  0.709444  0.932098  1
  Si  Si21  1  0.631920  0.295303  0.433330  1
  Si  Si22  1  0.709748  0.372673  0.068299  1
  Si  Si23  1  0.294670  0.630733  0.566335  1
  Si  Si24  1  0.797540  0.867328  0.183084  1
  Si  Si25  1  0.133067  0.201636  0.314114  1
  Si  Si26  1  0.867654  0.797458  0.816957  1
  Si  Si27  1  0.285798  0.943830  0.064732  1
  Si  Si28  1  0.548074  0.791277  0.314876  1
  Si  Si29  1  0.449482  0.210539  0.815653  1
  Si  Si30  1  0.791623  0.547443  0.684987  1
  Si  Si31  1  0.210045  0.449640  0.184452  1
  Si  Si32  1  0.709064  0.048403  0.565229  1
  Si  Si33  1  0.943820  0.285860  0.935464  1
  Si  Si34  1  0.047777  0.708152  0.434538  1
  Pt  Pt35  1  0.332137  0.332611  0.000048  1
