# generated using pymatgen
data_Mn4As(PN2)6
_symmetry_space_group_name_H-M   'P 1'
_cell_length_a   7.26435107
_cell_length_b   7.26435161
_cell_length_c   7.26435100
_cell_angle_alpha   109.47121615
_cell_angle_beta   109.47121764
_cell_angle_gamma   109.47123003
_symmetry_Int_Tables_number   1
_chemical_formula_structural   Mn4As(PN2)6
_chemical_formula_sum   'Mn4 As1 P6 N12'
_cell_volume   295.09958629
_cell_formula_units_Z   1
loop_
 _symmetry_equiv_pos_site_id
 _symmetry_equiv_pos_as_xyz
  1  'x, y, z'
loop_
 _atom_site_type_symbol
 _atom_site_label
 _atom_site_symmetry_multiplicity
 _atom_site_fract_x
 _atom_site_fract_y
 _atom_site_fract_z
 _atom_site_occupancy
  Mn  Mn0  1  0.344037  0.344037  0.344037  1
  Mn  Mn1  1  0.000000  0.655963  0.000000  1
  Mn  Mn2  1  0.655963  0.000000  0.000000  1
  Mn  Mn3  1  0.000000  0.000000  0.655963  1
  As  As4  1  0.000000  0.000000  0.000000  1
  P  P5  1  0.500000  0.250000  0.750000  1
  P  P6  1  0.500000  0.750000  0.250000  1
  P  P7  1  0.750000  0.250000  0.500000  1
  P  P8  1  0.250000  0.500000  0.750000  1
  P  P9  1  0.750000  0.500000  0.250000  1
  P  P10  1  0.250000  0.750000  0.500000  1
  N  N11  1  0.000000  0.723128  0.437079  1
  N  N12  1  0.276872  0.713951  0.276872  1
  N  N13  1  0.286049  0.562921  0.562921  1
  N  N14  1  0.562921  0.562921  0.286049  1
  N  N15  1  0.562921  0.286049  0.562921  1
  N  N16  1  0.723128  0.000000  0.437079  1
  N  N17  1  0.437079  0.000000  0.723128  1
  N  N18  1  0.723128  0.437079  0.000000  1
  N  N19  1  0.276872  0.276872  0.713951  1
  N  N20  1  0.713951  0.276872  0.276872  1
  N  N21  1  0.000000  0.437079  0.723128  1
  N  N22  1  0.437079  0.723128  0.000000  1
