# generated using pymatgen
data_Ho8BeZn2Si12Pt
_symmetry_space_group_name_H-M   'P 1'
_cell_length_a   8.06181600
_cell_length_b   8.06181647
_cell_length_c   8.03438900
_cell_angle_alpha   90.00000000
_cell_angle_beta   90.00000000
_cell_angle_gamma   119.99999807
_symmetry_Int_Tables_number   1
_chemical_formula_structural   Ho8BeZn2Si12Pt
_chemical_formula_sum   'Ho8 Be1 Zn2 Si12 Pt1'
_cell_volume   452.21949855
_cell_formula_units_Z   1
loop_
 _symmetry_equiv_pos_site_id
 _symmetry_equiv_pos_as_xyz
  1  'x, y, z'
loop_
 _atom_site_type_symbol
 _atom_site_label
 _atom_site_symmetry_multiplicity
 _atom_site_fract_x
 _atom_site_fract_y
 _atom_site_fract_z
 _atom_site_occupancy
  Ho  Ho0  1  0.502038  0.004074  0.246880  1
  Ho  Ho1  1  0.501802  0.003604  0.753125  1
  Ho  Ho2  1  0.995926  0.497962  0.246880  1
  Ho  Ho3  1  0.996396  0.498198  0.753125  1
  Ho  Ho4  1  0.502038  0.497962  0.246880  1
  Ho  Ho5  1  0.501802  0.498198  0.753125  1
  Ho  Ho6  1  0.000000  0.000000  0.247816  1
  Ho  Ho7  1  0.000000  0.000000  0.752015  1
  Be  Be8  1  0.666667  0.333333  0.999852  1
  Zn  Zn9  1  0.333333  0.666667  0.001184  1
  Zn  Zn10  1  0.666667  0.333333  0.500143  1
  Si  Si11  1  0.164889  0.329775  0.999885  1
  Si  Si12  1  0.825262  0.650525  0.999891  1
  Si  Si13  1  0.670225  0.835111  0.999885  1
  Si  Si14  1  0.835025  0.670051  0.500053  1
  Si  Si15  1  0.349475  0.174738  0.999891  1
  Si  Si16  1  0.167021  0.334040  0.499891  1
  Si  Si17  1  0.164889  0.835111  0.999885  1
  Si  Si18  1  0.329949  0.164975  0.500053  1
  Si  Si19  1  0.825262  0.174738  0.999891  1
  Si  Si20  1  0.665960  0.832979  0.499891  1
  Si  Si21  1  0.835025  0.164975  0.500053  1
  Si  Si22  1  0.167021  0.832979  0.499891  1
  Pt  Pt23  1  0.333333  0.666667  0.499810  1
