# generated using pymatgen
data_Ac4Ga10NiPt5
_symmetry_space_group_name_H-M   'P 1'
_cell_length_a   8.86077336
_cell_length_b   8.86077407
_cell_length_c   8.86077400
_cell_angle_alpha   140.00497240
_cell_angle_beta   107.10822895
_cell_angle_gamma   86.54423637
_symmetry_Int_Tables_number   1
_chemical_formula_structural   Ac4Ga10NiPt5
_chemical_formula_sum   'Ac4 Ga10 Ni1 Pt5'
_cell_volume   411.62564501
_cell_formula_units_Z   1
loop_
 _symmetry_equiv_pos_site_id
 _symmetry_equiv_pos_as_xyz
  1  'x, y, z'
loop_
 _atom_site_type_symbol
 _atom_site_label
 _atom_site_symmetry_multiplicity
 _atom_site_fract_x
 _atom_site_fract_y
 _atom_site_fract_z
 _atom_site_occupancy
  Ac  Ac0  1  0.639019  0.857859  0.768958  1
  Ac  Ac1  1  0.360981  0.129938  0.218838  1
  Ac  Ac2  1  0.088901  0.370062  0.731042  1
  Ac  Ac3  1  0.911099  0.642141  0.281162  1
  Ga  Ga4  1  0.284476  0.034476  0.750000  1
  Ga  Ga5  1  0.714641  0.964641  0.250000  1
  Ga  Ga6  1  0.715524  0.465524  0.750000  1
  Ga  Ga7  1  0.285359  0.535359  0.250000  1
  Ga  Ga8  1  0.445169  0.582135  0.835446  1
  Ga  Ga9  1  0.554831  0.390278  0.136967  1
  Ga  Ga10  1  0.746689  0.109722  0.664554  1
  Ga  Ga11  1  0.253311  0.917865  0.363033  1
  Ga  Ga12  1  0.000000  0.750000  0.750000  1
  Ga  Ga13  1  0.000000  0.250000  0.250000  1
  Ni  Ni14  1  0.500000  0.250000  0.750000  1
  Pt  Pt15  1  0.248379  0.638653  0.603268  1
  Pt  Pt16  1  0.751621  0.354888  0.390274  1
  Pt  Pt17  1  0.035385  0.145112  0.896732  1
  Pt  Pt18  1  0.964615  0.861347  0.109726  1
  Pt  Pt19  1  0.500000  0.750000  0.250000  1
