# generated using pymatgen
data_Y12TlZnInFe2
_symmetry_space_group_name_H-M   'P 1'
_cell_length_a   8.45351167
_cell_length_b   8.45346740
_cell_length_c   8.45351219
_cell_angle_alpha   109.71967271
_cell_angle_beta   109.49769192
_cell_angle_gamma   109.19694414
_symmetry_Int_Tables_number   1
_chemical_formula_structural   Y12TlZnInFe2
_chemical_formula_sum   'Y12 Tl1 Zn1 In1 Fe2'
_cell_volume   465.02578752
_cell_formula_units_Z   1
loop_
 _symmetry_equiv_pos_site_id
 _symmetry_equiv_pos_as_xyz
  1  'x, y, z'
loop_
 _atom_site_type_symbol
 _atom_site_label
 _atom_site_symmetry_multiplicity
 _atom_site_fract_x
 _atom_site_fract_y
 _atom_site_fract_z
 _atom_site_occupancy
  Y  Y0  1  0.443801  0.201320  0.242481  1
  Y  Y1  1  0.556199  0.798680  0.757519  1
  Y  Y2  1  0.958839  0.201320  0.757519  1
  Y  Y3  1  0.201871  0.958614  0.756743  1
  Y  Y4  1  0.041161  0.798680  0.242481  1
  Y  Y5  1  0.798129  0.041386  0.243257  1
  Y  Y6  1  0.201875  0.445137  0.243262  1
  Y  Y7  1  0.798125  0.554863  0.756738  1
  Y  Y8  1  0.306227  0.305318  0.611549  1
  Y  Y9  1  0.693773  0.694682  0.388451  1
  Y  Y10  1  0.306230  0.694682  0.000909  1
  Y  Y11  1  0.693770  0.305318  0.999091  1
  Tl  Tl12  1  0.000000  0.500000  0.500000  1
  Zn  Zn13  1  0.000000  0.000000  0.000000  1
  In  In14  1  0.500000  0.000000  0.500000  1
  Fe  Fe15  1  0.390360  0.390364  0.000004  1
  Fe  Fe16  1  0.609640  0.609636  0.999996  1
