# generated using pymatgen
data_Gd3Lu2Mn2O12
_symmetry_space_group_name_H-M   'P 1'
_cell_length_a   6.86329256
_cell_length_b   6.86329268
_cell_length_c   7.25945200
_cell_angle_alpha   74.29203977
_cell_angle_beta   74.29203948
_cell_angle_gamma   50.18684551
_symmetry_Int_Tables_number   1
_chemical_formula_structural   Gd3Lu2Mn2O12
_chemical_formula_sum   'Gd3 Lu2 Mn2 O12'
_cell_volume   250.65595842
_cell_formula_units_Z   1
loop_
 _symmetry_equiv_pos_site_id
 _symmetry_equiv_pos_as_xyz
  1  'x, y, z'
loop_
 _atom_site_type_symbol
 _atom_site_label
 _atom_site_symmetry_multiplicity
 _atom_site_fract_x
 _atom_site_fract_y
 _atom_site_fract_z
 _atom_site_occupancy
  Gd  Gd0  1  0.307269  0.307269  0.834932  1
  Gd  Gd1  1  0.692731  0.692731  0.165068  1
  Gd  Gd2  1  0.000000  0.000000  0.500000  1
  Lu  Lu3  1  0.304784  0.304784  0.355223  1
  Lu  Lu4  1  0.695216  0.695216  0.644777  1
  Mn  Mn5  1  0.753226  0.246774  0.000000  1
  Mn  Mn6  1  0.246774  0.753226  0.000000  1
  O  O7  1  0.897562  0.425560  0.913263  1
  O  O8  1  0.425560  0.897562  0.913263  1
  O  O9  1  0.102438  0.574440  0.086737  1
  O  O10  1  0.574440  0.102438  0.086737  1
  O  O11  1  0.093030  0.595813  0.569590  1
  O  O12  1  0.595813  0.093030  0.569590  1
  O  O13  1  0.906970  0.404187  0.430410  1
  O  O14  1  0.404187  0.906970  0.430410  1
  O  O15  1  0.998452  0.998452  0.824363  1
  O  O16  1  0.001548  0.001548  0.175637  1
  O  O17  1  0.502602  0.502602  0.817463  1
  O  O18  1  0.497398  0.497398  0.182537  1
