# generated using pymatgen
data_Y5TmAl16(SiOs)8
_symmetry_space_group_name_H-M   'P 1'
_cell_length_a   8.70021322
_cell_length_b   8.70021250
_cell_length_c   9.43257400
_cell_angle_alpha   90.00000000
_cell_angle_beta   90.00000000
_cell_angle_gamma   120.08520448
_symmetry_Int_Tables_number   1
_chemical_formula_structural   Y5TmAl16(SiOs)8
_chemical_formula_sum   'Y5 Tm1 Al16 Si8 Os8'
_cell_volume   617.79884671
_cell_formula_units_Z   1
loop_
 _symmetry_equiv_pos_site_id
 _symmetry_equiv_pos_as_xyz
  1  'x, y, z'
loop_
 _atom_site_type_symbol
 _atom_site_label
 _atom_site_symmetry_multiplicity
 _atom_site_fract_x
 _atom_site_fract_y
 _atom_site_fract_z
 _atom_site_occupancy
  Y  Y0  1  0.191789  0.386471  0.250000  1
  Y  Y1  1  0.807908  0.612750  0.750000  1
  Y  Y2  1  0.613529  0.808211  0.250000  1
  Y  Y3  1  0.387250  0.192092  0.750000  1
  Y  Y4  1  0.194235  0.805765  0.250000  1
  Tm  Tm5  1  0.804251  0.195749  0.750000  1
  Al  Al6  1  0.165143  0.329228  0.578611  1
  Al  Al7  1  0.834371  0.670598  0.422055  1
  Al  Al8  1  0.670772  0.834857  0.578611  1
  Al  Al9  1  0.834371  0.670598  0.077945  1
  Al  Al10  1  0.329402  0.165629  0.422055  1
  Al  Al11  1  0.165143  0.329228  0.921389  1
  Al  Al12  1  0.164735  0.835265  0.578203  1
  Al  Al13  1  0.329402  0.165629  0.077945  1
  Al  Al14  1  0.835374  0.164626  0.422727  1
  Al  Al15  1  0.670772  0.834857  0.921389  1
  Al  Al16  1  0.835374  0.164626  0.077273  1
  Al  Al17  1  0.164735  0.835265  0.921797  1
  Al  Al18  1  0.565050  0.434950  0.250000  1
  Al  Al19  1  0.434671  0.565329  0.750000  1
  Al  Al20  1  0.000224  0.999776  0.250000  1
  Al  Al21  1  0.998943  0.001057  0.750000  1
  Si  Si22  1  0.335120  0.664880  0.039394  1
  Si  Si23  1  0.665436  0.334564  0.959527  1
  Si  Si24  1  0.665436  0.334564  0.540473  1
  Si  Si25  1  0.335120  0.664880  0.460606  1
  Si  Si26  1  0.564417  0.124529  0.250000  1
  Si  Si27  1  0.436986  0.875987  0.750000  1
  Si  Si28  1  0.875471  0.435583  0.250000  1
  Si  Si29  1  0.124013  0.563014  0.750000  1
  Os  Os30  1  0.500624  0.000441  0.999445  1
  Os  Os31  1  0.999559  0.499376  0.999445  1
  Os  Os32  1  0.500624  0.000441  0.500555  1
  Os  Os33  1  0.500142  0.499858  0.999885  1
  Os  Os34  1  0.999559  0.499376  0.500555  1
  Os  Os35  1  0.500142  0.499858  0.500115  1
  Os  Os36  1  0.999955  0.000045  0.999997  1
  Os  Os37  1  0.999955  0.000045  0.500003  1
