# generated using pymatgen
data_TbY3(AlPd)4
_symmetry_space_group_name_H-M   'P 1'
_cell_length_a   4.46754000
_cell_length_b   6.94570426
_cell_length_c   7.79839730
_cell_angle_alpha   89.96842213
_cell_angle_beta   90.00000000
_cell_angle_gamma   90.00000000
_symmetry_Int_Tables_number   1
_chemical_formula_structural   TbY3(AlPd)4
_chemical_formula_sum   'Tb1 Y3 Al4 Pd4'
_cell_volume   241.98588169
_cell_formula_units_Z   1
loop_
 _symmetry_equiv_pos_site_id
 _symmetry_equiv_pos_as_xyz
  1  'x, y, z'
loop_
 _atom_site_type_symbol
 _atom_site_label
 _atom_site_symmetry_multiplicity
 _atom_site_fract_x
 _atom_site_fract_y
 _atom_site_fract_z
 _atom_site_occupancy
  Tb  Tb0  1  0.250000  0.033694  0.320895  1
  Y  Y1  1  0.250000  0.533068  0.180290  1
  Y  Y2  1  0.750000  0.967019  0.680907  1
  Y  Y3  1  0.750000  0.467353  0.819455  1
  Al  Al4  1  0.250000  0.145553  0.937408  1
  Al  Al5  1  0.250000  0.645169  0.562677  1
  Al  Al6  1  0.750000  0.853680  0.061592  1
  Al  Al7  1  0.750000  0.354800  0.438006  1
  Pd  Pd8  1  0.250000  0.274790  0.617953  1
  Pd  Pd9  1  0.250000  0.775458  0.880954  1
  Pd  Pd10  1  0.750000  0.725011  0.381283  1
  Pd  Pd11  1  0.750000  0.224406  0.118581  1
