# generated using pymatgen
data_Nb3FeAs2Ru3
_symmetry_space_group_name_H-M   'P 1'
_cell_length_a   6.38867000
_cell_length_b   6.38867092
_cell_length_c   3.91864000
_cell_angle_alpha   90.00000000
_cell_angle_beta   90.00000000
_cell_angle_gamma   120.00000560
_symmetry_Int_Tables_number   1
_chemical_formula_structural   Nb3FeAs2Ru3
_chemical_formula_sum   'Nb3 Fe1 As2 Ru3'
_cell_volume   138.51185589
_cell_formula_units_Z   1
loop_
 _symmetry_equiv_pos_site_id
 _symmetry_equiv_pos_as_xyz
  1  'x, y, z'
loop_
 _atom_site_type_symbol
 _atom_site_label
 _atom_site_symmetry_multiplicity
 _atom_site_fract_x
 _atom_site_fract_y
 _atom_site_fract_z
 _atom_site_occupancy
  Nb  Nb0  1  0.387770  0.387770  0.500000  1
  Nb  Nb1  1  0.612230  0.000000  0.500000  1
  Nb  Nb2  1  0.000000  0.612230  0.500000  1
  Fe  Fe3  1  0.000000  0.000000  0.500000  1
  As  As4  1  0.666667  0.333333  0.000000  1
  As  As5  1  0.333333  0.666667  0.000000  1
  Ru  Ru6  1  0.000000  0.238660  0.000000  1
  Ru  Ru7  1  0.238660  0.000000  0.000000  1
  Ru  Ru8  1  0.761340  0.761340  0.000000  1
