# generated using pymatgen
data_TbEr15Tl2CdHgPd4
_symmetry_space_group_name_H-M   'P 1'
_cell_length_a   9.58851612
_cell_length_b   9.59438383
_cell_length_c   9.58651100
_cell_angle_alpha   60.02713695
_cell_angle_beta   60.00691383
_cell_angle_gamma   60.00081663
_symmetry_Int_Tables_number   1
_chemical_formula_structural   TbEr15Tl2CdHgPd4
_chemical_formula_sum   'Tb1 Er15 Tl2 Cd1 Hg1 Pd4'
_cell_volume   623.77567614
_cell_formula_units_Z   1
loop_
 _symmetry_equiv_pos_site_id
 _symmetry_equiv_pos_as_xyz
  1  'x, y, z'
loop_
 _atom_site_type_symbol
 _atom_site_label
 _atom_site_symmetry_multiplicity
 _atom_site_fract_x
 _atom_site_fract_y
 _atom_site_fract_z
 _atom_site_occupancy
  Tb  Tb0  1  0.936662  0.936929  0.563204  1
  Er  Er1  1  0.354115  0.353368  0.353573  1
  Er  Er2  1  0.354115  0.353368  0.938944  1
  Er  Er3  1  0.356514  0.934727  0.354379  1
  Er  Er4  1  0.931050  0.356869  0.356040  1
  Er  Er5  1  0.810760  0.190359  0.188253  1
  Er  Er6  1  0.189170  0.811638  0.811070  1
  Er  Er7  1  0.189170  0.811638  0.188122  1
  Er  Er8  1  0.810760  0.190359  0.810627  1
  Er  Er9  1  0.187922  0.189248  0.811415  1
  Er  Er10  1  0.811151  0.811255  0.188796  1
  Er  Er11  1  0.938739  0.564600  0.564397  1
  Er  Er12  1  0.564055  0.939803  0.931942  1
  Er  Er13  1  0.564055  0.939803  0.564200  1
  Er  Er14  1  0.938739  0.564600  0.932266  1
  Er  Er15  1  0.565921  0.566362  0.933858  1
  Tl  Tl16  1  0.583316  0.584619  0.588306  1
  Tl  Tl17  1  0.583316  0.584619  0.243759  1
  Cd  Cd18  1  0.251443  0.579364  0.584595  1
  Hg  Hg19  1  0.582427  0.237367  0.590103  1
  Pd  Pd20  1  0.143990  0.145112  0.146695  1
  Pd  Pd21  1  0.143990  0.145112  0.564204  1
  Pd  Pd22  1  0.142178  0.565750  0.146036  1
  Pd  Pd23  1  0.566438  0.143130  0.145216  1
