# generated using pymatgen
data_CeHo3LuSn4
_symmetry_space_group_name_H-M   'P 1'
_cell_length_a   7.98170200
_cell_length_b   8.12352700
_cell_length_c   15.38958700
_cell_angle_alpha   90.00000000
_cell_angle_beta   90.00000000
_cell_angle_gamma   90.00000000
_symmetry_Int_Tables_number   1
_chemical_formula_structural   CeHo3LuSn4
_chemical_formula_sum   'Ce4 Ho12 Lu4 Sn16'
_cell_volume   997.85422977
_cell_formula_units_Z   4
loop_
 _symmetry_equiv_pos_site_id
 _symmetry_equiv_pos_as_xyz
  1  'x, y, z'
loop_
 _atom_site_type_symbol
 _atom_site_label
 _atom_site_symmetry_multiplicity
 _atom_site_fract_x
 _atom_site_fract_y
 _atom_site_fract_z
 _atom_site_occupancy
  Ce  Ce0  1  0.481311  0.679781  0.094432  1
  Ce  Ce1  1  0.981311  0.820219  0.405568  1
  Ce  Ce2  1  0.518689  0.320219  0.594432  1
  Ce  Ce3  1  0.018689  0.179781  0.905568  1
  Ho  Ho4  1  0.367322  0.836017  0.877559  1
  Ho  Ho5  1  0.867322  0.663983  0.622441  1
  Ho  Ho6  1  0.632678  0.163983  0.377559  1
  Ho  Ho7  1  0.132678  0.336017  0.122441  1
  Ho  Ho8  1  0.633896  0.162374  0.122919  1
  Ho  Ho9  1  0.133896  0.337626  0.377081  1
  Ho  Ho10  1  0.366104  0.837626  0.622919  1
  Ho  Ho11  1  0.866104  0.662374  0.877081  1
  Ho  Ho12  1  0.523665  0.320776  0.901309  1
  Ho  Ho13  1  0.023665  0.179224  0.598691  1
  Ho  Ho14  1  0.476335  0.679224  0.401309  1
  Ho  Ho15  1  0.976335  0.820776  0.098691  1
  Lu  Lu16  1  0.197720  0.503237  0.750102  1
  Lu  Lu17  1  0.697720  0.996763  0.749898  1
  Lu  Lu18  1  0.802280  0.496763  0.250102  1
  Lu  Lu19  1  0.302280  0.003237  0.249898  1
  Sn  Sn20  1  0.294096  0.033864  0.043805  1
  Sn  Sn21  1  0.794096  0.466136  0.456195  1
  Sn  Sn22  1  0.705904  0.966136  0.543805  1
  Sn  Sn23  1  0.205904  0.533864  0.956195  1
  Sn  Sn24  1  0.705152  0.961162  0.958615  1
  Sn  Sn25  1  0.205152  0.538838  0.541385  1
  Sn  Sn26  1  0.294848  0.038838  0.458615  1
  Sn  Sn27  1  0.794848  0.461162  0.041385  1
  Sn  Sn28  1  0.563253  0.618192  0.749150  1
  Sn  Sn29  1  0.063253  0.881808  0.750850  1
  Sn  Sn30  1  0.436747  0.381808  0.249150  1
  Sn  Sn31  1  0.936747  0.118192  0.250850  1
  Sn  Sn32  1  0.330011  0.148037  0.750885  1
  Sn  Sn33  1  0.830011  0.351963  0.749115  1
  Sn  Sn34  1  0.669989  0.851963  0.250885  1
  Sn  Sn35  1  0.169989  0.648037  0.249115  1
