# generated using pymatgen
data_Tb3Dy2(OsO6)2
_symmetry_space_group_name_H-M   'P 1'
_cell_length_a   6.90581914
_cell_length_b   6.90581956
_cell_length_c   7.52404502
_cell_angle_alpha   73.98196479
_cell_angle_beta   73.98196262
_cell_angle_gamma   48.44538793
_symmetry_Int_Tables_number   1
_chemical_formula_structural   Tb3Dy2(OsO6)2
_chemical_formula_sum   'Tb3 Dy2 Os2 O12'
_cell_volume   255.92976890
_cell_formula_units_Z   1
loop_
 _symmetry_equiv_pos_site_id
 _symmetry_equiv_pos_as_xyz
  1  'x, y, z'
loop_
 _atom_site_type_symbol
 _atom_site_label
 _atom_site_symmetry_multiplicity
 _atom_site_fract_x
 _atom_site_fract_y
 _atom_site_fract_z
 _atom_site_occupancy
  Tb  Tb0  1  0.301522  0.301522  0.357384  1
  Tb  Tb1  1  0.698496  0.698496  0.642146  1
  Tb  Tb2  1  0.312093  0.312093  0.829413  1
  Dy  Dy3  1  0.688017  0.688017  0.170903  1
  Dy  Dy4  1  0.000062  0.000062  0.499786  1
  Os  Os5  1  0.781063  0.218868  0.000152  1
  Os  Os6  1  0.218868  0.781063  0.000152  1
  O  O7  1  0.912561  0.418475  0.915842  1
  O  O8  1  0.418475  0.912561  0.915842  1
  O  O9  1  0.085687  0.582648  0.085167  1
  O  O10  1  0.582648  0.085687  0.085167  1
  O  O11  1  0.098380  0.596887  0.572806  1
  O  O12  1  0.596887  0.098380  0.572806  1
  O  O13  1  0.900956  0.403834  0.426061  1
  O  O14  1  0.403834  0.900956  0.426061  1
  O  O15  1  0.999206  0.999206  0.796671  1
  O  O16  1  0.000796  0.000796  0.203303  1
  O  O17  1  0.501034  0.501034  0.827380  1
  O  O18  1  0.499414  0.499414  0.172958  1
