# generated using pymatgen
data_TiTcIrRh5
_symmetry_space_group_name_H-M   'P 1'
_cell_length_a   5.48492921
_cell_length_b   5.48492984
_cell_length_c   4.40533800
_cell_angle_alpha   90.00000000
_cell_angle_beta   90.00000000
_cell_angle_gamma   120.10293865
_symmetry_Int_Tables_number   1
_chemical_formula_structural   TiTcIrRh5
_chemical_formula_sum   'Ti1 Tc1 Ir1 Rh5'
_cell_volume   114.65699395
_cell_formula_units_Z   1
loop_
 _symmetry_equiv_pos_site_id
 _symmetry_equiv_pos_as_xyz
  1  'x, y, z'
loop_
 _atom_site_type_symbol
 _atom_site_label
 _atom_site_symmetry_multiplicity
 _atom_site_fract_x
 _atom_site_fract_y
 _atom_site_fract_z
 _atom_site_occupancy
  Ti  Ti0  1  0.332276  0.667724  0.750000  1
  Tc  Tc1  1  0.667525  0.332475  0.250000  1
  Ir  Ir2  1  0.830726  0.169274  0.750000  1
  Rh  Rh3  1  0.165427  0.329651  0.250000  1
  Rh  Rh4  1  0.670349  0.834573  0.250000  1
  Rh  Rh5  1  0.165856  0.834144  0.250000  1
  Rh  Rh6  1  0.830547  0.662706  0.750000  1
  Rh  Rh7  1  0.337294  0.169453  0.750000  1
