# generated using pymatgen
data_Y4Ga4PdPt3
_symmetry_space_group_name_H-M   'P 1'
_cell_length_a   4.46268300
_cell_length_b   6.93543291
_cell_length_c   7.70101443
_cell_angle_alpha   90.38435648
_cell_angle_beta   90.00000000
_cell_angle_gamma   90.00000000
_symmetry_Int_Tables_number   1
_chemical_formula_structural   Y4Ga4PdPt3
_chemical_formula_sum   'Y4 Ga4 Pd1 Pt3'
_cell_volume   238.34595114
_cell_formula_units_Z   1
loop_
 _symmetry_equiv_pos_site_id
 _symmetry_equiv_pos_as_xyz
  1  'x, y, z'
loop_
 _atom_site_type_symbol
 _atom_site_label
 _atom_site_symmetry_multiplicity
 _atom_site_fract_x
 _atom_site_fract_y
 _atom_site_fract_z
 _atom_site_occupancy
  Y  Y0  1  0.250000  0.985329  0.301318  1
  Y  Y1  1  0.250000  0.486159  0.200914  1
  Y  Y2  1  0.750000  0.013547  0.697983  1
  Y  Y3  1  0.750000  0.518471  0.799457  1
  Ga  Ga4  1  0.250000  0.325339  0.575099  1
  Ga  Ga5  1  0.250000  0.822717  0.926169  1
  Ga  Ga6  1  0.750000  0.675479  0.424570  1
  Ga  Ga7  1  0.750000  0.177106  0.073922  1
  Pd  Pd8  1  0.250000  0.218383  0.901559  1
  Pt  Pt9  1  0.250000  0.721303  0.598866  1
  Pt  Pt10  1  0.750000  0.778266  0.098035  1
  Pt  Pt11  1  0.750000  0.277901  0.402107  1
