# generated using pymatgen
data_Cs9Rb7(CrSe4)4
_symmetry_space_group_name_H-M   'P 1'
_cell_length_a   8.63156642
_cell_length_b   10.42078863
_cell_length_c   15.78697600
_cell_angle_alpha   89.62915353
_cell_angle_beta   89.79101078
_cell_angle_gamma   89.86980831
_symmetry_Int_Tables_number   1
_chemical_formula_structural   Cs9Rb7(CrSe4)4
_chemical_formula_sum   'Cs9 Rb7 Cr4 Se16'
_cell_volume   1419.95986134
_cell_formula_units_Z   1
loop_
 _symmetry_equiv_pos_site_id
 _symmetry_equiv_pos_as_xyz
  1  'x, y, z'
loop_
 _atom_site_type_symbol
 _atom_site_label
 _atom_site_symmetry_multiplicity
 _atom_site_fract_x
 _atom_site_fract_y
 _atom_site_fract_z
 _atom_site_occupancy
  Cs  Cs0  1  0.998435  0.998888  0.999840  1
  Cs  Cs1  1  0.502586  0.001109  0.502507  1
  Cs  Cs2  1  0.000847  0.499694  0.999649  1
  Cs  Cs3  1  0.499278  0.501954  0.499691  1
  Cs  Cs4  1  0.993919  0.750385  0.424958  1
  Cs  Cs5  1  0.495442  0.248902  0.073242  1
  Cs  Cs6  1  0.006213  0.250440  0.575026  1
  Cs  Cs7  1  0.503451  0.747606  0.924465  1
  Cs  Cs8  1  0.827358  0.056819  0.279111  1
  Rb  Rb9  1  0.331133  0.946649  0.225633  1
  Rb  Rb10  1  0.166450  0.553277  0.724788  1
  Rb  Rb11  1  0.666801  0.446167  0.774353  1
  Rb  Rb12  1  0.166739  0.947104  0.725998  1
  Rb  Rb13  1  0.666969  0.052689  0.774434  1
  Rb  Rb14  1  0.835464  0.448072  0.274029  1
  Rb  Rb15  1  0.332529  0.553490  0.224540  1
  Cr  Cr16  1  0.766537  0.750214  0.671493  1
  Cr  Cr17  1  0.236563  0.252846  0.330009  1
  Cr  Cr18  1  0.731712  0.746702  0.169779  1
  Cr  Cr19  1  0.265599  0.249405  0.828222  1
  Se  Se20  1  0.993983  0.249533  0.821823  1
  Se  Se21  1  0.506372  0.258389  0.323472  1
  Se  Se22  1  0.494877  0.751160  0.678439  1
  Se  Se23  1  0.003573  0.748637  0.176900  1
  Se  Se24  1  0.648122  0.565674  0.098323  1
  Se  Se25  1  0.146041  0.432490  0.401376  1
  Se  Se26  1  0.351592  0.068065  0.900559  1
  Se  Se27  1  0.854758  0.931098  0.599301  1
  Se  Se28  1  0.351514  0.429795  0.899645  1
  Se  Se29  1  0.851526  0.569527  0.599436  1
  Se  Se30  1  0.643307  0.926436  0.096777  1
  Se  Se31  1  0.157220  0.070137  0.403053  1
  Se  Se32  1  0.627089  0.744822  0.308453  1
  Se  Se33  1  0.135290  0.252566  0.191016  1
  Se  Se34  1  0.370724  0.250112  0.689818  1
  Se  Se35  1  0.869989  0.749152  0.809841  1
