# generated using pymatgen
data_NbI21
_symmetry_space_group_name_H-M   'P 1'
_cell_length_a   7.19031582
_cell_length_b   16.48258568
_cell_length_c   15.57198496
_cell_angle_alpha   113.30601434
_cell_angle_beta   98.66963269
_cell_angle_gamma   67.35994479
_symmetry_Int_Tables_number   1
_chemical_formula_structural   NbI21
_chemical_formula_sum   'Nb1 I21'
_cell_volume   1564.31717440
_cell_formula_units_Z   1
loop_
 _symmetry_equiv_pos_site_id
 _symmetry_equiv_pos_as_xyz
  1  'x, y, z'
loop_
 _atom_site_type_symbol
 _atom_site_label
 _atom_site_symmetry_multiplicity
 _atom_site_fract_x
 _atom_site_fract_y
 _atom_site_fract_z
 _atom_site_occupancy
  Nb  Nb0  1  0.639457  0.661431  0.498839  1
  I  I1  1  0.308126  0.304909  0.493838  1
  I  I2  1  0.521768  0.829544  0.826201  1
  I  I3  1  0.984529  0.601048  0.407879  1
  I  I4  1  0.364383  0.447378  0.652832  1
  I  I5  1  0.540611  0.134011  0.647393  1
  I  I6  1  0.719353  0.565056  0.609695  1
  I  I7  1  0.485570  0.803723  0.394758  1
  I  I8  1  0.365298  0.210320  0.184024  1
  I  I9  1  0.512542  0.536843  0.352628  1
  I  I10  1  0.768820  0.802397  0.640198  1
  I  I11  1  0.063267  0.810010  0.156164  1
  I  I12  1  0.136836  0.151300  0.332004  1
  I  I13  1  0.698382  0.199649  0.099300  1
  I  I14  1  0.759133  0.799932  0.278661  1
  I  I15  1  0.201267  0.148172  0.730140  1
  I  I16  1  0.818817  0.820493  0.996240  1
  I  I17  1  0.840816  0.160167  0.828615  1
  I  I18  1  0.248789  0.781742  0.550267  1
  I  I19  1  0.068496  0.183391  0.999689  1
  I  I20  1  0.201346  0.828186  0.908603  1
  I  I21  1  0.752395  0.220299  0.412031  1
