# generated using pymatgen
data_Tb2Sm(ZnPt)4
_symmetry_space_group_name_H-M   'P 1'
_cell_length_a   8.26453991
_cell_length_b   8.26453974
_cell_length_c   8.26454031
_cell_angle_alpha   151.64190351
_cell_angle_beta   125.90859582
_cell_angle_gamma   62.19330060
_symmetry_Int_Tables_number   1
_chemical_formula_structural   Tb2Sm(ZnPt)4
_chemical_formula_sum   'Tb2 Sm1 Zn4 Pt4'
_cell_volume   215.35209989
_cell_formula_units_Z   1
loop_
 _symmetry_equiv_pos_site_id
 _symmetry_equiv_pos_as_xyz
  1  'x, y, z'
loop_
 _atom_site_type_symbol
 _atom_site_label
 _atom_site_symmetry_multiplicity
 _atom_site_fract_x
 _atom_site_fract_y
 _atom_site_fract_z
 _atom_site_occupancy
  Tb  Tb0  1  0.875046  0.875046  0.000000  1
  Tb  Tb1  1  0.124954  0.124954  0.000000  1
  Sm  Sm2  1  0.500000  0.000000  0.500000  1
  Zn  Zn3  1  0.477190  0.673682  0.803508  1
  Zn  Zn4  1  0.870173  0.673682  0.196492  1
  Zn  Zn5  1  0.129827  0.326318  0.803508  1
  Zn  Zn6  1  0.522810  0.326318  0.196492  1
  Pt  Pt7  1  0.278109  0.778109  0.500000  1
  Pt  Pt8  1  0.721891  0.221891  0.500000  1
  Pt  Pt9  1  0.807248  0.500000  0.307248  1
  Pt  Pt10  1  0.192752  0.500000  0.692752  1
