# generated using pymatgen
data_Tb6UO12
_symmetry_space_group_name_H-M   'P 1'
_cell_length_a   6.61360346
_cell_length_b   6.61360329
_cell_length_c   6.61360300
_cell_angle_alpha   99.02489618
_cell_angle_beta   99.02488904
_cell_angle_gamma   99.02489263
_symmetry_Int_Tables_number   1
_chemical_formula_structural   Tb6UO12
_chemical_formula_sum   'Tb6 U1 O12'
_cell_volume   277.23303156
_cell_formula_units_Z   1
loop_
 _symmetry_equiv_pos_site_id
 _symmetry_equiv_pos_as_xyz
  1  'x, y, z'
loop_
 _atom_site_type_symbol
 _atom_site_label
 _atom_site_symmetry_multiplicity
 _atom_site_fract_x
 _atom_site_fract_y
 _atom_site_fract_z
 _atom_site_occupancy
  Tb  Tb0  1  0.390059  0.678375  0.854743  1
  Tb  Tb1  1  0.854743  0.390059  0.678375  1
  Tb  Tb2  1  0.678375  0.854743  0.390059  1
  Tb  Tb3  1  0.609941  0.321625  0.145257  1
  Tb  Tb4  1  0.145257  0.609941  0.321625  1
  Tb  Tb5  1  0.321625  0.145257  0.609941  1
  U  U6  1  0.000000  0.000000  0.000000  1
  O  O7  1  0.177827  0.428640  0.588024  1
  O  O8  1  0.588024  0.177827  0.428640  1
  O  O9  1  0.428640  0.588024  0.177827  1
  O  O10  1  0.822173  0.571360  0.411976  1
  O  O11  1  0.411976  0.822173  0.571360  1
  O  O12  1  0.571360  0.411976  0.822173  1
  O  O13  1  0.920230  0.047049  0.693098  1
  O  O14  1  0.952951  0.306902  0.079770  1
  O  O15  1  0.306902  0.079770  0.952951  1
  O  O16  1  0.079770  0.952951  0.306902  1
  O  O17  1  0.047049  0.693098  0.920230  1
  O  O18  1  0.693098  0.920230  0.047049  1
