# generated using pymatgen
data_Ca7CdB24(PbO12)4
_symmetry_space_group_name_H-M   'P 1'
_cell_length_a   7.18909235
_cell_length_b   6.60271745
_cell_length_c   20.82949738
_cell_angle_alpha   71.85284857
_cell_angle_beta   89.78750221
_cell_angle_gamma   90.01530824
_symmetry_Int_Tables_number   1
_chemical_formula_structural   Ca7CdB24(PbO12)4
_chemical_formula_sum   'Ca7 Cd1 B24 Pb4 O48'
_cell_volume   939.53815477
_cell_formula_units_Z   1
loop_
 _symmetry_equiv_pos_site_id
 _symmetry_equiv_pos_as_xyz
  1  'x, y, z'
loop_
 _atom_site_type_symbol
 _atom_site_label
 _atom_site_symmetry_multiplicity
 _atom_site_fract_x
 _atom_site_fract_y
 _atom_site_fract_z
 _atom_site_occupancy
  Ca  Ca0  1  0.269786  0.550037  0.528293  1
  Ca  Ca1  1  0.230352  0.552114  0.027153  1
  Ca  Ca2  1  0.727510  0.448639  0.472436  1
  Ca  Ca3  1  0.773419  0.448730  0.972235  1
  Ca  Ca4  1  0.248935  0.047626  0.736875  1
  Ca  Ca5  1  0.250467  0.048995  0.236650  1
  Ca  Ca6  1  0.750913  0.951095  0.263512  1
  Cd  Cd7  1  0.747610  0.953545  0.764521  1
  B  B8  1  0.928356  0.257103  0.627687  1
  B  B9  1  0.567927  0.258427  0.125865  1
  B  B10  1  0.067689  0.740932  0.374452  1
  B  B11  1  0.437265  0.739706  0.873880  1
  B  B12  1  0.313012  0.113776  0.536696  1
  B  B13  1  0.187516  0.114047  0.036849  1
  B  B14  1  0.686356  0.886078  0.463213  1
  B  B15  1  0.814421  0.886034  0.962837  1
  B  B16  1  0.430789  0.783091  0.624495  1
  B  B17  1  0.068416  0.782845  0.124881  1
  B  B18  1  0.567818  0.217044  0.375191  1
  B  B19  1  0.931174  0.218053  0.874656  1
  B  B20  1  0.592276  0.140444  0.609866  1
  B  B21  1  0.906546  0.140969  0.109868  1
  B  B22  1  0.406043  0.858638  0.390307  1
  B  B23  1  0.094442  0.860854  0.889294  1
  B  B24  1  0.528747  0.404743  0.677905  1
  B  B25  1  0.970315  0.404639  0.177974  1
  B  B26  1  0.469744  0.595262  0.321892  1
  B  B27  1  0.030348  0.595700  0.821485  1
  B  B28  1  0.307357  0.566831  0.740348  1
  B  B29  1  0.192687  0.566265  0.240340  1
  B  B30  1  0.693029  0.433747  0.259573  1
  B  B31  1  0.806258  0.435160  0.759174  1
  Pb  Pb32  1  0.910380  0.767635  0.611722  1
  Pb  Pb33  1  0.586629  0.768044  0.110832  1
  Pb  Pb34  1  0.085906  0.230373  0.389656  1
  Pb  Pb35  1  0.414835  0.231507  0.889019  1
  O  O36  1  0.597827  0.909032  0.625173  1
  O  O37  1  0.900863  0.908478  0.126238  1
  O  O38  1  0.400664  0.091021  0.373902  1
  O  O39  1  0.098876  0.093177  0.872469  1
  O  O40  1  0.472592  0.574872  0.617959  1
  O  O41  1  0.027484  0.574754  0.117991  1
  O  O42  1  0.525948  0.425238  0.381818  1
  O  O43  1  0.973076  0.425929  0.881525  1
  O  O44  1  0.525182  0.191956  0.669947  1
  O  O45  1  0.970655  0.190803  0.170618  1
  O  O46  1  0.470148  0.808885  0.329361  1
  O  O47  1  0.030659  0.809319  0.828913  1
  O  O48  1  0.393983  0.386257  0.734896  1
  O  O49  1  0.104946  0.386256  0.234737  1
  O  O50  1  0.605622  0.613931  0.265098  1
  O  O51  1  0.897776  0.613689  0.764326  1
  O  O52  1  0.219310  0.541822  0.801028  1
  O  O53  1  0.282664  0.540094  0.300438  1
  O  O54  1  0.782687  0.459781  0.199133  1
  O  O55  1  0.716282  0.460955  0.699036  1
  O  O56  1  0.044064  0.429546  0.606463  1
  O  O57  1  0.456094  0.434505  0.104471  1
  O  O58  1  0.956184  0.564225  0.395682  1
  O  O59  1  0.544558  0.562023  0.896210  1
  O  O60  1  0.305948  0.893527  0.566960  1
  O  O61  1  0.193753  0.893806  0.067098  1
  O  O62  1  0.692453  0.106570  0.432890  1
  O  O63  1  0.807662  0.106238  0.932843  1
  O  O64  1  0.774715  0.242512  0.586272  1
  O  O65  1  0.725526  0.243892  0.085325  1
  O  O66  1  0.224512  0.755733  0.414976  1
  O  O67  1  0.278006  0.760557  0.912792  1
  O  O68  1  0.462406  0.232975  0.551040  1
  O  O69  1  0.038511  0.232961  0.051495  1
  O  O70  1  0.537643  0.767078  0.448417  1
  O  O71  1  0.964765  0.768128  0.948259  1
  O  O72  1  0.318667  0.759166  0.689930  1
  O  O73  1  0.179812  0.759117  0.190133  1
  O  O74  1  0.680354  0.241142  0.309813  1
  O  O75  1  0.817042  0.243865  0.810097  1
  O  O76  1  0.177250  0.227686  0.497205  1
  O  O77  1  0.323311  0.227904  0.996877  1
  O  O78  1  0.821660  0.772535  0.503066  1
  O  O79  1  0.678451  0.771407  0.002564  1
  O  O80  1  0.962232  0.090473  0.685498  1
  O  O81  1  0.532399  0.091190  0.182594  1
  O  O82  1  0.032144  0.908411  0.317862  1
  O  O83  1  0.477358  0.907847  0.816927  1
