# generated using pymatgen
data_LaNdTe2(RhO6)2
_symmetry_space_group_name_H-M   'P 1'
_cell_length_a   5.29826500
_cell_length_b   5.29829314
_cell_length_c   10.28887800
_cell_angle_alpha   89.99945677
_cell_angle_beta   90.00018215
_cell_angle_gamma   120.00026939
_symmetry_Int_Tables_number   1
_chemical_formula_structural   LaNdTe2(RhO6)2
_chemical_formula_sum   'La1 Nd1 Te2 Rh2 O12'
_cell_volume   250.13077554
_cell_formula_units_Z   1
loop_
 _symmetry_equiv_pos_site_id
 _symmetry_equiv_pos_as_xyz
  1  'x, y, z'
loop_
 _atom_site_type_symbol
 _atom_site_label
 _atom_site_symmetry_multiplicity
 _atom_site_fract_x
 _atom_site_fract_y
 _atom_site_fract_z
 _atom_site_occupancy
  La  La0  1  0.000025  0.000022  0.500002  1
  Nd  Nd1  1  0.000005  0.999996  0.000000  1
  Te  Te2  1  0.666670  0.333337  0.248000  1
  Te  Te3  1  0.333332  0.666664  0.751999  1
  Rh  Rh4  1  0.333335  0.666662  0.248505  1
  Rh  Rh5  1  0.666658  0.333325  0.751498  1
  O  O6  1  0.644633  0.633137  0.142001  1
  O  O7  1  0.988501  0.355367  0.142001  1
  O  O8  1  0.366862  0.011502  0.142001  1
  O  O9  1  0.371662  0.360526  0.355316  1
  O  O10  1  0.988866  0.628345  0.355317  1
  O  O11  1  0.639478  0.011143  0.355321  1
  O  O12  1  0.360516  0.988854  0.644681  1
  O  O13  1  0.011136  0.371661  0.644683  1
  O  O14  1  0.628330  0.639470  0.644680  1
  O  O15  1  0.633135  0.988494  0.857998  1
  O  O16  1  0.011505  0.644642  0.857997  1
  O  O17  1  0.355350  0.366857  0.857997  1
