# generated using pymatgen
data_Lu8Sc4AlInCo4
_symmetry_space_group_name_H-M   'P 1'
_cell_length_a   8.03390625
_cell_length_b   8.03390717
_cell_length_c   8.03390662
_cell_angle_alpha   110.95170056
_cell_angle_beta   110.89331085
_cell_angle_gamma   106.60609398
_symmetry_Int_Tables_number   1
_chemical_formula_structural   Lu8Sc4AlInCo4
_chemical_formula_sum   'Lu8 Sc4 Al1 In1 Co4'
_cell_volume   398.42651279
_cell_formula_units_Z   1
loop_
 _symmetry_equiv_pos_site_id
 _symmetry_equiv_pos_as_xyz
  1  'x, y, z'
loop_
 _atom_site_type_symbol
 _atom_site_label
 _atom_site_symmetry_multiplicity
 _atom_site_fract_x
 _atom_site_fract_y
 _atom_site_fract_z
 _atom_site_occupancy
  Lu  Lu0  1  0.190552  0.285930  0.476483  1
  Lu  Lu1  1  0.809448  0.714070  0.523517  1
  Lu  Lu2  1  0.190552  0.714070  0.904624  1
  Lu  Lu3  1  0.809448  0.285930  0.095376  1
  Lu  Lu4  1  0.311682  0.609628  0.297944  1
  Lu  Lu5  1  0.688318  0.390372  0.702056  1
  Lu  Lu6  1  0.311682  0.013739  0.702056  1
  Lu  Lu7  1  0.688318  0.986261  0.297944  1
  Sc  Sc8  1  0.436910  0.226352  0.210558  1
  Sc  Sc9  1  0.563090  0.773648  0.789442  1
  Sc  Sc10  1  0.015794  0.226352  0.789442  1
  Sc  Sc11  1  0.984206  0.773648  0.210558  1
  Al  Al12  1  0.000000  0.000000  0.000000  1
  In  In13  1  0.500000  0.500000  0.000000  1
  Co  Co14  1  0.370484  0.000000  0.370484  1
  Co  Co15  1  0.629516  0.000000  0.629516  1
  Co  Co16  1  0.115260  0.615260  0.500000  1
  Co  Co17  1  0.884740  0.384740  0.500000  1
