# generated using pymatgen
data_Tb11Dy3Lu2(InRh)4
_symmetry_space_group_name_H-M   'P 1'
_cell_length_a   9.67319430
_cell_length_b   9.68171679
_cell_length_c   9.67606404
_cell_angle_alpha   59.97145640
_cell_angle_beta   60.09300476
_cell_angle_gamma   59.97271911
_symmetry_Int_Tables_number   1
_chemical_formula_structural   Tb11Dy3Lu2(InRh)4
_chemical_formula_sum   'Tb11 Dy3 Lu2 In4 Rh4'
_cell_volume   640.95381574
_cell_formula_units_Z   1
loop_
 _symmetry_equiv_pos_site_id
 _symmetry_equiv_pos_as_xyz
  1  'x, y, z'
loop_
 _atom_site_type_symbol
 _atom_site_label
 _atom_site_symmetry_multiplicity
 _atom_site_fract_x
 _atom_site_fract_y
 _atom_site_fract_z
 _atom_site_occupancy
  Tb  Tb0  1  0.313845  0.687793  0.310768  1
  Tb  Tb1  1  0.935189  0.939054  0.562060  1
  Tb  Tb2  1  0.148191  0.151060  0.549486  1
  Tb  Tb3  1  0.561500  0.939560  0.559103  1
  Tb  Tb4  1  0.148795  0.151868  0.151533  1
  Tb  Tb5  1  0.312486  0.310332  0.688572  1
  Tb  Tb6  1  0.935089  0.563744  0.561979  1
  Tb  Tb7  1  0.561516  0.561018  0.939250  1
  Tb  Tb8  1  0.561634  0.938012  0.939323  1
  Tb  Tb9  1  0.934675  0.562988  0.939504  1
  Tb  Tb10  1  0.148803  0.547913  0.151358  1
  Dy  Dy11  1  0.312546  0.688727  0.688515  1
  Dy  Dy12  1  0.688403  0.312338  0.687121  1
  Dy  Dy13  1  0.552749  0.149363  0.148520  1
  Lu  Lu14  1  0.689128  0.312009  0.311204  1
  Lu  Lu15  1  0.688947  0.687685  0.311388  1
  In  In16  1  0.918520  0.916992  0.247499  1
  In  In17  1  0.248403  0.916855  0.917779  1
  In  In18  1  0.917550  0.248479  0.917641  1
  In  In19  1  0.917612  0.916305  0.917608  1
  Rh  Rh20  1  0.361668  0.354941  0.357168  1
  Rh  Rh21  1  0.922737  0.359824  0.357563  1
  Rh  Rh22  1  0.358380  0.357152  0.927600  1
  Rh  Rh23  1  0.361635  0.925989  0.357461  1
