# generated using pymatgen
data_Sm3Dy2V3(Co4P3)4
_symmetry_space_group_name_H-M   'P 1'
_cell_length_a   12.09964515
_cell_length_b   12.09964618
_cell_length_c   3.68772600
_cell_angle_alpha   90.00000000
_cell_angle_beta   90.00000000
_cell_angle_gamma   120.01794068
_symmetry_Int_Tables_number   1
_chemical_formula_structural   Sm3Dy2V3(Co4P3)4
_chemical_formula_sum   'Sm3 Dy2 V3 Co16 P12'
_cell_volume   467.47247078
_cell_formula_units_Z   1
loop_
 _symmetry_equiv_pos_site_id
 _symmetry_equiv_pos_as_xyz
  1  'x, y, z'
loop_
 _atom_site_type_symbol
 _atom_site_label
 _atom_site_symmetry_multiplicity
 _atom_site_fract_x
 _atom_site_fract_y
 _atom_site_fract_z
 _atom_site_occupancy
  Sm  Sm0  1  0.666632  0.333593  0.000000  1
  Sm  Sm1  1  0.333593  0.666632  0.000000  1
  Sm  Sm2  1  0.186249  0.186249  0.500000  1
  Dy  Dy3  1  0.812857  0.999586  0.500000  1
  Dy  Dy4  1  0.999586  0.812857  0.500000  1
  V  V5  1  0.558930  0.558930  0.000000  1
  V  V6  1  0.442632  0.999361  0.000000  1
  V  V7  1  0.999361  0.442632  0.000000  1
  Co  Co8  1  0.822875  0.199235  0.000000  1
  Co  Co9  1  0.801093  0.624756  0.000000  1
  Co  Co10  1  0.376622  0.175473  0.000000  1
  Co  Co11  1  0.199235  0.822875  0.000000  1
  Co  Co12  1  0.624756  0.801093  0.000000  1
  Co  Co13  1  0.175473  0.376622  0.000000  1
  Co  Co14  1  0.644235  0.124538  0.500000  1
  Co  Co15  1  0.875379  0.520138  0.500000  1
  Co  Co16  1  0.481256  0.356315  0.500000  1
  Co  Co17  1  0.124538  0.644235  0.500000  1
  Co  Co18  1  0.520138  0.875379  0.500000  1
  Co  Co19  1  0.356315  0.481256  0.500000  1
  Co  Co20  1  0.719505  0.719505  0.500000  1
  Co  Co21  1  0.281040  0.998695  0.500000  1
  Co  Co22  1  0.998695  0.281040  0.500000  1
  Co  Co23  1  0.998895  0.998895  0.000000  1
  P  P24  1  0.366338  0.366338  0.000000  1
  P  P25  1  0.636325  0.000099  0.000000  1
  P  P26  1  0.000099  0.636325  0.000000  1
  P  P27  1  0.836956  0.315695  0.500000  1
  P  P28  1  0.685142  0.522513  0.500000  1
  P  P29  1  0.477878  0.162142  0.500000  1
  P  P30  1  0.315695  0.836956  0.500000  1
  P  P31  1  0.522513  0.685142  0.500000  1
  P  P32  1  0.162142  0.477878  0.500000  1
  P  P33  1  0.820707  0.820707  0.000000  1
  P  P34  1  0.178680  0.997637  0.000000  1
  P  P35  1  0.997637  0.178680  0.000000  1
