# generated using pymatgen
data_DyEr5(Cu3Sb4)2
_symmetry_space_group_name_H-M   'P 1'
_cell_length_a   8.27389201
_cell_length_b   8.27389168
_cell_length_c   8.27389132
_cell_angle_alpha   109.45529899
_cell_angle_beta   109.50307984
_cell_angle_gamma   109.45528911
_symmetry_Int_Tables_number   1
_chemical_formula_structural   DyEr5(Cu3Sb4)2
_chemical_formula_sum   'Dy1 Er5 Cu6 Sb8'
_cell_volume   436.02108635
_cell_formula_units_Z   1
loop_
 _symmetry_equiv_pos_site_id
 _symmetry_equiv_pos_as_xyz
  1  'x, y, z'
loop_
 _atom_site_type_symbol
 _atom_site_label
 _atom_site_symmetry_multiplicity
 _atom_site_fract_x
 _atom_site_fract_y
 _atom_site_fract_z
 _atom_site_occupancy
  Dy  Dy0  1  0.875000  0.250000  0.125000  1
  Er  Er1  1  0.625000  0.750000  0.375000  1
  Er  Er2  1  0.249993  0.124996  0.874978  1
  Er  Er3  1  0.749982  0.375004  0.624996  1
  Er  Er4  1  0.125022  0.875014  0.250018  1
  Er  Er5  1  0.375004  0.624986  0.750007  1
  Cu  Cu6  1  0.375000  0.250000  0.625000  1
  Cu  Cu7  1  0.125000  0.750000  0.875000  1
  Cu  Cu8  1  0.250321  0.625329  0.375218  1
  Cu  Cu9  1  0.749889  0.874671  0.124992  1
  Cu  Cu10  1  0.624782  0.375102  0.250111  1
  Cu  Cu11  1  0.875008  0.124898  0.749679  1
  Sb  Sb12  1  0.659896  0.500063  0.999959  1
  Sb  Sb13  1  0.499896  0.999937  0.659833  1
  Sb  Sb14  1  0.000114  0.660204  0.500207  1
  Sb  Sb15  1  0.840003  0.839796  0.839910  1
  Sb  Sb16  1  0.499793  0.999906  0.159997  1
  Sb  Sb17  1  0.160090  0.500094  0.999886  1
  Sb  Sb18  1  0.000041  0.159937  0.500104  1
  Sb  Sb19  1  0.340167  0.340063  0.340104  1
