# generated using pymatgen
data_Zr10InCu2Sb5
_symmetry_space_group_name_H-M   'P 1'
_cell_length_a   8.66114800
_cell_length_b   8.66114720
_cell_length_c   5.83738200
_cell_angle_alpha   90.00000000
_cell_angle_beta   90.00000000
_cell_angle_gamma   120.13275445
_symmetry_Int_Tables_number   1
_chemical_formula_structural   Zr10InCu2Sb5
_chemical_formula_sum   'Zr10 In1 Cu2 Sb5'
_cell_volume   378.71900971
_cell_formula_units_Z   1
loop_
 _symmetry_equiv_pos_site_id
 _symmetry_equiv_pos_as_xyz
  1  'x, y, z'
loop_
 _atom_site_type_symbol
 _atom_site_label
 _atom_site_symmetry_multiplicity
 _atom_site_fract_x
 _atom_site_fract_y
 _atom_site_fract_z
 _atom_site_occupancy
  Zr  Zr0  1  0.668045  0.332992  0.999548  1
  Zr  Zr1  1  0.332992  0.668045  0.999548  1
  Zr  Zr2  1  0.332992  0.668045  0.500452  1
  Zr  Zr3  1  0.668045  0.332992  0.500452  1
  Zr  Zr4  1  0.735018  0.735018  0.750000  1
  Zr  Zr5  1  0.265931  0.999493  0.750000  1
  Zr  Zr6  1  0.999493  0.265931  0.750000  1
  Zr  Zr7  1  0.262835  0.262835  0.250000  1
  Zr  Zr8  1  0.734441  0.999603  0.250000  1
  Zr  Zr9  1  0.999603  0.734441  0.250000  1
  In  In10  1  0.384375  0.384375  0.750000  1
  Cu  Cu11  1  0.001697  0.001697  0.502383  1
  Cu  Cu12  1  0.001697  0.001697  0.997617  1
  Sb  Sb13  1  0.614958  0.999827  0.750000  1
  Sb  Sb14  1  0.999827  0.614958  0.750000  1
  Sb  Sb15  1  0.611957  0.611957  0.250000  1
  Sb  Sb16  1  0.385045  0.001052  0.250000  1
  Sb  Sb17  1  0.001052  0.385045  0.250000  1
