# generated using pymatgen
data_Zr6Al5(SiNi8)2
_symmetry_space_group_name_H-M   'P 1'
_cell_length_a   8.22292088
_cell_length_b   8.22292131
_cell_length_c   8.25047200
_cell_angle_alpha   59.88909709
_cell_angle_beta   59.88909539
_cell_angle_gamma   60.22179574
_symmetry_Int_Tables_number   1
_chemical_formula_structural   Zr6Al5(SiNi8)2
_chemical_formula_sum   'Zr6 Al5 Si2 Ni16'
_cell_volume   394.46295138
_cell_formula_units_Z   1
loop_
 _symmetry_equiv_pos_site_id
 _symmetry_equiv_pos_as_xyz
  1  'x, y, z'
loop_
 _atom_site_type_symbol
 _atom_site_label
 _atom_site_symmetry_multiplicity
 _atom_site_fract_x
 _atom_site_fract_y
 _atom_site_fract_z
 _atom_site_occupancy
  Zr  Zr0  1  0.793684  0.206316  0.793684  1
  Zr  Zr1  1  0.792870  0.792870  0.207130  1
  Zr  Zr2  1  0.206316  0.793684  0.793684  1
  Zr  Zr3  1  0.207130  0.207130  0.792870  1
  Zr  Zr4  1  0.793684  0.206316  0.206316  1
  Zr  Zr5  1  0.206316  0.793684  0.206316  1
  Al  Al6  1  0.000000  0.500000  0.000000  1
  Al  Al7  1  0.500000  0.500000  0.500000  1
  Al  Al8  1  0.500000  0.000000  0.500000  1
  Al  Al9  1  0.000000  0.500000  0.500000  1
  Al  Al10  1  0.500000  0.000000  0.000000  1
  Si  Si11  1  0.500000  0.500000  0.000000  1
  Si  Si12  1  0.000000  0.000000  0.500000  1
  Ni  Ni13  1  0.166375  0.166375  0.174521  1
  Ni  Ni14  1  0.619226  0.619226  0.138748  1
  Ni  Ni15  1  0.380774  0.380774  0.377202  1
  Ni  Ni16  1  0.174521  0.492729  0.166375  1
  Ni  Ni17  1  0.166375  0.166375  0.492729  1
  Ni  Ni18  1  0.138748  0.622798  0.619226  1
  Ni  Ni19  1  0.622798  0.138748  0.619226  1
  Ni  Ni20  1  0.833625  0.833625  0.825479  1
  Ni  Ni21  1  0.861252  0.377202  0.380774  1
  Ni  Ni22  1  0.380774  0.380774  0.861252  1
  Ni  Ni23  1  0.377202  0.861252  0.380774  1
  Ni  Ni24  1  0.507271  0.825479  0.833625  1
  Ni  Ni25  1  0.619226  0.619226  0.622798  1
  Ni  Ni26  1  0.833625  0.833625  0.507271  1
  Ni  Ni27  1  0.492729  0.174521  0.166375  1
  Ni  Ni28  1  0.825479  0.507271  0.833625  1
