# generated using pymatgen
data_Pr2NdEr2(Sn5Rh2)2
_symmetry_space_group_name_H-M   'P 1'
_cell_length_a   14.18598400
_cell_length_b   14.18598400
_cell_length_c   4.57954600
_cell_angle_alpha   90.00000000
_cell_angle_beta   90.00000000
_cell_angle_gamma   90.00000000
_symmetry_Int_Tables_number   1
_chemical_formula_structural   Pr2NdEr2(Sn5Rh2)2
_chemical_formula_sum   'Pr4 Nd2 Er4 Sn20 Rh8'
_cell_volume   921.59764665
_cell_formula_units_Z   2
loop_
 _symmetry_equiv_pos_site_id
 _symmetry_equiv_pos_as_xyz
  1  'x, y, z'
loop_
 _atom_site_type_symbol
 _atom_site_label
 _atom_site_symmetry_multiplicity
 _atom_site_fract_x
 _atom_site_fract_y
 _atom_site_fract_z
 _atom_site_occupancy
  Pr  Pr0  1  0.888011  0.388011  0.500000  1
  Pr  Pr1  1  0.111989  0.611989  0.500000  1
  Pr  Pr2  1  0.388011  0.111989  0.500000  1
  Pr  Pr3  1  0.611989  0.888011  0.500000  1
  Nd  Nd4  1  0.500000  0.500000  0.000000  1
  Nd  Nd5  1  0.000000  0.000000  0.000000  1
  Er  Er6  1  0.676732  0.176732  0.500000  1
  Er  Er7  1  0.323268  0.823268  0.500000  1
  Er  Er8  1  0.176732  0.323268  0.500000  1
  Er  Er9  1  0.823268  0.676732  0.500000  1
  Sn  Sn10  1  0.570101  0.070101  0.000000  1
  Sn  Sn11  1  0.429899  0.929899  0.000000  1
  Sn  Sn12  1  0.070101  0.429899  0.000000  1
  Sn  Sn13  1  0.929899  0.570101  0.000000  1
  Sn  Sn14  1  0.654385  0.698473  0.000000  1
  Sn  Sn15  1  0.345615  0.301527  0.000000  1
  Sn  Sn16  1  0.154385  0.801527  0.000000  1
  Sn  Sn17  1  0.845615  0.198473  0.000000  1
  Sn  Sn18  1  0.301527  0.654385  0.000000  1
  Sn  Sn19  1  0.698473  0.345615  0.000000  1
  Sn  Sn20  1  0.198473  0.154385  0.000000  1
  Sn  Sn21  1  0.801527  0.845615  0.000000  1
  Sn  Sn22  1  0.663733  0.505985  0.500000  1
  Sn  Sn23  1  0.336267  0.494015  0.500000  1
  Sn  Sn24  1  0.163733  0.994015  0.500000  1
  Sn  Sn25  1  0.836267  0.005985  0.500000  1
  Sn  Sn26  1  0.494015  0.663733  0.500000  1
  Sn  Sn27  1  0.505985  0.336267  0.500000  1
  Sn  Sn28  1  0.005985  0.163733  0.500000  1
  Sn  Sn29  1  0.994015  0.836267  0.500000  1
  Rh  Rh30  1  0.747300  0.530131  0.000000  1
  Rh  Rh31  1  0.252700  0.469869  0.000000  1
  Rh  Rh32  1  0.247300  0.969869  0.000000  1
  Rh  Rh33  1  0.752700  0.030131  0.000000  1
  Rh  Rh34  1  0.469869  0.747300  0.000000  1
  Rh  Rh35  1  0.530131  0.252700  0.000000  1
  Rh  Rh36  1  0.030131  0.247300  0.000000  1
  Rh  Rh37  1  0.969869  0.752700  0.000000  1
