# generated using pymatgen
data_Cs2TiZnTe4
_symmetry_space_group_name_H-M   'P 1'
_cell_length_a   15.75315871
_cell_length_b   14.00223710
_cell_length_c   8.49945665
_cell_angle_alpha   85.14584966
_cell_angle_beta   62.33342715
_cell_angle_gamma   32.52072974
_symmetry_Int_Tables_number   1
_chemical_formula_structural   Cs2TiZnTe4
_chemical_formula_sum   'Cs4 Ti2 Zn2 Te8'
_cell_volume   682.49210472
_cell_formula_units_Z   2
loop_
 _symmetry_equiv_pos_site_id
 _symmetry_equiv_pos_as_xyz
  1  'x, y, z'
loop_
 _atom_site_type_symbol
 _atom_site_label
 _atom_site_symmetry_multiplicity
 _atom_site_fract_x
 _atom_site_fract_y
 _atom_site_fract_z
 _atom_site_occupancy
  Cs  Cs0  1  0.817116  0.817116  0.182884  1
  Cs  Cs1  1  0.182884  0.182884  0.817116  1
  Cs  Cs2  1  0.432884  0.432884  0.067116  1
  Cs  Cs3  1  0.067116  0.067116  0.432884  1
  Ti  Ti4  1  0.250000  0.250000  0.250000  1
  Ti  Ti5  1  0.000000  0.000000  0.000000  1
  Zn  Zn6  1  0.750000  0.750000  0.750000  1
  Zn  Zn7  1  0.500000  0.500000  0.500000  1
  Te  Te8  1  0.393342  0.717735  0.796741  1
  Te  Te9  1  0.092183  0.796741  0.717735  1
  Te  Te10  1  0.796741  0.092183  0.393342  1
  Te  Te11  1  0.717735  0.393342  0.092183  1
  Te  Te12  1  0.856658  0.532265  0.453259  1
  Te  Te13  1  0.157817  0.453259  0.532265  1
  Te  Te14  1  0.453259  0.157817  0.856658  1
  Te  Te15  1  0.532265  0.856658  0.157817  1
