# generated using pymatgen
data_Lu3In4CoPt
_symmetry_space_group_name_H-M   'P 1'
_cell_length_a   7.83369000
_cell_length_b   7.83368916
_cell_length_c   3.68894400
_cell_angle_alpha   90.00000000
_cell_angle_beta   90.00000000
_cell_angle_gamma   120.00001199
_symmetry_Int_Tables_number   1
_chemical_formula_structural   Lu3In4CoPt
_chemical_formula_sum   'Lu3 In4 Co1 Pt1'
_cell_volume   196.04932798
_cell_formula_units_Z   1
loop_
 _symmetry_equiv_pos_site_id
 _symmetry_equiv_pos_as_xyz
  1  'x, y, z'
loop_
 _atom_site_type_symbol
 _atom_site_label
 _atom_site_symmetry_multiplicity
 _atom_site_fract_x
 _atom_site_fract_y
 _atom_site_fract_z
 _atom_site_occupancy
  Lu  Lu0  1  0.044462  0.298480  0.500000  1
  Lu  Lu1  1  0.701520  0.745981  0.500000  1
  Lu  Lu2  1  0.254019  0.955538  0.500000  1
  In  In3  1  0.661197  0.083419  0.000000  1
  In  In4  1  0.916581  0.577779  0.000000  1
  In  In5  1  0.422221  0.338803  0.000000  1
  In  In6  1  0.333333  0.666667  0.000000  1
  Co  Co7  1  0.666667  0.333333  0.500000  1
  Pt  Pt8  1  0.000000  0.000000  0.000000  1
