# generated using pymatgen
data_Dy2ErSi2(PPd5)4
_symmetry_space_group_name_H-M   'P 1'
_cell_length_a   8.68679817
_cell_length_b   8.68477828
_cell_length_c   8.68369576
_cell_angle_alpha   59.99587889
_cell_angle_beta   59.96066725
_cell_angle_gamma   60.00768494
_symmetry_Int_Tables_number   1
_chemical_formula_structural   Dy2ErSi2(PPd5)4
_chemical_formula_sum   'Dy2 Er1 Si2 P4 Pd20'
_cell_volume   463.11674660
_cell_formula_units_Z   1
loop_
 _symmetry_equiv_pos_site_id
 _symmetry_equiv_pos_as_xyz
  1  'x, y, z'
loop_
 _atom_site_type_symbol
 _atom_site_label
 _atom_site_symmetry_multiplicity
 _atom_site_fract_x
 _atom_site_fract_y
 _atom_site_fract_z
 _atom_site_occupancy
  Dy  Dy0  1  0.998513  0.999999  0.001489  1
  Dy  Dy1  1  0.751621  0.749906  0.748568  1
  Er  Er2  1  0.251551  0.250046  0.248359  1
  Si  Si3  1  0.734626  0.267180  0.265345  1
  Si  Si4  1  0.734626  0.732850  0.265345  1
  P  P5  1  0.737488  0.264504  0.733505  1
  P  P6  1  0.266556  0.735483  0.262478  1
  P  P7  1  0.265460  0.736477  0.734571  1
  P  P8  1  0.265460  0.263493  0.734571  1
  Pd  Pd9  1  0.342774  0.002714  0.001154  1
  Pd  Pd10  1  0.000203  0.655573  0.345563  1
  Pd  Pd11  1  0.345290  0.000758  0.653195  1
  Pd  Pd12  1  0.002400  0.653121  0.999135  1
  Pd  Pd13  1  0.653057  0.343273  0.001049  1
  Pd  Pd14  1  0.614727  0.617345  0.150582  1
  Pd  Pd15  1  0.382545  0.848041  0.384607  1
  Pd  Pd16  1  0.153361  0.615641  0.615356  1
  Pd  Pd17  1  0.653215  0.000805  0.345176  1
  Pd  Pd18  1  0.000002  0.345368  0.656155  1
  Pd  Pd19  1  0.653057  0.002621  0.001049  1
  Pd  Pd20  1  0.000203  0.998661  0.345563  1
  Pd  Pd21  1  0.615459  0.151909  0.617343  1
  Pd  Pd22  1  0.342774  0.653358  0.001154  1
  Pd  Pd23  1  0.382545  0.384809  0.384607  1
  Pd  Pd24  1  0.615459  0.615287  0.617343  1
  Pd  Pd25  1  0.384874  0.384485  0.846158  1
  Pd  Pd26  1  0.000002  0.998475  0.656155  1
  Pd  Pd27  1  0.849752  0.382478  0.385293  1
  Pd  Pd28  1  0.002400  0.345345  0.999135  1
