# generated using pymatgen
data_SrPrTh(AgSn)4
_symmetry_space_group_name_H-M   'P 1'
_cell_length_a   9.03328574
_cell_length_b   9.03328589
_cell_length_c   9.03328721
_cell_angle_alpha   149.71229814
_cell_angle_beta   130.40835806
_cell_angle_gamma   59.22054670
_symmetry_Int_Tables_number   1
_chemical_formula_structural   SrPrTh(AgSn)4
_chemical_formula_sum   'Sr1 Pr1 Th1 Ag4 Sn4'
_cell_volume   280.85305983
_cell_formula_units_Z   1
loop_
 _symmetry_equiv_pos_site_id
 _symmetry_equiv_pos_as_xyz
  1  'x, y, z'
loop_
 _atom_site_type_symbol
 _atom_site_label
 _atom_site_symmetry_multiplicity
 _atom_site_fract_x
 _atom_site_fract_y
 _atom_site_fract_z
 _atom_site_occupancy
  Sr  Sr0  1  0.500296  0.000296  0.500000  1
  Pr  Pr1  1  0.129445  0.129445  0.000000  1
  Th  Th2  1  0.870056  0.870056  0.000000  1
  Ag  Ag3  1  0.475200  0.670191  0.805009  1
  Ag  Ag4  1  0.865182  0.670191  0.194991  1
  Ag  Ag5  1  0.134582  0.330073  0.804508  1
  Ag  Ag6  1  0.525567  0.330073  0.195492  1
  Sn  Sn7  1  0.283030  0.783030  0.500000  1
  Sn  Sn8  1  0.718400  0.218400  0.500000  1
  Sn  Sn9  1  0.812655  0.499122  0.313533  1
  Sn  Sn10  1  0.185589  0.499122  0.686467  1
