# generated using pymatgen
data_Y15ErMgIn3Rh4
_symmetry_space_group_name_H-M   'P 1'
_cell_length_a   9.71441592
_cell_length_b   9.71155958
_cell_length_c   9.71311430
_cell_angle_alpha   60.03295028
_cell_angle_beta   59.76653191
_cell_angle_gamma   60.03888132
_symmetry_Int_Tables_number   1
_chemical_formula_structural   Y15ErMgIn3Rh4
_chemical_formula_sum   'Y15 Er1 Mg1 In3 Rh4'
_cell_volume   647.16012267
_cell_formula_units_Z   1
loop_
 _symmetry_equiv_pos_site_id
 _symmetry_equiv_pos_as_xyz
  1  'x, y, z'
loop_
 _atom_site_type_symbol
 _atom_site_label
 _atom_site_symmetry_multiplicity
 _atom_site_fract_x
 _atom_site_fract_y
 _atom_site_fract_z
 _atom_site_occupancy
  Y  Y0  1  0.190438  0.191414  0.810997  1
  Y  Y1  1  0.436901  0.061670  0.061871  1
  Y  Y2  1  0.434906  0.064338  0.434872  1
  Y  Y3  1  0.061809  0.438238  0.061781  1
  Y  Y4  1  0.648231  0.050554  0.648242  1
  Y  Y5  1  0.189316  0.811632  0.812194  1
  Y  Y6  1  0.061890  0.061682  0.436905  1
  Y  Y7  1  0.810962  0.191447  0.190456  1
  Y  Y8  1  0.812205  0.811668  0.189307  1
  Y  Y9  1  0.649118  0.648968  0.048046  1
  Y  Y10  1  0.652720  0.652939  0.652648  1
  Y  Y11  1  0.063855  0.436103  0.436895  1
  Y  Y12  1  0.048019  0.648907  0.649129  1
  Y  Y13  1  0.809261  0.191652  0.809288  1
  Y  Y14  1  0.436887  0.436137  0.063825  1
  Er  Er15  1  0.187538  0.814937  0.187597  1
  Mg  Mg16  1  0.423634  0.731616  0.423638  1
  In  In17  1  0.417052  0.418673  0.748392  1
  In  In18  1  0.748440  0.418682  0.417033  1
  In  In19  1  0.416814  0.417009  0.416943  1
  Rh  Rh20  1  0.858045  0.425662  0.858008  1
  Rh  Rh21  1  0.861361  0.858455  0.423860  1
  Rh  Rh22  1  0.423858  0.858437  0.861374  1
  Rh  Rh23  1  0.856739  0.859180  0.856698  1
