# generated using pymatgen
data_Dy4CrMo5O24
_symmetry_space_group_name_H-M   'P 1'
_cell_length_a   7.41505712
_cell_length_b   7.41505712
_cell_length_c   10.66816244
_cell_angle_alpha   89.75184413
_cell_angle_beta   89.75184413
_cell_angle_gamma   90.35067422
_symmetry_Int_Tables_number   1
_chemical_formula_structural   Dy4CrMo5O24
_chemical_formula_sum   'Dy4 Cr1 Mo5 O24'
_cell_volume   586.54628839
_cell_formula_units_Z   1
loop_
 _symmetry_equiv_pos_site_id
 _symmetry_equiv_pos_as_xyz
  1  'x, y, z'
loop_
 _atom_site_type_symbol
 _atom_site_label
 _atom_site_symmetry_multiplicity
 _atom_site_fract_x
 _atom_site_fract_y
 _atom_site_fract_z
 _atom_site_occupancy
  Dy  Dy0  1  0.186490  0.686490  0.734065  1
  Dy  Dy1  1  0.813454  0.313454  0.739905  1
  Dy  Dy2  1  0.682640  0.809932  0.263492  1
  Dy  Dy3  1  0.309932  0.182640  0.263492  1
  Cr  Cr4  1  0.207805  0.707805  0.356239  1
  Mo  Mo5  1  0.792189  0.292189  0.355871  1
  Mo  Mo6  1  0.708119  0.793567  0.643659  1
  Mo  Mo7  1  0.293567  0.208119  0.643659  1
  Mo  Mo8  1  0.002456  0.996798  0.000216  1
  Mo  Mo9  1  0.496798  0.502456  0.000216  1
  O  O10  1  0.005592  0.224285  0.295444  1
  O  O11  1  0.008719  0.768760  0.301547  1
  O  O12  1  0.223447  0.993142  0.701502  1
  O  O13  1  0.493142  0.723447  0.701502  1
  O  O14  1  0.775009  0.006434  0.705071  1
  O  O15  1  0.506434  0.275009  0.705071  1
  O  O16  1  0.268760  0.508719  0.301547  1
  O  O17  1  0.724285  0.505592  0.295444  1
  O  O18  1  0.195174  0.041809  0.095427  1
  O  O19  1  0.813732  0.951017  0.101184  1
  O  O20  1  0.044627  0.807578  0.900834  1
  O  O21  1  0.307578  0.544627  0.900834  1
  O  O22  1  0.956257  0.189561  0.903922  1
  O  O23  1  0.689561  0.456257  0.903922  1
  O  O24  1  0.451017  0.313732  0.101184  1
  O  O25  1  0.541809  0.695174  0.095427  1
  O  O26  1  0.623464  0.123464  0.309111  1
  O  O27  1  0.366361  0.866361  0.310273  1
  O  O28  1  0.125356  0.375301  0.690497  1
  O  O29  1  0.875301  0.625356  0.690497  1
  O  O30  1  0.198292  0.698292  0.511917  1
  O  O31  1  0.804089  0.304089  0.522257  1
  O  O32  1  0.700038  0.808506  0.477384  1
  O  O33  1  0.308506  0.200038  0.477384  1
