# generated using pymatgen
data_Sr10TaWN10
_symmetry_space_group_name_H-M   'P 1'
_cell_length_a   7.37620923
_cell_length_b   7.37621001
_cell_length_c   9.41179873
_cell_angle_alpha   81.38384038
_cell_angle_beta   81.38383978
_cell_angle_gamma   59.50034542
_symmetry_Int_Tables_number   1
_chemical_formula_structural   Sr10TaWN10
_chemical_formula_sum   'Sr10 Ta1 W1 N10'
_cell_volume   434.60730984
_cell_formula_units_Z   1
loop_
 _symmetry_equiv_pos_site_id
 _symmetry_equiv_pos_as_xyz
  1  'x, y, z'
loop_
 _atom_site_type_symbol
 _atom_site_label
 _atom_site_symmetry_multiplicity
 _atom_site_fract_x
 _atom_site_fract_y
 _atom_site_fract_z
 _atom_site_occupancy
  Sr  Sr0  1  0.876558  0.356715  0.841697  1
  Sr  Sr1  1  0.875620  0.875620  0.824018  1
  Sr  Sr2  1  0.737507  0.737507  0.529192  1
  Sr  Sr3  1  0.744532  0.250683  0.505014  1
  Sr  Sr4  1  0.629213  0.133595  0.146258  1
  Sr  Sr5  1  0.356715  0.876558  0.841697  1
  Sr  Sr6  1  0.250683  0.744532  0.505014  1
  Sr  Sr7  1  0.237640  0.237640  0.497553  1
  Sr  Sr8  1  0.141427  0.141427  0.163209  1
  Sr  Sr9  1  0.133595  0.629213  0.146258  1
  Ta  Ta10  1  0.367545  0.367545  0.774298  1
  W  W11  1  0.635993  0.635993  0.224848  1
  N  N12  1  0.895119  0.479642  0.318482  1
  N  N13  1  0.999022  0.999022  0.015762  1
  N  N14  1  0.688010  0.688010  0.025018  1
  N  N15  1  0.524587  0.524587  0.703597  1
  N  N16  1  0.479642  0.895119  0.318482  1
  N  N17  1  0.527312  0.097894  0.680328  1
  N  N18  1  0.485298  0.485298  0.278544  1
  N  N19  1  0.316816  0.316816  0.983859  1
  N  N20  1  0.061560  0.061560  0.642350  1
  N  N21  1  0.097894  0.527312  0.680328  1
