# generated using pymatgen
data_NbGa3(Ni2Pt)4
_symmetry_space_group_name_H-M   'P 1'
_cell_length_a   3.76434900
_cell_length_b   3.69686000
_cell_length_c   14.92024100
_cell_angle_alpha   90.00000000
_cell_angle_beta   90.00000000
_cell_angle_gamma   90.00000000
_symmetry_Int_Tables_number   1
_chemical_formula_structural   NbGa3(Ni2Pt)4
_chemical_formula_sum   'Nb1 Ga3 Ni8 Pt4'
_cell_volume   207.63412078
_cell_formula_units_Z   1
loop_
 _symmetry_equiv_pos_site_id
 _symmetry_equiv_pos_as_xyz
  1  'x, y, z'
loop_
 _atom_site_type_symbol
 _atom_site_label
 _atom_site_symmetry_multiplicity
 _atom_site_fract_x
 _atom_site_fract_y
 _atom_site_fract_z
 _atom_site_occupancy
  Nb  Nb0  1  0.000000  0.000000  0.000000  1
  Ga  Ga1  1  0.000000  0.000000  0.255970  1
  Ga  Ga2  1  0.000000  0.000000  0.500000  1
  Ga  Ga3  1  0.000000  0.000000  0.744030  1
  Ni  Ni4  1  0.500000  0.500000  0.000000  1
  Ni  Ni5  1  0.500000  0.500000  0.251947  1
  Ni  Ni6  1  0.500000  0.500000  0.500000  1
  Ni  Ni7  1  0.500000  0.500000  0.748053  1
  Ni  Ni8  1  0.000000  0.500000  0.125701  1
  Ni  Ni9  1  0.000000  0.500000  0.376923  1
  Ni  Ni10  1  0.000000  0.500000  0.623077  1
  Ni  Ni11  1  0.000000  0.500000  0.874299  1
  Pt  Pt12  1  0.500000  0.000000  0.128589  1
  Pt  Pt13  1  0.500000  0.000000  0.376405  1
  Pt  Pt14  1  0.500000  0.000000  0.623595  1
  Pt  Pt15  1  0.500000  0.000000  0.871411  1
