# generated using pymatgen
data_Li4CaTbIn2
_symmetry_space_group_name_H-M   'P 1'
_cell_length_a   6.92478200
_cell_length_b   4.95128100
_cell_length_c   9.85117000
_cell_angle_alpha   90.00000000
_cell_angle_beta   90.00000000
_cell_angle_gamma   90.00000000
_symmetry_Int_Tables_number   1
_chemical_formula_structural   Li4CaTbIn2
_chemical_formula_sum   'Li8 Ca2 Tb2 In4'
_cell_volume   337.76254948
_cell_formula_units_Z   2
loop_
 _symmetry_equiv_pos_site_id
 _symmetry_equiv_pos_as_xyz
  1  'x, y, z'
loop_
 _atom_site_type_symbol
 _atom_site_label
 _atom_site_symmetry_multiplicity
 _atom_site_fract_x
 _atom_site_fract_y
 _atom_site_fract_z
 _atom_site_occupancy
  Li  Li0  1  0.001592  0.750000  0.125732  1
  Li  Li1  1  0.498389  0.750000  0.125757  1
  Li  Li2  1  0.998388  0.249999  0.374243  1
  Li  Li3  1  0.501593  0.249999  0.374268  1
  Li  Li4  1  0.500873  0.750000  0.630045  1
  Li  Li5  1  0.999145  0.750000  0.630079  1
  Li  Li6  1  0.499145  0.249999  0.869922  1
  Li  Li7  1  0.000873  0.249999  0.869955  1
  Ca  Ca8  1  0.750009  0.249999  0.620462  1
  Ca  Ca9  1  0.250010  0.750000  0.879538  1
  Tb  Tb10  1  0.749991  0.249999  0.123081  1
  Tb  Tb11  1  0.249990  0.750000  0.376919  1
  In  In12  1  0.250003  0.249999  0.134657  1
  In  In13  1  0.750002  0.750000  0.365343  1
  In  In14  1  0.249999  0.249999  0.615817  1
  In  In15  1  0.750000  0.750000  0.884183  1
