# generated using pymatgen
data_Ba2Zn2Bi2O
_symmetry_space_group_name_H-M   'P 1'
_cell_length_a   4.75350300
_cell_length_b   4.75350007
_cell_length_c   20.63362800
_cell_angle_alpha   90.00003000
_cell_angle_beta   90.00006487
_cell_angle_gamma   60.00083615
_symmetry_Int_Tables_number   1
_chemical_formula_structural   Ba2Zn2Bi2O
_chemical_formula_sum   'Ba4 Zn4 Bi4 O2'
_cell_volume   403.77289714
_cell_formula_units_Z   2
loop_
 _symmetry_equiv_pos_site_id
 _symmetry_equiv_pos_as_xyz
  1  'x, y, z'
loop_
 _atom_site_type_symbol
 _atom_site_label
 _atom_site_symmetry_multiplicity
 _atom_site_fract_x
 _atom_site_fract_y
 _atom_site_fract_z
 _atom_site_occupancy
  Ba  Ba0  1  0.000001  0.000001  0.499999  1
  Ba  Ba1  1  0.000002  0.000002  0.999999  1
  Ba  Ba2  1  0.000000  0.000000  0.750000  1
  Ba  Ba3  1  0.999999  0.000000  0.250000  1
  Zn  Zn4  1  0.333334  0.333333  0.349446  1
  Zn  Zn5  1  0.666664  0.666666  0.849445  1
  Zn  Zn6  1  0.333333  0.333332  0.150556  1
  Zn  Zn7  1  0.666669  0.666666  0.650555  1
  Bi  Bi8  1  0.333336  0.333336  0.610858  1
  Bi  Bi9  1  0.333335  0.333335  0.889138  1
  Bi  Bi10  1  0.666664  0.666665  0.389139  1
  Bi  Bi11  1  0.666663  0.666664  0.110859  1
  O  O12  1  0.333334  0.333334  0.250003  1
  O  O13  1  0.666667  0.666667  0.750002  1
