# generated using pymatgen
data_Ti8Al14GePtRh6
_symmetry_space_group_name_H-M   'P 1'
_cell_length_a   8.65565496
_cell_length_b   8.64259704
_cell_length_c   8.65898484
_cell_angle_alpha   119.92388350
_cell_angle_beta   119.85449751
_cell_angle_gamma   90.13158345
_symmetry_Int_Tables_number   1
_chemical_formula_structural   Ti8Al14GePtRh6
_chemical_formula_sum   'Ti8 Al14 Ge1 Pt1 Rh6'
_cell_volume   459.03884651
_cell_formula_units_Z   1
loop_
 _symmetry_equiv_pos_site_id
 _symmetry_equiv_pos_as_xyz
  1  'x, y, z'
loop_
 _atom_site_type_symbol
 _atom_site_label
 _atom_site_symmetry_multiplicity
 _atom_site_fract_x
 _atom_site_fract_y
 _atom_site_fract_z
 _atom_site_occupancy
  Ti  Ti0  1  0.794650  0.294131  0.082261  1
  Ti  Ti1  1  0.212738  0.293357  0.499103  1
  Ti  Ti2  1  0.206223  0.705997  0.500130  1
  Ti  Ti3  1  0.211397  0.712703  0.917143  1
  Ti  Ti4  1  0.794374  0.712630  0.501083  1
  Ti  Ti5  1  0.787013  0.287881  0.499916  1
  Ti  Ti6  1  0.383777  0.124725  0.746703  1
  Ti  Ti7  1  0.380395  0.636872  0.257843  1
  Al  Al8  1  0.157410  0.341229  0.184138  1
  Al  Al9  1  0.159090  0.973990  0.819374  1
  Al  Al10  1  0.154711  0.346097  0.813017  1
  Al  Al11  1  0.532308  0.342883  0.189889  1
  Al  Al12  1  0.841662  0.656461  0.814498  1
  Al  Al13  1  0.840224  0.027740  0.181957  1
  Al  Al14  1  0.838549  0.654649  0.178763  1
  Al  Al15  1  0.476239  0.657885  0.817534  1
  Al  Al16  1  0.379782  0.120945  0.259831  1
  Al  Al17  1  0.860271  0.121913  0.744215  1
  Al  Al18  1  0.616821  0.877235  0.254927  1
  Al  Al19  1  0.620153  0.362458  0.741176  1
  Al  Al20  1  0.620619  0.878089  0.741179  1
  Al  Al21  1  0.137777  0.877557  0.254849  1
  Ge  Ge22  1  0.997209  0.496718  0.499607  1
  Pt  Pt23  1  0.001369  0.999765  0.501101  1
  Rh  Rh24  1  0.498781  0.999773  0.999140  1
  Rh  Rh25  1  0.497842  0.498303  0.000959  1
  Rh  Rh26  1  0.498426  0.499664  0.498354  1
  Rh  Rh27  1  0.001217  0.499620  0.001168  1
  Rh  Rh28  1  0.000057  0.000050  0.999798  1
  Rh  Rh29  1  0.498914  0.998676  0.500343  1
