# generated using pymatgen
data_Ca4Ta2VInO12
_symmetry_space_group_name_H-M   'P 1'
_cell_length_a   5.70498650
_cell_length_b   5.52825367
_cell_length_c   9.64360362
_cell_angle_alpha   55.14660131
_cell_angle_beta   89.90391777
_cell_angle_gamma   90.35879570
_symmetry_Int_Tables_number   1
_chemical_formula_structural   Ca4Ta2VInO12
_chemical_formula_sum   'Ca4 Ta2 V1 In1 O12'
_cell_volume   249.57725224
_cell_formula_units_Z   1
loop_
 _symmetry_equiv_pos_site_id
 _symmetry_equiv_pos_as_xyz
  1  'x, y, z'
loop_
 _atom_site_type_symbol
 _atom_site_label
 _atom_site_symmetry_multiplicity
 _atom_site_fract_x
 _atom_site_fract_y
 _atom_site_fract_z
 _atom_site_occupancy
  Ca  Ca0  1  0.444322  0.227824  0.757861  1
  Ca  Ca1  1  0.555678  0.772176  0.242139  1
  Ca  Ca2  1  0.950475  0.758658  0.754507  1
  Ca  Ca3  1  0.049525  0.241342  0.245493  1
  Ta  Ta4  1  0.000000  0.500000  0.500000  1
  Ta  Ta5  1  0.500000  0.500000  0.000000  1
  V  V6  1  0.000000  0.000000  0.000000  1
  In  In7  1  0.500000  0.000000  0.500000  1
  O  O8  1  0.032714  0.349102  0.747134  1
  O  O9  1  0.967286  0.650898  0.252866  1
  O  O10  1  0.536336  0.636809  0.760735  1
  O  O11  1  0.463664  0.363191  0.239265  1
  O  O12  1  0.707198  0.837134  0.953937  1
  O  O13  1  0.292802  0.162866  0.046063  1
  O  O14  1  0.185835  0.153906  0.551776  1
  O  O15  1  0.814165  0.846094  0.448224  1
  O  O16  1  0.215859  0.753025  0.946940  1
  O  O17  1  0.784141  0.246975  0.053060  1
  O  O18  1  0.708282  0.259829  0.558087  1
  O  O19  1  0.291718  0.740171  0.441913  1
