# generated using pymatgen
data_Tb2Dy4YRhI12
_symmetry_space_group_name_H-M   'P 1'
_cell_length_a   9.82151776
_cell_length_b   9.82266635
_cell_length_c   9.81914822
_cell_angle_alpha   106.92377177
_cell_angle_beta   106.92401236
_cell_angle_gamma   106.93924847
_symmetry_Int_Tables_number   1
_chemical_formula_structural   Tb2Dy4YRhI12
_chemical_formula_sum   'Tb2 Dy4 Y1 Rh1 I12'
_cell_volume   790.43284815
_cell_formula_units_Z   1
loop_
 _symmetry_equiv_pos_site_id
 _symmetry_equiv_pos_as_xyz
  1  'x, y, z'
loop_
 _atom_site_type_symbol
 _atom_site_label
 _atom_site_symmetry_multiplicity
 _atom_site_fract_x
 _atom_site_fract_y
 _atom_site_fract_z
 _atom_site_occupancy
  Tb  Tb0  1  0.022877  0.296250  0.094972  1
  Tb  Tb1  1  0.296294  0.094758  0.022999  1
  Dy  Dy2  1  0.905225  0.976725  0.704616  1
  Dy  Dy3  1  0.976814  0.704846  0.905559  1
  Dy  Dy4  1  0.704845  0.905262  0.976954  1
  Dy  Dy5  1  0.094260  0.022683  0.295169  1
  Y  Y6  1  0.499962  0.499942  0.500021  1
  Rh  Rh7  1  0.999769  0.999739  0.999924  1
  I  I8  1  0.535903  0.837368  0.612925  1
  I  I9  1  0.837379  0.612965  0.535892  1
  I  I10  1  0.612927  0.535886  0.837363  1
  I  I11  1  0.464122  0.162527  0.387394  1
  I  I12  1  0.162670  0.386978  0.464519  1
  I  I13  1  0.387360  0.464547  0.162674  1
  I  I14  1  0.676030  0.224045  0.070560  1
  I  I15  1  0.223889  0.070459  0.675628  1
  I  I16  1  0.070628  0.676476  0.224291  1
  I  I17  1  0.323898  0.775251  0.929293  1
  I  I18  1  0.775875  0.929472  0.324003  1
  I  I19  1  0.929275  0.323821  0.775245  1
