# generated using pymatgen
data_Dy10Ga3TcBi2
_symmetry_space_group_name_H-M   'P 1'
_cell_length_a   8.71000082
_cell_length_b   8.71000128
_cell_length_c   8.83657951
_cell_angle_alpha   125.57432815
_cell_angle_beta   125.57432436
_cell_angle_gamma   79.60543243
_symmetry_Int_Tables_number   1
_chemical_formula_structural   Dy10Ga3TcBi2
_chemical_formula_sum   'Dy10 Ga3 Tc1 Bi2'
_cell_volume   430.65712093
_cell_formula_units_Z   1
loop_
 _symmetry_equiv_pos_site_id
 _symmetry_equiv_pos_as_xyz
  1  'x, y, z'
loop_
 _atom_site_type_symbol
 _atom_site_label
 _atom_site_symmetry_multiplicity
 _atom_site_fract_x
 _atom_site_fract_y
 _atom_site_fract_z
 _atom_site_occupancy
  Dy  Dy0  1  0.006933  0.004178  0.011112  1
  Dy  Dy1  1  0.495822  0.493067  0.988888  1
  Dy  Dy2  1  0.784451  0.298638  0.799840  1
  Dy  Dy3  1  0.201362  0.715549  0.200160  1
  Dy  Dy4  1  0.484610  0.998797  0.200160  1
  Dy  Dy5  1  0.307496  0.460605  0.500000  1
  Dy  Dy6  1  0.039395  0.192504  0.500000  1
  Dy  Dy7  1  0.501203  0.015390  0.799840  1
  Dy  Dy8  1  0.706610  0.518987  0.500000  1
  Dy  Dy9  1  0.981013  0.793390  0.500000  1
  Ga  Ga10  1  0.140600  0.645741  0.786342  1
  Ga  Ga11  1  0.854259  0.359400  0.213658  1
  Ga  Ga12  1  0.632647  0.867353  0.500000  1
  Tc  Tc13  1  0.375029  0.124971  0.500000  1
  Bi  Bi14  1  0.244285  0.255715  0.000000  1
  Bi  Bi15  1  0.744285  0.755715  0.000000  1
