# generated using pymatgen
data_Rb5Cr(MoH9)3
_symmetry_space_group_name_H-M   'P 1'
_cell_length_a   9.82750180
_cell_length_b   9.19679479
_cell_length_c   5.30565200
_cell_angle_alpha   90.00000000
_cell_angle_beta   90.00000000
_cell_angle_gamma   117.89880454
_symmetry_Int_Tables_number   1
_chemical_formula_structural   Rb5Cr(MoH9)3
_chemical_formula_sum   'Rb5 Cr1 Mo3 H27'
_cell_volume   423.79935823
_cell_formula_units_Z   1
loop_
 _symmetry_equiv_pos_site_id
 _symmetry_equiv_pos_as_xyz
  1  'x, y, z'
loop_
 _atom_site_type_symbol
 _atom_site_label
 _atom_site_symmetry_multiplicity
 _atom_site_fract_x
 _atom_site_fract_y
 _atom_site_fract_z
 _atom_site_occupancy
  Rb  Rb0  1  0.737561  0.752825  0.500000  1
  Rb  Rb1  1  0.262439  0.015264  0.500000  1
  Rb  Rb2  1  0.000000  0.619117  0.000000  1
  Rb  Rb3  1  0.430953  0.389611  0.000000  1
  Rb  Rb4  1  0.569047  0.958658  0.000000  1
  Cr  Cr5  1  0.000000  0.268292  0.500000  1
  Mo  Mo6  1  0.719874  0.319754  0.500000  1
  Mo  Mo7  1  0.280126  0.599881  0.500000  1
  Mo  Mo8  1  0.000000  0.072489  0.000000  1
  H  H9  1  0.889103  0.322226  0.685686  1
  H  H10  1  0.715517  0.414035  0.773024  1
  H  H11  1  0.563312  0.202533  0.689254  1
  H  H12  1  0.110897  0.433125  0.314314  1
  H  H13  1  0.563312  0.202533  0.310746  1
  H  H14  1  0.889103  0.322226  0.314314  1
  H  H15  1  0.715517  0.414035  0.226976  1
  H  H16  1  0.284483  0.698519  0.773024  1
  H  H17  1  0.436688  0.639222  0.689254  1
  H  H18  1  0.175105  0.071117  0.000000  1
  H  H19  1  0.824895  0.896011  0.000000  1
  H  H20  1  0.000000  0.259947  0.000000  1
  H  H21  1  0.886468  0.081078  0.263782  1
  H  H22  1  0.113532  0.194611  0.736218  1
  H  H23  1  0.000000  0.928428  0.784169  1
  H  H24  1  0.000000  0.928428  0.215831  1
  H  H25  1  0.113532  0.194611  0.263782  1
  H  H26  1  0.886468  0.081078  0.736218  1
  H  H27  1  0.145749  0.675024  0.500000  1
  H  H28  1  0.409698  0.807789  0.500000  1
  H  H29  1  0.307051  0.423176  0.500000  1
  H  H30  1  0.590302  0.398091  0.500000  1
  H  H31  1  0.854251  0.529275  0.500000  1
  H  H32  1  0.692949  0.116125  0.500000  1
  H  H33  1  0.110897  0.433125  0.685686  1
  H  H34  1  0.284483  0.698519  0.226976  1
  H  H35  1  0.436688  0.639222  0.310746  1
