# generated using pymatgen
data_Sm4Al15Si3(OsPd)3
_symmetry_space_group_name_H-M   'P 1'
_cell_length_a   7.61614751
_cell_length_b   7.59711423
_cell_length_c   9.44917914
_cell_angle_alpha   90.12365772
_cell_angle_beta   89.99269995
_cell_angle_gamma   119.85698500
_symmetry_Int_Tables_number   1
_chemical_formula_structural   Sm4Al15Si3(OsPd)3
_chemical_formula_sum   'Sm4 Al15 Si3 Os3 Pd3'
_cell_volume   474.16720456
_cell_formula_units_Z   1
loop_
 _symmetry_equiv_pos_site_id
 _symmetry_equiv_pos_as_xyz
  1  'x, y, z'
loop_
 _atom_site_type_symbol
 _atom_site_label
 _atom_site_symmetry_multiplicity
 _atom_site_fract_x
 _atom_site_fract_y
 _atom_site_fract_z
 _atom_site_occupancy
  Sm  Sm0  1  0.994501  0.666788  0.246968  1
  Sm  Sm1  1  0.006303  0.327556  0.753242  1
  Sm  Sm2  1  0.676357  0.998657  0.247705  1
  Sm  Sm3  1  0.326483  0.005466  0.750732  1
  Al  Al4  1  0.993932  0.668148  0.922749  1
  Al  Al5  1  0.996655  0.669429  0.577630  1
  Al  Al6  1  0.329808  0.002076  0.422421  1
  Al  Al7  1  0.003642  0.331523  0.428184  1
  Al  Al8  1  0.668214  0.997298  0.576190  1
  Al  Al9  1  0.664939  0.998546  0.924052  1
  Al  Al10  1  0.336143  0.006647  0.074953  1
  Al  Al11  1  0.333645  0.333595  0.558197  1
  Al  Al12  1  0.667778  0.668509  0.441244  1
  Al  Al13  1  0.671097  0.665156  0.052824  1
  Al  Al14  1  0.340233  0.332013  0.948978  1
  Al  Al15  1  0.331918  0.541152  0.248608  1
  Al  Al16  1  0.663669  0.452887  0.754563  1
  Al  Al17  1  0.543812  0.338256  0.246885  1
  Al  Al18  1  0.455393  0.662799  0.749733  1
  Si  Si19  1  0.128126  0.125479  0.251307  1
  Si  Si20  1  0.873193  0.875737  0.750863  1
  Si  Si21  1  0.992299  0.327482  0.068887  1
  Os  Os22  1  0.679059  0.329258  0.002223  1
  Os  Os23  1  0.000986  0.008734  0.001819  1
  Os  Os24  1  0.999647  0.000446  0.500554  1
  Pd  Pd25  1  0.322443  0.665167  0.999817  1
  Pd  Pd26  1  0.327907  0.672249  0.499128  1
  Pd  Pd27  1  0.671817  0.328947  0.499540  1
