# generated using pymatgen
data_LiPrInPt3
_symmetry_space_group_name_H-M   'P 1'
_cell_length_a   5.54290875
_cell_length_b   5.54290936
_cell_length_c   5.27310754
_cell_angle_alpha   58.29253398
_cell_angle_beta   58.29252963
_cell_angle_gamma   60.00000666
_symmetry_Int_Tables_number   1
_chemical_formula_structural   LiPrInPt3
_chemical_formula_sum   'Li1 Pr1 In1 Pt3'
_cell_volume   111.51228614
_cell_formula_units_Z   1
loop_
 _symmetry_equiv_pos_site_id
 _symmetry_equiv_pos_as_xyz
  1  'x, y, z'
loop_
 _atom_site_type_symbol
 _atom_site_label
 _atom_site_symmetry_multiplicity
 _atom_site_fract_x
 _atom_site_fract_y
 _atom_site_fract_z
 _atom_site_occupancy
  Li  Li0  1  0.620836  0.620836  0.137492  1
  Pr  Pr1  1  0.005566  0.005566  0.983303  1
  In  In2  1  0.255756  0.255756  0.232733  1
  Pt  Pt3  1  0.622453  0.122937  0.632157  1
  Pt  Pt4  1  0.122937  0.622453  0.632157  1
  Pt  Pt5  1  0.622453  0.622453  0.632157  1
