# generated using pymatgen
data_Yb4NiO6
_symmetry_space_group_name_H-M   'P 1'
_cell_length_a   6.32608451
_cell_length_b   6.32611917
_cell_length_c   6.32597824
_cell_angle_alpha   90.00026745
_cell_angle_beta   90.00161310
_cell_angle_gamma   90.00010848
_symmetry_Int_Tables_number   1
_chemical_formula_structural   Yb4NiO6
_chemical_formula_sum   'Yb8 Ni2 O12'
_cell_volume   253.16289374
_cell_formula_units_Z   2
loop_
 _symmetry_equiv_pos_site_id
 _symmetry_equiv_pos_as_xyz
  1  'x, y, z'
loop_
 _atom_site_type_symbol
 _atom_site_label
 _atom_site_symmetry_multiplicity
 _atom_site_fract_x
 _atom_site_fract_y
 _atom_site_fract_z
 _atom_site_occupancy
  Yb  Yb0  1  0.622287  0.877695  0.249952  1
  Yb  Yb1  1  0.877675  0.249982  0.622329  1
  Yb  Yb2  1  0.249991  0.622328  0.877611  1
  Yb  Yb3  1  0.122281  0.749973  0.377715  1
  Yb  Yb4  1  0.749978  0.377711  0.122217  1
  Yb  Yb5  1  0.377670  0.122300  0.749940  1
  Yb  Yb6  1  0.250017  0.250048  0.249961  1
  Yb  Yb7  1  0.750028  0.750056  0.749972  1
  Ni  Ni8  1  0.499936  0.499976  0.499885  1
  Ni  Ni9  1  0.000140  0.999873  0.000330  1
  O  O10  1  0.557858  0.211848  0.427085  1
  O  O11  1  0.211770  0.427195  0.557805  1
  O  O12  1  0.427141  0.557910  0.211716  1
  O  O13  1  0.057937  0.927264  0.712091  1
  O  O14  1  0.927284  0.711898  0.057995  1
  O  O15  1  0.712007  0.057915  0.927346  1
  O  O16  1  0.442052  0.788089  0.572656  1
  O  O17  1  0.788012  0.572761  0.441998  1
  O  O18  1  0.572709  0.442098  0.787959  1
  O  O19  1  0.942120  0.072838  0.288341  1
  O  O20  1  0.072854  0.288142  0.942173  1
  O  O21  1  0.288252  0.942102  0.072921  1
