# generated using pymatgen
data_Nd2Lu2ScGa4
_symmetry_space_group_name_H-M   'P 1'
_cell_length_a   7.52354000
_cell_length_b   7.81027500
_cell_length_c   15.05614900
_cell_angle_alpha   90.00000000
_cell_angle_beta   90.00000000
_cell_angle_gamma   90.00000000
_symmetry_Int_Tables_number   1
_chemical_formula_structural   Nd2Lu2ScGa4
_chemical_formula_sum   'Nd8 Lu8 Sc4 Ga16'
_cell_volume   884.71311230
_cell_formula_units_Z   4
loop_
 _symmetry_equiv_pos_site_id
 _symmetry_equiv_pos_as_xyz
  1  'x, y, z'
loop_
 _atom_site_type_symbol
 _atom_site_label
 _atom_site_symmetry_multiplicity
 _atom_site_fract_x
 _atom_site_fract_y
 _atom_site_fract_z
 _atom_site_occupancy
  Nd  Nd0  1  0.014604  0.179277  0.404284  1
  Nd  Nd1  1  0.514604  0.320723  0.404284  1
  Nd  Nd2  1  0.485396  0.679277  0.904284  1
  Nd  Nd3  1  0.485396  0.679277  0.595716  1
  Nd  Nd4  1  0.985396  0.820723  0.595716  1
  Nd  Nd5  1  0.985396  0.820723  0.904284  1
  Nd  Nd6  1  0.514604  0.320723  0.095716  1
  Nd  Nd7  1  0.014604  0.179277  0.095716  1
  Lu  Lu8  1  0.328575  0.172719  0.624954  1
  Lu  Lu9  1  0.671425  0.827281  0.375046  1
  Lu  Lu10  1  0.171425  0.672719  0.375046  1
  Lu  Lu11  1  0.828575  0.327281  0.875046  1
  Lu  Lu12  1  0.828575  0.327281  0.624954  1
  Lu  Lu13  1  0.328575  0.172719  0.875046  1
  Lu  Lu14  1  0.171425  0.672719  0.124954  1
  Lu  Lu15  1  0.671425  0.827281  0.124954  1
  Sc  Sc16  1  0.661427  0.995714  0.750000  1
  Sc  Sc17  1  0.838573  0.495714  0.250000  1
  Sc  Sc18  1  0.338573  0.004286  0.250000  1
  Sc  Sc19  1  0.161427  0.504286  0.750000  1
  Ga  Ga20  1  0.282597  0.872061  0.750000  1
  Ga  Ga21  1  0.472318  0.611611  0.250000  1
  Ga  Ga22  1  0.027682  0.111611  0.750000  1
  Ga  Ga23  1  0.527682  0.388389  0.750000  1
  Ga  Ga24  1  0.158050  0.466663  0.540779  1
  Ga  Ga25  1  0.972318  0.888389  0.250000  1
  Ga  Ga26  1  0.717403  0.127939  0.250000  1
  Ga  Ga27  1  0.841950  0.533337  0.040779  1
  Ga  Ga28  1  0.341950  0.966663  0.040779  1
  Ga  Ga29  1  0.158050  0.466663  0.959221  1
  Ga  Ga30  1  0.658050  0.033337  0.540779  1
  Ga  Ga31  1  0.341950  0.966663  0.459221  1
  Ga  Ga32  1  0.841950  0.533337  0.459221  1
  Ga  Ga33  1  0.782597  0.627939  0.750000  1
  Ga  Ga34  1  0.217403  0.372061  0.250000  1
  Ga  Ga35  1  0.658050  0.033337  0.959221  1
