# generated using pymatgen
data_Pr2SiNiBr
_symmetry_space_group_name_H-M   'P 1'
_cell_length_a   4.02847200
_cell_length_b   4.02847379
_cell_length_c   17.24615700
_cell_angle_alpha   90.00000000
_cell_angle_beta   90.00000000
_cell_angle_gamma   120.00001817
_symmetry_Int_Tables_number   1
_chemical_formula_structural   Pr2SiNiBr
_chemical_formula_sum   'Pr4 Si2 Ni2 Br2'
_cell_volume   242.38390561
_cell_formula_units_Z   2
loop_
 _symmetry_equiv_pos_site_id
 _symmetry_equiv_pos_as_xyz
  1  'x, y, z'
loop_
 _atom_site_type_symbol
 _atom_site_label
 _atom_site_symmetry_multiplicity
 _atom_site_fract_x
 _atom_site_fract_y
 _atom_site_fract_z
 _atom_site_occupancy
  Pr  Pr0  1  0.000000  0.000000  0.384761  1
  Pr  Pr1  1  0.000000  0.000000  0.884761  1
  Pr  Pr2  1  0.000000  0.000000  0.610189  1
  Pr  Pr3  1  0.000000  0.000000  0.110189  1
  Si  Si4  1  0.666667  0.333333  0.492837  1
  Si  Si5  1  0.333333  0.666667  0.992837  1
  Ni  Ni6  1  0.333333  0.666667  0.510408  1
  Ni  Ni7  1  0.666667  0.333333  0.010408  1
  Br  Br8  1  0.333333  0.666667  0.251804  1
  Br  Br9  1  0.666667  0.333333  0.751804  1
