# generated using pymatgen
data_Yb5Sm(Ni3As2)6
_symmetry_space_group_name_H-M   'P 1'
_cell_length_a   3.91523500
_cell_length_b   10.90503200
_cell_length_c   12.76119100
_cell_angle_alpha   90.00000000
_cell_angle_beta   90.00000000
_cell_angle_gamma   90.00000000
_symmetry_Int_Tables_number   1
_chemical_formula_structural   Yb5Sm(Ni3As2)6
_chemical_formula_sum   'Yb5 Sm1 Ni18 As12'
_cell_volume   544.84878606
_cell_formula_units_Z   1
loop_
 _symmetry_equiv_pos_site_id
 _symmetry_equiv_pos_as_xyz
  1  'x, y, z'
loop_
 _atom_site_type_symbol
 _atom_site_label
 _atom_site_symmetry_multiplicity
 _atom_site_fract_x
 _atom_site_fract_y
 _atom_site_fract_z
 _atom_site_occupancy
  Yb  Yb0  1  0.500000  0.000000  0.481288  1
  Yb  Yb1  1  0.500000  0.815299  0.207119  1
  Yb  Yb2  1  0.500000  0.184701  0.207119  1
  Yb  Yb3  1  0.000000  0.685442  0.793856  1
  Yb  Yb4  1  0.000000  0.314558  0.793856  1
  Sm  Sm5  1  0.000000  0.500000  0.518435  1
  Ni  Ni6  1  0.500000  0.500000  0.153803  1
  Ni  Ni7  1  0.000000  0.000000  0.845408  1
  Ni  Ni8  1  0.500000  0.500000  0.699458  1
  Ni  Ni9  1  0.000000  0.000000  0.301703  1
  Ni  Ni10  1  0.000000  0.500000  0.981172  1
  Ni  Ni11  1  0.500000  0.000000  0.019214  1
  Ni  Ni12  1  0.500000  0.332997  0.996468  1
  Ni  Ni13  1  0.500000  0.667003  0.996468  1
  Ni  Ni14  1  0.000000  0.166562  0.003387  1
  Ni  Ni15  1  0.000000  0.833438  0.003387  1
  Ni  Ni16  1  0.500000  0.301065  0.425088  1
  Ni  Ni17  1  0.500000  0.698935  0.425088  1
  Ni  Ni18  1  0.000000  0.198257  0.574118  1
  Ni  Ni19  1  0.000000  0.801743  0.574118  1
  Ni  Ni20  1  0.500000  0.879923  0.708586  1
  Ni  Ni21  1  0.500000  0.120077  0.708586  1
  Ni  Ni22  1  0.000000  0.621416  0.291606  1
  Ni  Ni23  1  0.000000  0.378584  0.291606  1
  As  As24  1  0.500000  0.500000  0.876251  1
  As  As25  1  0.000000  0.000000  0.124248  1
  As  As26  1  0.500000  0.500000  0.340574  1
  As  As27  1  0.000000  0.000000  0.656761  1
  As  As28  1  0.500000  0.311509  0.614321  1
  As  As29  1  0.500000  0.688491  0.614321  1
  As  As30  1  0.000000  0.186775  0.386583  1
  As  As31  1  0.000000  0.813225  0.386583  1
  As  As32  1  0.500000  0.848416  0.890966  1
  As  As33  1  0.500000  0.151584  0.890966  1
  As  As34  1  0.000000  0.652118  0.108743  1
  As  As35  1  0.000000  0.347882  0.108743  1
