# generated using pymatgen
data_Y6Nb4Al4Ga8Os7
_symmetry_space_group_name_H-M   'P 1'
_cell_length_a   9.03584858
_cell_length_b   9.03584861
_cell_length_c   9.03584700
_cell_angle_alpha   59.99999490
_cell_angle_beta   59.99999479
_cell_angle_gamma   59.99999452
_symmetry_Int_Tables_number   1
_chemical_formula_structural   Y6Nb4Al4Ga8Os7
_chemical_formula_sum   'Y6 Nb4 Al4 Ga8 Os7'
_cell_volume   521.66501131
_cell_formula_units_Z   1
loop_
 _symmetry_equiv_pos_site_id
 _symmetry_equiv_pos_as_xyz
  1  'x, y, z'
loop_
 _atom_site_type_symbol
 _atom_site_label
 _atom_site_symmetry_multiplicity
 _atom_site_fract_x
 _atom_site_fract_y
 _atom_site_fract_z
 _atom_site_occupancy
  Y  Y0  1  0.707993  0.707993  0.292007  1
  Y  Y1  1  0.292007  0.707993  0.292007  1
  Y  Y2  1  0.707993  0.292007  0.292007  1
  Y  Y3  1  0.292007  0.292007  0.707993  1
  Y  Y4  1  0.707993  0.292007  0.707993  1
  Y  Y5  1  0.292007  0.707993  0.707993  1
  Nb  Nb6  1  0.878626  0.878626  0.364123  1
  Nb  Nb7  1  0.878626  0.364123  0.878626  1
  Nb  Nb8  1  0.364123  0.878626  0.878626  1
  Nb  Nb9  1  0.878626  0.878626  0.878626  1
  Al  Al10  1  0.120675  0.120675  0.637973  1
  Al  Al11  1  0.120675  0.637973  0.120675  1
  Al  Al12  1  0.637973  0.120675  0.120675  1
  Al  Al13  1  0.120675  0.120675  0.120675  1
  Ga  Ga14  1  0.663674  0.663674  0.008978  1
  Ga  Ga15  1  0.663674  0.008978  0.663674  1
  Ga  Ga16  1  0.008978  0.663674  0.663674  1
  Ga  Ga17  1  0.663674  0.663674  0.663674  1
  Ga  Ga18  1  0.334323  0.334323  0.997031  1
  Ga  Ga19  1  0.334323  0.997031  0.334323  1
  Ga  Ga20  1  0.997031  0.334323  0.334323  1
  Ga  Ga21  1  0.334323  0.334323  0.334323  1
  Os  Os22  1  0.000000  0.000000  0.000000  1
  Os  Os23  1  0.997087  0.997087  0.502913  1
  Os  Os24  1  0.502913  0.997087  0.502913  1
  Os  Os25  1  0.997087  0.502913  0.502913  1
  Os  Os26  1  0.502913  0.502913  0.997087  1
  Os  Os27  1  0.997087  0.502913  0.997087  1
  Os  Os28  1  0.502913  0.997087  0.997087  1
