# generated using pymatgen
data_Tb9Sm8Er3Pb16
_symmetry_space_group_name_H-M   'P 1'
_cell_length_a   8.23217400
_cell_length_b   8.34817819
_cell_length_c   15.78354900
_cell_angle_alpha   90.00000000
_cell_angle_beta   90.00000000
_cell_angle_gamma   89.98781084
_symmetry_Int_Tables_number   1
_chemical_formula_structural   Tb9Sm8Er3Pb16
_chemical_formula_sum   'Tb9 Sm8 Er3 Pb16'
_cell_volume   1084.70315846
_cell_formula_units_Z   1
loop_
 _symmetry_equiv_pos_site_id
 _symmetry_equiv_pos_as_xyz
  1  'x, y, z'
loop_
 _atom_site_type_symbol
 _atom_site_label
 _atom_site_symmetry_multiplicity
 _atom_site_fract_x
 _atom_site_fract_y
 _atom_site_fract_z
 _atom_site_occupancy
  Tb  Tb0  1  0.628633  0.157985  0.621313  1
  Tb  Tb1  1  0.129561  0.341437  0.878593  1
  Tb  Tb2  1  0.370861  0.841901  0.121466  1
  Tb  Tb3  1  0.871018  0.657925  0.378073  1
  Tb  Tb4  1  0.370861  0.841901  0.378534  1
  Tb  Tb5  1  0.871018  0.657925  0.121927  1
  Tb  Tb6  1  0.628633  0.157985  0.878687  1
  Tb  Tb7  1  0.129561  0.341437  0.621407  1
  Tb  Tb8  1  0.795941  0.495717  0.750000  1
  Sm  Sm9  1  0.471619  0.678133  0.597858  1
  Sm  Sm10  1  0.972394  0.823297  0.902140  1
  Sm  Sm11  1  0.527935  0.322459  0.098192  1
  Sm  Sm12  1  0.028162  0.177455  0.402248  1
  Sm  Sm13  1  0.527935  0.322459  0.401808  1
  Sm  Sm14  1  0.028162  0.177455  0.097752  1
  Sm  Sm15  1  0.471619  0.678133  0.902142  1
  Sm  Sm16  1  0.972394  0.823297  0.597860  1
  Er  Er17  1  0.295216  0.005329  0.750000  1
  Er  Er18  1  0.204109  0.504899  0.250000  1
  Er  Er19  1  0.703945  0.994935  0.250000  1
  Pb  Pb20  1  0.712163  0.962441  0.456413  1
  Pb  Pb21  1  0.212108  0.536909  0.043571  1
  Pb  Pb22  1  0.288077  0.037035  0.956219  1
  Pb  Pb23  1  0.788070  0.462591  0.543039  1
  Pb  Pb24  1  0.288077  0.037035  0.543781  1
  Pb  Pb25  1  0.788070  0.462591  0.956961  1
  Pb  Pb26  1  0.712163  0.962441  0.043587  1
  Pb  Pb27  1  0.212108  0.536909  0.456429  1
  Pb  Pb28  1  0.432220  0.373265  0.750000  1
  Pb  Pb29  1  0.933506  0.125300  0.750000  1
  Pb  Pb30  1  0.566305  0.625545  0.250000  1
  Pb  Pb31  1  0.066595  0.874637  0.250000  1
  Pb  Pb32  1  0.659722  0.848536  0.750000  1
  Pb  Pb33  1  0.160311  0.653708  0.750000  1
  Pb  Pb34  1  0.340210  0.153513  0.250000  1
  Pb  Pb35  1  0.840715  0.345477  0.250000  1
