# generated using pymatgen
data_CaSb12PdRu3
_symmetry_space_group_name_H-M   'P 1'
_cell_length_a   8.15421687
_cell_length_b   8.15421666
_cell_length_c   8.15421539
_cell_angle_alpha   109.40345590
_cell_angle_beta   109.40345502
_cell_angle_gamma   109.40345371
_symmetry_Int_Tables_number   1
_chemical_formula_structural   CaSb12PdRu3
_chemical_formula_sum   'Ca1 Sb12 Pd1 Ru3'
_cell_volume   418.41732260
_cell_formula_units_Z   1
loop_
 _symmetry_equiv_pos_site_id
 _symmetry_equiv_pos_as_xyz
  1  'x, y, z'
loop_
 _atom_site_type_symbol
 _atom_site_label
 _atom_site_symmetry_multiplicity
 _atom_site_fract_x
 _atom_site_fract_y
 _atom_site_fract_z
 _atom_site_occupancy
  Ca  Ca0  1  0.000000  0.000000  0.000000  1
  Sb  Sb1  1  0.661657  0.849924  0.502607  1
  Sb  Sb2  1  0.338343  0.150076  0.497393  1
  Sb  Sb3  1  0.841269  0.179250  0.337258  1
  Sb  Sb4  1  0.820750  0.662742  0.158731  1
  Sb  Sb5  1  0.849924  0.502607  0.661657  1
  Sb  Sb6  1  0.179250  0.337258  0.841269  1
  Sb  Sb7  1  0.158731  0.820750  0.662742  1
  Sb  Sb8  1  0.502607  0.661657  0.849924  1
  Sb  Sb9  1  0.497393  0.338343  0.150076  1
  Sb  Sb10  1  0.150076  0.497393  0.338343  1
  Sb  Sb11  1  0.337258  0.841269  0.179250  1
  Sb  Sb12  1  0.662742  0.158731  0.820750  1
  Pd  Pd13  1  0.500000  0.500000  0.500000  1
  Ru  Ru14  1  0.000000  0.000000  0.500000  1
  Ru  Ru15  1  0.500000  0.000000  0.000000  1
  Ru  Ru16  1  0.000000  0.500000  0.000000  1
