# generated using pymatgen
data_Sr2TlIr4PbO14
_symmetry_space_group_name_H-M   'P 1'
_cell_length_a   7.34371405
_cell_length_b   7.35752567
_cell_length_c   7.33048898
_cell_angle_alpha   60.72183660
_cell_angle_beta   60.66486233
_cell_angle_gamma   60.84121985
_symmetry_Int_Tables_number   1
_chemical_formula_structural   Sr2TlIr4PbO14
_chemical_formula_sum   'Sr2 Tl1 Ir4 Pb1 O14'
_cell_volume   284.76097017
_cell_formula_units_Z   1
loop_
 _symmetry_equiv_pos_site_id
 _symmetry_equiv_pos_as_xyz
  1  'x, y, z'
loop_
 _atom_site_type_symbol
 _atom_site_label
 _atom_site_symmetry_multiplicity
 _atom_site_fract_x
 _atom_site_fract_y
 _atom_site_fract_z
 _atom_site_occupancy
  Sr  Sr0  1  0.625000  0.125000  0.125000  1
  Sr  Sr1  1  0.125000  0.625000  0.125000  1
  Tl  Tl2  1  0.125000  0.125000  0.125000  1
  Ir  Ir3  1  0.125000  0.625000  0.625000  1
  Ir  Ir4  1  0.625000  0.125000  0.625000  1
  Ir  Ir5  1  0.625000  0.625000  0.125000  1
  Ir  Ir6  1  0.625000  0.625000  0.625000  1
  Pb  Pb7  1  0.125000  0.125000  0.625000  1
  O  O8  1  0.699833  0.699629  0.300939  1
  O  O9  1  0.300461  0.300816  0.692457  1
  O  O10  1  0.709511  0.300194  0.690191  1
  O  O11  1  0.301754  0.704926  0.304369  1
  O  O12  1  0.300129  0.709251  0.690179  1
  O  O13  1  0.705196  0.301854  0.303923  1
  O  O14  1  0.550167  0.550371  0.949061  1
  O  O15  1  0.949539  0.949184  0.557543  1
  O  O16  1  0.540489  0.949806  0.559809  1
  O  O17  1  0.948246  0.545074  0.945631  1
  O  O18  1  0.949871  0.540749  0.559821  1
  O  O19  1  0.544804  0.948146  0.946077  1
  O  O20  1  0.234156  0.234217  0.255956  1
  O  O21  1  0.015844  0.015783  0.994044  1
