# generated using pymatgen
data_YCo4P3Ru
_symmetry_space_group_name_H-M   'P 1'
_cell_length_a   3.69232900
_cell_length_b   10.39621900
_cell_length_c   11.78533800
_cell_angle_alpha   90.00000000
_cell_angle_beta   90.00000000
_cell_angle_gamma   90.00000000
_symmetry_Int_Tables_number   1
_chemical_formula_structural   YCo4P3Ru
_chemical_formula_sum   'Y4 Co16 P12 Ru4'
_cell_volume   452.39505931
_cell_formula_units_Z   4
loop_
 _symmetry_equiv_pos_site_id
 _symmetry_equiv_pos_as_xyz
  1  'x, y, z'
loop_
 _atom_site_type_symbol
 _atom_site_label
 _atom_site_symmetry_multiplicity
 _atom_site_fract_x
 _atom_site_fract_y
 _atom_site_fract_z
 _atom_site_occupancy
  Y  Y0  1  0.250000  0.914012  0.203953  1
  Y  Y1  1  0.750000  0.085988  0.796047  1
  Y  Y2  1  0.750000  0.414012  0.296047  1
  Y  Y3  1  0.250000  0.585988  0.703953  1
  Co  Co4  1  0.250000  0.091371  0.989680  1
  Co  Co5  1  0.750000  0.908629  0.010320  1
  Co  Co6  1  0.750000  0.591371  0.510320  1
  Co  Co7  1  0.250000  0.408629  0.489680  1
  Co  Co8  1  0.250000  0.278660  0.676842  1
  Co  Co9  1  0.750000  0.721340  0.323158  1
  Co  Co10  1  0.750000  0.778660  0.823158  1
  Co  Co11  1  0.250000  0.221340  0.176842  1
  Co  Co12  1  0.250000  0.613182  0.202443  1
  Co  Co13  1  0.750000  0.386818  0.797557  1
  Co  Co14  1  0.750000  0.113182  0.297557  1
  Co  Co15  1  0.250000  0.886818  0.702443  1
  Co  Co16  1  0.250000  0.034965  0.430630  1
  Co  Co17  1  0.750000  0.965035  0.569370  1
  Co  Co18  1  0.750000  0.534965  0.069370  1
  Co  Co19  1  0.250000  0.465035  0.930630  1
  P  P20  1  0.250000  0.080086  0.611842  1
  P  P21  1  0.750000  0.919914  0.388158  1
  P  P22  1  0.750000  0.580086  0.888158  1
  P  P23  1  0.250000  0.419914  0.111842  1
  P  P24  1  0.250000  0.228433  0.367189  1
  P  P25  1  0.750000  0.771567  0.632811  1
  P  P26  1  0.750000  0.728433  0.132811  1
  P  P27  1  0.250000  0.271567  0.867189  1
  P  P28  1  0.250000  0.903880  0.890228  1
  P  P29  1  0.750000  0.096120  0.109772  1
  P  P30  1  0.750000  0.403880  0.609772  1
  P  P31  1  0.250000  0.596120  0.390228  1
  Ru  Ru32  1  0.250000  0.783370  0.492161  1
  Ru  Ru33  1  0.750000  0.216630  0.507839  1
  Ru  Ru34  1  0.750000  0.283370  0.007839  1
  Ru  Ru35  1  0.250000  0.716630  0.992161  1
