# generated using pymatgen
data_Hf3Zr3AlFeSe
_symmetry_space_group_name_H-M   'P 1'
_cell_length_a   3.41866400
_cell_length_b   7.72197317
_cell_length_c   7.72166401
_cell_angle_alpha   60.00151485
_cell_angle_beta   90.00000000
_cell_angle_gamma   90.00000000
_symmetry_Int_Tables_number   1
_chemical_formula_structural   Hf3Zr3AlFeSe
_chemical_formula_sum   'Hf3 Zr3 Al1 Fe1 Se1'
_cell_volume   176.53583177
_cell_formula_units_Z   1
loop_
 _symmetry_equiv_pos_site_id
 _symmetry_equiv_pos_as_xyz
  1  'x, y, z'
loop_
 _atom_site_type_symbol
 _atom_site_label
 _atom_site_symmetry_multiplicity
 _atom_site_fract_x
 _atom_site_fract_y
 _atom_site_fract_z
 _atom_site_occupancy
  Hf  Hf0  1  0.000000  0.247417  0.758183  1
  Hf  Hf1  1  0.000000  0.758182  0.994428  1
  Hf  Hf2  1  0.000000  0.994374  0.247419  1
  Zr  Zr3  1  0.500000  0.588101  0.401624  1
  Zr  Zr4  1  0.500000  0.401587  0.010303  1
  Zr  Zr5  1  0.500000  0.010240  0.588144  1
  Al  Al6  1  0.000000  0.666654  0.666687  1
  Fe  Fe7  1  0.500000  0.000043  0.999956  1
  Se  Se8  1  0.000000  0.333303  0.333359  1
