# generated using pymatgen
data_Zr4P4Os3Pd
_symmetry_space_group_name_H-M   'P 1'
_cell_length_a   3.88632400
_cell_length_b   6.54453553
_cell_length_c   7.42259754
_cell_angle_alpha   89.48510938
_cell_angle_beta   90.00000000
_cell_angle_gamma   90.00000000
_symmetry_Int_Tables_number   1
_chemical_formula_structural   Zr4P4Os3Pd
_chemical_formula_sum   'Zr4 P4 Os3 Pd1'
_cell_volume   188.78009969
_cell_formula_units_Z   1
loop_
 _symmetry_equiv_pos_site_id
 _symmetry_equiv_pos_as_xyz
  1  'x, y, z'
loop_
 _atom_site_type_symbol
 _atom_site_label
 _atom_site_symmetry_multiplicity
 _atom_site_fract_x
 _atom_site_fract_y
 _atom_site_fract_z
 _atom_site_occupancy
  Zr  Zr0  1  0.250000  0.018510  0.824720  1
  Zr  Zr1  1  0.250000  0.522964  0.680563  1
  Zr  Zr2  1  0.750000  0.970939  0.175479  1
  Zr  Zr3  1  0.750000  0.478942  0.321789  1
  P  P4  1  0.250000  0.761399  0.380421  1
  P  P5  1  0.250000  0.271639  0.109951  1
  P  P6  1  0.750000  0.228076  0.636814  1
  P  P7  1  0.750000  0.725368  0.876694  1
  Os  Os8  1  0.250000  0.653760  0.059585  1
  Os  Os9  1  0.750000  0.857419  0.557039  1
  Os  Os10  1  0.750000  0.356998  0.944777  1
  Pd  Pd11  1  0.250000  0.153986  0.432168  1
