# generated using pymatgen
data_La4SeI6
_symmetry_space_group_name_H-M   'P 1'
_cell_length_a   4.45446300
_cell_length_b   14.75567600
_cell_length_c   15.36910400
_cell_angle_alpha   90.00000000
_cell_angle_beta   90.00000000
_cell_angle_gamma   90.00000000
_symmetry_Int_Tables_number   1
_chemical_formula_structural   La4SeI6
_chemical_formula_sum   'La8 Se2 I12'
_cell_volume   1010.18988562
_cell_formula_units_Z   2
loop_
 _symmetry_equiv_pos_site_id
 _symmetry_equiv_pos_as_xyz
  1  'x, y, z'
loop_
 _atom_site_type_symbol
 _atom_site_label
 _atom_site_symmetry_multiplicity
 _atom_site_fract_x
 _atom_site_fract_y
 _atom_site_fract_z
 _atom_site_occupancy
  La  La0  1  0.000000  0.105016  0.080807  1
  La  La1  1  0.000000  0.894984  0.919193  1
  La  La2  1  0.000000  0.605016  0.419193  1
  La  La3  1  0.000000  0.394984  0.580807  1
  La  La4  1  0.500000  0.124424  0.851976  1
  La  La5  1  0.500000  0.875576  0.148024  1
  La  La6  1  0.500000  0.624424  0.648024  1
  La  La7  1  0.500000  0.375576  0.351976  1
  Se  Se8  1  0.500000  0.000000  0.000000  1
  Se  Se9  1  0.500000  0.500000  0.500000  1
  I  I10  1  0.500000  0.263131  0.677880  1
  I  I11  1  0.500000  0.736869  0.322120  1
  I  I12  1  0.500000  0.763131  0.822120  1
  I  I13  1  0.500000  0.236869  0.177880  1
  I  I14  1  0.000000  0.261637  0.930087  1
  I  I15  1  0.000000  0.738363  0.069913  1
  I  I16  1  0.000000  0.485295  0.240350  1
  I  I17  1  0.000000  0.514705  0.759650  1
  I  I18  1  0.000000  0.985295  0.259650  1
  I  I19  1  0.000000  0.014705  0.740350  1
  I  I20  1  0.000000  0.238363  0.430087  1
  I  I21  1  0.000000  0.761637  0.569913  1
