# generated using pymatgen
data_Mg(S8Cl)3
_symmetry_space_group_name_H-M   'P 1'
_cell_length_a   14.87963274
_cell_length_b   14.87963265
_cell_length_c   14.87963326
_cell_angle_alpha   118.72729719
_cell_angle_beta   118.72729860
_cell_angle_gamma   118.72728753
_symmetry_Int_Tables_number   1
_chemical_formula_structural   Mg(S8Cl)3
_chemical_formula_sum   'Mg1 S24 Cl3'
_cell_volume   959.79756755
_cell_formula_units_Z   1
loop_
 _symmetry_equiv_pos_site_id
 _symmetry_equiv_pos_as_xyz
  1  'x, y, z'
loop_
 _atom_site_type_symbol
 _atom_site_label
 _atom_site_symmetry_multiplicity
 _atom_site_fract_x
 _atom_site_fract_y
 _atom_site_fract_z
 _atom_site_occupancy
  Mg  Mg0  1  0.059563  0.059563  0.059563  1
  S  S1  1  0.022277  0.623275  0.623275  1
  S  S2  1  0.623275  0.623275  0.022277  1
  S  S3  1  0.623275  0.022277  0.623275  1
  S  S4  1  0.233479  0.846168  0.715411  1
  S  S5  1  0.846168  0.715411  0.233479  1
  S  S6  1  0.715411  0.233479  0.846168  1
  S  S7  1  0.846168  0.233479  0.715411  1
  S  S8  1  0.233479  0.715411  0.846168  1
  S  S9  1  0.715411  0.846168  0.233479  1
  S  S10  1  0.098783  0.625922  0.443465  1
  S  S11  1  0.625922  0.443465  0.098783  1
  S  S12  1  0.443465  0.098783  0.625922  1
  S  S13  1  0.625922  0.098783  0.443465  1
  S  S14  1  0.098783  0.443465  0.625922  1
  S  S15  1  0.443465  0.625922  0.098783  1
  S  S16  1  0.354720  0.738936  0.607266  1
  S  S17  1  0.738936  0.607266  0.354720  1
  S  S18  1  0.607266  0.354720  0.738936  1
  S  S19  1  0.738936  0.354720  0.607266  1
  S  S20  1  0.354720  0.607266  0.738936  1
  S  S21  1  0.607266  0.738936  0.354720  1
  S  S22  1  0.201260  0.470911  0.470911  1
  S  S23  1  0.470911  0.470911  0.201260  1
  S  S24  1  0.470911  0.201260  0.470911  1
  Cl  Cl25  1  0.184961  0.031182  0.031182  1
  Cl  Cl26  1  0.031182  0.031182  0.184961  1
  Cl  Cl27  1  0.031182  0.184961  0.031182  1
