# generated using pymatgen
data_Ga12Tc2IrRh
_symmetry_space_group_name_H-M   'P 1'
_cell_length_a   6.58449306
_cell_length_b   6.58449286
_cell_length_c   6.80460100
_cell_angle_alpha   90.00000000
_cell_angle_beta   90.00000000
_cell_angle_gamma   89.73660083
_symmetry_Int_Tables_number   1
_chemical_formula_structural   Ga12Tc2IrRh
_chemical_formula_sum   'Ga12 Tc2 Ir1 Rh1'
_cell_volume   295.01408478
_cell_formula_units_Z   1
loop_
 _symmetry_equiv_pos_site_id
 _symmetry_equiv_pos_as_xyz
  1  'x, y, z'
loop_
 _atom_site_type_symbol
 _atom_site_label
 _atom_site_symmetry_multiplicity
 _atom_site_fract_x
 _atom_site_fract_y
 _atom_site_fract_z
 _atom_site_occupancy
  Ga  Ga0  1  0.999924  0.500355  0.500000  1
  Ga  Ga1  1  0.500906  0.998176  0.000000  1
  Ga  Ga2  1  0.500355  0.999924  0.500000  1
  Ga  Ga3  1  0.998176  0.500906  0.000000  1
  Ga  Ga4  1  0.346574  0.653364  0.239603  1
  Ga  Ga5  1  0.653364  0.346574  0.239603  1
  Ga  Ga6  1  0.156407  0.156407  0.730721  1
  Ga  Ga7  1  0.843204  0.843204  0.730966  1
  Ga  Ga8  1  0.653364  0.346574  0.760397  1
  Ga  Ga9  1  0.346574  0.653364  0.760397  1
  Ga  Ga10  1  0.843204  0.843204  0.269034  1
  Ga  Ga11  1  0.156407  0.156407  0.269279  1
  Tc  Tc12  1  0.161026  0.839542  0.500000  1
  Tc  Tc13  1  0.839542  0.161026  0.500000  1
  Ir  Ir14  1  0.342257  0.342257  0.000000  1
  Rh  Rh15  1  0.658712  0.658712  0.000000  1
