# generated using pymatgen
data_Yb2DyHo(Ga2Ag)4
_symmetry_space_group_name_H-M   'P 1'
_cell_length_a   4.34989800
_cell_length_b   6.96478560
_cell_length_c   10.34155602
_cell_angle_alpha   90.62337412
_cell_angle_beta   90.00000000
_cell_angle_gamma   90.00000000
_symmetry_Int_Tables_number   1
_chemical_formula_structural   Yb2DyHo(Ga2Ag)4
_chemical_formula_sum   'Yb2 Dy1 Ho1 Ga8 Ag4'
_cell_volume   313.29034367
_cell_formula_units_Z   1
loop_
 _symmetry_equiv_pos_site_id
 _symmetry_equiv_pos_as_xyz
  1  'x, y, z'
loop_
 _atom_site_type_symbol
 _atom_site_label
 _atom_site_symmetry_multiplicity
 _atom_site_fract_x
 _atom_site_fract_y
 _atom_site_fract_z
 _atom_site_occupancy
  Yb  Yb0  1  0.750000  0.723771  0.328323  1
  Yb  Yb1  1  0.250000  0.276222  0.671593  1
  Dy  Dy2  1  0.250000  0.777161  0.828159  1
  Ho  Ho3  1  0.750000  0.222905  0.171746  1
  Ga  Ga4  1  0.250000  0.702095  0.534899  1
  Ga  Ga5  1  0.750000  0.297694  0.464840  1
  Ga  Ga6  1  0.750000  0.796535  0.035976  1
  Ga  Ga7  1  0.250000  0.203703  0.964323  1
  Ga  Ga8  1  0.250000  0.927382  0.150974  1
  Ga  Ga9  1  0.750000  0.073190  0.849143  1
  Ga  Ga10  1  0.750000  0.572315  0.651716  1
  Ga  Ga11  1  0.250000  0.427473  0.348084  1
  Ag  Ag12  1  0.250000  0.542320  0.099428  1
  Ag  Ag13  1  0.750000  0.457208  0.900880  1
  Ag  Ag14  1  0.750000  0.959848  0.598856  1
  Ag  Ag15  1  0.250000  0.040177  0.401060  1
