# generated using pymatgen
data_LaHo3(PPt)4
_symmetry_space_group_name_H-M   'P 1'
_cell_length_a   4.13730800
_cell_length_b   4.13730901
_cell_length_c   15.86895700
_cell_angle_alpha   90.00000000
_cell_angle_beta   90.00000000
_cell_angle_gamma   119.99999191
_symmetry_Int_Tables_number   1
_chemical_formula_structural   LaHo3(PPt)4
_chemical_formula_sum   'La1 Ho3 P4 Pt4'
_cell_volume   235.24199975
_cell_formula_units_Z   1
loop_
 _symmetry_equiv_pos_site_id
 _symmetry_equiv_pos_as_xyz
  1  'x, y, z'
loop_
 _atom_site_type_symbol
 _atom_site_label
 _atom_site_symmetry_multiplicity
 _atom_site_fract_x
 _atom_site_fract_y
 _atom_site_fract_z
 _atom_site_occupancy
  La  La0  1  0.000000  0.000000  0.500000  1
  Ho  Ho1  1  0.000000  0.000000  0.000000  1
  Ho  Ho2  1  0.000000  0.000000  0.243742  1
  Ho  Ho3  1  0.000000  0.000000  0.756258  1
  P  P4  1  0.333333  0.666667  0.884938  1
  P  P5  1  0.666667  0.333333  0.115062  1
  P  P6  1  0.666667  0.333333  0.371113  1
  P  P7  1  0.333333  0.666667  0.628887  1
  Pt  Pt8  1  0.333333  0.666667  0.358222  1
  Pt  Pt9  1  0.666667  0.333333  0.641778  1
  Pt  Pt10  1  0.666667  0.333333  0.871747  1
  Pt  Pt11  1  0.333333  0.666667  0.128253  1
