# generated using pymatgen
data_La2TcPtF14
_symmetry_space_group_name_H-M   'P 1'
_cell_length_a   5.82140400
_cell_length_b   9.33048731
_cell_length_c   12.49940877
_cell_angle_alpha   62.02284845
_cell_angle_beta   90.00000000
_cell_angle_gamma   90.00000000
_symmetry_Int_Tables_number   1
_chemical_formula_structural   La2TcPtF14
_chemical_formula_sum   'La4 Tc2 Pt2 F28'
_cell_volume   599.58188872
_cell_formula_units_Z   2
loop_
 _symmetry_equiv_pos_site_id
 _symmetry_equiv_pos_as_xyz
  1  'x, y, z'
loop_
 _atom_site_type_symbol
 _atom_site_label
 _atom_site_symmetry_multiplicity
 _atom_site_fract_x
 _atom_site_fract_y
 _atom_site_fract_z
 _atom_site_occupancy
  La  La0  1  0.758967  0.810940  0.265086  1
  La  La1  1  0.258967  0.189060  0.234914  1
  La  La2  1  0.240639  0.190021  0.735007  1
  La  La3  1  0.740639  0.809979  0.764993  1
  Tc  Tc4  1  0.755927  0.274192  0.456684  1
  Tc  Tc5  1  0.255927  0.725808  0.043316  1
  Pt  Pt6  1  0.243212  0.726253  0.543223  1
  Pt  Pt7  1  0.743212  0.273747  0.956777  1
  F  F8  1  0.965042  0.714017  0.457841  1
  F  F9  1  0.465042  0.285983  0.042159  1
  F  F10  1  0.033920  0.284292  0.543084  1
  F  F11  1  0.533920  0.715708  0.956916  1
  F  F12  1  0.057022  0.709748  0.922852  1
  F  F13  1  0.557022  0.290252  0.577148  1
  F  F14  1  0.940829  0.293162  0.077264  1
  F  F15  1  0.440829  0.706838  0.422736  1
  F  F16  1  0.737290  0.512192  0.860999  1
  F  F17  1  0.237290  0.487808  0.639001  1
  F  F18  1  0.263497  0.487775  0.138795  1
  F  F19  1  0.763497  0.512225  0.361205  1
  F  F20  1  0.741110  0.035163  0.048828  1
  F  F21  1  0.241110  0.964837  0.451172  1
  F  F22  1  0.258996  0.962874  0.949538  1
  F  F23  1  0.758996  0.037126  0.550462  1
  F  F24  1  0.049243  0.742380  0.666473  1
  F  F25  1  0.549243  0.257620  0.833527  1
  F  F26  1  0.951944  0.257420  0.334131  1
  F  F27  1  0.451944  0.742580  0.165869  1
  F  F28  1  0.016373  0.268552  0.865999  1
  F  F29  1  0.516373  0.731448  0.634001  1
  F  F30  1  0.985089  0.731801  0.134934  1
  F  F31  1  0.485089  0.268199  0.365066  1
  F  F32  1  0.087400  0.968780  0.231605  1
  F  F33  1  0.587400  0.031220  0.268395  1
  F  F34  1  0.913499  0.030344  0.768097  1
  F  F35  1  0.413499  0.969656  0.731903  1
