# generated using pymatgen
data_Rb3YGe2O7
_symmetry_space_group_name_H-M   'P 1'
_cell_length_a   6.00722900
_cell_length_b   6.00722882
_cell_length_c   14.84405800
_cell_angle_alpha   90.00000000
_cell_angle_beta   90.00000000
_cell_angle_gamma   119.99999549
_symmetry_Int_Tables_number   1
_chemical_formula_structural   Rb3YGe2O7
_chemical_formula_sum   'Rb6 Y2 Ge4 O14'
_cell_volume   463.90778082
_cell_formula_units_Z   2
loop_
 _symmetry_equiv_pos_site_id
 _symmetry_equiv_pos_as_xyz
  1  'x, y, z'
loop_
 _atom_site_type_symbol
 _atom_site_label
 _atom_site_symmetry_multiplicity
 _atom_site_fract_x
 _atom_site_fract_y
 _atom_site_fract_z
 _atom_site_occupancy
  Rb  Rb0  1  0.333333  0.666667  0.405574  1
  Rb  Rb1  1  0.000000  0.000000  0.250000  1
  Rb  Rb2  1  0.666667  0.333333  0.594426  1
  Rb  Rb3  1  0.333333  0.666667  0.094426  1
  Rb  Rb4  1  0.666667  0.333333  0.905574  1
  Rb  Rb5  1  0.000000  0.000000  0.750000  1
  Y  Y6  1  0.000000  0.000000  0.500000  1
  Y  Y7  1  0.000000  0.000000  0.000000  1
  Ge  Ge8  1  0.333333  0.666667  0.628733  1
  Ge  Ge9  1  0.666667  0.333333  0.371267  1
  Ge  Ge10  1  0.666667  0.333333  0.128733  1
  Ge  Ge11  1  0.333333  0.666667  0.871267  1
  O  O12  1  0.344926  0.172463  0.407454  1
  O  O13  1  0.827537  0.172463  0.092546  1
  O  O14  1  0.172463  0.344926  0.592546  1
  O  O15  1  0.172463  0.827537  0.907454  1
  O  O16  1  0.655074  0.827537  0.907454  1
  O  O17  1  0.655074  0.827537  0.592546  1
  O  O18  1  0.344926  0.172463  0.092546  1
  O  O19  1  0.172463  0.827537  0.592546  1
  O  O20  1  0.827537  0.172463  0.407454  1
  O  O21  1  0.172463  0.344926  0.907454  1
  O  O22  1  0.827537  0.655074  0.092546  1
  O  O23  1  0.827537  0.655074  0.407454  1
  O  O24  1  0.666667  0.333333  0.250000  1
  O  O25  1  0.333333  0.666667  0.750000  1
