# generated using pymatgen
data_Ho8VOs3C8
_symmetry_space_group_name_H-M   'P 1'
_cell_length_a   5.08452800
_cell_length_b   6.50224047
_cell_length_c   9.78717735
_cell_angle_alpha   89.80410058
_cell_angle_beta   90.00000000
_cell_angle_gamma   90.00000000
_symmetry_Int_Tables_number   1
_chemical_formula_structural   Ho8VOs3C8
_chemical_formula_sum   'Ho8 V1 Os3 C8'
_cell_volume   323.57025388
_cell_formula_units_Z   1
loop_
 _symmetry_equiv_pos_site_id
 _symmetry_equiv_pos_as_xyz
  1  'x, y, z'
loop_
 _atom_site_type_symbol
 _atom_site_label
 _atom_site_symmetry_multiplicity
 _atom_site_fract_x
 _atom_site_fract_y
 _atom_site_fract_z
 _atom_site_occupancy
  Ho  Ho0  1  0.250000  0.684597  0.557726  1
  Ho  Ho1  1  0.750000  0.319573  0.444500  1
  Ho  Ho2  1  0.750000  0.818176  0.054626  1
  Ho  Ho3  1  0.250000  0.177509  0.942679  1
  Ho  Ho4  1  0.250000  0.531968  0.214004  1
  Ho  Ho5  1  0.750000  0.469433  0.779251  1
  Ho  Ho6  1  0.750000  0.973248  0.717154  1
  Ho  Ho7  1  0.250000  0.028282  0.282603  1
  V  V8  1  0.250000  0.723851  0.866476  1
  Os  Os9  1  0.750000  0.276985  0.134389  1
  Os  Os10  1  0.750000  0.776207  0.364545  1
  Os  Os11  1  0.250000  0.226489  0.634862  1
  C  C12  1  0.250000  0.460122  0.762139  1
  C  C13  1  0.750000  0.541042  0.242645  1
  C  C14  1  0.750000  0.041785  0.258796  1
  C  C15  1  0.250000  0.957779  0.741681  1
  C  C16  1  0.250000  0.819136  0.051429  1
  C  C17  1  0.750000  0.174946  0.950615  1
  C  C18  1  0.750000  0.676489  0.551313  1
  C  C19  1  0.250000  0.322383  0.448567  1
