# generated using pymatgen
data_Dy2ErMgIr8
_symmetry_space_group_name_H-M   'P 1'
_cell_length_a   5.32434500
_cell_length_b   5.32434473
_cell_length_c   8.65344600
_cell_angle_alpha   90.00000000
_cell_angle_beta   90.00000000
_cell_angle_gamma   119.99999549
_symmetry_Int_Tables_number   1
_chemical_formula_structural   Dy2ErMgIr8
_chemical_formula_sum   'Dy2 Er1 Mg1 Ir8'
_cell_volume   212.44772952
_cell_formula_units_Z   1
loop_
 _symmetry_equiv_pos_site_id
 _symmetry_equiv_pos_as_xyz
  1  'x, y, z'
loop_
 _atom_site_type_symbol
 _atom_site_label
 _atom_site_symmetry_multiplicity
 _atom_site_fract_x
 _atom_site_fract_y
 _atom_site_fract_z
 _atom_site_occupancy
  Dy  Dy0  1  0.333333  0.666667  0.078887  1
  Dy  Dy1  1  0.666667  0.333333  0.558823  1
  Er  Er2  1  0.666667  0.333333  0.930070  1
  Mg  Mg3  1  0.333333  0.666667  0.440680  1
  Ir  Ir4  1  0.000000  0.000000  0.997202  1
  Ir  Ir5  1  0.000000  0.000000  0.497497  1
  Ir  Ir6  1  0.830400  0.660801  0.250487  1
  Ir  Ir7  1  0.170518  0.829482  0.748461  1
  Ir  Ir8  1  0.658963  0.829482  0.748461  1
  Ir  Ir9  1  0.339199  0.169600  0.250487  1
  Ir  Ir10  1  0.830400  0.169600  0.250487  1
  Ir  Ir11  1  0.170518  0.341037  0.748461  1
