# generated using pymatgen
data_TbTiF7
_symmetry_space_group_name_H-M   'P 1'
_cell_length_a   5.56529900
_cell_length_b   8.85612378
_cell_length_c   11.90080145
_cell_angle_alpha   62.47706611
_cell_angle_beta   90.00000000
_cell_angle_gamma   90.00000000
_symmetry_Int_Tables_number   1
_chemical_formula_structural   TbTiF7
_chemical_formula_sum   'Tb4 Ti4 F28'
_cell_volume   520.17176668
_cell_formula_units_Z   4
loop_
 _symmetry_equiv_pos_site_id
 _symmetry_equiv_pos_as_xyz
  1  'x, y, z'
loop_
 _atom_site_type_symbol
 _atom_site_label
 _atom_site_symmetry_multiplicity
 _atom_site_fract_x
 _atom_site_fract_y
 _atom_site_fract_z
 _atom_site_occupancy
  Tb  Tb0  1  0.758481  0.810725  0.265932  1
  Tb  Tb1  1  0.258481  0.189275  0.234068  1
  Tb  Tb2  1  0.241519  0.189275  0.734068  1
  Tb  Tb3  1  0.741519  0.810725  0.765932  1
  Ti  Ti4  1  0.243775  0.726130  0.544072  1
  Ti  Ti5  1  0.743775  0.273870  0.955928  1
  Ti  Ti6  1  0.756225  0.273870  0.455928  1
  Ti  Ti7  1  0.256225  0.726130  0.044072  1
  F  F8  1  0.960210  0.718394  0.456951  1
  F  F9  1  0.460210  0.281606  0.043049  1
  F  F10  1  0.039790  0.281606  0.543049  1
  F  F11  1  0.539790  0.718394  0.956951  1
  F  F12  1  0.055004  0.708868  0.923829  1
  F  F13  1  0.555004  0.291132  0.576171  1
  F  F14  1  0.944996  0.291132  0.076171  1
  F  F15  1  0.444996  0.708868  0.423829  1
  F  F16  1  0.730375  0.513712  0.861917  1
  F  F17  1  0.230375  0.486288  0.638083  1
  F  F18  1  0.269625  0.486288  0.138083  1
  F  F19  1  0.769625  0.513712  0.361917  1
  F  F20  1  0.741244  0.035726  0.050398  1
  F  F21  1  0.241244  0.964274  0.449602  1
  F  F22  1  0.258756  0.964274  0.949602  1
  F  F23  1  0.758756  0.035726  0.550398  1
  F  F24  1  0.047070  0.744333  0.668937  1
  F  F25  1  0.547070  0.255667  0.831063  1
  F  F26  1  0.952930  0.255667  0.331063  1
  F  F27  1  0.452930  0.744333  0.168937  1
  F  F28  1  0.013976  0.269626  0.861219  1
  F  F29  1  0.513976  0.730374  0.638781  1
  F  F30  1  0.986024  0.730374  0.138781  1
  F  F31  1  0.486024  0.269626  0.361219  1
  F  F32  1  0.083513  0.970153  0.231133  1
  F  F33  1  0.583513  0.029847  0.268867  1
  F  F34  1  0.916487  0.029847  0.768867  1
  F  F35  1  0.416487  0.970153  0.731133  1
