# generated using pymatgen
data_Ho2LuGaSn3Ru2
_symmetry_space_group_name_H-M   'P 1'
_cell_length_a   7.61216200
_cell_length_b   7.59993850
_cell_length_c   3.86943700
_cell_angle_alpha   90.00000000
_cell_angle_beta   90.00000000
_cell_angle_gamma   120.18158173
_symmetry_Int_Tables_number   1
_chemical_formula_structural   Ho2LuGaSn3Ru2
_chemical_formula_sum   'Ho2 Lu1 Ga1 Sn3 Ru2'
_cell_volume   193.50801379
_cell_formula_units_Z   1
loop_
 _symmetry_equiv_pos_site_id
 _symmetry_equiv_pos_as_xyz
  1  'x, y, z'
loop_
 _atom_site_type_symbol
 _atom_site_label
 _atom_site_symmetry_multiplicity
 _atom_site_fract_x
 _atom_site_fract_y
 _atom_site_fract_z
 _atom_site_occupancy
  Ho  Ho0  1  0.981141  0.394169  0.500000  1
  Ho  Ho1  1  0.603896  0.586049  0.500000  1
  Lu  Lu2  1  0.414122  0.022109  0.500000  1
  Ga  Ga3  1  0.334540  0.669832  0.000000  1
  Sn  Sn4  1  0.992973  0.738444  0.000000  1
  Sn  Sn5  1  0.262227  0.254015  0.000000  1
  Sn  Sn6  1  0.744396  0.005487  0.000000  1
  Ru  Ru7  1  0.664311  0.329712  0.000000  1
  Ru  Ru8  1  0.002394  0.000185  0.500000  1
