# generated using pymatgen
data_Sc4Co6Si6Rh
_symmetry_space_group_name_H-M   'P 1'
_cell_length_a   6.71252148
_cell_length_b   6.71252204
_cell_length_c   6.71252200
_cell_angle_alpha   109.47121748
_cell_angle_beta   109.47121919
_cell_angle_gamma   109.47122892
_symmetry_Int_Tables_number   1
_chemical_formula_structural   Sc4Co6Si6Rh
_chemical_formula_sum   'Sc4 Co6 Si6 Rh1'
_cell_volume   232.82800934
_cell_formula_units_Z   1
loop_
 _symmetry_equiv_pos_site_id
 _symmetry_equiv_pos_as_xyz
  1  'x, y, z'
loop_
 _atom_site_type_symbol
 _atom_site_label
 _atom_site_symmetry_multiplicity
 _atom_site_fract_x
 _atom_site_fract_y
 _atom_site_fract_z
 _atom_site_occupancy
  Sc  Sc0  1  0.000000  0.000000  0.500000  1
  Sc  Sc1  1  0.000000  0.500000  0.000000  1
  Sc  Sc2  1  0.500000  0.000000  0.000000  1
  Sc  Sc3  1  0.500000  0.500000  0.500000  1
  Co  Co4  1  0.750000  0.250000  0.500000  1
  Co  Co5  1  0.750000  0.500000  0.250000  1
  Co  Co6  1  0.500000  0.250000  0.750000  1
  Co  Co7  1  0.250000  0.500000  0.750000  1
  Co  Co8  1  0.250000  0.750000  0.500000  1
  Co  Co9  1  0.500000  0.750000  0.250000  1
  Si  Si10  1  0.670213  0.670213  0.000000  1
  Si  Si11  1  0.329787  0.000000  0.329787  1
  Si  Si12  1  0.000000  0.329787  0.329787  1
  Si  Si13  1  0.329787  0.329787  0.000000  1
  Si  Si14  1  0.670213  0.000000  0.670213  1
  Si  Si15  1  0.000000  0.670213  0.670213  1
  Rh  Rh16  1  0.000000  0.000000  0.000000  1
