# generated using pymatgen
data_LuTh6NpH30
_symmetry_space_group_name_H-M   'P 1'
_cell_length_a   7.82792060
_cell_length_b   7.81491596
_cell_length_c   7.77031337
_cell_angle_alpha   109.36132538
_cell_angle_beta   109.43542328
_cell_angle_gamma   109.60575858
_symmetry_Int_Tables_number   1
_chemical_formula_structural   LuTh6NpH30
_chemical_formula_sum   'Lu1 Th6 Np1 H30'
_cell_volume   365.97007944
_cell_formula_units_Z   1
loop_
 _symmetry_equiv_pos_site_id
 _symmetry_equiv_pos_as_xyz
  1  'x, y, z'
loop_
 _atom_site_type_symbol
 _atom_site_label
 _atom_site_symmetry_multiplicity
 _atom_site_fract_x
 _atom_site_fract_y
 _atom_site_fract_z
 _atom_site_occupancy
  Lu  Lu0  1  0.499285  0.999751  0.086253  1
  Th  Th1  1  0.992314  0.078559  0.493302  1
  Th  Th2  1  0.085999  0.507042  0.002001  1
  Th  Th3  1  0.999177  0.584097  0.504860  1
  Th  Th4  1  0.583142  0.503115  0.998821  1
  Th  Th5  1  0.504194  0.998652  0.588487  1
  Th  Th6  1  0.417182  0.409253  0.411096  1
  Np  Np7  1  0.912397  0.912784  0.912734  1
  H  H8  1  0.648760  0.962974  0.365820  1
  H  H9  1  0.217598  0.317654  0.844991  1
  H  H10  1  0.187300  0.403096  0.534633  1
  H  H11  1  0.096140  0.280674  0.126404  1
  H  H12  1  0.284676  0.120695  0.090888  1
  H  H13  1  0.126423  0.092200  0.276779  1
  H  H14  1  0.473868  0.154742  0.878582  1
  H  H15  1  0.718946  0.350217  0.813080  1
  H  H16  1  0.627343  0.378583  0.250101  1
  H  H17  1  0.251330  0.624081  0.378019  1
  H  H18  1  0.749492  0.873683  0.122120  1
  H  H19  1  0.123120  0.751823  0.876068  1
  H  H20  1  0.373901  0.246582  0.623034  1
  H  H21  1  0.876831  0.126941  0.751882  1
  H  H22  1  0.781523  0.594703  0.633347  1
  H  H23  1  0.320644  0.850949  0.221581  1
  H  H24  1  0.374686  0.664057  0.968067  1
  H  H25  1  0.962014  0.367351  0.651024  1
  H  H26  1  0.537755  0.184085  0.403171  1
  H  H27  1  0.406433  0.538811  0.187638  1
  H  H28  1  0.835138  0.215047  0.309429  1
  H  H29  1  0.905739  0.690365  0.034823  1
  H  H30  1  0.811794  0.716758  0.348234  1
  H  H31  1  0.152010  0.868580  0.465582  1
  H  H32  1  0.684583  0.028160  0.908678  1
  H  H33  1  0.347719  0.819383  0.727722  1
  H  H34  1  0.871665  0.471147  0.153898  1
  H  H35  1  0.633001  0.779014  0.593814  1
  H  H36  1  0.596249  0.629728  0.777808  1
  H  H37  1  0.029632  0.904658  0.685229  1
