# generated using pymatgen
data_Ho6Zr4Sn5Sb
_symmetry_space_group_name_H-M   'P 1'
_cell_length_a   8.82333800
_cell_length_b   8.82828446
_cell_length_c   6.06721700
_cell_angle_alpha   90.00000000
_cell_angle_beta   90.00000000
_cell_angle_gamma   119.98146726
_symmetry_Int_Tables_number   1
_chemical_formula_structural   Ho6Zr4Sn5Sb
_chemical_formula_sum   'Ho6 Zr4 Sn5 Sb1'
_cell_volume   409.36477317
_cell_formula_units_Z   1
loop_
 _symmetry_equiv_pos_site_id
 _symmetry_equiv_pos_as_xyz
  1  'x, y, z'
loop_
 _atom_site_type_symbol
 _atom_site_label
 _atom_site_symmetry_multiplicity
 _atom_site_fract_x
 _atom_site_fract_y
 _atom_site_fract_z
 _atom_site_occupancy
  Ho  Ho0  1  0.998999  0.758931  0.750000  1
  Ho  Ho1  1  0.000653  0.240663  0.250000  1
  Ho  Ho2  1  0.759991  0.759337  0.250000  1
  Ho  Ho3  1  0.759381  0.000000  0.750000  1
  Ho  Ho4  1  0.240068  0.241069  0.750000  1
  Ho  Ho5  1  0.240964  0.000000  0.250000  1
  Zr  Zr6  1  0.333520  0.666910  0.499439  1
  Zr  Zr7  1  0.666611  0.333090  0.000561  1
  Zr  Zr8  1  0.666611  0.333090  0.499439  1
  Zr  Zr9  1  0.333520  0.666910  0.000561  1
  Sn  Sn10  1  0.400863  0.400395  0.250000  1
  Sn  Sn11  1  0.000468  0.599605  0.250000  1
  Sn  Sn12  1  0.999857  0.400703  0.750000  1
  Sn  Sn13  1  0.599154  0.599297  0.750000  1
  Sn  Sn14  1  0.600040  0.000000  0.250000  1
  Sb  Sb15  1  0.399301  0.000000  0.750000  1
