# generated using pymatgen
data_Nd5Si2GeH
_symmetry_space_group_name_H-M   'P 1'
_cell_length_a   8.90091748
_cell_length_b   8.90091796
_cell_length_c   8.90091712
_cell_angle_alpha   127.61319774
_cell_angle_beta   127.61319120
_cell_angle_gamma   77.25247408
_symmetry_Int_Tables_number   1
_chemical_formula_structural   Nd5Si2GeH
_chemical_formula_sum   'Nd10 Si4 Ge2 H2'
_cell_volume   429.35398342
_cell_formula_units_Z   2
loop_
 _symmetry_equiv_pos_site_id
 _symmetry_equiv_pos_as_xyz
  1  'x, y, z'
loop_
 _atom_site_type_symbol
 _atom_site_label
 _atom_site_symmetry_multiplicity
 _atom_site_fract_x
 _atom_site_fract_y
 _atom_site_fract_z
 _atom_site_occupancy
  Nd  Nd0  1  0.500000  0.500000  0.000000  1
  Nd  Nd1  1  0.000000  0.000000  0.000000  1
  Nd  Nd2  1  0.524741  0.024741  0.843261  1
  Nd  Nd3  1  0.181482  0.681482  0.156739  1
  Nd  Nd4  1  0.024741  0.181482  0.500000  1
  Nd  Nd5  1  0.681482  0.524741  0.500000  1
  Nd  Nd6  1  0.475259  0.975259  0.156739  1
  Nd  Nd7  1  0.818518  0.318518  0.843261  1
  Nd  Nd8  1  0.975259  0.818518  0.500000  1
  Nd  Nd9  1  0.318518  0.475259  0.500000  1
  Si  Si10  1  0.884276  0.384276  0.268552  1
  Si  Si11  1  0.115724  0.615724  0.731448  1
  Si  Si12  1  0.384276  0.115724  0.500000  1
  Si  Si13  1  0.615724  0.884276  0.500000  1
  Ge  Ge14  1  0.250000  0.250000  0.000000  1
  Ge  Ge15  1  0.750000  0.750000  0.000000  1
  H  H16  1  0.250000  0.750000  0.500000  1
  H  H17  1  0.750000  0.250000  0.500000  1
