# generated using pymatgen
data_Tb15ErCd4Co3Os
_symmetry_space_group_name_H-M   'P 1'
_cell_length_a   9.63103810
_cell_length_b   9.63103997
_cell_length_c   9.62847528
_cell_angle_alpha   59.47555659
_cell_angle_beta   59.47555314
_cell_angle_gamma   59.47604728
_symmetry_Int_Tables_number   1
_chemical_formula_structural   Tb15ErCd4Co3Os
_chemical_formula_sum   'Tb15 Er1 Cd4 Co3 Os1'
_cell_volume   623.99136902
_cell_formula_units_Z   1
loop_
 _symmetry_equiv_pos_site_id
 _symmetry_equiv_pos_as_xyz
  1  'x, y, z'
loop_
 _atom_site_type_symbol
 _atom_site_label
 _atom_site_symmetry_multiplicity
 _atom_site_fract_x
 _atom_site_fract_y
 _atom_site_fract_z
 _atom_site_occupancy
  Tb  Tb0  1  0.595695  0.595695  0.596615  1
  Tb  Tb1  1  0.188047  0.812303  0.813019  1
  Tb  Tb2  1  0.060963  0.060963  0.435868  1
  Tb  Tb3  1  0.436059  0.061716  0.060998  1
  Tb  Tb4  1  0.812303  0.188047  0.813019  1
  Tb  Tb5  1  0.437783  0.058030  0.437031  1
  Tb  Tb6  1  0.599988  0.211346  0.599766  1
  Tb  Tb7  1  0.812572  0.812572  0.187992  1
  Tb  Tb8  1  0.211346  0.599988  0.599766  1
  Tb  Tb9  1  0.805105  0.190793  0.190410  1
  Tb  Tb10  1  0.058030  0.437783  0.437031  1
  Tb  Tb11  1  0.190793  0.805105  0.190410  1
  Tb  Tb12  1  0.599713  0.599713  0.210931  1
  Tb  Tb13  1  0.190502  0.190502  0.805530  1
  Tb  Tb14  1  0.061716  0.436059  0.060998  1
  Er  Er15  1  0.437742  0.437742  0.057771  1
  Cd  Cd16  1  0.829636  0.829636  0.507917  1
  Cd  Cd17  1  0.829808  0.829808  0.829813  1
  Cd  Cd18  1  0.507868  0.829339  0.829859  1
  Cd  Cd19  1  0.829339  0.507868  0.829859  1
  Co  Co20  1  0.829528  0.392137  0.392420  1
  Co  Co21  1  0.392137  0.829528  0.392420  1
  Co  Co22  1  0.392209  0.392209  0.829941  1
  Os  Os23  1  0.391119  0.391119  0.390615  1
