# generated using pymatgen
data_Nd3Ag5Ru
_symmetry_space_group_name_H-M   'P 1'
_cell_length_a   7.77487100
_cell_length_b   7.77487193
_cell_length_c   3.99066600
_cell_angle_alpha   90.00000000
_cell_angle_beta   90.00000000
_cell_angle_gamma   120.00000883
_symmetry_Int_Tables_number   1
_chemical_formula_structural   Nd3Ag5Ru
_chemical_formula_sum   'Nd3 Ag5 Ru1'
_cell_volume   208.91152996
_cell_formula_units_Z   1
loop_
 _symmetry_equiv_pos_site_id
 _symmetry_equiv_pos_as_xyz
  1  'x, y, z'
loop_
 _atom_site_type_symbol
 _atom_site_label
 _atom_site_symmetry_multiplicity
 _atom_site_fract_x
 _atom_site_fract_y
 _atom_site_fract_z
 _atom_site_occupancy
  Nd  Nd0  1  0.576684  0.970841  0.000000  1
  Nd  Nd1  1  0.029159  0.605843  0.000000  1
  Nd  Nd2  1  0.394157  0.423316  0.000000  1
  Ag  Ag3  1  0.259364  0.005245  0.500000  1
  Ag  Ag4  1  0.994755  0.254120  0.500000  1
  Ag  Ag5  1  0.745880  0.740636  0.500000  1
  Ag  Ag6  1  0.666667  0.333333  0.500000  1
  Ag  Ag7  1  0.000000  0.000000  0.000000  1
  Ru  Ru8  1  0.333333  0.666667  0.500000  1
