# generated using pymatgen
data_La6BeCuPd10
_symmetry_space_group_name_H-M   'P 1'
_cell_length_a   8.45685476
_cell_length_b   8.45685560
_cell_length_c   8.45685496
_cell_angle_alpha   126.81161590
_cell_angle_beta   125.88465478
_cell_angle_gamma   79.31897664
_symmetry_Int_Tables_number   1
_chemical_formula_structural   La6BeCuPd10
_chemical_formula_sum   'La6 Be1 Cu1 Pd10'
_cell_volume   379.27436141
_cell_formula_units_Z   1
loop_
 _symmetry_equiv_pos_site_id
 _symmetry_equiv_pos_as_xyz
  1  'x, y, z'
loop_
 _atom_site_type_symbol
 _atom_site_label
 _atom_site_symmetry_multiplicity
 _atom_site_fract_x
 _atom_site_fract_y
 _atom_site_fract_z
 _atom_site_occupancy
  La  La0  1  0.822152  0.052114  0.770037  1
  La  La1  1  0.217922  0.447886  0.770037  1
  La  La2  1  0.177460  0.943648  0.233813  1
  La  La3  1  0.394874  0.250000  0.144874  1
  La  La4  1  0.790166  0.556352  0.233813  1
  La  La5  1  0.590708  0.750000  0.840708  1
  Be  Be6  1  0.789846  0.250000  0.539846  1
  Cu  Cu7  1  0.207922  0.750000  0.457922  1
  Pd  Pd8  1  0.823127  0.583756  0.639030  1
  Pd  Pd9  1  0.555274  0.315902  0.639030  1
  Pd  Pd10  1  0.460507  0.113683  0.778946  1
  Pd  Pd11  1  0.823127  0.184098  0.239371  1
  Pd  Pd12  1  0.165262  0.386317  0.346824  1
  Pd  Pd13  1  0.460507  0.681562  0.346824  1
  Pd  Pd14  1  0.555274  0.916244  0.239371  1
  Pd  Pd15  1  0.165262  0.818438  0.778946  1
  Pd  Pd16  1  0.000305  0.022617  0.522922  1
  Pd  Pd17  1  0.000305  0.477383  0.977688  1
