# generated using pymatgen
data_PrCo(As4Os)3
_symmetry_space_group_name_H-M   'P 1'
_cell_length_a   7.42010840
_cell_length_b   7.42010796
_cell_length_c   7.42010896
_cell_angle_alpha   109.33166922
_cell_angle_beta   109.33166478
_cell_angle_gamma   109.33167559
_symmetry_Int_Tables_number   1
_chemical_formula_structural   PrCo(As4Os)3
_chemical_formula_sum   'Pr1 Co1 As12 Os3'
_cell_volume   316.10591777
_cell_formula_units_Z   1
loop_
 _symmetry_equiv_pos_site_id
 _symmetry_equiv_pos_as_xyz
  1  'x, y, z'
loop_
 _atom_site_type_symbol
 _atom_site_label
 _atom_site_symmetry_multiplicity
 _atom_site_fract_x
 _atom_site_fract_y
 _atom_site_fract_z
 _atom_site_occupancy
  Pr  Pr0  1  0.000000  0.000000  0.000000  1
  Co  Co1  1  0.500000  0.500000  0.500000  1
  As  As2  1  0.149718  0.801312  0.652588  1
  As  As3  1  0.850282  0.198688  0.347412  1
  As  As4  1  0.156891  0.496301  0.349805  1
  As  As5  1  0.843109  0.503699  0.650195  1
  As  As6  1  0.652588  0.149718  0.801312  1
  As  As7  1  0.347412  0.850282  0.198688  1
  As  As8  1  0.349805  0.156891  0.496301  1
  As  As9  1  0.650195  0.843109  0.503699  1
  As  As10  1  0.801312  0.652588  0.149718  1
  As  As11  1  0.198688  0.347412  0.850282  1
  As  As12  1  0.496301  0.349805  0.156891  1
  As  As13  1  0.503699  0.650195  0.843109  1
  Os  Os14  1  0.500000  0.000000  0.000000  1
  Os  Os15  1  0.000000  0.000000  0.500000  1
  Os  Os16  1  0.000000  0.500000  0.000000  1
