# generated using pymatgen
data_UReF12
_symmetry_space_group_name_H-M   'P 1'
_cell_length_a   5.41973135
_cell_length_b   9.22892700
_cell_length_c   10.00126000
_cell_angle_alpha   90.00000000
_cell_angle_beta   89.70599970
_cell_angle_gamma   90.00000000
_symmetry_Int_Tables_number   1
_chemical_formula_structural   UReF12
_chemical_formula_sum   'U2 Re2 F24'
_cell_volume   500.23948728
_cell_formula_units_Z   2
loop_
 _symmetry_equiv_pos_site_id
 _symmetry_equiv_pos_as_xyz
  1  'x, y, z'
loop_
 _atom_site_type_symbol
 _atom_site_label
 _atom_site_symmetry_multiplicity
 _atom_site_fract_x
 _atom_site_fract_y
 _atom_site_fract_z
 _atom_site_occupancy
  U  U0  1  0.406629  0.250000  0.372210  1
  U  U1  1  0.905916  0.750000  0.127622  1
  Re  Re2  1  0.592869  0.750000  0.629352  1
  Re  Re3  1  0.092551  0.250000  0.870900  1
  F  F4  1  0.565265  0.405406  0.257556  1
  F  F5  1  0.065868  0.595235  0.241493  1
  F  F6  1  0.446873  0.895004  0.732398  1
  F  F7  1  0.946708  0.104447  0.768990  1
  F  F8  1  0.204760  0.750000  0.004633  1
  F  F9  1  0.705493  0.250000  0.493713  1
  F  F10  1  0.811403  0.250000  0.979178  1
  F  F11  1  0.312652  0.750000  0.521138  1
  F  F12  1  0.607085  0.750000  0.250662  1
  F  F13  1  0.107829  0.250000  0.250735  1
  F  F14  1  0.374328  0.250000  0.762095  1
  F  F15  1  0.874527  0.750000  0.737455  1
  F  F16  1  0.747201  0.904828  0.013022  1
  F  F17  1  0.249014  0.094149  0.487156  1
  F  F18  1  0.240651  0.394908  0.972848  1
  F  F19  1  0.740399  0.605034  0.526690  1
  F  F20  1  0.240651  0.105092  0.972848  1
  F  F21  1  0.740399  0.894966  0.526690  1
  F  F22  1  0.747201  0.595172  0.013022  1
  F  F23  1  0.249014  0.405851  0.487156  1
  F  F24  1  0.065868  0.904765  0.241493  1
  F  F25  1  0.565265  0.094594  0.257556  1
  F  F26  1  0.946708  0.395553  0.768990  1
  F  F27  1  0.446873  0.604996  0.732398  1
