# generated using pymatgen
data_MgZn2CdCuIr
_symmetry_space_group_name_H-M   'P 1'
_cell_length_a   5.05113709
_cell_length_b   5.17635322
_cell_length_c   5.17635394
_cell_angle_alpha   121.11929147
_cell_angle_beta   117.60656575
_cell_angle_gamma   91.81994274
_symmetry_Int_Tables_number   1
_chemical_formula_structural   MgZn2CdCuIr
_chemical_formula_sum   'Mg1 Zn2 Cd1 Cu1 Ir1'
_cell_volume   95.88746564
_cell_formula_units_Z   1
loop_
 _symmetry_equiv_pos_site_id
 _symmetry_equiv_pos_as_xyz
  1  'x, y, z'
loop_
 _atom_site_type_symbol
 _atom_site_label
 _atom_site_symmetry_multiplicity
 _atom_site_fract_x
 _atom_site_fract_y
 _atom_site_fract_z
 _atom_site_occupancy
  Mg  Mg0  1  0.869671  0.135755  0.733916  1
  Zn  Zn1  1  0.499964  0.499678  0.499810  1
  Zn  Zn2  1  0.499964  0.000153  0.000286  1
  Cd  Cd3  1  0.131202  0.865632  0.265569  1
  Cu  Cu4  1  0.999673  0.499763  0.499910  1
  Ir  Ir5  1  0.499527  0.499018  0.000509  1
