# generated using pymatgen
data_Tb6VFe12Co5P12
_symmetry_space_group_name_H-M   'P 1'
_cell_length_a   3.72355700
_cell_length_b   10.52657034
_cell_length_c   12.22399900
_cell_angle_alpha   89.94162339
_cell_angle_beta   90.00000000
_cell_angle_gamma   90.00000000
_symmetry_Int_Tables_number   1
_chemical_formula_structural   Tb6VFe12Co5P12
_chemical_formula_sum   'Tb6 V1 Fe12 Co5 P12'
_cell_volume   479.13509597
_cell_formula_units_Z   1
loop_
 _symmetry_equiv_pos_site_id
 _symmetry_equiv_pos_as_xyz
  1  'x, y, z'
loop_
 _atom_site_type_symbol
 _atom_site_label
 _atom_site_symmetry_multiplicity
 _atom_site_fract_x
 _atom_site_fract_y
 _atom_site_fract_z
 _atom_site_occupancy
  Tb  Tb0  1  0.000000  0.499614  0.524036  1
  Tb  Tb1  1  0.500000  0.000424  0.475638  1
  Tb  Tb2  1  0.500000  0.821216  0.208419  1
  Tb  Tb3  1  0.500000  0.179446  0.206859  1
  Tb  Tb4  1  0.000000  0.679471  0.792733  1
  Tb  Tb5  1  0.000000  0.320654  0.794700  1
  V  V6  1  0.500000  0.500232  0.148992  1
  Fe  Fe7  1  0.000000  0.999915  0.845417  1
  Fe  Fe8  1  0.000000  0.502438  0.988265  1
  Fe  Fe9  1  0.500000  0.997702  0.009526  1
  Fe  Fe10  1  0.500000  0.328655  0.996749  1
  Fe  Fe11  1  0.500000  0.676394  0.996281  1
  Fe  Fe12  1  0.000000  0.168530  0.002377  1
  Fe  Fe13  1  0.000000  0.828353  0.002196  1
  Fe  Fe14  1  0.500000  0.297167  0.431045  1
  Fe  Fe15  1  0.500000  0.701788  0.430283  1
  Fe  Fe16  1  0.000000  0.200207  0.572303  1
  Fe  Fe17  1  0.000000  0.798838  0.570375  1
  Fe  Fe18  1  0.500000  0.883222  0.707034  1
  Co  Co19  1  0.500000  0.499997  0.700952  1
  Co  Co20  1  0.000000  0.999828  0.299091  1
  Co  Co21  1  0.500000  0.118201  0.710839  1
  Co  Co22  1  0.000000  0.619192  0.292264  1
  Co  Co23  1  0.000000  0.379415  0.290838  1
  P  P24  1  0.500000  0.500789  0.886490  1
  P  P25  1  0.000000  0.999761  0.114074  1
  P  P26  1  0.500000  0.498952  0.345376  1
  P  P27  1  0.000000  0.997756  0.658469  1
  P  P28  1  0.500000  0.306341  0.614769  1
  P  P29  1  0.500000  0.694285  0.614117  1
  P  P30  1  0.000000  0.193424  0.387656  1
  P  P31  1  0.000000  0.806089  0.387603  1
  P  P32  1  0.500000  0.851906  0.885440  1
  P  P33  1  0.500000  0.150885  0.891734  1
  P  P34  1  0.000000  0.652646  0.110663  1
  P  P35  1  0.000000  0.346265  0.106397  1
