# generated using pymatgen
data_Er20Cd6OsRu
_symmetry_space_group_name_H-M   'P 1'
_cell_length_a   9.49768200
_cell_length_b   9.49768210
_cell_length_c   9.77656300
_cell_angle_alpha   90.00000000
_cell_angle_beta   90.00000000
_cell_angle_gamma   119.99999967
_symmetry_Int_Tables_number   1
_chemical_formula_structural   Er20Cd6OsRu
_chemical_formula_sum   'Er20 Cd6 Os1 Ru1'
_cell_volume   763.75152386
_cell_formula_units_Z   1
loop_
 _symmetry_equiv_pos_site_id
 _symmetry_equiv_pos_as_xyz
  1  'x, y, z'
loop_
 _atom_site_type_symbol
 _atom_site_label
 _atom_site_symmetry_multiplicity
 _atom_site_fract_x
 _atom_site_fract_y
 _atom_site_fract_z
 _atom_site_occupancy
  Er  Er0  1  0.000000  0.000000  0.499758  1
  Er  Er1  1  0.000000  0.000000  0.000242  1
  Er  Er2  1  0.209675  0.790325  0.441163  1
  Er  Er3  1  0.209675  0.419350  0.441163  1
  Er  Er4  1  0.580650  0.790325  0.441163  1
  Er  Er5  1  0.790223  0.209777  0.559453  1
  Er  Er6  1  0.790223  0.580445  0.559453  1
  Er  Er7  1  0.419555  0.209777  0.559453  1
  Er  Er8  1  0.790223  0.209777  0.940547  1
  Er  Er9  1  0.790223  0.580445  0.940547  1
  Er  Er10  1  0.419555  0.209777  0.940547  1
  Er  Er11  1  0.209675  0.790325  0.058837  1
  Er  Er12  1  0.209675  0.419350  0.058837  1
  Er  Er13  1  0.580650  0.790325  0.058837  1
  Er  Er14  1  0.539925  0.460075  0.250000  1
  Er  Er15  1  0.539925  0.079849  0.250000  1
  Er  Er16  1  0.920151  0.460075  0.250000  1
  Er  Er17  1  0.458818  0.541182  0.750000  1
  Er  Er18  1  0.458818  0.917636  0.750000  1
  Er  Er19  1  0.082364  0.541182  0.750000  1
  Cd  Cd20  1  0.885322  0.114678  0.250000  1
  Cd  Cd21  1  0.885322  0.770645  0.250000  1
  Cd  Cd22  1  0.229355  0.114678  0.250000  1
  Cd  Cd23  1  0.114696  0.885304  0.750000  1
  Cd  Cd24  1  0.114696  0.229390  0.750000  1
  Cd  Cd25  1  0.770610  0.885304  0.750000  1
  Os  Os26  1  0.333333  0.666667  0.250000  1
  Ru  Ru27  1  0.666667  0.333333  0.750000  1
