# generated using pymatgen
data_LiHo4V2B16Rh
_symmetry_space_group_name_H-M   'P 1'
_cell_length_a   3.49893500
_cell_length_b   5.94953971
_cell_length_c   11.50002849
_cell_angle_alpha   90.15207249
_cell_angle_beta   90.00000000
_cell_angle_gamma   90.00000000
_symmetry_Int_Tables_number   1
_chemical_formula_structural   LiHo4V2B16Rh
_chemical_formula_sum   'Li1 Ho4 V2 B16 Rh1'
_cell_volume   239.39585627
_cell_formula_units_Z   1
loop_
 _symmetry_equiv_pos_site_id
 _symmetry_equiv_pos_as_xyz
  1  'x, y, z'
loop_
 _atom_site_type_symbol
 _atom_site_label
 _atom_site_symmetry_multiplicity
 _atom_site_fract_x
 _atom_site_fract_y
 _atom_site_fract_z
 _atom_site_occupancy
  Li  Li0  1  0.500000  0.135842  0.914029  1
  Ho  Ho1  1  0.500000  0.123403  0.650005  1
  Ho  Ho2  1  0.500000  0.875021  0.349961  1
  Ho  Ho3  1  0.500000  0.627225  0.849974  1
  Ho  Ho4  1  0.500000  0.372719  0.150003  1
  V  V5  1  0.500000  0.625028  0.583174  1
  V  V6  1  0.500000  0.373122  0.414765  1
  B  B7  1  0.000000  0.473604  0.694807  1
  B  B8  1  0.000000  0.523933  0.306253  1
  B  B9  1  0.000000  0.980383  0.808493  1
  B  B10  1  0.000000  0.022715  0.191409  1
  B  B11  1  0.000000  0.285320  0.816888  1
  B  B12  1  0.000000  0.714050  0.184394  1
  B  B13  1  0.000000  0.789122  0.688165  1
  B  B14  1  0.000000  0.212241  0.313148  1
  B  B15  1  0.000000  0.363047  0.966916  1
  B  B16  1  0.000000  0.635333  0.030439  1
  B  B17  1  0.000000  0.864276  0.533352  1
  B  B18  1  0.000000  0.134692  0.467248  1
  B  B19  1  0.000000  0.384780  0.547600  1
  B  B20  1  0.000000  0.613930  0.453061  1
  B  B21  1  0.000000  0.885280  0.953324  1
  B  B22  1  0.000000  0.113678  0.047476  1
  Rh  Rh23  1  0.500000  0.871257  0.085117  1
