# generated using pymatgen
data_Dy2Er3(SnPb)2
_symmetry_space_group_name_H-M   'P 1'
_cell_length_a   8.06071300
_cell_length_b   8.18579700
_cell_length_c   15.47704500
_cell_angle_alpha   90.00000000
_cell_angle_beta   90.00000000
_cell_angle_gamma   90.00000000
_symmetry_Int_Tables_number   1
_chemical_formula_structural   Dy2Er3(SnPb)2
_chemical_formula_sum   'Dy8 Er12 Sn8 Pb8'
_cell_volume   1021.22743651
_cell_formula_units_Z   4
loop_
 _symmetry_equiv_pos_site_id
 _symmetry_equiv_pos_as_xyz
  1  'x, y, z'
loop_
 _atom_site_type_symbol
 _atom_site_label
 _atom_site_symmetry_multiplicity
 _atom_site_fract_x
 _atom_site_fract_y
 _atom_site_fract_z
 _atom_site_occupancy
  Dy  Dy0  1  0.522748  0.321111  0.900202  1
  Dy  Dy1  1  0.022748  0.178889  0.599798  1
  Dy  Dy2  1  0.477252  0.678889  0.400202  1
  Dy  Dy3  1  0.977252  0.821111  0.099798  1
  Dy  Dy4  1  0.477252  0.678889  0.099798  1
  Dy  Dy5  1  0.977252  0.821111  0.400202  1
  Dy  Dy6  1  0.522748  0.321111  0.599798  1
  Dy  Dy7  1  0.022748  0.178889  0.900202  1
  Er  Er8  1  0.367754  0.837715  0.875667  1
  Er  Er9  1  0.867754  0.662285  0.624333  1
  Er  Er10  1  0.632246  0.162285  0.375667  1
  Er  Er11  1  0.132246  0.337715  0.124333  1
  Er  Er12  1  0.632246  0.162285  0.124333  1
  Er  Er13  1  0.132246  0.337715  0.375667  1
  Er  Er14  1  0.367754  0.837715  0.624333  1
  Er  Er15  1  0.867754  0.662285  0.875667  1
  Er  Er16  1  0.198470  0.503262  0.750000  1
  Er  Er17  1  0.698470  0.996738  0.750000  1
  Er  Er18  1  0.801530  0.496738  0.250000  1
  Er  Er19  1  0.301530  0.003262  0.250000  1
  Sn  Sn20  1  0.563990  0.620654  0.750000  1
  Sn  Sn21  1  0.063990  0.879346  0.750000  1
  Sn  Sn22  1  0.436010  0.379346  0.250000  1
  Sn  Sn23  1  0.936010  0.120654  0.250000  1
  Sn  Sn24  1  0.331012  0.148521  0.750000  1
  Sn  Sn25  1  0.831012  0.351479  0.750000  1
  Sn  Sn26  1  0.668988  0.851479  0.250000  1
  Sn  Sn27  1  0.168988  0.648521  0.250000  1
  Pb  Pb28  1  0.291623  0.037593  0.041093  1
  Pb  Pb29  1  0.791623  0.462407  0.458907  1
  Pb  Pb30  1  0.708377  0.962407  0.541093  1
  Pb  Pb31  1  0.208377  0.537593  0.958907  1
  Pb  Pb32  1  0.708377  0.962407  0.958907  1
  Pb  Pb33  1  0.208377  0.537593  0.541093  1
  Pb  Pb34  1  0.291623  0.037593  0.458907  1
  Pb  Pb35  1  0.791623  0.462407  0.041093  1
