# generated using pymatgen
data_Tb2Pr5Nd(MoO6)4
_symmetry_space_group_name_H-M   'P 1'
_cell_length_a   5.55534241
_cell_length_b   10.23437414
_cell_length_c   10.23436219
_cell_angle_alpha   68.66144760
_cell_angle_beta   75.11042736
_cell_angle_gamma   75.11057262
_symmetry_Int_Tables_number   1
_chemical_formula_structural   Tb2Pr5Nd(MoO6)4
_chemical_formula_sum   'Tb2 Pr5 Nd1 Mo4 O24'
_cell_volume   515.08358173
_cell_formula_units_Z   1
loop_
 _symmetry_equiv_pos_site_id
 _symmetry_equiv_pos_as_xyz
  1  'x, y, z'
loop_
 _atom_site_type_symbol
 _atom_site_label
 _atom_site_symmetry_multiplicity
 _atom_site_fract_x
 _atom_site_fract_y
 _atom_site_fract_z
 _atom_site_occupancy
  Tb  Tb0  1  0.750000  0.396895  0.603106  1
  Tb  Tb1  1  0.250000  0.602670  0.397331  1
  Pr  Pr2  1  0.619741  0.787042  0.553356  1
  Pr  Pr3  1  0.119874  0.552883  0.787073  1
  Pr  Pr4  1  0.380131  0.212927  0.447117  1
  Pr  Pr5  1  0.880262  0.446645  0.212958  1
  Pr  Pr6  1  0.750002  0.864629  0.135370  1
  Nd  Nd7  1  0.250000  0.136129  0.863872  1
  Mo  Mo8  1  0.064835  0.007003  0.297179  1
  Mo  Mo9  1  0.435165  0.702820  0.992997  1
  Mo  Mo10  1  0.935108  0.993202  0.702884  1
  Mo  Mo11  1  0.564893  0.297116  0.006799  1
  O  O12  1  0.924130  0.570663  0.605683  1
  O  O13  1  0.575870  0.394321  0.429338  1
  O  O14  1  0.075540  0.429153  0.394548  1
  O  O15  1  0.424461  0.605453  0.570846  1
  O  O16  1  0.937595  0.807451  0.337492  1
  O  O17  1  0.562404  0.662508  0.192548  1
  O  O18  1  0.063853  0.192835  0.663478  1
  O  O19  1  0.436148  0.336520  0.807166  1
  O  O20  1  0.372686  0.888777  0.328905  1
  O  O21  1  0.127312  0.671094  0.111223  1
  O  O22  1  0.626592  0.111297  0.672095  1
  O  O23  1  0.873409  0.327904  0.888704  1
  O  O24  1  0.633512  0.288959  0.175805  1
  O  O25  1  0.866488  0.824196  0.711042  1
  O  O26  1  0.366449  0.710750  0.824031  1
  O  O27  1  0.133550  0.175969  0.289250  1
  O  O28  1  0.520417  0.116553  0.043875  1
  O  O29  1  0.979583  0.956125  0.883446  1
  O  O30  1  0.765428  0.024073  0.426480  1
  O  O31  1  0.022762  0.044664  0.115843  1
  O  O32  1  0.266097  0.426669  0.023572  1
  O  O33  1  0.233903  0.976429  0.573330  1
  O  O34  1  0.734570  0.573520  0.975927  1
  O  O35  1  0.477237  0.884157  0.955337  1
