# generated using pymatgen
data_NdTh3(AgSn)4
_symmetry_space_group_name_H-M   'P 1'
_cell_length_a   9.73738600
_cell_length_b   9.73738631
_cell_length_c   7.46842300
_cell_angle_alpha   90.00000000
_cell_angle_beta   90.00000000
_cell_angle_gamma   119.99999895
_symmetry_Int_Tables_number   1
_chemical_formula_structural   NdTh3(AgSn)4
_chemical_formula_sum   'Nd2 Th6 Ag8 Sn8'
_cell_volume   613.25956457
_cell_formula_units_Z   2
loop_
 _symmetry_equiv_pos_site_id
 _symmetry_equiv_pos_as_xyz
  1  'x, y, z'
loop_
 _atom_site_type_symbol
 _atom_site_label
 _atom_site_symmetry_multiplicity
 _atom_site_fract_x
 _atom_site_fract_y
 _atom_site_fract_z
 _atom_site_occupancy
  Nd  Nd0  1  0.000000  0.000000  0.499491  1
  Nd  Nd1  1  0.000000  0.000000  0.999491  1
  Th  Th2  1  0.511859  0.023718  0.487520  1
  Th  Th3  1  0.511859  0.488141  0.487520  1
  Th  Th4  1  0.976282  0.488141  0.487520  1
  Th  Th5  1  0.488141  0.976282  0.987520  1
  Th  Th6  1  0.488141  0.511859  0.987520  1
  Th  Th7  1  0.023718  0.511859  0.987520  1
  Ag  Ag8  1  0.166090  0.332179  0.296970  1
  Ag  Ag9  1  0.166090  0.833910  0.296970  1
  Ag  Ag10  1  0.667821  0.833910  0.296970  1
  Ag  Ag11  1  0.833910  0.667821  0.796970  1
  Ag  Ag12  1  0.833910  0.166090  0.796970  1
  Ag  Ag13  1  0.332179  0.166090  0.796970  1
  Ag  Ag14  1  0.333333  0.666667  0.686764  1
  Ag  Ag15  1  0.666667  0.333333  0.186764  1
  Sn  Sn16  1  0.166098  0.332197  0.724585  1
  Sn  Sn17  1  0.166098  0.833902  0.724585  1
  Sn  Sn18  1  0.667803  0.833902  0.724585  1
  Sn  Sn19  1  0.833902  0.667803  0.224585  1
  Sn  Sn20  1  0.833902  0.166098  0.224585  1
  Sn  Sn21  1  0.332197  0.166098  0.224585  1
  Sn  Sn22  1  0.333333  0.666667  0.257508  1
  Sn  Sn23  1  0.666667  0.333333  0.757508  1
