# generated using pymatgen
data_Yb3Y(WN2)4
_symmetry_space_group_name_H-M   'P 1'
_cell_length_a   3.11281800
_cell_length_b   5.63106225
_cell_length_c   10.88188541
_cell_angle_alpha   89.70590516
_cell_angle_beta   90.00000000
_cell_angle_gamma   90.00000000
_symmetry_Int_Tables_number   1
_chemical_formula_structural   Yb3Y(WN2)4
_chemical_formula_sum   'Yb3 Y1 W4 N8'
_cell_volume   190.74031028
_cell_formula_units_Z   1
loop_
 _symmetry_equiv_pos_site_id
 _symmetry_equiv_pos_as_xyz
  1  'x, y, z'
loop_
 _atom_site_type_symbol
 _atom_site_label
 _atom_site_symmetry_multiplicity
 _atom_site_fract_x
 _atom_site_fract_y
 _atom_site_fract_z
 _atom_site_occupancy
  Yb  Yb0  1  0.250000  0.082115  0.869833  1
  Yb  Yb1  1  0.250000  0.586431  0.633072  1
  Yb  Yb2  1  0.750000  0.918038  0.130516  1
  Y  Y3  1  0.750000  0.413961  0.367895  1
  W  W4  1  0.250000  0.426346  0.117278  1
  W  W5  1  0.250000  0.921732  0.379282  1
  W  W6  1  0.750000  0.575849  0.879589  1
  W  W7  1  0.750000  0.079063  0.622488  1
  N  N8  1  0.250000  0.169811  0.243989  1
  N  N9  1  0.250000  0.668406  0.255805  1
  N  N10  1  0.750000  0.828769  0.756740  1
  N  N11  1  0.750000  0.328322  0.743856  1
  N  N12  1  0.250000  0.725584  0.992696  1
  N  N13  1  0.250000  0.231684  0.507809  1
  N  N14  1  0.750000  0.272548  0.006712  1
  N  N15  1  0.750000  0.771341  0.492438  1
