# generated using pymatgen
data_Dy3Y2Lu3(P3Ir4)4
_symmetry_space_group_name_H-M   'P 1'
_cell_length_a   12.93918600
_cell_length_b   12.93918619
_cell_length_c   3.99439700
_cell_angle_alpha   90.00000000
_cell_angle_beta   90.00000000
_cell_angle_gamma   119.99999951
_symmetry_Int_Tables_number   1
_chemical_formula_structural   Dy3Y2Lu3(P3Ir4)4
_chemical_formula_sum   'Dy3 Y2 Lu3 P12 Ir16'
_cell_volume   579.15629187
_cell_formula_units_Z   1
loop_
 _symmetry_equiv_pos_site_id
 _symmetry_equiv_pos_as_xyz
  1  'x, y, z'
loop_
 _atom_site_type_symbol
 _atom_site_label
 _atom_site_symmetry_multiplicity
 _atom_site_fract_x
 _atom_site_fract_y
 _atom_site_fract_z
 _atom_site_occupancy
  Dy  Dy0  1  0.000000  0.814228  0.000000  1
  Dy  Dy1  1  0.185772  0.185772  0.000000  1
  Dy  Dy2  1  0.814228  0.000000  0.000000  1
  Y  Y3  1  0.333333  0.666667  0.500000  1
  Y  Y4  1  0.666667  0.333333  0.500000  1
  Lu  Lu5  1  0.000000  0.446386  0.500000  1
  Lu  Lu6  1  0.553614  0.553614  0.500000  1
  Lu  Lu7  1  0.446386  0.000000  0.500000  1
  P  P8  1  0.000000  0.651615  0.500000  1
  P  P9  1  0.348385  0.348385  0.500000  1
  P  P10  1  0.651615  0.000000  0.500000  1
  P  P11  1  0.516819  0.687807  0.000000  1
  P  P12  1  0.312193  0.829013  0.000000  1
  P  P13  1  0.170987  0.483181  0.000000  1
  P  P14  1  0.483181  0.170987  0.000000  1
  P  P15  1  0.687807  0.516819  0.000000  1
  P  P16  1  0.829013  0.312193  0.000000  1
  P  P17  1  0.000000  0.176694  0.500000  1
  P  P18  1  0.823306  0.823306  0.500000  1
  P  P19  1  0.176694  0.000000  0.500000  1
  Ir  Ir20  1  0.509711  0.866499  0.000000  1
  Ir  Ir21  1  0.133501  0.643213  0.000000  1
  Ir  Ir22  1  0.356787  0.490289  0.000000  1
  Ir  Ir23  1  0.490289  0.356787  0.000000  1
  Ir  Ir24  1  0.866499  0.509711  0.000000  1
  Ir  Ir25  1  0.643213  0.133501  0.000000  1
  Ir  Ir26  1  0.000000  0.276107  0.000000  1
  Ir  Ir27  1  0.723893  0.723893  0.000000  1
  Ir  Ir28  1  0.276107  0.000000  0.000000  1
  Ir  Ir29  1  0.629701  0.808274  0.500000  1
  Ir  Ir30  1  0.191726  0.821426  0.500000  1
  Ir  Ir31  1  0.178574  0.370299  0.500000  1
  Ir  Ir32  1  0.370299  0.178574  0.500000  1
  Ir  Ir33  1  0.808274  0.629701  0.500000  1
  Ir  Ir34  1  0.821426  0.191726  0.500000  1
  Ir  Ir35  1  0.000000  0.000000  0.500000  1
