# generated using pymatgen
data_TbErLu(Co3P2)3
_symmetry_space_group_name_H-M   'P 1'
_cell_length_a   3.68039900
_cell_length_b   10.48674300
_cell_length_c   12.13674200
_cell_angle_alpha   90.00000000
_cell_angle_beta   90.00000000
_cell_angle_gamma   90.00000000
_symmetry_Int_Tables_number   1
_chemical_formula_structural   TbErLu(Co3P2)3
_chemical_formula_sum   'Tb2 Er2 Lu2 Co18 P12'
_cell_volume   468.42239338
_cell_formula_units_Z   2
loop_
 _symmetry_equiv_pos_site_id
 _symmetry_equiv_pos_as_xyz
  1  'x, y, z'
loop_
 _atom_site_type_symbol
 _atom_site_label
 _atom_site_symmetry_multiplicity
 _atom_site_fract_x
 _atom_site_fract_y
 _atom_site_fract_z
 _atom_site_occupancy
  Tb  Tb0  1  0.750000  0.250000  0.477709  1
  Tb  Tb1  1  0.250000  0.750000  0.523083  1
  Er  Er2  1  0.750000  0.067469  0.205694  1
  Er  Er3  1  0.750000  0.432531  0.205694  1
  Lu  Lu4  1  0.250000  0.931979  0.793971  1
  Lu  Lu5  1  0.250000  0.568021  0.793971  1
  Co  Co6  1  0.250000  0.250000  0.840891  1
  Co  Co7  1  0.750000  0.750000  0.159054  1
  Co  Co8  1  0.250000  0.250000  0.295544  1
  Co  Co9  1  0.750000  0.750000  0.704792  1
  Co  Co10  1  0.750000  0.250000  0.012751  1
  Co  Co11  1  0.250000  0.750000  0.985146  1
  Co  Co12  1  0.250000  0.417236  0.004683  1
  Co  Co13  1  0.250000  0.082764  0.004683  1
  Co  Co14  1  0.750000  0.583662  0.993738  1
  Co  Co15  1  0.750000  0.916338  0.993738  1
  Co  Co16  1  0.250000  0.452986  0.570635  1
  Co  Co17  1  0.250000  0.047014  0.570635  1
  Co  Co18  1  0.750000  0.547260  0.430870  1
  Co  Co19  1  0.750000  0.952740  0.430870  1
  Co  Co20  1  0.250000  0.871149  0.290176  1
  Co  Co21  1  0.250000  0.628851  0.290176  1
  Co  Co22  1  0.750000  0.128208  0.710578  1
  Co  Co23  1  0.750000  0.371792  0.710578  1
  P  P24  1  0.250000  0.250000  0.116842  1
  P  P25  1  0.750000  0.750000  0.881510  1
  P  P26  1  0.250000  0.250000  0.656512  1
  P  P27  1  0.750000  0.750000  0.343898  1
  P  P28  1  0.250000  0.439771  0.383770  1
  P  P29  1  0.250000  0.060229  0.383770  1
  P  P30  1  0.750000  0.560570  0.617788  1
  P  P31  1  0.750000  0.939430  0.617788  1
  P  P32  1  0.250000  0.902403  0.107162  1
  P  P33  1  0.250000  0.597597  0.107162  1
  P  P34  1  0.750000  0.096020  0.892070  1
  P  P35  1  0.750000  0.403980  0.892070  1
