# generated using pymatgen
data_TbNdZr2(Co5P3)4
_symmetry_space_group_name_H-M   'P 1'
_cell_length_a   3.64608200
_cell_length_b   10.25937261
_cell_length_c   11.71663784
_cell_angle_alpha   90.06414669
_cell_angle_beta   90.00000000
_cell_angle_gamma   90.00000000
_symmetry_Int_Tables_number   1
_chemical_formula_structural   TbNdZr2(Co5P3)4
_chemical_formula_sum   'Tb1 Nd1 Zr2 Co20 P12'
_cell_volume   438.27830016
_cell_formula_units_Z   1
loop_
 _symmetry_equiv_pos_site_id
 _symmetry_equiv_pos_as_xyz
  1  'x, y, z'
loop_
 _atom_site_type_symbol
 _atom_site_label
 _atom_site_symmetry_multiplicity
 _atom_site_fract_x
 _atom_site_fract_y
 _atom_site_fract_z
 _atom_site_occupancy
  Tb  Tb0  1  0.750000  0.082353  0.797066  1
  Nd  Nd1  1  0.750000  0.417157  0.296596  1
  Zr  Zr2  1  0.250000  0.582371  0.700917  1
  Zr  Zr3  1  0.250000  0.918132  0.200764  1
  Co  Co4  1  0.250000  0.718872  0.993198  1
  Co  Co5  1  0.250000  0.782413  0.495239  1
  Co  Co6  1  0.750000  0.282483  0.008747  1
  Co  Co7  1  0.750000  0.216620  0.509934  1
  Co  Co8  1  0.250000  0.410354  0.494110  1
  Co  Co9  1  0.250000  0.090158  0.990599  1
  Co  Co10  1  0.750000  0.594904  0.516646  1
  Co  Co11  1  0.750000  0.906441  0.015584  1
  Co  Co12  1  0.250000  0.219455  0.176685  1
  Co  Co13  1  0.250000  0.277621  0.678116  1
  Co  Co14  1  0.750000  0.776616  0.822920  1
  Co  Co15  1  0.750000  0.724560  0.323122  1
  Co  Co16  1  0.250000  0.880461  0.699040  1
  Co  Co17  1  0.250000  0.622267  0.197270  1
  Co  Co18  1  0.750000  0.112035  0.299647  1
  Co  Co19  1  0.750000  0.385994  0.798951  1
  Co  Co20  1  0.250000  0.471101  0.926740  1
  Co  Co21  1  0.250000  0.027432  0.429181  1
  Co  Co22  1  0.750000  0.536393  0.064211  1
  Co  Co23  1  0.750000  0.964527  0.566923  1
  P  P24  1  0.250000  0.419100  0.106741  1
  P  P25  1  0.250000  0.080189  0.610432  1
  P  P26  1  0.750000  0.581516  0.883048  1
  P  P27  1  0.750000  0.918272  0.384652  1
  P  P28  1  0.250000  0.270727  0.871646  1
  P  P29  1  0.250000  0.225517  0.373252  1
  P  P30  1  0.750000  0.732620  0.131607  1
  P  P31  1  0.750000  0.768176  0.632371  1
  P  P32  1  0.250000  0.605502  0.392491  1
  P  P33  1  0.250000  0.897794  0.891300  1
  P  P34  1  0.750000  0.400055  0.610315  1
  P  P35  1  0.750000  0.099814  0.109945  1
