# generated using pymatgen
data_Lu6Te(WO9)2
_symmetry_space_group_name_H-M   'P 1'
_cell_length_a   9.03896800
_cell_length_b   9.03896721
_cell_length_c   5.05509000
_cell_angle_alpha   90.00000000
_cell_angle_beta   90.00000000
_cell_angle_gamma   120.00000289
_symmetry_Int_Tables_number   1
_chemical_formula_structural   Lu6Te(WO9)2
_chemical_formula_sum   'Lu6 Te1 W2 O18'
_cell_volume   357.68207062
_cell_formula_units_Z   1
loop_
 _symmetry_equiv_pos_site_id
 _symmetry_equiv_pos_as_xyz
  1  'x, y, z'
loop_
 _atom_site_type_symbol
 _atom_site_label
 _atom_site_symmetry_multiplicity
 _atom_site_fract_x
 _atom_site_fract_y
 _atom_site_fract_z
 _atom_site_occupancy
  Lu  Lu0  1  0.999045  0.625654  0.000295  1
  Lu  Lu1  1  0.001766  0.289321  0.499599  1
  Lu  Lu2  1  0.374346  0.373391  0.000295  1
  Lu  Lu3  1  0.287555  0.998234  0.499599  1
  Lu  Lu4  1  0.710679  0.712445  0.499599  1
  Lu  Lu5  1  0.626609  0.000955  0.000295  1
  Te  Te6  1  0.666667  0.333333  0.499866  1
  W  W7  1  0.333333  0.666667  0.502431  1
  W  W8  1  0.000000  0.000000  0.999951  1
  O  O9  1  0.081057  0.876422  0.782480  1
  O  O10  1  0.223955  0.763425  0.280645  1
  O  O11  1  0.129296  0.541653  0.720452  1
  O  O12  1  0.412357  0.870704  0.720452  1
  O  O13  1  0.236575  0.460529  0.280645  1
  O  O14  1  0.123578  0.204634  0.782480  1
  O  O15  1  0.204444  0.121802  0.216339  1
  O  O16  1  0.539471  0.776045  0.280645  1
  O  O17  1  0.458347  0.587643  0.720452  1
  O  O18  1  0.795366  0.918943  0.782480  1
  O  O19  1  0.460378  0.237431  0.717722  1
  O  O20  1  0.586274  0.457506  0.281720  1
  O  O21  1  0.542494  0.128768  0.281720  1
  O  O22  1  0.777054  0.539622  0.717722  1
  O  O23  1  0.917359  0.795556  0.216339  1
  O  O24  1  0.762569  0.222946  0.717722  1
  O  O25  1  0.871232  0.413726  0.281720  1
  O  O26  1  0.878198  0.082641  0.216339  1
