# generated using pymatgen
data_HfSc(Tc2W)2
_symmetry_space_group_name_H-M   'P 1'
_cell_length_a   6.37583200
_cell_length_b   4.50697000
_cell_length_c   8.96674200
_cell_angle_alpha   90.00000000
_cell_angle_beta   90.00228385
_cell_angle_gamma   90.00000000
_symmetry_Int_Tables_number   1
_chemical_formula_structural   HfSc(Tc2W)2
_chemical_formula_sum   'Hf2 Sc2 Tc8 W4'
_cell_volume   257.66546048
_cell_formula_units_Z   2
loop_
 _symmetry_equiv_pos_site_id
 _symmetry_equiv_pos_as_xyz
  1  'x, y, z'
loop_
 _atom_site_type_symbol
 _atom_site_label
 _atom_site_symmetry_multiplicity
 _atom_site_fract_x
 _atom_site_fract_y
 _atom_site_fract_z
 _atom_site_occupancy
  Hf  Hf0  1  0.250129  0.250001  0.124031  1
  Hf  Hf1  1  0.750115  0.749999  0.375968  1
  Sc  Sc2  1  0.249858  0.250001  0.625672  1
  Sc  Sc3  1  0.749866  0.749999  0.874330  1
  Tc  Tc4  1  0.000209  0.749999  0.125400  1
  Tc  Tc5  1  0.499981  0.749999  0.125461  1
  Tc  Tc6  1  0.999986  0.250001  0.374543  1
  Tc  Tc7  1  0.500219  0.250001  0.374598  1
  Tc  Tc8  1  0.499140  0.749999  0.624632  1
  Tc  Tc9  1  0.000670  0.749999  0.624685  1
  Tc  Tc10  1  0.500672  0.250001  0.875313  1
  Tc  Tc11  1  0.999151  0.250001  0.875368  1
  W  W12  1  0.750131  0.250001  0.122833  1
  W  W13  1  0.250109  0.749999  0.377170  1
  W  W14  1  0.749879  0.250001  0.627290  1
  W  W15  1  0.249886  0.749999  0.872707  1
