# generated using pymatgen
data_Mn2AsClO4
_symmetry_space_group_name_H-M   'P 1'
_cell_length_a   11.54644700
_cell_length_b   8.41692900
_cell_length_c   5.18137400
_cell_angle_alpha   90.00000000
_cell_angle_beta   90.00000000
_cell_angle_gamma   90.00000000
_symmetry_Int_Tables_number   1
_chemical_formula_structural   Mn2AsClO4
_chemical_formula_sum   'Mn8 As4 Cl4 O16'
_cell_volume   503.55506848
_cell_formula_units_Z   4
loop_
 _symmetry_equiv_pos_site_id
 _symmetry_equiv_pos_as_xyz
  1  'x, y, z'
loop_
 _atom_site_type_symbol
 _atom_site_label
 _atom_site_symmetry_multiplicity
 _atom_site_fract_x
 _atom_site_fract_y
 _atom_site_fract_z
 _atom_site_occupancy
  Mn  Mn0  1  0.120549  0.100220  0.008550  1
  Mn  Mn1  1  0.620549  0.399780  0.008550  1
  Mn  Mn2  1  0.119706  0.655723  0.012086  1
  Mn  Mn3  1  0.619706  0.844277  0.012086  1
  Mn  Mn4  1  0.379452  0.600220  0.508549  1
  Mn  Mn5  1  0.879452  0.899780  0.508549  1
  Mn  Mn6  1  0.380294  0.155723  0.512085  1
  Mn  Mn7  1  0.880294  0.344277  0.512085  1
  As  As8  1  0.665599  0.623425  0.462935  1
  As  As9  1  0.165599  0.876576  0.462935  1
  As  As10  1  0.834401  0.123424  0.962935  1
  As  As11  1  0.334401  0.376576  0.962935  1
  Cl  Cl12  1  0.560459  0.118435  0.236161  1
  Cl  Cl13  1  0.060459  0.381565  0.236161  1
  Cl  Cl14  1  0.939541  0.618435  0.736160  1
  Cl  Cl15  1  0.439540  0.881565  0.736160  1
  O  O16  1  0.851420  0.123684  0.291577  1
  O  O17  1  0.351420  0.376316  0.291577  1
  O  O18  1  0.536208  0.626991  0.290573  1
  O  O19  1  0.036209  0.873009  0.290573  1
  O  O20  1  0.233345  0.710283  0.343148  1
  O  O21  1  0.733344  0.789716  0.343148  1
  O  O22  1  0.229983  0.046897  0.347772  1
  O  O23  1  0.729983  0.453103  0.347772  1
  O  O24  1  0.648580  0.623685  0.791578  1
  O  O25  1  0.148580  0.876316  0.791578  1
  O  O26  1  0.963791  0.126991  0.790572  1
  O  O27  1  0.463791  0.373009  0.790572  1
  O  O28  1  0.266655  0.210282  0.843146  1
  O  O29  1  0.766655  0.289716  0.843146  1
  O  O30  1  0.270017  0.546897  0.847771  1
  O  O31  1  0.770017  0.953103  0.847771  1
