# generated using pymatgen
data_Tb4CoAg
_symmetry_space_group_name_H-M   'P 1'
_cell_length_a   9.43972418
_cell_length_b   9.43972381
_cell_length_c   9.43972500
_cell_angle_alpha   59.99999935
_cell_angle_beta   60.00000064
_cell_angle_gamma   59.99999711
_symmetry_Int_Tables_number   1
_chemical_formula_structural   Tb4CoAg
_chemical_formula_sum   'Tb16 Co4 Ag4'
_cell_volume   594.78899994
_cell_formula_units_Z   4
loop_
 _symmetry_equiv_pos_site_id
 _symmetry_equiv_pos_as_xyz
  1  'x, y, z'
loop_
 _atom_site_type_symbol
 _atom_site_label
 _atom_site_symmetry_multiplicity
 _atom_site_fract_x
 _atom_site_fract_y
 _atom_site_fract_z
 _atom_site_occupancy
  Tb  Tb0  1  0.812301  0.187699  0.187699  1
  Tb  Tb1  1  0.187699  0.812301  0.812301  1
  Tb  Tb2  1  0.187699  0.812301  0.187699  1
  Tb  Tb3  1  0.812301  0.187699  0.812301  1
  Tb  Tb4  1  0.187699  0.187699  0.812301  1
  Tb  Tb5  1  0.812301  0.812301  0.187699  1
  Tb  Tb6  1  0.937464  0.562535  0.562536  1
  Tb  Tb7  1  0.562535  0.937464  0.937465  1
  Tb  Tb8  1  0.562536  0.937464  0.562536  1
  Tb  Tb9  1  0.937464  0.562535  0.937465  1
  Tb  Tb10  1  0.562536  0.562535  0.937465  1
  Tb  Tb11  1  0.937464  0.937464  0.562536  1
  Tb  Tb12  1  0.347862  0.347862  0.347862  1
  Tb  Tb13  1  0.347862  0.347862  0.956414  1
  Tb  Tb14  1  0.347862  0.956414  0.347862  1
  Tb  Tb15  1  0.956414  0.347862  0.347862  1
  Co  Co16  1  0.141373  0.141373  0.141373  1
  Co  Co17  1  0.141373  0.141373  0.575882  1
  Co  Co18  1  0.141373  0.575882  0.141373  1
  Co  Co19  1  0.575882  0.141373  0.141373  1
  Ag  Ag20  1  0.581053  0.581053  0.581053  1
  Ag  Ag21  1  0.581053  0.581053  0.256841  1
  Ag  Ag22  1  0.581053  0.256841  0.581053  1
  Ag  Ag23  1  0.256841  0.581053  0.581053  1
