# generated using pymatgen
data_Ce(LuSi2)2
_symmetry_space_group_name_H-M   'P 1'
_cell_length_a   3.89421156
_cell_length_b   4.18037763
_cell_length_c   9.11167375
_cell_angle_alpha   76.73843779
_cell_angle_beta   77.66110089
_cell_angle_gamma   89.99999398
_symmetry_Int_Tables_number   1
_chemical_formula_structural   Ce(LuSi2)2
_chemical_formula_sum   'Ce1 Lu2 Si4'
_cell_volume   140.85334743
_cell_formula_units_Z   1
loop_
 _symmetry_equiv_pos_site_id
 _symmetry_equiv_pos_as_xyz
  1  'x, y, z'
loop_
 _atom_site_type_symbol
 _atom_site_label
 _atom_site_symmetry_multiplicity
 _atom_site_fract_x
 _atom_site_fract_y
 _atom_site_fract_z
 _atom_site_occupancy
  Ce  Ce0  1  0.999986  0.999986  0.000031  1
  Lu  Lu1  1  0.684239  0.184239  0.631520  1
  Lu  Lu2  1  0.315780  0.815780  0.368441  1
  Si  Si3  1  0.849683  0.349683  0.300633  1
  Si  Si4  1  0.150313  0.650313  0.699373  1
  Si  Si5  1  0.567409  0.567409  0.865181  1
  Si  Si6  1  0.432590  0.432590  0.134822  1
