# generated using pymatgen
data_SrTb4Er2CoI12
_symmetry_space_group_name_H-M   'P 1'
_cell_length_a   9.73774594
_cell_length_b   9.81250538
_cell_length_c   9.81752630
_cell_angle_alpha   106.18971752
_cell_angle_beta   106.37513283
_cell_angle_gamma   106.07397207
_symmetry_Int_Tables_number   1
_chemical_formula_structural   SrTb4Er2CoI12
_chemical_formula_sum   'Sr1 Tb4 Er2 Co1 I12'
_cell_volume   797.41769894
_cell_formula_units_Z   1
loop_
 _symmetry_equiv_pos_site_id
 _symmetry_equiv_pos_as_xyz
  1  'x, y, z'
loop_
 _atom_site_type_symbol
 _atom_site_label
 _atom_site_symmetry_multiplicity
 _atom_site_fract_x
 _atom_site_fract_y
 _atom_site_fract_z
 _atom_site_occupancy
  Sr  Sr0  1  0.499952  0.500080  0.500030  1
  Tb  Tb1  1  0.279563  0.019395  0.089309  1
  Tb  Tb2  1  0.981085  0.907943  0.707171  1
  Tb  Tb3  1  0.907537  0.707300  0.980436  1
  Tb  Tb4  1  0.720901  0.981631  0.912134  1
  Er  Er5  1  0.019353  0.092347  0.288547  1
  Er  Er6  1  0.091217  0.288431  0.020174  1
  Co  Co7  1  0.000210  0.999996  0.000130  1
  I  I8  1  0.132631  0.445490  0.365243  1
  I  I9  1  0.445673  0.366804  0.134431  1
  I  I10  1  0.365700  0.134883  0.446892  1
  I  I11  1  0.866000  0.551763  0.632506  1
  I  I12  1  0.551232  0.633429  0.864346  1
  I  I13  1  0.631491  0.865139  0.553256  1
  I  I14  1  0.680059  0.073251  0.223230  1
  I  I15  1  0.073707  0.224761  0.678713  1
  I  I16  1  0.224884  0.677530  0.074066  1
  I  I17  1  0.323090  0.927617  0.779071  1
  I  I18  1  0.927687  0.780433  0.323570  1
  I  I19  1  0.778029  0.321776  0.926745  1
