# generated using pymatgen
data_Eu3Ga2Ir7
_symmetry_space_group_name_H-M   'P 1'
_cell_length_a   8.91718439
_cell_length_b   8.91718534
_cell_length_c   8.91718546
_cell_angle_alpha   36.29095118
_cell_angle_beta   36.29095279
_cell_angle_gamma   36.29094872
_symmetry_Int_Tables_number   1
_chemical_formula_structural   Eu3Ga2Ir7
_chemical_formula_sum   'Eu3 Ga2 Ir7'
_cell_volume   222.29338134
_cell_formula_units_Z   1
loop_
 _symmetry_equiv_pos_site_id
 _symmetry_equiv_pos_as_xyz
  1  'x, y, z'
loop_
 _atom_site_type_symbol
 _atom_site_label
 _atom_site_symmetry_multiplicity
 _atom_site_fract_x
 _atom_site_fract_y
 _atom_site_fract_z
 _atom_site_occupancy
  Eu  Eu0  1  0.359656  0.359656  0.359656  1
  Eu  Eu1  1  0.500000  0.500000  0.500000  1
  Eu  Eu2  1  0.640344  0.640344  0.640344  1
  Ga  Ga3  1  0.164191  0.164191  0.164191  1
  Ga  Ga4  1  0.835809  0.835809  0.835809  1
  Ir  Ir5  1  0.000000  0.000000  0.000000  1
  Ir  Ir6  1  0.575385  0.085206  0.085206  1
  Ir  Ir7  1  0.085206  0.575385  0.085206  1
  Ir  Ir8  1  0.914794  0.914794  0.424615  1
  Ir  Ir9  1  0.085206  0.085206  0.575385  1
  Ir  Ir10  1  0.914794  0.424615  0.914794  1
  Ir  Ir11  1  0.424615  0.914794  0.914794  1
