# generated using pymatgen
data_Sr2LiCdPd2
_symmetry_space_group_name_H-M   'P 1'
_cell_length_a   4.41696100
_cell_length_b   7.54495400
_cell_length_c   8.90751700
_cell_angle_alpha   90.00000000
_cell_angle_beta   90.00000000
_cell_angle_gamma   90.00000000
_symmetry_Int_Tables_number   1
_chemical_formula_structural   Sr2LiCdPd2
_chemical_formula_sum   'Sr4 Li2 Cd2 Pd4'
_cell_volume   296.84984112
_cell_formula_units_Z   2
loop_
 _symmetry_equiv_pos_site_id
 _symmetry_equiv_pos_as_xyz
  1  'x, y, z'
loop_
 _atom_site_type_symbol
 _atom_site_label
 _atom_site_symmetry_multiplicity
 _atom_site_fract_x
 _atom_site_fract_y
 _atom_site_fract_z
 _atom_site_occupancy
  Sr  Sr0  1  0.250000  0.537589  0.180261  1
  Sr  Sr1  1  0.750000  0.462838  0.819010  1
  Sr  Sr2  1  0.250000  0.037162  0.319010  1
  Sr  Sr3  1  0.750000  0.962411  0.680261  1
  Li  Li4  1  0.250000  0.124748  0.946569  1
  Li  Li5  1  0.750000  0.375252  0.446569  1
  Cd  Cd6  1  0.250000  0.632757  0.560495  1
  Cd  Cd7  1  0.750000  0.867243  0.060495  1
  Pd  Pd8  1  0.750000  0.236383  0.121332  1
  Pd  Pd9  1  0.250000  0.263617  0.621332  1
  Pd  Pd10  1  0.750000  0.732865  0.372334  1
  Pd  Pd11  1  0.250000  0.767135  0.872334  1
