# generated using pymatgen
data_Tb10Tl5In3Rh4
_symmetry_space_group_name_H-M   'P 1'
_cell_length_a   3.67915600
_cell_length_b   7.94473607
_cell_length_c   18.13349400
_cell_angle_alpha   89.86494466
_cell_angle_beta   90.00000000
_cell_angle_gamma   90.00000000
_symmetry_Int_Tables_number   1
_chemical_formula_structural   Tb10Tl5In3Rh4
_chemical_formula_sum   'Tb10 Tl5 In3 Rh4'
_cell_volume   530.03916782
_cell_formula_units_Z   1
loop_
 _symmetry_equiv_pos_site_id
 _symmetry_equiv_pos_as_xyz
  1  'x, y, z'
loop_
 _atom_site_type_symbol
 _atom_site_label
 _atom_site_symmetry_multiplicity
 _atom_site_fract_x
 _atom_site_fract_y
 _atom_site_fract_z
 _atom_site_occupancy
  Tb  Tb0  1  0.000000  0.498263  0.499304  1
  Tb  Tb1  1  0.000000  0.999631  0.000268  1
  Tb  Tb2  1  0.000000  0.747477  0.280748  1
  Tb  Tb3  1  0.000000  0.254587  0.719150  1
  Tb  Tb4  1  0.000000  0.752418  0.780232  1
  Tb  Tb5  1  0.000000  0.248116  0.219848  1
  Tb  Tb6  1  0.000000  0.615464  0.089626  1
  Tb  Tb7  1  0.000000  0.384050  0.911188  1
  Tb  Tb8  1  0.000000  0.885058  0.589998  1
  Tb  Tb9  1  0.000000  0.114164  0.410444  1
  Tl  Tl10  1  0.500000  0.709691  0.933227  1
  Tl  Tl11  1  0.500000  0.290256  0.066510  1
  Tl  Tl12  1  0.500000  0.789829  0.434324  1
  Tl  Tl13  1  0.500000  0.205591  0.564789  1
  Tl  Tl14  1  0.500000  0.575585  0.649360  1
  In  In15  1  0.500000  0.424039  0.349438  1
  In  In16  1  0.500000  0.924311  0.151240  1
  In  In17  1  0.500000  0.076073  0.848782  1
  Rh  Rh18  1  0.500000  0.530387  0.197328  1
  Rh  Rh19  1  0.500000  0.469220  0.804376  1
  Rh  Rh20  1  0.500000  0.976305  0.696490  1
  Rh  Rh21  1  0.500000  0.029486  0.303328  1
