# generated using pymatgen
data_Ho4GaTc6Ru
_symmetry_space_group_name_H-M   'P 1'
_cell_length_a   5.27193400
_cell_length_b   5.27193278
_cell_length_c   9.13507700
_cell_angle_alpha   89.99850990
_cell_angle_beta   90.00149166
_cell_angle_gamma   119.99202689
_symmetry_Int_Tables_number   1
_chemical_formula_structural   Ho4GaTc6Ru
_chemical_formula_sum   'Ho4 Ga1 Tc6 Ru1'
_cell_volume   219.89611651
_cell_formula_units_Z   1
loop_
 _symmetry_equiv_pos_site_id
 _symmetry_equiv_pos_as_xyz
  1  'x, y, z'
loop_
 _atom_site_type_symbol
 _atom_site_label
 _atom_site_symmetry_multiplicity
 _atom_site_fract_x
 _atom_site_fract_y
 _atom_site_fract_z
 _atom_site_occupancy
  Ho  Ho0  1  0.666669  0.333331  0.568949  1
  Ho  Ho1  1  0.333331  0.666669  0.431051  1
  Ho  Ho2  1  0.333321  0.666679  0.064685  1
  Ho  Ho3  1  0.666679  0.333321  0.935315  1
  Ga  Ga4  1  0.000000  0.000000  0.500000  1
  Tc  Tc5  1  0.170793  0.341544  0.748504  1
  Tc  Tc6  1  0.170781  0.829219  0.748484  1
  Tc  Tc7  1  0.658456  0.829207  0.748504  1
  Tc  Tc8  1  0.829207  0.658456  0.251496  1
  Tc  Tc9  1  0.829219  0.170781  0.251516  1
  Tc  Tc10  1  0.341544  0.170793  0.251496  1
  Ru  Ru11  1  0.000000  0.000000  0.000000  1
