# generated using pymatgen
data_Be8ReTcMo2
_symmetry_space_group_name_H-M   'P 1'
_cell_length_a   4.39961300
_cell_length_b   4.39961321
_cell_length_c   7.23609100
_cell_angle_alpha   90.00000000
_cell_angle_beta   90.00000000
_cell_angle_gamma   120.00002099
_symmetry_Int_Tables_number   1
_chemical_formula_structural   Be8ReTcMo2
_chemical_formula_sum   'Be8 Re1 Tc1 Mo2'
_cell_volume   121.30076326
_cell_formula_units_Z   1
loop_
 _symmetry_equiv_pos_site_id
 _symmetry_equiv_pos_as_xyz
  1  'x, y, z'
loop_
 _atom_site_type_symbol
 _atom_site_label
 _atom_site_symmetry_multiplicity
 _atom_site_fract_x
 _atom_site_fract_y
 _atom_site_fract_z
 _atom_site_occupancy
  Be  Be0  1  0.000000  0.000000  0.000070  1
  Be  Be1  1  0.000000  0.000000  0.500478  1
  Be  Be2  1  0.830790  0.661581  0.250122  1
  Be  Be3  1  0.169575  0.830425  0.750212  1
  Be  Be4  1  0.660851  0.830425  0.750212  1
  Be  Be5  1  0.338419  0.169210  0.250122  1
  Be  Be6  1  0.830790  0.169210  0.250122  1
  Be  Be7  1  0.169575  0.339149  0.750212  1
  Re  Re8  1  0.333333  0.666667  0.439494  1
  Tc  Tc9  1  0.666667  0.333333  0.939451  1
  Mo  Mo10  1  0.333333  0.666667  0.059849  1
  Mo  Mo11  1  0.666667  0.333333  0.559657  1
