# generated using pymatgen
data_K4Zr6OsCl18
_symmetry_space_group_name_H-M   'P 1'
_cell_length_a   10.10621402
_cell_length_b   10.29365829
_cell_length_c   10.38662800
_cell_angle_alpha   118.71892093
_cell_angle_beta   100.15187960
_cell_angle_gamma   103.85514133
_symmetry_Int_Tables_number   1
_chemical_formula_structural   K4Zr6OsCl18
_chemical_formula_sum   'K4 Zr6 Os1 Cl18'
_cell_volume   864.50525198
_cell_formula_units_Z   1
loop_
 _symmetry_equiv_pos_site_id
 _symmetry_equiv_pos_as_xyz
  1  'x, y, z'
loop_
 _atom_site_type_symbol
 _atom_site_label
 _atom_site_symmetry_multiplicity
 _atom_site_fract_x
 _atom_site_fract_y
 _atom_site_fract_z
 _atom_site_occupancy
  K  K0  1  0.652942  0.537054  0.227394  1
  K  K1  1  0.347058  0.462946  0.772606  1
  K  K2  1  0.688130  0.225957  0.564115  1
  K  K3  1  0.311870  0.774043  0.435885  1
  Zr  Zr4  1  0.165941  0.062431  0.253826  1
  Zr  Zr5  1  0.834059  0.937569  0.746174  1
  Zr  Zr6  1  0.846349  0.138684  0.145406  1
  Zr  Zr7  1  0.153651  0.861316  0.854594  1
  Zr  Zr8  1  0.158936  0.262574  0.048592  1
  Zr  Zr9  1  0.841064  0.737426  0.951408  1
  Os  Os10  1  0.000000  0.000000  0.000000  1
  Cl  Cl11  1  0.009457  0.414268  0.200744  1
  Cl  Cl12  1  0.990543  0.585732  0.799256  1
  Cl  Cl13  1  0.331291  0.336771  0.313316  1
  Cl  Cl14  1  0.668709  0.663229  0.686684  1
  Cl  Cl15  1  0.333079  0.532386  0.103382  1
  Cl  Cl16  1  0.666921  0.467614  0.896618  1
  Cl  Cl17  1  0.005559  0.794419  0.212030  1
  Cl  Cl18  1  0.994441  0.205581  0.787970  1
  Cl  Cl19  1  0.698018  0.285804  0.298740  1
  Cl  Cl20  1  0.301982  0.714196  0.701260  1
  Cl  Cl21  1  0.319553  0.128520  0.902385  1
  Cl  Cl22  1  0.680447  0.871480  0.097615  1
  Cl  Cl23  1  0.015654  0.207390  0.412193  1
  Cl  Cl24  1  0.984346  0.792610  0.587807  1
  Cl  Cl25  1  0.323695  0.921285  0.111007  1
  Cl  Cl26  1  0.676305  0.078715  0.888993  1
  Cl  Cl27  1  0.343773  0.123700  0.512667  1
  Cl  Cl28  1  0.656227  0.876300  0.487333  1
