# generated using pymatgen
data_MnNb2Fe2Os
_symmetry_space_group_name_H-M   'P 1'
_cell_length_a   4.86868144
_cell_length_b   4.85606468
_cell_length_c   8.07287800
_cell_angle_alpha   90.00000000
_cell_angle_beta   90.00000000
_cell_angle_gamma   119.91433619
_symmetry_Int_Tables_number   1
_chemical_formula_structural   MnNb2Fe2Os
_chemical_formula_sum   'Mn2 Nb4 Fe4 Os2'
_cell_volume   165.43564244
_cell_formula_units_Z   2
loop_
 _symmetry_equiv_pos_site_id
 _symmetry_equiv_pos_as_xyz
  1  'x, y, z'
loop_
 _atom_site_type_symbol
 _atom_site_label
 _atom_site_symmetry_multiplicity
 _atom_site_fract_x
 _atom_site_fract_y
 _atom_site_fract_z
 _atom_site_occupancy
  Mn  Mn0  1  0.823851  0.647238  0.250000  1
  Mn  Mn1  1  0.176149  0.823387  0.750000  1
  Nb  Nb2  1  0.333050  0.666020  0.432094  1
  Nb  Nb3  1  0.666950  0.332969  0.932094  1
  Nb  Nb4  1  0.666950  0.332969  0.567906  1
  Nb  Nb5  1  0.333050  0.666020  0.067906  1
  Fe  Fe6  1  0.172513  0.350352  0.750000  1
  Fe  Fe7  1  0.827487  0.177839  0.250000  1
  Fe  Fe8  1  0.351919  0.178742  0.250000  1
  Fe  Fe9  1  0.648081  0.826823  0.750000  1
  Os  Os10  1  0.000000  0.998821  0.000000  1
  Os  Os11  1  0.000000  0.998821  0.500000  1
