# generated using pymatgen
data_Th4MgHgAu4
_symmetry_space_group_name_H-M   'P 1'
_cell_length_a   8.06544800
_cell_length_b   3.97975800
_cell_length_c   8.06544800
_cell_angle_alpha   90.00000000
_cell_angle_beta   90.00000000
_cell_angle_gamma   90.00000000
_symmetry_Int_Tables_number   1
_chemical_formula_structural   Th4MgHgAu4
_chemical_formula_sum   'Th4 Mg1 Hg1 Au4'
_cell_volume   258.88903428
_cell_formula_units_Z   1
loop_
 _symmetry_equiv_pos_site_id
 _symmetry_equiv_pos_as_xyz
  1  'x, y, z'
loop_
 _atom_site_type_symbol
 _atom_site_label
 _atom_site_symmetry_multiplicity
 _atom_site_fract_x
 _atom_site_fract_y
 _atom_site_fract_z
 _atom_site_occupancy
  Th  Th0  1  0.320779  0.500000  0.172340  1
  Th  Th1  1  0.827660  0.500000  0.320779  1
  Th  Th2  1  0.172340  0.500000  0.679222  1
  Th  Th3  1  0.679222  0.500000  0.827660  1
  Mg  Mg4  1  0.500000  0.000000  0.500000  1
  Hg  Hg5  1  0.000000  0.000000  0.000000  1
  Au  Au6  1  0.620651  0.000000  0.136025  1
  Au  Au7  1  0.136025  0.000000  0.379351  1
  Au  Au8  1  0.863977  0.000000  0.620651  1
  Au  Au9  1  0.379351  0.000000  0.863977  1
