# generated using pymatgen
data_YbYLu2(Ir2O7)2
_symmetry_space_group_name_H-M   'P 1'
_cell_length_a   7.19369591
_cell_length_b   7.20519876
_cell_length_c   7.16547800
_cell_angle_alpha   60.18220392
_cell_angle_beta   60.12968277
_cell_angle_gamma   60.27451921
_symmetry_Int_Tables_number   1
_chemical_formula_structural   YbYLu2(Ir2O7)2
_chemical_formula_sum   'Yb1 Y1 Lu2 Ir4 O14'
_cell_volume   263.78181876
_cell_formula_units_Z   1
loop_
 _symmetry_equiv_pos_site_id
 _symmetry_equiv_pos_as_xyz
  1  'x, y, z'
loop_
 _atom_site_type_symbol
 _atom_site_label
 _atom_site_symmetry_multiplicity
 _atom_site_fract_x
 _atom_site_fract_y
 _atom_site_fract_z
 _atom_site_occupancy
  Yb  Yb0  1  0.125000  0.625000  0.125000  1
  Y  Y1  1  0.625000  0.125000  0.125000  1
  Lu  Lu2  1  0.125000  0.125000  0.625000  1
  Lu  Lu3  1  0.125000  0.125000  0.125000  1
  Ir  Ir4  1  0.125000  0.625000  0.625000  1
  Ir  Ir5  1  0.625000  0.125000  0.625000  1
  Ir  Ir6  1  0.625000  0.625000  0.125000  1
  Ir  Ir7  1  0.625000  0.625000  0.625000  1
  O  O8  1  0.705875  0.714760  0.289683  1
  O  O9  1  0.288480  0.287982  0.711770  1
  O  O10  1  0.717569  0.288039  0.705448  1
  O  O11  1  0.289593  0.721160  0.290254  1
  O  O12  1  0.289593  0.721160  0.698993  1
  O  O13  1  0.717569  0.288039  0.288945  1
  O  O14  1  0.544125  0.535240  0.960317  1
  O  O15  1  0.961520  0.962018  0.538230  1
  O  O16  1  0.532431  0.961961  0.544552  1
  O  O17  1  0.960407  0.528840  0.959746  1
  O  O18  1  0.960407  0.528840  0.551007  1
  O  O19  1  0.532431  0.961961  0.961055  1
  O  O20  1  0.247672  0.240424  0.255951  1
  O  O21  1  0.002328  0.009576  0.994049  1
