# generated using pymatgen
data_Y4ScCd3Hg8
_symmetry_space_group_name_H-M   'P 1'
_cell_length_a   7.34064227
_cell_length_b   5.09077809
_cell_length_c   10.19899421
_cell_angle_alpha   89.99684227
_cell_angle_beta   89.97707594
_cell_angle_gamma   90.02119168
_symmetry_Int_Tables_number   1
_chemical_formula_structural   Y4ScCd3Hg8
_chemical_formula_sum   'Y4 Sc1 Cd3 Hg8'
_cell_volume   381.13208138
_cell_formula_units_Z   1
loop_
 _symmetry_equiv_pos_site_id
 _symmetry_equiv_pos_as_xyz
  1  'x, y, z'
loop_
 _atom_site_type_symbol
 _atom_site_label
 _atom_site_symmetry_multiplicity
 _atom_site_fract_x
 _atom_site_fract_y
 _atom_site_fract_z
 _atom_site_occupancy
  Y  Y0  1  0.750028  0.250004  0.124358  1
  Y  Y1  1  0.250019  0.750000  0.382953  1
  Y  Y2  1  0.749972  0.249987  0.624448  1
  Y  Y3  1  0.249971  0.750004  0.867976  1
  Sc  Sc4  1  0.250047  0.250016  0.124534  1
  Cd  Cd5  1  0.750016  0.750002  0.378930  1
  Cd  Cd6  1  0.249978  0.250002  0.624303  1
  Cd  Cd7  1  0.749976  0.749996  0.872468  1
  Hg  Hg8  1  0.493816  0.750022  0.125673  1
  Hg  Hg9  1  0.006228  0.749999  0.125697  1
  Hg  Hg10  1  0.497308  0.250020  0.367331  1
  Hg  Hg11  1  0.002720  0.249974  0.367337  1
  Hg  Hg12  1  0.996124  0.750009  0.625665  1
  Hg  Hg13  1  0.503836  0.749974  0.625665  1
  Hg  Hg14  1  0.002848  0.249970  0.881317  1
  Hg  Hg15  1  0.497109  0.250021  0.881343  1
