# generated using pymatgen
data_DyHo6Tm(WO6)4
_symmetry_space_group_name_H-M   'P 1'
_cell_length_a   5.38040542
_cell_length_b   7.68554276
_cell_length_c   11.43793829
_cell_angle_alpha   75.42626960
_cell_angle_beta   89.99847847
_cell_angle_gamma   89.95578469
_symmetry_Int_Tables_number   1
_chemical_formula_structural   DyHo6Tm(WO6)4
_chemical_formula_sum   'Dy1 Ho6 Tm1 W4 O24'
_cell_volume   457.75577593
_cell_formula_units_Z   1
loop_
 _symmetry_equiv_pos_site_id
 _symmetry_equiv_pos_as_xyz
  1  'x, y, z'
loop_
 _atom_site_type_symbol
 _atom_site_label
 _atom_site_symmetry_multiplicity
 _atom_site_fract_x
 _atom_site_fract_y
 _atom_site_fract_z
 _atom_site_occupancy
  Dy  Dy0  1  0.316266  0.499516  0.250557  1
  Ho  Ho1  1  0.739379  0.000243  0.749459  1
  Ho  Ho2  1  0.259964  0.000356  0.250703  1
  Ho  Ho3  1  0.184382  0.795266  0.578002  1
  Ho  Ho4  1  0.814944  0.795170  0.077807  1
  Ho  Ho5  1  0.684198  0.499827  0.749834  1
  Ho  Ho6  1  0.184967  0.205099  0.921738  1
  Tm  Tm7  1  0.815450  0.205657  0.421659  1
  W  W8  1  0.255203  0.723089  0.885264  1
  W  W9  1  0.744827  0.723358  0.385650  1
  W  W10  1  0.255367  0.276670  0.614101  1
  W  W11  1  0.745193  0.276254  0.114842  1
  O  O12  1  0.042532  0.939875  0.895046  1
  O  O13  1  0.532485  0.848366  0.930727  1
  O  O14  1  0.955085  0.941506  0.396052  1
  O  O15  1  0.459135  0.790517  0.726988  1
  O  O16  1  0.465769  0.847221  0.430829  1
  O  O17  1  0.980367  0.709662  0.771408  1
  O  O18  1  0.540981  0.790365  0.227314  1
  O  O19  1  0.849306  0.634847  0.549073  1
  O  O20  1  0.362494  0.489330  0.885622  1
  O  O21  1  0.019766  0.711836  0.271617  1
  O  O22  1  0.361904  0.510332  0.613731  1
  O  O23  1  0.849224  0.365121  0.951192  1
  O  O24  1  0.149759  0.633973  0.048499  1
  O  O25  1  0.641275  0.488443  0.386195  1
  O  O26  1  0.980907  0.290266  0.728467  1
  O  O27  1  0.639172  0.510275  0.114078  1
  O  O28  1  0.147255  0.365004  0.451130  1
  O  O29  1  0.459300  0.209168  0.772384  1
  O  O30  1  0.018817  0.288342  0.229978  1
  O  O31  1  0.534486  0.153144  0.567650  1
  O  O32  1  0.542933  0.208708  0.274182  1
  O  O33  1  0.042264  0.060644  0.604057  1
  O  O34  1  0.466590  0.152212  0.069954  1
  O  O35  1  0.958058  0.060336  0.104211  1
