# generated using pymatgen
data_Np4MnCo3B16
_symmetry_space_group_name_H-M   'P 1'
_cell_length_a   3.33560500
_cell_length_b   5.92131954
_cell_length_c   11.48490024
_cell_angle_alpha   89.94888530
_cell_angle_beta   90.00000000
_cell_angle_gamma   90.00000000
_symmetry_Int_Tables_number   1
_chemical_formula_structural   Np4MnCo3B16
_chemical_formula_sum   'Np4 Mn1 Co3 B16'
_cell_volume   226.84027688
_cell_formula_units_Z   1
loop_
 _symmetry_equiv_pos_site_id
 _symmetry_equiv_pos_as_xyz
  1  'x, y, z'
loop_
 _atom_site_type_symbol
 _atom_site_label
 _atom_site_symmetry_multiplicity
 _atom_site_fract_x
 _atom_site_fract_y
 _atom_site_fract_z
 _atom_site_occupancy
  Np  Np0  1  0.500000  0.373926  0.149953  1
  Np  Np1  1  0.500000  0.626782  0.849739  1
  Np  Np2  1  0.500000  0.126871  0.650006  1
  Np  Np3  1  0.500000  0.873476  0.349885  1
  Mn  Mn4  1  0.500000  0.868217  0.087838  1
  Co  Co5  1  0.500000  0.368431  0.411816  1
  Co  Co6  1  0.500000  0.631689  0.587767  1
  Co  Co7  1  0.500000  0.133845  0.911458  1
  B  B8  1  0.000000  0.112939  0.046577  1
  B  B9  1  0.000000  0.886098  0.954296  1
  B  B10  1  0.000000  0.386503  0.546095  1
  B  B11  1  0.000000  0.613574  0.453879  1
  B  B12  1  0.000000  0.136800  0.466015  1
  B  B13  1  0.000000  0.863230  0.533859  1
  B  B14  1  0.000000  0.363036  0.966684  1
  B  B15  1  0.000000  0.636234  0.033237  1
  B  B16  1  0.000000  0.025891  0.191169  1
  B  B17  1  0.000000  0.974086  0.808829  1
  B  B18  1  0.000000  0.474790  0.690788  1
  B  B19  1  0.000000  0.524590  0.309478  1
  B  B20  1  0.000000  0.218246  0.314714  1
  B  B21  1  0.000000  0.781876  0.685403  1
  B  B22  1  0.000000  0.280973  0.814272  1
  B  B23  1  0.000000  0.717898  0.186247  1
