# generated using pymatgen
data_La16Cd4FePt3
_symmetry_space_group_name_H-M   'P 1'
_cell_length_a   10.15668585
_cell_length_b   10.15668512
_cell_length_c   10.15668533
_cell_angle_alpha   59.93660624
_cell_angle_beta   59.93661114
_cell_angle_gamma   59.93660604
_symmetry_Int_Tables_number   1
_chemical_formula_structural   La16Cd4FePt3
_chemical_formula_sum   'La16 Cd4 Fe1 Pt3'
_cell_volume   739.80304856
_cell_formula_units_Z   1
loop_
 _symmetry_equiv_pos_site_id
 _symmetry_equiv_pos_as_xyz
  1  'x, y, z'
loop_
 _atom_site_type_symbol
 _atom_site_label
 _atom_site_symmetry_multiplicity
 _atom_site_fract_x
 _atom_site_fract_y
 _atom_site_fract_z
 _atom_site_occupancy
  La  La0  1  0.600295  0.600295  0.600295  1
  La  La1  1  0.592882  0.592882  0.207426  1
  La  La2  1  0.592882  0.207426  0.592882  1
  La  La3  1  0.207426  0.592882  0.592882  1
  La  La4  1  0.073486  0.437737  0.437737  1
  La  La5  1  0.442130  0.056943  0.056943  1
  La  La6  1  0.437737  0.073486  0.437737  1
  La  La7  1  0.056943  0.442130  0.056943  1
  La  La8  1  0.437737  0.437737  0.073486  1
  La  La9  1  0.056943  0.056943  0.442130  1
  La  La10  1  0.189500  0.812266  0.812266  1
  La  La11  1  0.808204  0.187925  0.187925  1
  La  La12  1  0.812266  0.189500  0.812266  1
  La  La13  1  0.187925  0.808204  0.187925  1
  La  La14  1  0.812266  0.812266  0.189500  1
  La  La15  1  0.187925  0.187925  0.808204  1
  Cd  Cd16  1  0.828968  0.828968  0.828968  1
  Cd  Cd17  1  0.830093  0.830093  0.510505  1
  Cd  Cd18  1  0.830093  0.510505  0.830093  1
  Cd  Cd19  1  0.510505  0.830093  0.830093  1
  Fe  Fe20  1  0.391153  0.391153  0.391153  1
  Pt  Pt21  1  0.394090  0.394090  0.824460  1
  Pt  Pt22  1  0.394090  0.824460  0.394090  1
  Pt  Pt23  1  0.824460  0.394090  0.394090  1
