# generated using pymatgen
data_Ho4Tm6IrRu3
_symmetry_space_group_name_H-M   'P 1'
_cell_length_a   6.28249524
_cell_length_b   7.27642526
_cell_length_c   8.36154752
_cell_angle_alpha   96.86932492
_cell_angle_beta   111.95815551
_cell_angle_gamma   90.11682121
_symmetry_Int_Tables_number   1
_chemical_formula_structural   Ho4Tm6IrRu3
_chemical_formula_sum   'Ho4 Tm6 Ir1 Ru3'
_cell_volume   351.51283315
_cell_formula_units_Z   1
loop_
 _symmetry_equiv_pos_site_id
 _symmetry_equiv_pos_as_xyz
  1  'x, y, z'
loop_
 _atom_site_type_symbol
 _atom_site_label
 _atom_site_symmetry_multiplicity
 _atom_site_fract_x
 _atom_site_fract_y
 _atom_site_fract_z
 _atom_site_occupancy
  Ho  Ho0  1  0.791780  0.081866  0.814397  1
  Ho  Ho1  1  0.977930  0.415242  0.187358  1
  Ho  Ho2  1  0.209024  0.915820  0.186348  1
  Ho  Ho3  1  0.024883  0.585266  0.814429  1
  Tm  Tm4  1  0.204610  0.183472  0.564481  1
  Tm  Tm5  1  0.641851  0.316319  0.434438  1
  Tm  Tm6  1  0.793947  0.815531  0.434718  1
  Tm  Tm7  1  0.357124  0.685273  0.563765  1
  Tm  Tm8  1  0.419723  0.249684  0.000391  1
  Tm  Tm9  1  0.580319  0.751289  0.000757  1
  Ir  Ir10  1  0.600435  0.423167  0.778639  1
  Ru  Ru11  1  0.823321  0.076828  0.220143  1
  Ru  Ru12  1  0.396709  0.576125  0.220697  1
  Ru  Ru13  1  0.178344  0.924119  0.779440  1
