# generated using pymatgen
data_DyPa3(Rh2Pb)2
_symmetry_space_group_name_H-M   'P 1'
_cell_length_a   7.80962789
_cell_length_b   7.80962776
_cell_length_c   3.59097200
_cell_angle_alpha   90.00000000
_cell_angle_beta   90.00000000
_cell_angle_gamma   87.69576562
_symmetry_Int_Tables_number   1
_chemical_formula_structural   DyPa3(Rh2Pb)2
_chemical_formula_sum   'Dy1 Pa3 Rh4 Pb2'
_cell_volume   218.83732287
_cell_formula_units_Z   1
loop_
 _symmetry_equiv_pos_site_id
 _symmetry_equiv_pos_as_xyz
  1  'x, y, z'
loop_
 _atom_site_type_symbol
 _atom_site_label
 _atom_site_symmetry_multiplicity
 _atom_site_fract_x
 _atom_site_fract_y
 _atom_site_fract_z
 _atom_site_occupancy
  Dy  Dy0  1  0.328794  0.828794  0.500000  1
  Pa  Pa1  1  0.667912  0.167912  0.500000  1
  Pa  Pa2  1  0.171785  0.330193  0.500000  1
  Pa  Pa3  1  0.830193  0.671785  0.500000  1
  Rh  Rh4  1  0.860226  0.360226  0.000000  1
  Rh  Rh5  1  0.376757  0.147954  0.000000  1
  Rh  Rh6  1  0.647954  0.876757  0.000000  1
  Rh  Rh7  1  0.111206  0.611206  0.000000  1
  Pb  Pb8  1  0.008885  0.996287  0.000000  1
  Pb  Pb9  1  0.496287  0.508885  0.000000  1
