# generated using pymatgen
data_Gd4Al18(OsAu)3
_symmetry_space_group_name_H-M   'P 1'
_cell_length_a   7.65218286
_cell_length_b   7.65218183
_cell_length_c   9.48692200
_cell_angle_alpha   90.08716961
_cell_angle_beta   90.08716960
_cell_angle_gamma   119.63903354
_symmetry_Int_Tables_number   1
_chemical_formula_structural   Gd4Al18(OsAu)3
_chemical_formula_sum   'Gd4 Al18 Os3 Au3'
_cell_volume   482.82839709
_cell_formula_units_Z   1
loop_
 _symmetry_equiv_pos_site_id
 _symmetry_equiv_pos_as_xyz
  1  'x, y, z'
loop_
 _atom_site_type_symbol
 _atom_site_label
 _atom_site_symmetry_multiplicity
 _atom_site_fract_x
 _atom_site_fract_y
 _atom_site_fract_z
 _atom_site_occupancy
  Gd  Gd0  1  0.996187  0.668932  0.247630  1
  Gd  Gd1  1  0.005946  0.332847  0.751443  1
  Gd  Gd2  1  0.667153  0.994054  0.248557  1
  Gd  Gd3  1  0.331068  0.003813  0.752370  1
  Al  Al4  1  0.120554  0.122722  0.248627  1
  Al  Al5  1  0.877278  0.879446  0.751373  1
  Al  Al6  1  0.989416  0.322665  0.074693  1
  Al  Al7  1  0.989914  0.664416  0.924137  1
  Al  Al8  1  0.996600  0.676338  0.580721  1
  Al  Al9  1  0.323662  0.003400  0.419279  1
  Al  Al10  1  0.001507  0.324853  0.421047  1
  Al  Al11  1  0.675147  0.998493  0.578953  1
  Al  Al12  1  0.677335  0.010584  0.925307  1
  Al  Al13  1  0.335584  0.010086  0.075863  1
  Al  Al14  1  0.324808  0.325389  0.561693  1
  Al  Al15  1  0.674611  0.675192  0.438307  1
  Al  Al16  1  0.677997  0.667558  0.049144  1
  Al  Al17  1  0.332442  0.322003  0.950856  1
  Al  Al18  1  0.341180  0.538947  0.248832  1
  Al  Al19  1  0.656397  0.452857  0.758101  1
  Al  Al20  1  0.547143  0.343603  0.241899  1
  Al  Al21  1  0.461053  0.658820  0.751168  1
  Os  Os22  1  0.671711  0.328289  0.000000  1
  Os  Os23  1  0.000950  0.999050  0.000000  1
  Os  Os24  1  0.999534  0.000466  0.500000  1
  Au  Au25  1  0.326503  0.673497  0.000000  1
  Au  Au26  1  0.325550  0.674450  0.500000  1
  Au  Au27  1  0.672772  0.327228  0.500000  1
