# generated using pymatgen
data_Tb5SmCd23Sn
_symmetry_space_group_name_H-M   'P 1'
_cell_length_a   10.03099655
_cell_length_b   10.02833379
_cell_length_c   10.02833435
_cell_angle_alpha   60.01756751
_cell_angle_beta   59.99122112
_cell_angle_gamma   59.99121632
_symmetry_Int_Tables_number   1
_chemical_formula_structural   Tb5SmCd23Sn
_chemical_formula_sum   'Tb5 Sm1 Cd23 Sn1'
_cell_volume   713.32365217
_cell_formula_units_Z   1
loop_
 _symmetry_equiv_pos_site_id
 _symmetry_equiv_pos_as_xyz
  1  'x, y, z'
loop_
 _atom_site_type_symbol
 _atom_site_label
 _atom_site_symmetry_multiplicity
 _atom_site_fract_x
 _atom_site_fract_y
 _atom_site_fract_z
 _atom_site_occupancy
  Tb  Tb0  1  0.782701  0.782946  0.217299  1
  Tb  Tb1  1  0.217054  0.782946  0.217299  1
  Tb  Tb2  1  0.782437  0.217563  0.217563  1
  Tb  Tb3  1  0.217054  0.217299  0.782946  1
  Tb  Tb4  1  0.782701  0.217299  0.782946  1
  Sm  Sm5  1  0.217643  0.782357  0.782357  1
  Cd  Cd6  1  0.841330  0.841339  0.476000  1
  Cd  Cd7  1  0.841330  0.476000  0.841339  1
  Cd  Cd8  1  0.477045  0.841282  0.841282  1
  Cd  Cd9  1  0.840392  0.841282  0.841282  1
  Cd  Cd10  1  0.158718  0.159608  0.522955  1
  Cd  Cd11  1  0.158718  0.522955  0.159608  1
  Cd  Cd12  1  0.524000  0.158670  0.158670  1
  Cd  Cd13  1  0.158661  0.158670  0.158670  1
  Cd  Cd14  1  0.624186  0.623945  0.127683  1
  Cd  Cd15  1  0.624186  0.127683  0.623945  1
  Cd  Cd16  1  0.127188  0.623722  0.623722  1
  Cd  Cd17  1  0.625368  0.623722  0.623722  1
  Cd  Cd18  1  0.376278  0.374632  0.872812  1
  Cd  Cd19  1  0.376278  0.872812  0.374632  1
  Cd  Cd20  1  0.872317  0.375814  0.375814  1
  Cd  Cd21  1  0.376055  0.375814  0.375814  1
  Cd  Cd22  1  0.999838  0.000162  0.499808  1
  Cd  Cd23  1  0.500192  0.000162  0.499808  1
  Cd  Cd24  1  0.999873  0.500127  0.500127  1
  Cd  Cd25  1  0.500192  0.499808  0.000162  1
  Cd  Cd26  1  0.999838  0.499808  0.000162  1
  Cd  Cd27  1  0.499873  0.000127  0.000127  1
  Cd  Cd28  1  0.499936  0.500064  0.500064  1
  Sn  Sn29  1  0.998617  0.001383  0.001383  1
