# generated using pymatgen
data_Lu9Mg(Cu2Bi)2
_symmetry_space_group_name_H-M   'P 1'
_cell_length_a   8.42664386
_cell_length_b   8.42664376
_cell_length_c   8.42664415
_cell_angle_alpha   125.91428445
_cell_angle_beta   125.91428654
_cell_angle_gamma   80.02905784
_symmetry_Int_Tables_number   1
_chemical_formula_structural   Lu9Mg(Cu2Bi)2
_chemical_formula_sum   'Lu9 Mg1 Cu4 Bi2'
_cell_volume   378.92470690
_cell_formula_units_Z   1
loop_
 _symmetry_equiv_pos_site_id
 _symmetry_equiv_pos_as_xyz
  1  'x, y, z'
loop_
 _atom_site_type_symbol
 _atom_site_label
 _atom_site_symmetry_multiplicity
 _atom_site_fract_x
 _atom_site_fract_y
 _atom_site_fract_z
 _atom_site_occupancy
  Lu  Lu0  1  0.500000  0.500000  0.000000  1
  Lu  Lu1  1  0.797326  0.288234  0.811285  1
  Lu  Lu2  1  0.202674  0.711766  0.188715  1
  Lu  Lu3  1  0.476949  0.986040  0.188715  1
  Lu  Lu4  1  0.288234  0.476949  0.490909  1
  Lu  Lu5  1  0.013960  0.202674  0.490909  1
  Lu  Lu6  1  0.523051  0.013960  0.811285  1
  Lu  Lu7  1  0.711766  0.523051  0.509091  1
  Lu  Lu8  1  0.986040  0.797326  0.509091  1
  Mg  Mg9  1  0.000000  0.000000  0.000000  1
  Cu  Cu10  1  0.134612  0.630860  0.765474  1
  Cu  Cu11  1  0.865388  0.369140  0.234526  1
  Cu  Cu12  1  0.630860  0.865388  0.496249  1
  Cu  Cu13  1  0.369140  0.134612  0.503751  1
  Bi  Bi14  1  0.251543  0.251543  0.000000  1
  Bi  Bi15  1  0.748457  0.748457  0.000000  1
