# generated using pymatgen
data_Tb6NdTh(Si3Pd)4
_symmetry_space_group_name_H-M   'P 1'
_cell_length_a   8.20248300
_cell_length_b   8.19694421
_cell_length_c   8.27200900
_cell_angle_alpha   90.00000000
_cell_angle_beta   90.00000000
_cell_angle_gamma   120.02235899
_symmetry_Int_Tables_number   1
_chemical_formula_structural   Tb6NdTh(Si3Pd)4
_chemical_formula_sum   'Tb6 Nd1 Th1 Si12 Pd4'
_cell_volume   481.54963253
_cell_formula_units_Z   1
loop_
 _symmetry_equiv_pos_site_id
 _symmetry_equiv_pos_as_xyz
  1  'x, y, z'
loop_
 _atom_site_type_symbol
 _atom_site_label
 _atom_site_symmetry_multiplicity
 _atom_site_fract_x
 _atom_site_fract_y
 _atom_site_fract_z
 _atom_site_occupancy
  Tb  Tb0  1  0.499713  0.999427  0.750000  1
  Tb  Tb1  1  0.999543  0.499772  0.250000  1
  Tb  Tb2  1  0.000594  0.500324  0.750000  1
  Tb  Tb3  1  0.500230  0.499772  0.250000  1
  Tb  Tb4  1  0.499727  0.500324  0.750000  1
  Tb  Tb5  1  0.999982  0.999964  0.750000  1
  Nd  Nd6  1  0.000010  0.000019  0.250000  1
  Th  Th7  1  0.500243  0.000486  0.250000  1
  Si  Si8  1  0.166464  0.332927  0.998701  1
  Si  Si9  1  0.833535  0.667070  0.998062  1
  Si  Si10  1  0.668810  0.833685  0.996249  1
  Si  Si11  1  0.833535  0.667070  0.501938  1
  Si  Si12  1  0.331180  0.166309  0.995624  1
  Si  Si13  1  0.166464  0.332927  0.501299  1
  Si  Si14  1  0.164874  0.833685  0.996249  1
  Si  Si15  1  0.331180  0.166309  0.504376  1
  Si  Si16  1  0.835129  0.166309  0.995624  1
  Si  Si17  1  0.668810  0.833685  0.503751  1
  Si  Si18  1  0.835129  0.166309  0.504376  1
  Si  Si19  1  0.164874  0.833685  0.503751  1
  Pd  Pd20  1  0.333257  0.666515  0.997957  1
  Pd  Pd21  1  0.666728  0.333457  0.996836  1
  Pd  Pd22  1  0.666728  0.333457  0.503164  1
  Pd  Pd23  1  0.333257  0.666515  0.502043  1
