# generated using pymatgen
data_CdHg4(PCl2)2
_symmetry_space_group_name_H-M   'P 1'
_cell_length_a   12.46774000
_cell_length_b   7.84952682
_cell_length_c   7.90028521
_cell_angle_alpha   62.14781962
_cell_angle_beta   90.00000000
_cell_angle_gamma   90.00000000
_symmetry_Int_Tables_number   1
_chemical_formula_structural   CdHg4(PCl2)2
_chemical_formula_sum   'Cd2 Hg8 P4 Cl8'
_cell_volume   683.60119782
_cell_formula_units_Z   2
loop_
 _symmetry_equiv_pos_site_id
 _symmetry_equiv_pos_as_xyz
  1  'x, y, z'
loop_
 _atom_site_type_symbol
 _atom_site_label
 _atom_site_symmetry_multiplicity
 _atom_site_fract_x
 _atom_site_fract_y
 _atom_site_fract_z
 _atom_site_occupancy
  Cd  Cd0  1  0.829189  0.995226  0.005758  1
  Cd  Cd1  1  0.329189  0.004774  0.994242  1
  Hg  Hg2  1  0.794223  0.670577  0.667966  1
  Hg  Hg3  1  0.552408  0.026549  0.581166  1
  Hg  Hg4  1  0.052408  0.973451  0.418834  1
  Hg  Hg5  1  0.558101  0.521608  0.059888  1
  Hg  Hg6  1  0.294223  0.329423  0.332034  1
  Hg  Hg7  1  0.024690  0.475189  0.440537  1
  Hg  Hg8  1  0.524690  0.524811  0.559463  1
  Hg  Hg9  1  0.058101  0.478392  0.940112  1
  P  P10  1  0.484755  0.350747  0.380886  1
  P  P11  1  0.603835  0.689785  0.722470  1
  P  P12  1  0.984755  0.649253  0.619114  1
  P  P13  1  0.103835  0.310215  0.277530  1
  Cl  Cl14  1  0.238840  0.306210  0.755426  1
  Cl  Cl15  1  0.319671  0.719555  0.933948  1
  Cl  Cl16  1  0.026822  0.887324  0.089801  1
  Cl  Cl17  1  0.738840  0.693790  0.244574  1
  Cl  Cl18  1  0.526822  0.112676  0.910199  1
  Cl  Cl19  1  0.819671  0.280445  0.066052  1
  Cl  Cl20  1  0.806196  0.091371  0.658964  1
  Cl  Cl21  1  0.306196  0.908629  0.341036  1
