# generated using pymatgen
data_Y6Er14Cd5InNi2
_symmetry_space_group_name_H-M   'P 1'
_cell_length_a   9.59365800
_cell_length_b   9.59365789
_cell_length_c   9.67592400
_cell_angle_alpha   90.00000000
_cell_angle_beta   90.00000000
_cell_angle_gamma   120.10190346
_symmetry_Int_Tables_number   1
_chemical_formula_structural   Y6Er14Cd5InNi2
_chemical_formula_sum   'Y6 Er14 Cd5 In1 Ni2'
_cell_volume   770.45037326
_cell_formula_units_Z   1
loop_
 _symmetry_equiv_pos_site_id
 _symmetry_equiv_pos_as_xyz
  1  'x, y, z'
loop_
 _atom_site_type_symbol
 _atom_site_label
 _atom_site_symmetry_multiplicity
 _atom_site_fract_x
 _atom_site_fract_y
 _atom_site_fract_z
 _atom_site_occupancy
  Y  Y0  1  0.542432  0.457568  0.250000  1
  Y  Y1  1  0.539568  0.086644  0.250000  1
  Y  Y2  1  0.913356  0.460432  0.250000  1
  Y  Y3  1  0.456455  0.543545  0.750000  1
  Y  Y4  1  0.457144  0.913471  0.750000  1
  Y  Y5  1  0.086529  0.542856  0.750000  1
  Er  Er6  1  0.001772  0.998228  0.501646  1
  Er  Er7  1  0.001772  0.998228  0.998354  1
  Er  Er8  1  0.210767  0.789233  0.437187  1
  Er  Er9  1  0.210157  0.420697  0.436467  1
  Er  Er10  1  0.579303  0.789843  0.436467  1
  Er  Er11  1  0.789584  0.210416  0.562920  1
  Er  Er12  1  0.789084  0.578633  0.564164  1
  Er  Er13  1  0.421367  0.210916  0.564164  1
  Er  Er14  1  0.789584  0.210416  0.937080  1
  Er  Er15  1  0.789084  0.578633  0.935836  1
  Er  Er16  1  0.421367  0.210916  0.935836  1
  Er  Er17  1  0.210767  0.789233  0.062813  1
  Er  Er18  1  0.210157  0.420697  0.063533  1
  Er  Er19  1  0.579303  0.789843  0.063533  1
  Cd  Cd20  1  0.885433  0.770054  0.250000  1
  Cd  Cd21  1  0.229946  0.114567  0.250000  1
  Cd  Cd22  1  0.115968  0.884032  0.750000  1
  Cd  Cd23  1  0.114611  0.230223  0.750000  1
  Cd  Cd24  1  0.769777  0.885389  0.750000  1
  In  In25  1  0.884730  0.115270  0.250000  1
  Ni  Ni26  1  0.332955  0.667045  0.250000  1
  Ni  Ni27  1  0.667030  0.332970  0.750000  1
