# generated using pymatgen
data_Er16MgIn3(IrRu)2
_symmetry_space_group_name_H-M   'P 1'
_cell_length_a   9.61881986
_cell_length_b   9.59681563
_cell_length_c   9.59681573
_cell_angle_alpha   59.53895150
_cell_angle_beta   59.74239330
_cell_angle_gamma   59.74239243
_symmetry_Int_Tables_number   1
_chemical_formula_structural   Er16MgIn3(IrRu)2
_chemical_formula_sum   'Er16 Mg1 In3 Ir2 Ru2'
_cell_volume   621.77710628
_cell_formula_units_Z   1
loop_
 _symmetry_equiv_pos_site_id
 _symmetry_equiv_pos_as_xyz
  1  'x, y, z'
loop_
 _atom_site_type_symbol
 _atom_site_label
 _atom_site_symmetry_multiplicity
 _atom_site_fract_x
 _atom_site_fract_y
 _atom_site_fract_z
 _atom_site_occupancy
  Er  Er0  1  0.058703  0.060380  0.442812  1
  Er  Er1  1  0.650706  0.040099  0.653778  1
  Er  Er2  1  0.195041  0.809626  0.191414  1
  Er  Er3  1  0.437340  0.062195  0.440816  1
  Er  Er4  1  0.195041  0.191414  0.809626  1
  Er  Er5  1  0.651610  0.652042  0.652042  1
  Er  Er6  1  0.046663  0.650247  0.650247  1
  Er  Er7  1  0.441519  0.059451  0.059451  1
  Er  Er8  1  0.650706  0.653778  0.040099  1
  Er  Er9  1  0.192470  0.807993  0.807993  1
  Er  Er10  1  0.810602  0.188881  0.810707  1
  Er  Er11  1  0.810733  0.191217  0.191217  1
  Er  Er12  1  0.810602  0.810707  0.188881  1
  Er  Er13  1  0.062110  0.438590  0.438590  1
  Er  Er14  1  0.437340  0.440816  0.062195  1
  Er  Er15  1  0.058703  0.442812  0.060380  1
  Mg  Mg16  1  0.730611  0.423823  0.423823  1
  In  In17  1  0.418786  0.416098  0.749024  1
  In  In18  1  0.418786  0.749024  0.416098  1
  In  In19  1  0.417827  0.417363  0.417363  1
  Ir  Ir20  1  0.859955  0.857271  0.420659  1
  Ir  Ir21  1  0.859955  0.420659  0.857271  1
  Ru  Ru22  1  0.864581  0.857826  0.857826  1
  Ru  Ru23  1  0.419611  0.857689  0.857689  1
