# generated using pymatgen
data_Tb2Y(ThSn2)2
_symmetry_space_group_name_H-M   'P 1'
_cell_length_a   8.13066100
_cell_length_b   8.24518500
_cell_length_c   15.55833300
_cell_angle_alpha   90.00000000
_cell_angle_beta   90.00000000
_cell_angle_gamma   90.00000000
_symmetry_Int_Tables_number   1
_chemical_formula_structural   Tb2Y(ThSn2)2
_chemical_formula_sum   'Tb8 Y4 Th8 Sn16'
_cell_volume   1043.01203838
_cell_formula_units_Z   4
loop_
 _symmetry_equiv_pos_site_id
 _symmetry_equiv_pos_as_xyz
  1  'x, y, z'
loop_
 _atom_site_type_symbol
 _atom_site_label
 _atom_site_symmetry_multiplicity
 _atom_site_fract_x
 _atom_site_fract_y
 _atom_site_fract_z
 _atom_site_occupancy
  Tb  Tb0  1  0.360132  0.837065  0.876458  1
  Tb  Tb1  1  0.860132  0.662935  0.623542  1
  Tb  Tb2  1  0.639868  0.162935  0.376458  1
  Tb  Tb3  1  0.139868  0.337065  0.123542  1
  Tb  Tb4  1  0.639868  0.162935  0.123542  1
  Tb  Tb5  1  0.139868  0.337065  0.376458  1
  Tb  Tb6  1  0.360132  0.837065  0.623542  1
  Tb  Tb7  1  0.860132  0.662935  0.876458  1
  Y  Y8  1  0.189634  0.497631  0.750000  1
  Y  Y9  1  0.689634  0.002369  0.750000  1
  Y  Y10  1  0.810366  0.502369  0.250000  1
  Y  Y11  1  0.310366  0.997631  0.250000  1
  Th  Th12  1  0.517711  0.321468  0.904117  1
  Th  Th13  1  0.017711  0.178532  0.595883  1
  Th  Th14  1  0.482289  0.678532  0.404117  1
  Th  Th15  1  0.982289  0.821468  0.095883  1
  Th  Th16  1  0.482289  0.678532  0.095883  1
  Th  Th17  1  0.982289  0.821468  0.404117  1
  Th  Th18  1  0.517711  0.321468  0.595883  1
  Th  Th19  1  0.017711  0.178532  0.904117  1
  Sn  Sn20  1  0.299066  0.038701  0.042589  1
  Sn  Sn21  1  0.799066  0.461299  0.457411  1
  Sn  Sn22  1  0.700934  0.961299  0.542589  1
  Sn  Sn23  1  0.200934  0.538701  0.957411  1
  Sn  Sn24  1  0.700934  0.961299  0.957411  1
  Sn  Sn25  1  0.200934  0.538701  0.542589  1
  Sn  Sn26  1  0.299066  0.038701  0.457411  1
  Sn  Sn27  1  0.799066  0.461299  0.042589  1
  Sn  Sn28  1  0.555835  0.620232  0.750000  1
  Sn  Sn29  1  0.055835  0.879768  0.750000  1
  Sn  Sn30  1  0.444165  0.379768  0.250000  1
  Sn  Sn31  1  0.944165  0.120232  0.250000  1
  Sn  Sn32  1  0.324081  0.143955  0.750000  1
  Sn  Sn33  1  0.824081  0.356045  0.750000  1
  Sn  Sn34  1  0.675919  0.856045  0.250000  1
  Sn  Sn35  1  0.175919  0.643955  0.250000  1
