# generated using pymatgen
data_Ca15Nd(ThPt4)4
_symmetry_space_group_name_H-M   'P 1'
_cell_length_a   7.77436627
_cell_length_b   7.89147011
_cell_length_c   15.14359900
_cell_angle_alpha   90.05034410
_cell_angle_beta   90.37696967
_cell_angle_gamma   90.19330167
_symmetry_Int_Tables_number   1
_chemical_formula_structural   Ca15Nd(ThPt4)4
_chemical_formula_sum   'Ca15 Nd1 Th4 Pt16'
_cell_volume   929.05188051
_cell_formula_units_Z   1
loop_
 _symmetry_equiv_pos_site_id
 _symmetry_equiv_pos_as_xyz
  1  'x, y, z'
loop_
 _atom_site_type_symbol
 _atom_site_label
 _atom_site_symmetry_multiplicity
 _atom_site_fract_x
 _atom_site_fract_y
 _atom_site_fract_z
 _atom_site_occupancy
  Ca  Ca0  1  0.160834  0.330596  0.381177  1
  Ca  Ca1  1  0.338143  0.831959  0.619983  1
  Ca  Ca2  1  0.841413  0.668891  0.880558  1
  Ca  Ca3  1  0.492826  0.323011  0.900430  1
  Ca  Ca4  1  0.991992  0.179561  0.599610  1
  Ca  Ca5  1  0.506149  0.679954  0.402941  1
  Ca  Ca6  1  0.009716  0.817716  0.094449  1
  Ca  Ca7  1  0.507345  0.681026  0.095521  1
  Ca  Ca8  1  0.012530  0.814944  0.409088  1
  Ca  Ca9  1  0.487703  0.316089  0.596719  1
  Ca  Ca10  1  0.993933  0.184592  0.900966  1
  Ca  Ca11  1  0.181026  0.486867  0.750846  1
  Ca  Ca12  1  0.675939  0.015779  0.750829  1
  Ca  Ca13  1  0.824855  0.522460  0.252545  1
  Ca  Ca14  1  0.313076  0.980188  0.251286  1
  Nd  Nd15  1  0.339871  0.838169  0.877762  1
  Th  Th16  1  0.836624  0.662507  0.624715  1
  Th  Th17  1  0.663636  0.161274  0.377451  1
  Th  Th18  1  0.160309  0.339547  0.122531  1
  Th  Th19  1  0.660426  0.165444  0.120162  1
  Pt  Pt20  1  0.325922  0.050504  0.043876  1
  Pt  Pt21  1  0.807871  0.457395  0.461052  1
  Pt  Pt22  1  0.691004  0.954194  0.536714  1
  Pt  Pt23  1  0.182609  0.535890  0.963352  1
  Pt  Pt24  1  0.670175  0.977042  0.960112  1
  Pt  Pt25  1  0.143195  0.533051  0.547549  1
  Pt  Pt26  1  0.354230  0.031474  0.452737  1
  Pt  Pt27  1  0.835167  0.454683  0.046182  1
  Pt  Pt28  1  0.548382  0.630799  0.750463  1
  Pt  Pt29  1  0.039315  0.874514  0.745511  1
  Pt  Pt30  1  0.463524  0.366383  0.247200  1
  Pt  Pt31  1  0.952450  0.131139  0.243919  1
  Pt  Pt32  1  0.292676  0.126718  0.751999  1
  Pt  Pt33  1  0.798385  0.376331  0.744571  1
  Pt  Pt34  1  0.691381  0.881537  0.249556  1
  Pt  Pt35  1  0.205370  0.617767  0.245639  1
