# generated using pymatgen
data_Tb4Al18CuNi4
_symmetry_space_group_name_H-M   'P 1'
_cell_length_a   8.04222478
_cell_length_b   8.04222422
_cell_length_c   16.10798486
_cell_angle_alpha   63.68654348
_cell_angle_beta   63.68654463
_cell_angle_gamma   29.28151098
_symmetry_Int_Tables_number   1
_chemical_formula_structural   Tb4Al18CuNi4
_chemical_formula_sum   'Tb4 Al18 Cu1 Ni4'
_cell_volume   452.92960950
_cell_formula_units_Z   1
loop_
 _symmetry_equiv_pos_site_id
 _symmetry_equiv_pos_as_xyz
  1  'x, y, z'
loop_
 _atom_site_type_symbol
 _atom_site_label
 _atom_site_symmetry_multiplicity
 _atom_site_fract_x
 _atom_site_fract_y
 _atom_site_fract_z
 _atom_site_occupancy
  Tb  Tb0  1  0.769690  0.769690  0.659022  1
  Tb  Tb1  1  0.565085  0.565085  0.108646  1
  Tb  Tb2  1  0.227843  0.227843  0.336306  1
  Tb  Tb3  1  0.440431  0.440431  0.886850  1
  Al  Al4  1  0.370654  0.370654  0.110084  1
  Al  Al5  1  0.104567  0.104567  0.776031  1
  Al  Al6  1  0.896553  0.896553  0.220078  1
  Al  Al7  1  0.430161  0.430161  0.319251  1
  Al  Al8  1  0.565748  0.565748  0.666639  1
  Al  Al9  1  0.293089  0.293089  0.790252  1
  Al  Al10  1  0.983357  0.983357  0.448733  1
  Al  Al11  1  0.712383  0.712383  0.203524  1
  Al  Al12  1  0.204778  0.204779  0.972052  1
  Al  Al13  1  0.427671  0.427671  0.605635  1
  Al  Al14  1  0.802194  0.802194  0.437092  1
  Al  Al15  1  0.935482  0.935482  0.740883  1
  Al  Al16  1  0.071404  0.071404  0.256064  1
  Al  Al17  1  0.002955  0.002955  0.997569  1
  Al  Al18  1  0.634193  0.634193  0.883910  1
  Al  Al19  1  0.609853  0.609853  0.478436  1
  Al  Al20  1  0.185600  0.185600  0.565157  1
  Al  Al21  1  0.800051  0.800051  0.021176  1
  Cu  Cu22  1  0.362209  0.362208  0.488767  1
  Ni  Ni23  1  0.220539  0.220539  0.113380  1
  Ni  Ni24  1  0.785733  0.785734  0.878460  1
  Ni  Ni25  1  0.028862  0.028863  0.573522  1
  Ni  Ni26  1  0.564476  0.564476  0.349278  1
