# generated using pymatgen
data_Ca2SiPd2
_symmetry_space_group_name_H-M   'P 1'
_cell_length_a   9.03665967
_cell_length_b   8.02710331
_cell_length_c   5.77599412
_cell_angle_alpha   79.97927225
_cell_angle_beta   61.01317612
_cell_angle_gamma   39.00755019
_symmetry_Int_Tables_number   1
_chemical_formula_structural   Ca2SiPd2
_chemical_formula_sum   'Ca4 Si2 Pd4'
_cell_volume   214.49999256
_cell_formula_units_Z   2
loop_
 _symmetry_equiv_pos_site_id
 _symmetry_equiv_pos_as_xyz
  1  'x, y, z'
loop_
 _atom_site_type_symbol
 _atom_site_label
 _atom_site_symmetry_multiplicity
 _atom_site_fract_x
 _atom_site_fract_y
 _atom_site_fract_z
 _atom_site_occupancy
  Ca  Ca0  1  0.031891  0.062169  0.637060  1
  Ca  Ca1  1  0.268878  0.637060  0.062169  1
  Ca  Ca2  1  0.612940  0.981122  0.218109  1
  Ca  Ca3  1  0.187831  0.218109  0.981122  1
  Si  Si4  1  0.886799  0.613201  0.613201  1
  Si  Si5  1  0.636799  0.363201  0.363201  1
  Pd  Pd6  1  0.621486  0.626524  0.060185  1
  Pd  Pd7  1  0.691805  0.060185  0.626524  1
  Pd  Pd8  1  0.189815  0.558195  0.628514  1
  Pd  Pd9  1  0.623476  0.628514  0.558195  1
