# generated using pymatgen
data_Zr24GaSi2Se5
_symmetry_space_group_name_H-M   'P 1'
_cell_length_a   11.03150698
_cell_length_b   11.05681752
_cell_length_c   5.49047941
_cell_angle_alpha   89.90889201
_cell_angle_beta   89.74026595
_cell_angle_gamma   90.03759085
_symmetry_Int_Tables_number   1
_chemical_formula_structural   Zr24GaSi2Se5
_chemical_formula_sum   'Zr24 Ga1 Si2 Se5'
_cell_volume   669.68434507
_cell_formula_units_Z   1
loop_
 _symmetry_equiv_pos_site_id
 _symmetry_equiv_pos_as_xyz
  1  'x, y, z'
loop_
 _atom_site_type_symbol
 _atom_site_label
 _atom_site_symmetry_multiplicity
 _atom_site_fract_x
 _atom_site_fract_y
 _atom_site_fract_z
 _atom_site_occupancy
  Zr  Zr0  1  0.917949  0.607577  0.544667  1
  Zr  Zr1  1  0.082060  0.393291  0.543181  1
  Zr  Zr2  1  0.895508  0.413314  0.030686  1
  Zr  Zr3  1  0.103851  0.584971  0.037002  1
  Zr  Zr4  1  0.583537  0.896365  0.961895  1
  Zr  Zr5  1  0.416220  0.103859  0.961971  1
  Zr  Zr6  1  0.604793  0.083432  0.462009  1
  Zr  Zr7  1  0.396340  0.916240  0.459966  1
  Zr  Zr8  1  0.862199  0.973901  0.718467  1
  Zr  Zr9  1  0.136579  0.026305  0.719171  1
  Zr  Zr10  1  0.529404  0.360557  0.214327  1
  Zr  Zr11  1  0.475814  0.640201  0.218439  1
  Zr  Zr12  1  0.638479  0.525587  0.784412  1
  Zr  Zr13  1  0.360168  0.473436  0.781788  1
  Zr  Zr14  1  0.972193  0.141271  0.281340  1
  Zr  Zr15  1  0.024957  0.859002  0.282865  1
  Zr  Zr16  1  0.818487  0.715467  0.009784  1
  Zr  Zr17  1  0.180175  0.284927  0.006651  1
  Zr  Zr18  1  0.787138  0.318489  0.515883  1
  Zr  Zr19  1  0.212792  0.683475  0.510704  1
  Zr  Zr20  1  0.682764  0.785801  0.490606  1
  Zr  Zr21  1  0.318245  0.214454  0.488033  1
  Zr  Zr22  1  0.715745  0.181633  0.986015  1
  Zr  Zr23  1  0.283032  0.817792  0.988761  1
  Ga  Ga24  1  0.295974  0.460221  0.288326  1
  Si  Si25  1  0.959524  0.204492  0.787579  1
  Si  Si26  1  0.039629  0.795503  0.790231  1
  Se  Se27  1  0.793167  0.960862  0.211872  1
  Se  Se28  1  0.205948  0.039319  0.212687  1
  Se  Se29  1  0.538238  0.292344  0.709887  1
  Se  Se30  1  0.459778  0.707102  0.711380  1
  Se  Se31  1  0.709315  0.538810  0.289414  1
