# generated using pymatgen
data_Hf6NiSnAs
_symmetry_space_group_name_H-M   'P 1'
_cell_length_a   7.68951075
_cell_length_b   3.49147500
_cell_length_c   7.68954800
_cell_angle_alpha   90.00000000
_cell_angle_beta   120.00006183
_cell_angle_gamma   90.00000000
_symmetry_Int_Tables_number   1
_chemical_formula_structural   Hf6NiSnAs
_chemical_formula_sum   'Hf6 Ni1 Sn1 As1'
_cell_volume   178.78818613
_cell_formula_units_Z   1
loop_
 _symmetry_equiv_pos_site_id
 _symmetry_equiv_pos_as_xyz
  1  'x, y, z'
loop_
 _atom_site_type_symbol
 _atom_site_label
 _atom_site_symmetry_multiplicity
 _atom_site_fract_x
 _atom_site_fract_y
 _atom_site_fract_z
 _atom_site_occupancy
  Hf  Hf0  1  0.393281  0.000000  0.979769  1
  Hf  Hf1  1  0.752480  0.500001  0.997367  1
  Hf  Hf2  1  0.244879  0.500001  0.247522  1
  Hf  Hf3  1  0.020238  0.000000  0.413510  1
  Hf  Hf4  1  0.586496  0.000000  0.606740  1
  Hf  Hf5  1  0.002650  0.500001  0.755126  1
  Ni  Ni6  1  0.000004  0.000000  0.000001  1
  Sn  Sn7  1  0.666669  0.500001  0.333340  1
  As  As8  1  0.333343  0.500001  0.666672  1
