# generated using pymatgen
data_Er3Tm13(AgPd)4
_symmetry_space_group_name_H-M   'P 1'
_cell_length_a   9.40973994
_cell_length_b   9.40820790
_cell_length_c   9.37633100
_cell_angle_alpha   60.12236023
_cell_angle_beta   60.10722026
_cell_angle_gamma   60.22769143
_symmetry_Int_Tables_number   1
_chemical_formula_structural   Er3Tm13(AgPd)4
_chemical_formula_sum   'Er3 Tm13 Ag4 Pd4'
_cell_volume   588.97673782
_cell_formula_units_Z   1
loop_
 _symmetry_equiv_pos_site_id
 _symmetry_equiv_pos_as_xyz
  1  'x, y, z'
loop_
 _atom_site_type_symbol
 _atom_site_label
 _atom_site_symmetry_multiplicity
 _atom_site_fract_x
 _atom_site_fract_y
 _atom_site_fract_z
 _atom_site_occupancy
  Er  Er0  1  0.066035  0.066036  0.433687  1
  Er  Er1  1  0.434101  0.067242  0.432783  1
  Er  Er2  1  0.066554  0.434008  0.066752  1
  Tm  Tm3  1  0.079229  0.638489  0.642236  1
  Tm  Tm4  1  0.433495  0.433706  0.066435  1
  Tm  Tm5  1  0.638527  0.079213  0.641657  1
  Tm  Tm6  1  0.187267  0.811534  0.188309  1
  Tm  Tm7  1  0.187305  0.187206  0.813042  1
  Tm  Tm8  1  0.812479  0.812397  0.187707  1
  Tm  Tm9  1  0.434304  0.066203  0.066216  1
  Tm  Tm10  1  0.812216  0.186823  0.187827  1
  Tm  Tm11  1  0.066594  0.434676  0.433316  1
  Tm  Tm12  1  0.812978  0.187523  0.812423  1
  Tm  Tm13  1  0.187133  0.813236  0.812978  1
  Tm  Tm14  1  0.642529  0.642037  0.072717  1
  Tm  Tm15  1  0.639466  0.640212  0.642555  1
  Ag  Ag16  1  0.415298  0.416169  0.416368  1
  Ag  Ag17  1  0.749632  0.417042  0.416999  1
  Ag  Ag18  1  0.417051  0.749673  0.416249  1
  Ag  Ag19  1  0.417125  0.416168  0.750392  1
  Pd  Pd20  1  0.852483  0.852198  0.443601  1
  Pd  Pd21  1  0.854201  0.854229  0.850833  1
  Pd  Pd22  1  0.439777  0.854113  0.852691  1
  Pd  Pd23  1  0.854224  0.439866  0.852225  1
