# generated using pymatgen
data_Ti3Mn3SiGe2
_symmetry_space_group_name_H-M   'P 1'
_cell_length_a   6.62030500
_cell_length_b   6.61986281
_cell_length_c   3.21310500
_cell_angle_alpha   90.00000000
_cell_angle_beta   90.00000000
_cell_angle_gamma   120.00220466
_symmetry_Int_Tables_number   1
_chemical_formula_structural   Ti3Mn3SiGe2
_chemical_formula_sum   'Ti3 Mn3 Si1 Ge2'
_cell_volume   121.94749638
_cell_formula_units_Z   1
loop_
 _symmetry_equiv_pos_site_id
 _symmetry_equiv_pos_as_xyz
  1  'x, y, z'
loop_
 _atom_site_type_symbol
 _atom_site_label
 _atom_site_symmetry_multiplicity
 _atom_site_fract_x
 _atom_site_fract_y
 _atom_site_fract_z
 _atom_site_occupancy
  Ti  Ti0  1  0.602453  0.000000  0.500000  1
  Ti  Ti1  1  0.000003  0.602638  0.500000  1
  Ti  Ti2  1  0.397366  0.397365  0.500000  1
  Mn  Mn3  1  0.253332  0.000000  0.000000  1
  Mn  Mn4  1  0.000018  0.253323  0.000000  1
  Mn  Mn5  1  0.746695  0.746676  0.000000  1
  Si  Si6  1  0.999974  0.000000  0.500000  1
  Ge  Ge7  1  0.333391  0.666722  0.000000  1
  Ge  Ge8  1  0.666669  0.333277  0.000000  1
