# generated using pymatgen
data_Dy5Si10As2Ir19
_symmetry_space_group_name_H-M   'P 1'
_cell_length_a   12.92711938
_cell_length_b   12.91679188
_cell_length_c   3.97544200
_cell_angle_alpha   90.00000000
_cell_angle_beta   90.00000000
_cell_angle_gamma   119.97357062
_symmetry_Int_Tables_number   1
_chemical_formula_structural   Dy5Si10As2Ir19
_chemical_formula_sum   'Dy5 Si10 As2 Ir19'
_cell_volume   575.02678514
_cell_formula_units_Z   1
loop_
 _symmetry_equiv_pos_site_id
 _symmetry_equiv_pos_as_xyz
  1  'x, y, z'
loop_
 _atom_site_type_symbol
 _atom_site_label
 _atom_site_symmetry_multiplicity
 _atom_site_fract_x
 _atom_site_fract_y
 _atom_site_fract_z
 _atom_site_occupancy
  Dy  Dy0  1  0.332238  0.665790  0.500000  1
  Dy  Dy1  1  0.667762  0.333551  0.500000  1
  Dy  Dy2  1  0.000000  0.807843  0.000000  1
  Dy  Dy3  1  0.186422  0.190843  0.000000  1
  Dy  Dy4  1  0.813578  0.004422  0.000000  1
  Si  Si5  1  0.000000  0.630678  0.500000  1
  Si  Si6  1  0.368437  0.368438  0.500000  1
  Si  Si7  1  0.631563  0.000001  0.500000  1
  Si  Si8  1  0.516207  0.686557  0.000000  1
  Si  Si9  1  0.312939  0.829217  0.000000  1
  Si  Si10  1  0.169404  0.481136  0.000000  1
  Si  Si11  1  0.483793  0.170350  0.000000  1
  Si  Si12  1  0.687061  0.516277  0.000000  1
  Si  Si13  1  0.830596  0.311732  0.000000  1
  Si  Si14  1  0.000000  0.184054  0.500000  1
  As  As15  1  0.820838  0.822265  0.500000  1
  As  As16  1  0.179162  0.001427  0.500000  1
  Ir  Ir17  1  0.511746  0.873098  0.000000  1
  Ir  Ir18  1  0.126959  0.637956  0.000000  1
  Ir  Ir19  1  0.361186  0.487070  0.000000  1
  Ir  Ir20  1  0.488254  0.361351  0.000000  1
  Ir  Ir21  1  0.873041  0.510996  0.000000  1
  Ir  Ir22  1  0.638814  0.125883  0.000000  1
  Ir  Ir23  1  0.000000  0.447490  0.500000  1
  Ir  Ir24  1  0.552726  0.551712  0.500000  1
  Ir  Ir25  1  0.447274  0.998987  0.500000  1
  Ir  Ir26  1  0.000000  0.284616  0.000000  1
  Ir  Ir27  1  0.712489  0.712393  0.000000  1
  Ir  Ir28  1  0.287511  0.999904  0.000000  1
  Ir  Ir29  1  0.620077  0.804112  0.500000  1
  Ir  Ir30  1  0.194968  0.816382  0.500000  1
  Ir  Ir31  1  0.182519  0.377189  0.500000  1
  Ir  Ir32  1  0.379923  0.184035  0.500000  1
  Ir  Ir33  1  0.805032  0.621415  0.500000  1
  Ir  Ir34  1  0.817481  0.194671  0.500000  1
  Ir  Ir35  1  0.000000  0.006161  0.500000  1
