# generated using pymatgen
data_PaV(Sb4Os)3
_symmetry_space_group_name_H-M   'P 1'
_cell_length_a   8.17354150
_cell_length_b   8.17354205
_cell_length_c   8.17354104
_cell_angle_alpha   109.57764222
_cell_angle_beta   109.57764644
_cell_angle_gamma   109.57765271
_symmetry_Int_Tables_number   1
_chemical_formula_structural   PaV(Sb4Os)3
_chemical_formula_sum   'Pa1 V1 Sb12 Os3'
_cell_volume   418.68344425
_cell_formula_units_Z   1
loop_
 _symmetry_equiv_pos_site_id
 _symmetry_equiv_pos_as_xyz
  1  'x, y, z'
loop_
 _atom_site_type_symbol
 _atom_site_label
 _atom_site_symmetry_multiplicity
 _atom_site_fract_x
 _atom_site_fract_y
 _atom_site_fract_z
 _atom_site_occupancy
  Pa  Pa0  1  0.000000  0.000000  0.000000  1
  V  V1  1  0.500000  0.500000  0.500000  1
  Sb  Sb2  1  0.336375  0.180281  0.845009  1
  Sb  Sb3  1  0.663625  0.819719  0.154991  1
  Sb  Sb4  1  0.665320  0.507920  0.845764  1
  Sb  Sb5  1  0.334680  0.492080  0.154236  1
  Sb  Sb6  1  0.180281  0.845009  0.336375  1
  Sb  Sb7  1  0.819719  0.154991  0.663625  1
  Sb  Sb8  1  0.507920  0.845764  0.665320  1
  Sb  Sb9  1  0.492080  0.154236  0.334680  1
  Sb  Sb10  1  0.845009  0.336375  0.180281  1
  Sb  Sb11  1  0.154991  0.663625  0.819719  1
  Sb  Sb12  1  0.845764  0.665320  0.507920  1
  Sb  Sb13  1  0.154236  0.334680  0.492080  1
  Os  Os14  1  0.000000  0.000000  0.500000  1
  Os  Os15  1  0.500000  0.000000  0.000000  1
  Os  Os16  1  0.000000  0.500000  0.000000  1
