# generated using pymatgen
data_MnCr5(SiRu2)6
_symmetry_space_group_name_H-M   'P 1'
_cell_length_a   4.18267900
_cell_length_b   5.92055100
_cell_length_c   12.55500500
_cell_angle_alpha   90.00038710
_cell_angle_beta   90.00010959
_cell_angle_gamma   89.99983548
_symmetry_Int_Tables_number   1
_chemical_formula_structural   MnCr5(SiRu2)6
_chemical_formula_sum   'Mn1 Cr5 Si6 Ru12'
_cell_volume   310.90918506
_cell_formula_units_Z   1
loop_
 _symmetry_equiv_pos_site_id
 _symmetry_equiv_pos_as_xyz
  1  'x, y, z'
loop_
 _atom_site_type_symbol
 _atom_site_label
 _atom_site_symmetry_multiplicity
 _atom_site_fract_x
 _atom_site_fract_y
 _atom_site_fract_z
 _atom_site_occupancy
  Mn  Mn0  1  0.999995  0.000000  0.999989  1
  Cr  Cr1  1  0.499746  0.500001  0.166223  1
  Cr  Cr2  1  0.999770  0.999999  0.333274  1
  Cr  Cr3  1  0.500000  0.499999  0.500001  1
  Cr  Cr4  1  0.000234  0.000000  0.666740  1
  Cr  Cr5  1  0.500248  0.500001  0.833858  1
  Si  Si6  1  0.999999  0.499999  0.999992  1
  Si  Si7  1  0.499762  0.000000  0.167353  1
  Si  Si8  1  0.999766  0.499999  0.332885  1
  Si  Si9  1  0.500000  0.000000  0.500015  1
  Si  Si10  1  0.000234  0.500000  0.667101  1
  Si  Si11  1  0.500243  0.000000  0.832610  1
  Ru  Ru12  1  0.500000  0.248633  0.000010  1
  Ru  Ru13  1  0.500000  0.751368  0.000009  1
  Ru  Ru14  1  0.999762  0.249729  0.166945  1
  Ru  Ru15  1  0.999762  0.750271  0.166945  1
  Ru  Ru16  1  0.499788  0.249927  0.333472  1
  Ru  Ru17  1  0.499789  0.750072  0.333473  1
  Ru  Ru18  1  0.000000  0.250291  0.499993  1
  Ru  Ru19  1  0.000000  0.749709  0.499993  1
  Ru  Ru20  1  0.500206  0.249945  0.666524  1
  Ru  Ru21  1  0.500207  0.750054  0.666524  1
  Ru  Ru22  1  0.000243  0.249722  0.833035  1
  Ru  Ru23  1  0.000244  0.750280  0.833035  1
