# generated using pymatgen
data_AcLaPr4(RuI3)2
_symmetry_space_group_name_H-M   'P 1'
_cell_length_a   4.39695000
_cell_length_b   9.70944037
_cell_length_c   12.64756241
_cell_angle_alpha   87.02166920
_cell_angle_beta   90.00000000
_cell_angle_gamma   90.00000000
_symmetry_Int_Tables_number   1
_chemical_formula_structural   AcLaPr4(RuI3)2
_chemical_formula_sum   'Ac1 La1 Pr4 Ru2 I6'
_cell_volume   539.21943873
_cell_formula_units_Z   1
loop_
 _symmetry_equiv_pos_site_id
 _symmetry_equiv_pos_as_xyz
  1  'x, y, z'
loop_
 _atom_site_type_symbol
 _atom_site_label
 _atom_site_symmetry_multiplicity
 _atom_site_fract_x
 _atom_site_fract_y
 _atom_site_fract_z
 _atom_site_occupancy
  Ac  Ac0  1  0.750000  0.686157  0.117477  1
  La  La1  1  0.750000  0.115060  0.674311  1
  Pr  Pr2  1  0.250000  0.309783  0.881230  1
  Pr  Pr3  1  0.250000  0.889663  0.330949  1
  Pr  Pr4  1  0.250000  0.905221  0.894920  1
  Pr  Pr5  1  0.750000  0.095795  0.105001  1
  Ru  Ru6  1  0.250000  0.892511  0.121818  1
  Ru  Ru7  1  0.750000  0.112139  0.870634  1
  I  I8  1  0.250000  0.872174  0.619942  1
  I  I9  1  0.750000  0.128848  0.380138  1
  I  I10  1  0.750000  0.647772  0.386200  1
  I  I11  1  0.250000  0.361596  0.624220  1
  I  I12  1  0.250000  0.383406  0.135004  1
  I  I13  1  0.750000  0.599874  0.858155  1
