# generated using pymatgen
data_YPu3(AsSe)4
_symmetry_space_group_name_H-M   'P 1'
_cell_length_a   3.95460000
_cell_length_b   3.97139092
_cell_length_c   17.05440710
_cell_angle_alpha   90.09797000
_cell_angle_beta   90.00000000
_cell_angle_gamma   90.00000000
_symmetry_Int_Tables_number   1
_chemical_formula_structural   YPu3(AsSe)4
_chemical_formula_sum   'Y1 Pu3 As4 Se4'
_cell_volume   267.84354956
_cell_formula_units_Z   1
loop_
 _symmetry_equiv_pos_site_id
 _symmetry_equiv_pos_as_xyz
  1  'x, y, z'
loop_
 _atom_site_type_symbol
 _atom_site_label
 _atom_site_symmetry_multiplicity
 _atom_site_fract_x
 _atom_site_fract_y
 _atom_site_fract_z
 _atom_site_occupancy
  Y  Y0  1  0.250000  0.744585  0.637507  1
  Pu  Pu1  1  0.750000  0.245696  0.865067  1
  Pu  Pu2  1  0.750000  0.256108  0.358756  1
  Pu  Pu3  1  0.250000  0.753694  0.138463  1
  As  As4  1  0.250000  0.240350  0.498164  1
  As  As5  1  0.250000  0.253008  0.999551  1
  As  As6  1  0.750000  0.760079  0.497969  1
  As  As7  1  0.750000  0.746520  0.998717  1
  Se  Se8  1  0.750000  0.245298  0.687737  1
  Se  Se9  1  0.750000  0.253935  0.180496  1
  Se  Se10  1  0.250000  0.755118  0.317259  1
  Se  Se11  1  0.250000  0.745612  0.820316  1
