# generated using pymatgen
data_Pr3Mg3Ir2Pt
_symmetry_space_group_name_H-M   'P 1'
_cell_length_a   7.55402400
_cell_length_b   7.55402477
_cell_length_c   4.11446700
_cell_angle_alpha   90.00000000
_cell_angle_beta   90.00000000
_cell_angle_gamma   120.00000537
_symmetry_Int_Tables_number   1
_chemical_formula_structural   Pr3Mg3Ir2Pt
_chemical_formula_sum   'Pr3 Mg3 Ir2 Pt1'
_cell_volume   203.32976403
_cell_formula_units_Z   1
loop_
 _symmetry_equiv_pos_site_id
 _symmetry_equiv_pos_as_xyz
  1  'x, y, z'
loop_
 _atom_site_type_symbol
 _atom_site_label
 _atom_site_symmetry_multiplicity
 _atom_site_fract_x
 _atom_site_fract_y
 _atom_site_fract_z
 _atom_site_occupancy
  Pr  Pr0  1  0.415239  0.415239  0.000000  1
  Pr  Pr1  1  0.584761  0.000000  0.000000  1
  Pr  Pr2  1  0.000000  0.584761  0.000000  1
  Mg  Mg3  1  0.000000  0.243005  0.500000  1
  Mg  Mg4  1  0.756995  0.756995  0.500000  1
  Mg  Mg5  1  0.243005  0.000000  0.500000  1
  Ir  Ir6  1  0.666667  0.333333  0.500000  1
  Ir  Ir7  1  0.333333  0.666667  0.500000  1
  Pt  Pt8  1  0.000000  0.000000  0.000000  1
