# generated using pymatgen
data_SbTe2RuF18
_symmetry_space_group_name_H-M   'P 1'
_cell_length_a   5.50399692
_cell_length_b   7.56837432
_cell_length_c   9.53761300
_cell_angle_alpha   104.26021465
_cell_angle_beta   107.67313188
_cell_angle_gamma   88.09616272
_symmetry_Int_Tables_number   1
_chemical_formula_structural   SbTe2RuF18
_chemical_formula_sum   'Sb1 Te2 Ru1 F18'
_cell_volume   366.51466807
_cell_formula_units_Z   1
loop_
 _symmetry_equiv_pos_site_id
 _symmetry_equiv_pos_as_xyz
  1  'x, y, z'
loop_
 _atom_site_type_symbol
 _atom_site_label
 _atom_site_symmetry_multiplicity
 _atom_site_fract_x
 _atom_site_fract_y
 _atom_site_fract_z
 _atom_site_occupancy
  Sb  Sb0  1  0.431786  0.745343  0.303423  1
  Te  Te1  1  0.848995  0.333468  0.161686  1
  Te  Te2  1  0.148926  0.662512  0.834817  1
  Ru  Ru3  1  0.571312  0.261733  0.702355  1
  F  F4  1  0.107581  0.604205  0.184000  1
  F  F5  1  0.422035  0.499768  0.697382  1
  F  F6  1  0.360981  0.747755  0.485233  1
  F  F7  1  0.764675  0.853439  0.394312  1
  F  F8  1  0.926599  0.644164  0.638916  1
  F  F9  1  0.071302  0.349891  0.357611  1
  F  F10  1  0.483781  0.704074  0.103326  1
  F  F11  1  0.572651  0.501929  0.302984  1
  F  F12  1  0.084358  0.203279  0.071936  1
  F  F13  1  0.303048  0.879300  0.832570  1
  F  F14  1  0.911253  0.793927  0.922694  1
  F  F15  1  0.265123  0.961977  0.276281  1
  F  F16  1  0.520547  0.292689  0.900845  1
  F  F17  1  0.691644  0.118007  0.162913  1
  F  F18  1  0.899481  0.397764  0.816274  1
  F  F19  1  0.731102  0.045593  0.720854  1
  F  F20  1  0.632980  0.251500  0.519974  1
  F  F21  1  0.249843  0.147685  0.609616  1
