# generated using pymatgen
data_AgAu19
_symmetry_space_group_name_H-M   'P 1'
_cell_length_a   4.82350500
_cell_length_b   5.06401554
_cell_length_c   14.76253400
_cell_angle_alpha   90.05737481
_cell_angle_beta   90.00000000
_cell_angle_gamma   90.00000000
_symmetry_Int_Tables_number   1
_chemical_formula_structural   AgAu19
_chemical_formula_sum   'Ag1 Au19'
_cell_volume   360.59396652
_cell_formula_units_Z   1
loop_
 _symmetry_equiv_pos_site_id
 _symmetry_equiv_pos_as_xyz
  1  'x, y, z'
loop_
 _atom_site_type_symbol
 _atom_site_label
 _atom_site_symmetry_multiplicity
 _atom_site_fract_x
 _atom_site_fract_y
 _atom_site_fract_z
 _atom_site_occupancy
  Ag  Ag0  1  0.250000  0.169620  0.000014  1
  Au  Au1  1  0.250000  0.667404  0.900824  1
  Au  Au2  1  0.250000  0.166747  0.600489  1
  Au  Au3  1  0.750000  0.831481  0.399543  1
  Au  Au4  1  0.750000  0.332673  0.099330  1
  Au  Au5  1  0.250000  0.173132  0.198800  1
  Au  Au6  1  0.250000  0.171408  0.399106  1
  Au  Au7  1  0.750000  0.326374  0.700860  1
  Au  Au8  1  0.750000  0.330605  0.500068  1
  Au  Au9  1  0.250000  0.670534  0.499997  1
  Au  Au10  1  0.750000  0.826988  0.600947  1
  Au  Au11  1  0.250000  0.671655  0.099593  1
  Au  Au12  1  0.750000  0.835437  0.198862  1
  Au  Au13  1  0.250000  0.166117  0.801067  1
  Au  Au14  1  0.750000  0.827978  0.801225  1
  Au  Au15  1  0.750000  0.328176  0.900143  1
  Au  Au16  1  0.250000  0.672791  0.299287  1
  Au  Au17  1  0.250000  0.665447  0.700881  1
  Au  Au18  1  0.750000  0.831585  0.999999  1
  Au  Au19  1  0.750000  0.333844  0.298963  1
