# generated using pymatgen
data_K3LiSn3Pb
_symmetry_space_group_name_H-M   'P 1'
_cell_length_a   8.69737880
_cell_length_b   8.76863214
_cell_length_c   10.36705100
_cell_angle_alpha   90.00000000
_cell_angle_beta   90.00000000
_cell_angle_gamma   133.84457603
_symmetry_Int_Tables_number   1
_chemical_formula_structural   K3LiSn3Pb
_chemical_formula_sum   'K6 Li2 Sn6 Pb2'
_cell_volume   570.22223842
_cell_formula_units_Z   2
loop_
 _symmetry_equiv_pos_site_id
 _symmetry_equiv_pos_as_xyz
  1  'x, y, z'
loop_
 _atom_site_type_symbol
 _atom_site_label
 _atom_site_symmetry_multiplicity
 _atom_site_fract_x
 _atom_site_fract_y
 _atom_site_fract_z
 _atom_site_occupancy
  K  K0  1  0.230792  0.771977  0.250000  1
  K  K1  1  0.769208  0.228023  0.750000  1
  K  K2  1  0.611933  0.385866  0.046982  1
  K  K3  1  0.388067  0.614134  0.953018  1
  K  K4  1  0.388067  0.614134  0.546982  1
  K  K5  1  0.611933  0.385866  0.453018  1
  Li  Li6  1  0.000000  0.000000  0.000000  1
  Li  Li7  1  0.000000  0.000000  0.500000  1
  Sn  Sn8  1  0.193086  0.273049  0.250000  1
  Sn  Sn9  1  0.806914  0.726951  0.750000  1
  Sn  Sn10  1  0.832371  0.172990  0.107694  1
  Sn  Sn11  1  0.167629  0.827010  0.892306  1
  Sn  Sn12  1  0.167629  0.827010  0.607694  1
  Sn  Sn13  1  0.832371  0.172990  0.392306  1
  Pb  Pb14  1  0.721273  0.798943  0.250000  1
  Pb  Pb15  1  0.278727  0.201057  0.750000  1
