# generated using pymatgen
data_Nd5Ga2PbO
_symmetry_space_group_name_H-M   'P 1'
_cell_length_a   9.23443523
_cell_length_b   9.23443431
_cell_length_c   9.23443600
_cell_angle_alpha   126.98804217
_cell_angle_beta   126.98803787
_cell_angle_gamma   78.27019794
_symmetry_Int_Tables_number   1
_chemical_formula_structural   Nd5Ga2PbO
_chemical_formula_sum   'Nd10 Ga4 Pb2 O2'
_cell_volume   486.63016665
_cell_formula_units_Z   2
loop_
 _symmetry_equiv_pos_site_id
 _symmetry_equiv_pos_as_xyz
  1  'x, y, z'
loop_
 _atom_site_type_symbol
 _atom_site_label
 _atom_site_symmetry_multiplicity
 _atom_site_fract_x
 _atom_site_fract_y
 _atom_site_fract_z
 _atom_site_occupancy
  Nd  Nd0  1  0.494216  0.305185  0.500000  1
  Nd  Nd1  1  0.805185  0.994216  0.500000  1
  Nd  Nd2  1  0.994216  0.494216  0.189031  1
  Nd  Nd3  1  0.305185  0.805185  0.810969  1
  Nd  Nd4  1  0.508355  0.697496  0.500000  1
  Nd  Nd5  1  0.197496  0.008355  0.500000  1
  Nd  Nd6  1  0.008355  0.508355  0.810859  1
  Nd  Nd7  1  0.697496  0.197496  0.189141  1
  Nd  Nd8  1  0.500713  0.500713  0.000000  1
  Nd  Nd9  1  0.000713  0.000713  0.000000  1
  Ga  Ga10  1  0.124816  0.377976  0.500000  1
  Ga  Ga11  1  0.877976  0.624816  0.500000  1
  Ga  Ga12  1  0.624816  0.124816  0.746840  1
  Ga  Ga13  1  0.377976  0.877976  0.253160  1
  Pb  Pb14  1  0.751203  0.751203  0.000000  1
  Pb  Pb15  1  0.251203  0.251203  0.000000  1
  O  O16  1  0.751460  0.251460  0.500000  1
  O  O17  1  0.251460  0.751460  0.500000  1
