# generated using pymatgen
data_Ca3Yb7Al(GaSb4)3
_symmetry_space_group_name_H-M   'P 1'
_cell_length_a   4.48914400
_cell_length_b   12.08024048
_cell_length_c   14.03533503
_cell_angle_alpha   89.97253274
_cell_angle_beta   90.00000000
_cell_angle_gamma   90.00000000
_symmetry_Int_Tables_number   1
_chemical_formula_structural   Ca3Yb7Al(GaSb4)3
_chemical_formula_sum   'Ca3 Yb7 Al1 Ga3 Sb12'
_cell_volume   761.13527599
_cell_formula_units_Z   1
loop_
 _symmetry_equiv_pos_site_id
 _symmetry_equiv_pos_as_xyz
  1  'x, y, z'
loop_
 _atom_site_type_symbol
 _atom_site_label
 _atom_site_symmetry_multiplicity
 _atom_site_fract_x
 _atom_site_fract_y
 _atom_site_fract_z
 _atom_site_occupancy
  Ca  Ca0  1  0.500000  0.999722  0.499704  1
  Ca  Ca1  1  0.500000  0.499345  0.999933  1
  Ca  Ca2  1  0.500000  0.591309  0.753078  1
  Yb  Yb3  1  0.500000  0.670305  0.480510  1
  Yb  Yb4  1  0.500000  0.329884  0.518084  1
  Yb  Yb5  1  0.500000  0.830105  0.980967  1
  Yb  Yb6  1  0.500000  0.170399  0.019328  1
  Yb  Yb7  1  0.500000  0.908583  0.253094  1
  Yb  Yb8  1  0.500000  0.091148  0.747133  1
  Yb  Yb9  1  0.500000  0.408474  0.246747  1
  Al  Al10  1  0.000000  0.329867  0.711996  1
  Ga  Ga11  1  0.000000  0.669489  0.288351  1
  Ga  Ga12  1  0.000000  0.831773  0.788724  1
  Ga  Ga13  1  0.000000  0.169446  0.211654  1
  Sb  Sb14  1  0.000000  0.973426  0.100533  1
  Sb  Sb15  1  0.000000  0.027309  0.899771  1
  Sb  Sb16  1  0.000000  0.473516  0.399228  1
  Sb  Sb17  1  0.000000  0.524519  0.600754  1
  Sb  Sb18  1  0.500000  0.162893  0.323782  1
  Sb  Sb19  1  0.500000  0.837250  0.676329  1
  Sb  Sb20  1  0.500000  0.663038  0.176214  1
  Sb  Sb21  1  0.500000  0.336708  0.822239  1
  Sb  Sb22  1  0.000000  0.345158  0.091856  1
  Sb  Sb23  1  0.000000  0.655667  0.909398  1
  Sb  Sb24  1  0.000000  0.845000  0.408633  1
  Sb  Sb25  1  0.000000  0.155664  0.591960  1
