# generated using pymatgen
data_Ho4Al5Ga13Ir6
_symmetry_space_group_name_H-M   'P 1'
_cell_length_a   7.56560802
_cell_length_b   7.56514821
_cell_length_c   9.51701501
_cell_angle_alpha   90.09261240
_cell_angle_beta   89.96077468
_cell_angle_gamma   119.75150075
_symmetry_Int_Tables_number   1
_chemical_formula_structural   Ho4Al5Ga13Ir6
_chemical_formula_sum   'Ho4 Al5 Ga13 Ir6'
_cell_volume   472.90526273
_cell_formula_units_Z   1
loop_
 _symmetry_equiv_pos_site_id
 _symmetry_equiv_pos_as_xyz
  1  'x, y, z'
loop_
 _atom_site_type_symbol
 _atom_site_label
 _atom_site_symmetry_multiplicity
 _atom_site_fract_x
 _atom_site_fract_y
 _atom_site_fract_z
 _atom_site_occupancy
  Ho  Ho0  1  0.998429  0.667372  0.251134  1
  Ho  Ho1  1  0.998709  0.330307  0.750423  1
  Ho  Ho2  1  0.672058  0.000876  0.251153  1
  Ho  Ho3  1  0.330609  0.999681  0.746248  1
  Al  Al4  1  0.334988  0.002127  0.072992  1
  Al  Al5  1  0.331876  0.331959  0.553972  1
  Al  Al6  1  0.667610  0.667511  0.445792  1
  Al  Al7  1  0.667979  0.667969  0.054602  1
  Al  Al8  1  0.331875  0.332353  0.945018  1
  Ga  Ga9  1  0.128422  0.125924  0.250083  1
  Ga  Ga10  1  0.872767  0.873591  0.750820  1
  Ga  Ga11  1  0.000286  0.335046  0.079815  1
  Ga  Ga12  1  0.001493  0.666466  0.921474  1
  Ga  Ga13  1  0.999213  0.664538  0.579970  1
  Ga  Ga14  1  0.335301  0.999603  0.417758  1
  Ga  Ga15  1  0.000995  0.335263  0.420139  1
  Ga  Ga16  1  0.664922  0.999522  0.579915  1
  Ga  Ga17  1  0.663397  0.999705  0.921465  1
  Ga  Ga18  1  0.346260  0.551091  0.250576  1
  Ga  Ga19  1  0.655107  0.451191  0.750673  1
  Ga  Ga20  1  0.547756  0.343396  0.250004  1
  Ga  Ga21  1  0.449948  0.653562  0.750952  1
  Ir  Ir22  1  0.667745  0.328762  0.000724  1
  Ir  Ir23  1  0.330427  0.672238  0.001610  1
  Ir  Ir24  1  0.330275  0.669578  0.501049  1
  Ir  Ir25  1  0.669640  0.330309  0.500378  1
  Ir  Ir26  1  0.002131  0.000180  0.000816  1
  Ir  Ir27  1  0.999782  0.999882  0.500442  1
