# generated using pymatgen
data_Li2Yb3AgBi3
_symmetry_space_group_name_H-M   'P 1'
_cell_length_a   7.63607900
_cell_length_b   7.67793760
_cell_length_c   4.66731500
_cell_angle_alpha   90.00000000
_cell_angle_beta   90.00000000
_cell_angle_gamma   119.81981478
_symmetry_Int_Tables_number   1
_chemical_formula_structural   Li2Yb3AgBi3
_chemical_formula_sum   'Li2 Yb3 Ag1 Bi3'
_cell_volume   237.40967269
_cell_formula_units_Z   1
loop_
 _symmetry_equiv_pos_site_id
 _symmetry_equiv_pos_as_xyz
  1  'x, y, z'
loop_
 _atom_site_type_symbol
 _atom_site_label
 _atom_site_symmetry_multiplicity
 _atom_site_fract_x
 _atom_site_fract_y
 _atom_site_fract_z
 _atom_site_occupancy
  Li  Li0  1  0.006335  0.237340  0.000000  1
  Li  Li1  1  0.768995  0.762660  0.000000  1
  Yb  Yb2  1  0.555820  0.000000  0.500000  1
  Yb  Yb3  1  0.420064  0.414307  0.500000  1
  Yb  Yb4  1  0.005757  0.585693  0.500000  1
  Ag  Ag5  1  0.243608  0.000000  0.000000  1
  Bi  Bi6  1  0.675417  0.339751  0.000000  1
  Bi  Bi7  1  0.335667  0.660249  0.000000  1
  Bi  Bi8  1  0.988338  0.000000  0.500000  1
