# generated using pymatgen
data_La8YbY11Si16
_symmetry_space_group_name_H-M   'P 1'
_cell_length_a   7.57148024
_cell_length_b   7.88866330
_cell_length_c   15.03334000
_cell_angle_alpha   90.00000000
_cell_angle_beta   90.00000000
_cell_angle_gamma   90.06570503
_symmetry_Int_Tables_number   1
_chemical_formula_structural   La8YbY11Si16
_chemical_formula_sum   'La8 Yb1 Y11 Si16'
_cell_volume   897.92364434
_cell_formula_units_Z   1
loop_
 _symmetry_equiv_pos_site_id
 _symmetry_equiv_pos_as_xyz
  1  'x, y, z'
loop_
 _atom_site_type_symbol
 _atom_site_label
 _atom_site_symmetry_multiplicity
 _atom_site_fract_x
 _atom_site_fract_y
 _atom_site_fract_z
 _atom_site_occupancy
  La  La0  1  0.020615  0.178028  0.401240  1
  La  La1  1  0.520395  0.322357  0.401711  1
  La  La2  1  0.479185  0.680567  0.900921  1
  La  La3  1  0.479185  0.680567  0.599079  1
  La  La4  1  0.976298  0.821994  0.598579  1
  La  La5  1  0.976298  0.821994  0.901421  1
  La  La6  1  0.520395  0.322357  0.098289  1
  La  La7  1  0.020615  0.178028  0.098760  1
  Yb  Yb8  1  0.656847  0.987907  0.750000  1
  Y  Y9  1  0.326309  0.178644  0.622984  1
  Y  Y10  1  0.677533  0.820502  0.376158  1
  Y  Y11  1  0.177282  0.678667  0.376814  1
  Y  Y12  1  0.821849  0.318987  0.877565  1
  Y  Y13  1  0.821849  0.318987  0.622435  1
  Y  Y14  1  0.845047  0.490087  0.250000  1
  Y  Y15  1  0.343770  0.010344  0.250000  1
  Y  Y16  1  0.326309  0.178644  0.877016  1
  Y  Y17  1  0.177282  0.678667  0.123186  1
  Y  Y18  1  0.677533  0.820502  0.123842  1
  Y  Y19  1  0.154818  0.509866  0.750000  1
  Si  Si20  1  0.263740  0.882549  0.750000  1
  Si  Si21  1  0.470775  0.613246  0.250000  1
  Si  Si22  1  0.036566  0.117358  0.750000  1
  Si  Si23  1  0.529142  0.393534  0.750000  1
  Si  Si24  1  0.146103  0.469556  0.539701  1
  Si  Si25  1  0.971341  0.885187  0.250000  1
  Si  Si26  1  0.724388  0.119861  0.250000  1
  Si  Si27  1  0.854881  0.530562  0.038566  1
  Si  Si28  1  0.354540  0.968178  0.038914  1
  Si  Si29  1  0.146103  0.469556  0.960299  1
  Si  Si30  1  0.646286  0.032664  0.534657  1
  Si  Si31  1  0.354540  0.968178  0.461086  1
  Si  Si32  1  0.854881  0.530562  0.461434  1
  Si  Si33  1  0.775168  0.608175  0.750000  1
  Si  Si34  1  0.225848  0.380476  0.250000  1
  Si  Si35  1  0.646286  0.032664  0.965343  1
