# generated using pymatgen
data_Yb3AlCd2Pt3
_symmetry_space_group_name_H-M   'P 1'
_cell_length_a   7.39033957
_cell_length_b   7.26899907
_cell_length_c   4.07812800
_cell_angle_alpha   90.00000000
_cell_angle_beta   90.00000000
_cell_angle_gamma   119.45834889
_symmetry_Int_Tables_number   1
_chemical_formula_structural   Yb3AlCd2Pt3
_chemical_formula_sum   'Yb3 Al1 Cd2 Pt3'
_cell_volume   190.75463731
_cell_formula_units_Z   1
loop_
 _symmetry_equiv_pos_site_id
 _symmetry_equiv_pos_as_xyz
  1  'x, y, z'
loop_
 _atom_site_type_symbol
 _atom_site_label
 _atom_site_symmetry_multiplicity
 _atom_site_fract_x
 _atom_site_fract_y
 _atom_site_fract_z
 _atom_site_occupancy
  Yb  Yb0  1  0.414094  0.408910  0.500000  1
  Yb  Yb1  1  0.585906  0.994817  0.500000  1
  Yb  Yb2  1  0.000000  0.589731  0.500000  1
  Al  Al3  1  0.000000  0.253303  0.000000  1
  Cd  Cd4  1  0.747799  0.747915  0.000000  1
  Cd  Cd5  1  0.252201  0.000114  0.000000  1
  Pt  Pt6  1  0.689810  0.325113  0.000000  1
  Pt  Pt7  1  0.310190  0.635304  0.000000  1
  Pt  Pt8  1  0.000000  0.044791  0.500000  1
