# generated using pymatgen
data_Na2Mn4Ni8AsP6
_symmetry_space_group_name_H-M   'P 1'
_cell_length_a   9.15880694
_cell_length_b   9.13406296
_cell_length_c   3.62067900
_cell_angle_alpha   90.00000000
_cell_angle_beta   90.00000000
_cell_angle_gamma   119.45915945
_symmetry_Int_Tables_number   1
_chemical_formula_structural   Na2Mn4Ni8AsP6
_chemical_formula_sum   'Na2 Mn4 Ni8 As1 P6'
_cell_volume   263.73313831
_cell_formula_units_Z   1
loop_
 _symmetry_equiv_pos_site_id
 _symmetry_equiv_pos_as_xyz
  1  'x, y, z'
loop_
 _atom_site_type_symbol
 _atom_site_label
 _atom_site_symmetry_multiplicity
 _atom_site_fract_x
 _atom_site_fract_y
 _atom_site_fract_z
 _atom_site_occupancy
  Na  Na0  1  0.665388  0.333575  0.000000  1
  Na  Na1  1  0.338864  0.666438  0.500000  1
  Mn  Mn2  1  0.843046  0.116574  0.000000  1
  Mn  Mn3  1  0.122453  0.911116  0.500000  1
  Mn  Mn4  1  0.093663  0.215176  0.500000  1
  Mn  Mn5  1  0.776915  0.875278  0.500000  1
  Ni  Ni6  1  0.388057  0.953987  0.000000  1
  Ni  Ni7  1  0.059699  0.425109  0.000000  1
  Ni  Ni8  1  0.563926  0.623730  0.000000  1
  Ni  Ni9  1  0.873689  0.723092  0.000000  1
  Ni  Ni10  1  0.280109  0.159477  0.000000  1
  Ni  Ni11  1  0.936992  0.557198  0.500000  1
  Ni  Ni12  1  0.435962  0.385696  0.500000  1
  Ni  Ni13  1  0.616538  0.053025  0.500000  1
  As  As14  1  0.122390  0.708506  0.000000  1
  P  P15  1  0.293753  0.409374  0.000000  1
  P  P16  1  0.593028  0.885028  0.000000  1
  P  P17  1  0.706353  0.591609  0.500000  1
  P  P18  1  0.405294  0.116367  0.500000  1
  P  P19  1  0.881608  0.287706  0.500000  1
  P  P20  1  0.002275  0.001940  0.000000  1
