# generated using pymatgen
data_Dy3SnRh3Pb2
_symmetry_space_group_name_H-M   'P 1'
_cell_length_a   7.79921698
_cell_length_b   7.77272312
_cell_length_c   3.74888200
_cell_angle_alpha   90.00000000
_cell_angle_beta   90.00000000
_cell_angle_gamma   119.88768417
_symmetry_Int_Tables_number   1
_chemical_formula_structural   Dy3SnRh3Pb2
_chemical_formula_sum   'Dy3 Sn1 Rh3 Pb2'
_cell_volume   197.03664872
_cell_formula_units_Z   1
loop_
 _symmetry_equiv_pos_site_id
 _symmetry_equiv_pos_as_xyz
  1  'x, y, z'
loop_
 _atom_site_type_symbol
 _atom_site_label
 _atom_site_symmetry_multiplicity
 _atom_site_fract_x
 _atom_site_fract_y
 _atom_site_fract_z
 _atom_site_occupancy
  Dy  Dy0  1  0.398140  0.403233  0.500000  1
  Dy  Dy1  1  0.601860  0.005093  0.500000  1
  Dy  Dy2  1  0.000000  0.593445  0.500000  1
  Sn  Sn3  1  0.000000  0.267787  0.000000  1
  Rh  Rh4  1  0.673491  0.330241  0.000000  1
  Rh  Rh5  1  0.326509  0.656752  0.000000  1
  Rh  Rh6  1  0.000000  0.013190  0.500000  1
  Pb  Pb7  1  0.732495  0.731377  0.000000  1
  Pb  Pb8  1  0.267505  0.998882  0.000000  1
