# generated using pymatgen
data_Sc6GaNi6Sn5
_symmetry_space_group_name_H-M   'P 1'
_cell_length_a   7.17114600
_cell_length_b   7.21213610
_cell_length_c   7.04302502
_cell_angle_alpha   90.03365248
_cell_angle_beta   90.00000000
_cell_angle_gamma   119.81216911
_symmetry_Int_Tables_number   1
_chemical_formula_structural   Sc6GaNi6Sn5
_chemical_formula_sum   'Sc6 Ga1 Ni6 Sn5'
_cell_volume   316.05388022
_cell_formula_units_Z   1
loop_
 _symmetry_equiv_pos_site_id
 _symmetry_equiv_pos_as_xyz
  1  'x, y, z'
loop_
 _atom_site_type_symbol
 _atom_site_label
 _atom_site_symmetry_multiplicity
 _atom_site_fract_x
 _atom_site_fract_y
 _atom_site_fract_z
 _atom_site_occupancy
  Sc  Sc0  1  0.407123  0.003535  0.243750  1
  Sc  Sc1  1  0.603686  0.608406  0.246549  1
  Sc  Sc2  1  0.989272  0.388956  0.246149  1
  Sc  Sc3  1  0.403588  0.996465  0.756250  1
  Sc  Sc4  1  0.600316  0.611044  0.753851  1
  Sc  Sc5  1  0.995281  0.391594  0.753451  1
  Ga  Ga6  1  0.729743  0.000000  0.000000  1
  Ni  Ni7  1  0.341252  0.672451  0.008784  1
  Ni  Ni8  1  0.334019  0.664347  0.488828  1
  Ni  Ni9  1  0.668802  0.327549  0.991216  1
  Ni  Ni10  1  0.669673  0.335653  0.511172  1
  Ni  Ni11  1  0.993842  0.000031  0.244860  1
  Ni  Ni12  1  0.993811  0.999969  0.755140  1
  Sn  Sn13  1  0.269418  0.266852  0.499981  1
  Sn  Sn14  1  0.002565  0.733148  0.500019  1
  Sn  Sn15  1  0.998546  0.731258  0.999884  1
  Sn  Sn16  1  0.267288  0.268742  0.000116  1
  Sn  Sn17  1  0.731778  0.000000  0.500000  1
