# generated using pymatgen
data_Ca8Ta3Fe4SbO24
_symmetry_space_group_name_H-M   'P 1'
_cell_length_a   7.81518938
_cell_length_b   7.84896973
_cell_length_c   7.84276206
_cell_angle_alpha   88.43975794
_cell_angle_beta   89.97199542
_cell_angle_gamma   90.20340537
_symmetry_Int_Tables_number   1
_chemical_formula_structural   Ca8Ta3Fe4SbO24
_chemical_formula_sum   'Ca8 Ta3 Fe4 Sb1 O24'
_cell_volume   480.90284178
_cell_formula_units_Z   1
loop_
 _symmetry_equiv_pos_site_id
 _symmetry_equiv_pos_as_xyz
  1  'x, y, z'
loop_
 _atom_site_type_symbol
 _atom_site_label
 _atom_site_symmetry_multiplicity
 _atom_site_fract_x
 _atom_site_fract_y
 _atom_site_fract_z
 _atom_site_occupancy
  Ca  Ca0  1  0.749869  0.480759  0.469624  1
  Ca  Ca1  1  0.748585  0.982383  0.968369  1
  Ca  Ca2  1  0.752192  0.469806  0.980665  1
  Ca  Ca3  1  0.750631  0.969949  0.481260  1
  Ca  Ca4  1  0.249369  0.530051  0.018740  1
  Ca  Ca5  1  0.247808  0.030194  0.519335  1
  Ca  Ca6  1  0.251415  0.517617  0.531631  1
  Ca  Ca7  1  0.250131  0.019241  0.030376  1
  Ta  Ta8  1  0.000000  0.250000  0.250000  1
  Ta  Ta9  1  0.000000  0.750000  0.750000  1
  Ta  Ta10  1  0.500000  0.250000  0.750000  1
  Fe  Fe11  1  0.500000  0.750000  0.750000  1
  Fe  Fe12  1  0.000000  0.750000  0.250000  1
  Fe  Fe13  1  0.500000  0.250000  0.250000  1
  Fe  Fe14  1  0.000000  0.250000  0.750000  1
  Sb  Sb15  1  0.500000  0.750000  0.250000  1
  O  O16  1  0.252493  0.686543  0.282363  1
  O  O17  1  0.252122  0.191485  0.781211  1
  O  O18  1  0.247926  0.279607  0.191602  1
  O  O19  1  0.248298  0.781484  0.692770  1
  O  O20  1  0.747878  0.308515  0.718789  1
  O  O21  1  0.747507  0.813457  0.217637  1
  O  O22  1  0.751702  0.718516  0.807230  1
  O  O23  1  0.752074  0.220393  0.308398  1
  O  O24  1  0.046720  0.795403  0.996258  1
  O  O25  1  0.048610  0.294824  0.496153  1
  O  O26  1  0.451513  0.496098  0.793605  1
  O  O27  1  0.448734  0.995797  0.298094  1
  O  O28  1  0.951390  0.205176  0.003847  1
  O  O29  1  0.953280  0.704597  0.503742  1
  O  O30  1  0.551266  0.504203  0.201906  1
  O  O31  1  0.548487  0.003902  0.706395  1
  O  O32  1  0.956374  0.498522  0.204916  1
  O  O33  1  0.954440  0.998035  0.704581  1
  O  O34  1  0.545997  0.206470  0.998520  1
  O  O35  1  0.549320  0.701541  0.498325  1
  O  O36  1  0.045560  0.501965  0.795419  1
  O  O37  1  0.043626  0.001478  0.295084  1
  O  O38  1  0.450680  0.798459  0.001675  1
  O  O39  1  0.454003  0.293530  0.501480  1
