# generated using pymatgen
data_Tb3Ho6Er3Os4
_symmetry_space_group_name_H-M   'P 1'
_cell_length_a   6.29641034
_cell_length_b   7.37808687
_cell_length_c   9.02260727
_cell_angle_alpha   90.00352146
_cell_angle_beta   90.02803373
_cell_angle_gamma   89.96199981
_symmetry_Int_Tables_number   1
_chemical_formula_structural   Tb3Ho6Er3Os4
_chemical_formula_sum   'Tb3 Ho6 Er3 Os4'
_cell_volume   419.14925008
_cell_formula_units_Z   1
loop_
 _symmetry_equiv_pos_site_id
 _symmetry_equiv_pos_as_xyz
  1  'x, y, z'
loop_
 _atom_site_type_symbol
 _atom_site_label
 _atom_site_symmetry_multiplicity
 _atom_site_fract_x
 _atom_site_fract_y
 _atom_site_fract_z
 _atom_site_occupancy
  Tb  Tb0  1  0.870217  0.538122  0.250147  1
  Tb  Tb1  1  0.629947  0.038065  0.250050  1
  Tb  Tb2  1  0.130318  0.461864  0.749958  1
  Ho  Ho3  1  0.332827  0.676049  0.062958  1
  Ho  Ho4  1  0.167621  0.174824  0.437288  1
  Ho  Ho5  1  0.666881  0.324322  0.562961  1
  Ho  Ho6  1  0.832113  0.824879  0.936575  1
  Ho  Ho7  1  0.666900  0.324188  0.937047  1
  Ho  Ho8  1  0.369528  0.961583  0.749883  1
  Er  Er9  1  0.832020  0.824884  0.563226  1
  Er  Er10  1  0.332857  0.675876  0.437220  1
  Er  Er11  1  0.167654  0.174735  0.062725  1
  Os  Os12  1  0.042847  0.883104  0.250205  1
  Os  Os13  1  0.457056  0.383057  0.249950  1
  Os  Os14  1  0.959088  0.116486  0.750119  1
  Os  Os15  1  0.542123  0.617961  0.749689  1
