# generated using pymatgen
data_Ta12Ga8FeNi3C4
_symmetry_space_group_name_H-M   'P 1'
_cell_length_a   8.22835338
_cell_length_b   8.22926254
_cell_length_c   8.22818674
_cell_angle_alpha   59.87988091
_cell_angle_beta   59.87150761
_cell_angle_gamma   59.88130978
_symmetry_Int_Tables_number   1
_chemical_formula_structural   Ta12Ga8FeNi3C4
_chemical_formula_sum   'Ta12 Ga8 Fe1 Ni3 C4'
_cell_volume   392.87539673
_cell_formula_units_Z   1
loop_
 _symmetry_equiv_pos_site_id
 _symmetry_equiv_pos_as_xyz
  1  'x, y, z'
loop_
 _atom_site_type_symbol
 _atom_site_label
 _atom_site_symmetry_multiplicity
 _atom_site_fract_x
 _atom_site_fract_y
 _atom_site_fract_z
 _atom_site_occupancy
  Ta  Ta0  1  0.564657  0.936563  0.564656  1
  Ta  Ta1  1  0.313431  0.685334  0.685365  1
  Ta  Ta2  1  0.694065  0.310751  0.310739  1
  Ta  Ta3  1  0.310748  0.694049  0.310748  1
  Ta  Ta4  1  0.685364  0.685334  0.313432  1
  Ta  Ta5  1  0.310737  0.310749  0.694068  1
  Ta  Ta6  1  0.564636  0.564666  0.936568  1
  Ta  Ta7  1  0.936569  0.564666  0.564635  1
  Ta  Ta8  1  0.555935  0.939249  0.939261  1
  Ta  Ta9  1  0.939263  0.939251  0.555932  1
  Ta  Ta10  1  0.685343  0.313437  0.685344  1
  Ta  Ta11  1  0.939252  0.555951  0.939252  1
  Ga  Ga12  1  0.914649  0.914699  0.914650  1
  Ga  Ga13  1  0.000996  0.333343  0.333389  1
  Ga  Ga14  1  0.333382  0.000981  0.333380  1
  Ga  Ga15  1  0.333390  0.333343  0.000996  1
  Ga  Ga16  1  0.916618  0.249019  0.916620  1
  Ga  Ga17  1  0.916610  0.916657  0.249004  1
  Ga  Ga18  1  0.249004  0.916657  0.916611  1
  Ga  Ga19  1  0.335351  0.335301  0.335350  1
  Fe  Fe20  1  0.125000  0.125000  0.125000  1
  Ni  Ni21  1  0.625000  0.125000  0.125000  1
  Ni  Ni22  1  0.125000  0.625000  0.125000  1
  Ni  Ni23  1  0.125000  0.125000  0.625000  1
  C  C24  1  0.625000  0.625000  0.625000  1
  C  C25  1  0.125000  0.625000  0.625000  1
  C  C26  1  0.625000  0.125000  0.625000  1
  C  C27  1  0.625000  0.625000  0.125000  1
