# generated using pymatgen
data_Ca6Ag15SnN
_symmetry_space_group_name_H-M   'P 1'
_cell_length_a   8.59696383
_cell_length_b   8.63360878
_cell_length_c   8.59696277
_cell_angle_alpha   109.55759347
_cell_angle_beta   109.38470913
_cell_angle_gamma   109.55758808
_symmetry_Int_Tables_number   1
_chemical_formula_structural   Ca6Ag15SnN
_chemical_formula_sum   'Ca6 Ag15 Sn1 N1'
_cell_volume   490.67801853
_cell_formula_units_Z   1
loop_
 _symmetry_equiv_pos_site_id
 _symmetry_equiv_pos_as_xyz
  1  'x, y, z'
loop_
 _atom_site_type_symbol
 _atom_site_label
 _atom_site_symmetry_multiplicity
 _atom_site_fract_x
 _atom_site_fract_y
 _atom_site_fract_z
 _atom_site_occupancy
  Ca  Ca0  1  0.000000  0.253259  0.250893  1
  Ca  Ca1  1  0.250893  0.997634  0.250893  1
  Ca  Ca2  1  0.749107  0.002366  0.749107  1
  Ca  Ca3  1  0.749107  0.746741  0.000000  1
  Ca  Ca4  1  0.250893  0.253259  0.000000  1
  Ca  Ca5  1  0.000000  0.746741  0.749107  1
  Ag  Ag6  1  0.500000  0.500000  0.500000  1
  Ag  Ag7  1  0.500000  0.000000  0.000000  1
  Ag  Ag8  1  0.000000  0.000000  0.500000  1
  Ag  Ag9  1  0.693213  0.346607  0.346607  1
  Ag  Ag10  1  0.346607  0.000000  0.653393  1
  Ag  Ag11  1  0.352769  0.697926  0.352769  1
  Ag  Ag12  1  0.346607  0.346607  0.693213  1
  Ag  Ag13  1  0.352769  0.654842  0.000000  1
  Ag  Ag14  1  0.000000  0.345158  0.647231  1
  Ag  Ag15  1  0.000000  0.654842  0.352769  1
  Ag  Ag16  1  0.653393  0.653393  0.306787  1
  Ag  Ag17  1  0.653393  0.000000  0.346607  1
  Ag  Ag18  1  0.647231  0.345158  0.000000  1
  Ag  Ag19  1  0.647231  0.302074  0.647231  1
  Ag  Ag20  1  0.306787  0.653393  0.653393  1
  Sn  Sn21  1  0.000000  0.500000  0.000000  1
  N  N22  1  0.000000  0.000000  0.000000  1
