# generated using pymatgen
data_Dy16Sc4(Ir3Pt)3
_symmetry_space_group_name_H-M   'P 1'
_cell_length_a   10.85649463
_cell_length_b   10.85649463
_cell_length_c   6.27267704
_cell_angle_alpha   90.00910687
_cell_angle_beta   90.00910687
_cell_angle_gamma   90.11631703
_symmetry_Int_Tables_number   1
_chemical_formula_structural   Dy16Sc4(Ir3Pt)3
_chemical_formula_sum   'Dy16 Sc4 Ir9 Pt3'
_cell_volume   739.31797495
_cell_formula_units_Z   1
loop_
 _symmetry_equiv_pos_site_id
 _symmetry_equiv_pos_as_xyz
  1  'x, y, z'
loop_
 _atom_site_type_symbol
 _atom_site_label
 _atom_site_symmetry_multiplicity
 _atom_site_fract_x
 _atom_site_fract_y
 _atom_site_fract_z
 _atom_site_occupancy
  Dy  Dy0  1  0.290489  0.085042  0.374059  1
  Dy  Dy1  1  0.289812  0.911053  0.878531  1
  Dy  Dy2  1  0.708603  0.087703  0.875886  1
  Dy  Dy3  1  0.707659  0.912076  0.375448  1
  Dy  Dy4  1  0.583589  0.787334  0.879220  1
  Dy  Dy5  1  0.583845  0.212608  0.379497  1
  Dy  Dy6  1  0.413463  0.787680  0.379090  1
  Dy  Dy7  1  0.415729  0.212615  0.879124  1
  Dy  Dy8  1  0.212666  0.416411  0.620780  1
  Dy  Dy9  1  0.212320  0.586537  0.120910  1
  Dy  Dy10  1  0.787392  0.416155  0.120503  1
  Dy  Dy11  1  0.787385  0.584271  0.620876  1
  Dy  Dy12  1  0.914958  0.709511  0.125941  1
  Dy  Dy13  1  0.912297  0.291397  0.624114  1
  Dy  Dy14  1  0.088947  0.710188  0.621469  1
  Dy  Dy15  1  0.087924  0.292341  0.124552  1
  Sc  Sc16  1  0.001706  0.997727  0.498119  1
  Sc  Sc17  1  0.002273  0.998294  0.001881  1
  Sc  Sc18  1  0.499768  0.500051  0.000343  1
  Sc  Sc19  1  0.499949  0.500232  0.499657  1
  Ir  Ir20  1  0.145775  0.854225  0.250000  1
  Ir  Ir21  1  0.648249  0.351751  0.750000  1
  Ir  Ir22  1  0.648223  0.648288  0.250118  1
  Ir  Ir23  1  0.351712  0.351777  0.249882  1
  Ir  Ir24  1  0.352312  0.647688  0.750000  1
  Ir  Ir25  1  0.500475  0.000030  0.122345  1
  Ir  Ir26  1  0.500275  0.000113  0.623799  1
  Ir  Ir27  1  0.999887  0.499725  0.876201  1
  Ir  Ir28  1  0.999970  0.499525  0.377655  1
  Pt  Pt29  1  0.852981  0.147019  0.250000  1
  Pt  Pt30  1  0.852174  0.852806  0.750094  1
  Pt  Pt31  1  0.147194  0.147826  0.749906  1
