# generated using pymatgen
data_CaErV3O8
_symmetry_space_group_name_H-M   'P 1'
_cell_length_a   6.37131199
_cell_length_b   6.37131249
_cell_length_c   5.10774300
_cell_angle_alpha   71.20196117
_cell_angle_beta   71.20195963
_cell_angle_gamma   57.76263141
_symmetry_Int_Tables_number   1
_chemical_formula_structural   CaErV3O8
_chemical_formula_sum   'Ca1 Er1 V3 O8'
_cell_volume   163.07165985
_cell_formula_units_Z   1
loop_
 _symmetry_equiv_pos_site_id
 _symmetry_equiv_pos_as_xyz
  1  'x, y, z'
loop_
 _atom_site_type_symbol
 _atom_site_label
 _atom_site_symmetry_multiplicity
 _atom_site_fract_x
 _atom_site_fract_y
 _atom_site_fract_z
 _atom_site_occupancy
  Ca  Ca0  1  0.278367  0.278367  0.667948  1
  Er  Er1  1  0.725856  0.725856  0.334114  1
  V  V2  1  0.000122  0.000122  0.496847  1
  V  V3  1  0.738847  0.263260  0.000999  1
  V  V4  1  0.263260  0.738847  0.000999  1
  O  O5  1  0.401028  0.401028  0.945644  1
  O  O6  1  0.603429  0.603429  0.070582  1
  O  O7  1  0.896522  0.896522  0.914236  1
  O  O8  1  0.100274  0.100274  0.086392  1
  O  O9  1  0.340633  0.877017  0.610440  1
  O  O10  1  0.877017  0.340633  0.610440  1
  O  O11  1  0.105106  0.669541  0.380679  1
  O  O12  1  0.669541  0.105106  0.380679  1
