# generated using pymatgen
data_Li5SiGe
_symmetry_space_group_name_H-M   'P 1'
_cell_length_a   6.53916299
_cell_length_b   6.53916275
_cell_length_c   6.53916271
_cell_angle_alpha   39.34770503
_cell_angle_beta   39.34770605
_cell_angle_gamma   39.34770034
_symmetry_Int_Tables_number   1
_chemical_formula_structural   Li5SiGe
_chemical_formula_sum   'Li5 Si1 Ge1'
_cell_volume   101.15243867
_cell_formula_units_Z   1
loop_
 _symmetry_equiv_pos_site_id
 _symmetry_equiv_pos_as_xyz
  1  'x, y, z'
loop_
 _atom_site_type_symbol
 _atom_site_label
 _atom_site_symmetry_multiplicity
 _atom_site_fract_x
 _atom_site_fract_y
 _atom_site_fract_z
 _atom_site_occupancy
  Li  Li0  1  0.210863  0.210863  0.210863  1
  Li  Li1  1  0.352698  0.352698  0.352698  1
  Li  Li2  1  0.500413  0.500413  0.500413  1
  Li  Li3  1  0.646572  0.646572  0.646572  1
  Li  Li4  1  0.789585  0.789585  0.789585  1
  Si  Si5  1  0.931464  0.931464  0.931464  1
  Ge  Ge6  1  0.068404  0.068404  0.068404  1
