# generated using pymatgen
data_Tb16MgAg3Rh4
_symmetry_space_group_name_H-M   'P 1'
_cell_length_a   9.61855488
_cell_length_b   9.62468304
_cell_length_c   9.62468300
_cell_angle_alpha   60.00000358
_cell_angle_beta   59.97892563
_cell_angle_gamma   59.97892426
_symmetry_Int_Tables_number   1
_chemical_formula_structural   Tb16MgAg3Rh4
_chemical_formula_sum   'Tb16 Mg1 Ag3 Rh4'
_cell_volume   629.83863071
_cell_formula_units_Z   1
loop_
 _symmetry_equiv_pos_site_id
 _symmetry_equiv_pos_as_xyz
  1  'x, y, z'
loop_
 _atom_site_type_symbol
 _atom_site_label
 _atom_site_symmetry_multiplicity
 _atom_site_fract_x
 _atom_site_fract_y
 _atom_site_fract_z
 _atom_site_occupancy
  Tb  Tb0  1  0.352031  0.350617  0.350617  1
  Tb  Tb1  1  0.352031  0.350617  0.946734  1
  Tb  Tb2  1  0.352031  0.946734  0.350617  1
  Tb  Tb3  1  0.935470  0.354843  0.354843  1
  Tb  Tb4  1  0.812042  0.187720  0.187720  1
  Tb  Tb5  1  0.186136  0.813470  0.813470  1
  Tb  Tb6  1  0.186136  0.813470  0.186923  1
  Tb  Tb7  1  0.812042  0.187720  0.812518  1
  Tb  Tb8  1  0.186136  0.186923  0.813470  1
  Tb  Tb9  1  0.812042  0.812518  0.187720  1
  Tb  Tb10  1  0.933405  0.564811  0.564811  1
  Tb  Tb11  1  0.563261  0.935527  0.935527  1
  Tb  Tb12  1  0.563261  0.935527  0.565686  1
  Tb  Tb13  1  0.933405  0.564811  0.936973  1
  Tb  Tb14  1  0.563261  0.565686  0.935527  1
  Tb  Tb15  1  0.933405  0.936973  0.564811  1
  Mg  Mg16  1  0.284042  0.571986  0.571986  1
  Ag  Ag17  1  0.582185  0.583916  0.583916  1
  Ag  Ag18  1  0.582185  0.583916  0.249985  1
  Ag  Ag19  1  0.582185  0.249985  0.583916  1
  Rh  Rh20  1  0.141401  0.144778  0.144778  1
  Rh  Rh21  1  0.141401  0.144778  0.569041  1
  Rh  Rh22  1  0.141401  0.569041  0.144778  1
  Rh  Rh23  1  0.569104  0.143632  0.143632  1
