# generated using pymatgen
data_Cr2RhCl9
_symmetry_space_group_name_H-M   'P 1'
_cell_length_a   6.06969000
_cell_length_b   6.06968978
_cell_length_c   20.54828505
_cell_angle_alpha   90.00423179
_cell_angle_beta   90.00423175
_cell_angle_gamma   119.99858462
_symmetry_Int_Tables_number   1
_chemical_formula_structural   Cr2RhCl9
_chemical_formula_sum   'Cr4 Rh2 Cl18'
_cell_volume   655.60975751
_cell_formula_units_Z   2
loop_
 _symmetry_equiv_pos_site_id
 _symmetry_equiv_pos_as_xyz
  1  'x, y, z'
loop_
 _atom_site_type_symbol
 _atom_site_label
 _atom_site_symmetry_multiplicity
 _atom_site_fract_x
 _atom_site_fract_y
 _atom_site_fract_z
 _atom_site_occupancy
  Cr  Cr0  1  0.222324  0.444795  0.333586  1
  Cr  Cr1  1  0.888940  0.778070  0.333587  1
  Cr  Cr2  1  0.221930  0.111060  0.999746  1
  Cr  Cr3  1  0.555205  0.777676  0.999747  1
  Rh  Rh4  1  0.222511  0.777489  0.666667  1
  Rh  Rh5  1  0.889180  0.110820  0.666667  1
  Cl  Cl6  1  0.248339  0.444329  0.934725  1
  Cl  Cl7  1  0.205059  0.093390  0.602865  1
  Cl  Cl8  1  0.248670  0.804523  0.064862  1
  Cl  Cl9  1  0.555560  0.471526  0.268476  1
  Cl  Cl10  1  0.555876  0.093523  0.730452  1
  Cl  Cl11  1  0.205160  0.444179  0.730463  1
  Cl  Cl12  1  0.555671  0.751661  0.398608  1
  Cl  Cl13  1  0.915819  0.111499  0.268457  1
  Cl  Cl14  1  0.906610  0.794941  0.730469  1
  Cl  Cl15  1  0.528621  0.084501  0.934746  1
  Cl  Cl16  1  0.195777  0.111500  0.398566  1
  Cl  Cl17  1  0.528474  0.444440  0.064858  1
  Cl  Cl18  1  0.888501  0.084181  0.064876  1
  Cl  Cl19  1  0.915499  0.471379  0.398587  1
  Cl  Cl20  1  0.906477  0.444124  0.602881  1
  Cl  Cl21  1  0.555821  0.794840  0.602871  1
  Cl  Cl22  1  0.195477  0.751330  0.268471  1
  Cl  Cl23  1  0.888500  0.804223  0.934767  1
