# generated using pymatgen
data_Y3HoPd2Pt2F28
_symmetry_space_group_name_H-M   'P 1'
_cell_length_a   5.54269515
_cell_length_b   8.87226403
_cell_length_c   11.97786204
_cell_angle_alpha   62.49621079
_cell_angle_beta   89.98490190
_cell_angle_gamma   89.99423708
_symmetry_Int_Tables_number   1
_chemical_formula_structural   Y3HoPd2Pt2F28
_chemical_formula_sum   'Y3 Ho1 Pd2 Pt2 F28'
_cell_volume   522.45478722
_cell_formula_units_Z   1
loop_
 _symmetry_equiv_pos_site_id
 _symmetry_equiv_pos_as_xyz
  1  'x, y, z'
loop_
 _atom_site_type_symbol
 _atom_site_label
 _atom_site_symmetry_multiplicity
 _atom_site_fract_x
 _atom_site_fract_y
 _atom_site_fract_z
 _atom_site_occupancy
  Y  Y0  1  0.761500  0.812817  0.763694  1
  Y  Y1  1  0.261446  0.187074  0.736305  1
  Y  Y2  1  0.237878  0.184952  0.234948  1
  Ho  Ho3  1  0.737829  0.813754  0.265090  1
  Pd  Pd4  1  0.758830  0.272150  0.956991  1
  Pd  Pd5  1  0.259070  0.727576  0.542708  1
  Pt  Pt6  1  0.241029  0.727500  0.043895  1
  Pt  Pt7  1  0.741147  0.273265  0.456378  1
  F  F8  1  0.434752  0.702469  0.916038  1
  F  F9  1  0.934458  0.297901  0.584451  1
  F  F10  1  0.566582  0.297047  0.083437  1
  F  F11  1  0.065453  0.703379  0.416268  1
  F  F12  1  0.438983  0.278649  0.541399  1
  F  F13  1  0.939520  0.721630  0.958630  1
  F  F14  1  0.558611  0.722456  0.457775  1
  F  F15  1  0.058401  0.278041  0.040994  1
  F  F16  1  0.776062  0.519285  0.858754  1
  F  F17  1  0.276412  0.480565  0.640992  1
  F  F18  1  0.225737  0.478143  0.141623  1
  F  F19  1  0.725990  0.522929  0.358477  1
  F  F20  1  0.753811  0.025434  0.049723  1
  F  F21  1  0.253501  0.974095  0.450940  1
  F  F22  1  0.245766  0.976392  0.950975  1
  F  F23  1  0.745816  0.024325  0.549030  1
  F  F24  1  0.967206  0.723615  0.634563  1
  F  F25  1  0.466644  0.276182  0.865438  1
  F  F26  1  0.036318  0.275020  0.364618  1
  F  F27  1  0.535946  0.725994  0.136086  1
  F  F28  1  0.050998  0.746639  0.176287  1
  F  F29  1  0.553020  0.254368  0.323619  1
  F  F30  1  0.944819  0.254778  0.824731  1
  F  F31  1  0.445397  0.744919  0.674959  1
  F  F32  1  0.415126  0.967830  0.232242  1
  F  F33  1  0.912216  0.028957  0.267938  1
  F  F34  1  0.586881  0.030598  0.767594  1
  F  F35  1  0.086845  0.969272  0.732408  1
