# generated using pymatgen
data_CaYb3DySn3H
_symmetry_space_group_name_H-M   'P 1'
_cell_length_a   9.33098353
_cell_length_b   9.33098374
_cell_length_c   9.33033803
_cell_angle_alpha   128.65511308
_cell_angle_beta   128.65510505
_cell_angle_gamma   75.57127368
_symmetry_Int_Tables_number   1
_chemical_formula_structural   CaYb3DySn3H
_chemical_formula_sum   'Ca2 Yb6 Dy2 Sn6 H2'
_cell_volume   481.98925078
_cell_formula_units_Z   2
loop_
 _symmetry_equiv_pos_site_id
 _symmetry_equiv_pos_as_xyz
  1  'x, y, z'
loop_
 _atom_site_type_symbol
 _atom_site_label
 _atom_site_symmetry_multiplicity
 _atom_site_fract_x
 _atom_site_fract_y
 _atom_site_fract_z
 _atom_site_occupancy
  Ca  Ca0  1  0.498032  0.498032  0.000000  1
  Ca  Ca1  1  0.998032  0.998032  0.000000  1
  Yb  Yb2  1  0.511844  0.011844  0.824766  1
  Yb  Yb3  1  0.187078  0.687078  0.175234  1
  Yb  Yb4  1  0.010429  0.189454  0.500000  1
  Yb  Yb5  1  0.689454  0.510429  0.500000  1
  Yb  Yb6  1  0.491839  0.991839  0.177802  1
  Yb  Yb7  1  0.814036  0.314036  0.822198  1
  Dy  Dy8  1  0.984020  0.812862  0.500000  1
  Dy  Dy9  1  0.312862  0.484020  0.500000  1
  Sn  Sn10  1  0.247257  0.247257  0.000000  1
  Sn  Sn11  1  0.747257  0.747257  0.000000  1
  Sn  Sn12  1  0.877606  0.377606  0.243729  1
  Sn  Sn13  1  0.133878  0.633878  0.756271  1
  Sn  Sn14  1  0.371936  0.130505  0.500000  1
  Sn  Sn15  1  0.630505  0.871936  0.500000  1
  H  H16  1  0.241907  0.741907  0.500000  1
  H  H17  1  0.752024  0.252024  0.500000  1
