# generated using pymatgen
data_Ho7ErTi12Si15Ir
_symmetry_space_group_name_H-M   'P 1'
_cell_length_a   7.04970505
_cell_length_b   7.03428244
_cell_length_c   12.96119002
_cell_angle_alpha   89.88978844
_cell_angle_beta   89.80518594
_cell_angle_gamma   90.02420546
_symmetry_Int_Tables_number   1
_chemical_formula_structural   Ho7ErTi12Si15Ir
_chemical_formula_sum   'Ho7 Er1 Ti12 Si15 Ir1'
_cell_volume   642.73547766
_cell_formula_units_Z   1
loop_
 _symmetry_equiv_pos_site_id
 _symmetry_equiv_pos_as_xyz
  1  'x, y, z'
loop_
 _atom_site_type_symbol
 _atom_site_label
 _atom_site_symmetry_multiplicity
 _atom_site_fract_x
 _atom_site_fract_y
 _atom_site_fract_z
 _atom_site_occupancy
  Ho  Ho0  1  0.499088  0.841615  0.717109  1
  Ho  Ho1  1  0.501378  0.159765  0.216817  1
  Ho  Ho2  1  0.840967  0.497334  0.283447  1
  Ho  Ho3  1  0.157408  0.502507  0.783095  1
  Ho  Ho4  1  0.660624  0.997903  0.967352  1
  Ho  Ho5  1  0.002892  0.338697  0.535015  1
  Ho  Ho6  1  0.999161  0.659295  0.033289  1
  Er  Er7  1  0.338347  0.001665  0.466605  1
  Ti  Ti8  1  0.327385  0.326334  0.001281  1
  Ti  Ti9  1  0.172731  0.827612  0.249934  1
  Ti  Ti10  1  0.833455  0.171365  0.747402  1
  Ti  Ti11  1  0.672202  0.671636  0.498879  1
  Ti  Ti12  1  0.157860  0.010241  0.874774  1
  Ti  Ti13  1  0.491859  0.652427  0.126098  1
  Ti  Ti14  1  0.499044  0.342080  0.626943  1
  Ti  Ti15  1  0.656218  0.496609  0.874993  1
  Ti  Ti16  1  0.348024  0.506298  0.373541  1
  Ti  Ti17  1  0.846537  0.992211  0.374798  1
  Ti  Ti18  1  0.007985  0.152052  0.125766  1
  Ti  Ti19  1  0.992640  0.850428  0.619790  1
  Si  Si20  1  0.370618  0.702201  0.934971  1
  Si  Si21  1  0.631297  0.296641  0.434128  1
  Si  Si22  1  0.703698  0.369454  0.066517  1
  Si  Si23  1  0.301044  0.630848  0.563866  1
  Si  Si24  1  0.796052  0.868931  0.182653  1
  Si  Si25  1  0.130578  0.202696  0.315979  1
  Si  Si26  1  0.867948  0.799146  0.815639  1
  Si  Si27  1  0.292396  0.953609  0.065777  1
  Si  Si28  1  0.545908  0.790994  0.314846  1
  Si  Si29  1  0.458214  0.214783  0.817085  1
  Si  Si30  1  0.787185  0.549011  0.685225  1
  Si  Si31  1  0.208179  0.453715  0.185277  1
  Si  Si32  1  0.704945  0.044874  0.561780  1
  Si  Si33  1  0.952774  0.291143  0.937708  1
  Si  Si34  1  0.046760  0.707881  0.433385  1
  Ir  Ir35  1  0.196600  0.126003  0.688235  1
