# generated using pymatgen
data_LiPr16Hg3Ru4
_symmetry_space_group_name_H-M   'P 1'
_cell_length_a   9.99701845
_cell_length_b   9.99701817
_cell_length_c   9.96642622
_cell_angle_alpha   59.89840868
_cell_angle_beta   59.89840645
_cell_angle_gamma   59.99999334
_symmetry_Int_Tables_number   1
_chemical_formula_structural   LiPr16Hg3Ru4
_chemical_formula_sum   'Li1 Pr16 Hg3 Ru4'
_cell_volume   703.22906599
_cell_formula_units_Z   1
loop_
 _symmetry_equiv_pos_site_id
 _symmetry_equiv_pos_as_xyz
  1  'x, y, z'
loop_
 _atom_site_type_symbol
 _atom_site_label
 _atom_site_symmetry_multiplicity
 _atom_site_fract_x
 _atom_site_fract_y
 _atom_site_fract_z
 _atom_site_occupancy
  Li  Li0  1  0.435842  0.435842  0.692475  1
  Pr  Pr1  1  0.059548  0.440584  0.440320  1
  Pr  Pr2  1  0.191370  0.807496  0.193639  1
  Pr  Pr3  1  0.653371  0.653371  0.652689  1
  Pr  Pr4  1  0.439214  0.439214  0.062873  1
  Pr  Pr5  1  0.058700  0.439214  0.062873  1
  Pr  Pr6  1  0.439214  0.058700  0.062873  1
  Pr  Pr7  1  0.059548  0.059548  0.440320  1
  Pr  Pr8  1  0.650291  0.650291  0.049127  1
  Pr  Pr9  1  0.653371  0.040568  0.652689  1
  Pr  Pr10  1  0.187700  0.813689  0.810912  1
  Pr  Pr11  1  0.440584  0.059548  0.440320  1
  Pr  Pr12  1  0.187700  0.187700  0.810912  1
  Pr  Pr13  1  0.040568  0.653371  0.652689  1
  Pr  Pr14  1  0.807496  0.807496  0.193639  1
  Pr  Pr15  1  0.807496  0.191370  0.193639  1
  Pr  Pr16  1  0.813689  0.187700  0.810912  1
  Hg  Hg17  1  0.413694  0.413694  0.421059  1
  Hg  Hg18  1  0.413694  0.751553  0.421059  1
  Hg  Hg19  1  0.751553  0.413694  0.421059  1
  Ru  Ru20  1  0.860317  0.860317  0.865230  1
  Ru  Ru21  1  0.414136  0.860317  0.865230  1
  Ru  Ru22  1  0.860317  0.414136  0.865230  1
  Ru  Ru23  1  0.860589  0.860589  0.418233  1
