# generated using pymatgen
data_Y4Ho2Al19Si5Os8
_symmetry_space_group_name_H-M   'P 1'
_cell_length_a   8.70495000
_cell_length_b   8.69081265
_cell_length_c   9.59468600
_cell_angle_alpha   89.99981983
_cell_angle_beta   90.00000000
_cell_angle_gamma   120.05382544
_symmetry_Int_Tables_number   1
_chemical_formula_structural   Y4Ho2Al19Si5Os8
_chemical_formula_sum   'Y4 Ho2 Al19 Si5 Os8'
_cell_volume   628.27858654
_cell_formula_units_Z   1
loop_
 _symmetry_equiv_pos_site_id
 _symmetry_equiv_pos_as_xyz
  1  'x, y, z'
loop_
 _atom_site_type_symbol
 _atom_site_label
 _atom_site_symmetry_multiplicity
 _atom_site_fract_x
 _atom_site_fract_y
 _atom_site_fract_z
 _atom_site_occupancy
  Y  Y0  1  0.194630  0.389259  0.250000  1
  Y  Y1  1  0.806052  0.612104  0.750001  1
  Y  Y2  1  0.388982  0.194730  0.750001  1
  Y  Y3  1  0.805747  0.194730  0.750001  1
  Ho  Ho4  1  0.608038  0.806425  0.249999  1
  Ho  Ho5  1  0.198387  0.806425  0.249999  1
  Al  Al6  1  0.164796  0.329592  0.577991  1
  Al  Al7  1  0.834707  0.669415  0.421900  1
  Al  Al8  1  0.669659  0.835167  0.576510  1
  Al  Al9  1  0.834707  0.669414  0.078098  1
  Al  Al10  1  0.329242  0.165437  0.422147  1
  Al  Al11  1  0.164796  0.329592  0.922008  1
  Al  Al12  1  0.165508  0.835167  0.576510  1
  Al  Al13  1  0.329242  0.165438  0.077852  1
  Al  Al14  1  0.836195  0.165437  0.422147  1
  Al  Al15  1  0.669658  0.835166  0.923488  1
  Al  Al16  1  0.836196  0.165438  0.077852  1
  Al  Al17  1  0.165509  0.835166  0.923488  1
  Al  Al18  1  0.436887  0.873772  0.749999  1
  Al  Al19  1  0.872711  0.433610  0.250000  1
  Al  Al20  1  0.127996  0.564620  0.749999  1
  Al  Al21  1  0.560898  0.433610  0.250000  1
  Al  Al22  1  0.436625  0.564620  0.749999  1
  Al  Al23  1  0.999617  0.999235  0.250000  1
  Al  Al24  1  0.000407  0.000814  0.750000  1
  Si  Si25  1  0.332780  0.665559  0.037733  1
  Si  Si26  1  0.667307  0.334613  0.961575  1
  Si  Si27  1  0.667306  0.334612  0.538426  1
  Si  Si28  1  0.332780  0.665560  0.462267  1
  Si  Si29  1  0.563702  0.127405  0.250000  1
  Os  Os30  1  0.500622  0.001244  0.006751  1
  Os  Os31  1  0.999186  0.499245  0.000711  1
  Os  Os32  1  0.500620  0.001239  0.493257  1
  Os  Os33  1  0.500059  0.499245  0.000711  1
  Os  Os34  1  0.999183  0.499245  0.499290  1
  Os  Os35  1  0.500062  0.499245  0.499290  1
  Os  Os36  1  0.999600  0.999201  0.999953  1
  Os  Os37  1  0.999601  0.999202  0.500048  1
