# generated using pymatgen
data_Ca23Mg4Cu7
_symmetry_space_group_name_H-M   'P 1'
_cell_length_a   10.33234400
_cell_length_b   10.33234453
_cell_length_c   23.74965400
_cell_angle_alpha   90.00000000
_cell_angle_beta   90.00000000
_cell_angle_gamma   119.99999829
_symmetry_Int_Tables_number   1
_chemical_formula_structural   Ca23Mg4Cu7
_chemical_formula_sum   'Ca46 Mg8 Cu14'
_cell_volume   2195.76400958
_cell_formula_units_Z   2
loop_
 _symmetry_equiv_pos_site_id
 _symmetry_equiv_pos_as_xyz
  1  'x, y, z'
loop_
 _atom_site_type_symbol
 _atom_site_label
 _atom_site_symmetry_multiplicity
 _atom_site_fract_x
 _atom_site_fract_y
 _atom_site_fract_z
 _atom_site_occupancy
  Ca  Ca0  1  0.791321  0.208679  0.970530  1
  Ca  Ca1  1  0.075833  0.537917  0.331801  1
  Ca  Ca2  1  0.870525  0.129475  0.383828  1
  Ca  Ca3  1  0.924167  0.462083  0.668199  1
  Ca  Ca4  1  0.666667  0.333333  0.384064  1
  Ca  Ca5  1  0.462083  0.537917  0.331801  1
  Ca  Ca6  1  0.666667  0.333333  0.115936  1
  Ca  Ca7  1  0.748929  0.874464  0.250000  1
  Ca  Ca8  1  0.125536  0.251071  0.250000  1
  Ca  Ca9  1  0.870525  0.741049  0.383828  1
  Ca  Ca10  1  0.537917  0.075833  0.831801  1
  Ca  Ca11  1  0.129475  0.258951  0.616172  1
  Ca  Ca12  1  0.208679  0.417358  0.029470  1
  Ca  Ca13  1  0.129475  0.870525  0.616172  1
  Ca  Ca14  1  0.874464  0.125536  0.750000  1
  Ca  Ca15  1  0.417358  0.208679  0.970530  1
  Ca  Ca16  1  0.741049  0.870525  0.883828  1
  Ca  Ca17  1  0.870525  0.741049  0.116172  1
  Ca  Ca18  1  0.208679  0.417358  0.470530  1
  Ca  Ca19  1  0.582642  0.791321  0.470530  1
  Ca  Ca20  1  0.251071  0.125536  0.750000  1
  Ca  Ca21  1  0.462083  0.924167  0.168199  1
  Ca  Ca22  1  0.208679  0.791321  0.470530  1
  Ca  Ca23  1  0.125536  0.874464  0.250000  1
  Ca  Ca24  1  0.462083  0.537917  0.168199  1
  Ca  Ca25  1  0.333333  0.666667  0.615936  1
  Ca  Ca26  1  0.741049  0.870525  0.616172  1
  Ca  Ca27  1  0.462083  0.924167  0.331801  1
  Ca  Ca28  1  0.417358  0.208679  0.529470  1
  Ca  Ca29  1  0.208679  0.791321  0.029470  1
  Ca  Ca30  1  0.258951  0.129475  0.116172  1
  Ca  Ca31  1  0.129475  0.870525  0.883828  1
  Ca  Ca32  1  0.582642  0.791321  0.029470  1
  Ca  Ca33  1  0.537917  0.075833  0.668199  1
  Ca  Ca34  1  0.258951  0.129475  0.383828  1
  Ca  Ca35  1  0.924167  0.462083  0.831801  1
  Ca  Ca36  1  0.874464  0.748929  0.750000  1
  Ca  Ca37  1  0.870525  0.129475  0.116172  1
  Ca  Ca38  1  0.075833  0.537917  0.168199  1
  Ca  Ca39  1  0.333333  0.666667  0.884064  1
  Ca  Ca40  1  0.537917  0.462083  0.831801  1
  Ca  Ca41  1  0.129475  0.258951  0.883828  1
  Ca  Ca42  1  0.537917  0.462083  0.668199  1
  Ca  Ca43  1  0.791321  0.208679  0.529470  1
  Ca  Ca44  1  0.791321  0.582642  0.970530  1
  Ca  Ca45  1  0.791321  0.582642  0.529470  1
  Mg  Mg46  1  0.000000  0.000000  0.500000  1
  Mg  Mg47  1  0.771403  0.228597  0.250000  1
  Mg  Mg48  1  0.542807  0.771403  0.750000  1
  Mg  Mg49  1  0.228597  0.771403  0.750000  1
  Mg  Mg50  1  0.771403  0.542807  0.250000  1
  Mg  Mg51  1  0.228597  0.457193  0.750000  1
  Mg  Mg52  1  0.457193  0.228597  0.250000  1
  Mg  Mg53  1  0.000000  0.000000  0.000000  1
  Cu  Cu54  1  0.523800  0.476200  0.050202  1
  Cu  Cu55  1  0.523800  0.476200  0.449798  1
  Cu  Cu56  1  0.523800  0.047598  0.449798  1
  Cu  Cu57  1  0.523800  0.047598  0.050202  1
  Cu  Cu58  1  0.476200  0.523800  0.949798  1
  Cu  Cu59  1  0.476200  0.952402  0.550202  1
  Cu  Cu60  1  0.952402  0.476200  0.449798  1
  Cu  Cu61  1  0.952402  0.476200  0.050202  1
  Cu  Cu62  1  0.666667  0.333333  0.750000  1
  Cu  Cu63  1  0.047598  0.523800  0.550202  1
  Cu  Cu64  1  0.476200  0.952402  0.949798  1
  Cu  Cu65  1  0.476200  0.523800  0.550202  1
  Cu  Cu66  1  0.047598  0.523800  0.949798  1
  Cu  Cu67  1  0.333333  0.666667  0.250000  1
