# generated using pymatgen
data_Er4Al2B4RuRh9
_symmetry_space_group_name_H-M   'P 1'
_cell_length_a   9.52440265
_cell_length_b   9.52440265
_cell_length_c   3.12374800
_cell_angle_alpha   90.00000000
_cell_angle_beta   90.00000000
_cell_angle_gamma   89.82074463
_symmetry_Int_Tables_number   1
_chemical_formula_structural   Er4Al2B4RuRh9
_chemical_formula_sum   'Er4 Al2 B4 Ru1 Rh9'
_cell_volume   283.36705738
_cell_formula_units_Z   1
loop_
 _symmetry_equiv_pos_site_id
 _symmetry_equiv_pos_as_xyz
  1  'x, y, z'
loop_
 _atom_site_type_symbol
 _atom_site_label
 _atom_site_symmetry_multiplicity
 _atom_site_fract_x
 _atom_site_fract_y
 _atom_site_fract_z
 _atom_site_occupancy
  Er  Er0  1  0.823702  0.323702  0.000000  1
  Er  Er1  1  0.325828  0.174172  0.000000  1
  Er  Er2  1  0.674172  0.825828  0.000000  1
  Er  Er3  1  0.176298  0.676298  0.000000  1
  Al  Al4  1  0.000000  0.000000  0.000000  1
  Al  Al5  1  0.500000  0.500000  0.000000  1
  B  B6  1  0.621073  0.121073  0.000000  1
  B  B7  1  0.122576  0.377424  0.000000  1
  B  B8  1  0.877424  0.622576  0.000000  1
  B  B9  1  0.378927  0.878927  0.000000  1
  Ru  Ru10  1  0.500000  0.000000  0.500000  1
  Rh  Rh11  1  0.069810  0.218450  0.500000  1
  Rh  Rh12  1  0.216701  0.929417  0.500000  1
  Rh  Rh13  1  0.783299  0.070583  0.500000  1
  Rh  Rh14  1  0.930190  0.781550  0.500000  1
  Rh  Rh15  1  0.429417  0.716701  0.500000  1
  Rh  Rh16  1  0.570583  0.283299  0.500000  1
  Rh  Rh17  1  0.718450  0.569810  0.500000  1
  Rh  Rh18  1  0.281550  0.430190  0.500000  1
  Rh  Rh19  1  0.000000  0.500000  0.500000  1
