# generated using pymatgen
data_Hf17ScRe7Si2Mo
_symmetry_space_group_name_H-M   'P 1'
_cell_length_a   8.58061376
_cell_length_b   8.58061399
_cell_length_c   8.69828100
_cell_angle_alpha   90.00000000
_cell_angle_beta   90.00000000
_cell_angle_gamma   119.96473107
_symmetry_Int_Tables_number   1
_chemical_formula_structural   Hf17ScRe7Si2Mo
_chemical_formula_sum   'Hf17 Sc1 Re7 Si2 Mo1'
_cell_volume   554.82371950
_cell_formula_units_Z   1
loop_
 _symmetry_equiv_pos_site_id
 _symmetry_equiv_pos_as_xyz
  1  'x, y, z'
loop_
 _atom_site_type_symbol
 _atom_site_label
 _atom_site_symmetry_multiplicity
 _atom_site_fract_x
 _atom_site_fract_y
 _atom_site_fract_z
 _atom_site_occupancy
  Hf  Hf0  1  0.195632  0.804368  0.453496  1
  Hf  Hf1  1  0.195676  0.390681  0.453690  1
  Hf  Hf2  1  0.609319  0.804324  0.453690  1
  Hf  Hf3  1  0.804784  0.195216  0.548301  1
  Hf  Hf4  1  0.804744  0.610109  0.547628  1
  Hf  Hf5  1  0.389891  0.195256  0.547628  1
  Hf  Hf6  1  0.804784  0.195216  0.951699  1
  Hf  Hf7  1  0.804744  0.610109  0.952372  1
  Hf  Hf8  1  0.389891  0.195256  0.952372  1
  Hf  Hf9  1  0.195632  0.804368  0.046504  1
  Hf  Hf10  1  0.195676  0.390681  0.046310  1
  Hf  Hf11  1  0.609319  0.804324  0.046310  1
  Hf  Hf12  1  0.539494  0.460506  0.250000  1
  Hf  Hf13  1  0.538370  0.078385  0.250000  1
  Hf  Hf14  1  0.921615  0.461630  0.250000  1
  Hf  Hf15  1  0.460690  0.921888  0.750000  1
  Hf  Hf16  1  0.078112  0.539310  0.750000  1
  Sc  Sc17  1  0.459958  0.540042  0.750000  1
  Re  Re18  1  0.890658  0.780907  0.250000  1
  Re  Re19  1  0.219093  0.109342  0.250000  1
  Re  Re20  1  0.108957  0.891043  0.750000  1
  Re  Re21  1  0.109105  0.218878  0.750000  1
  Re  Re22  1  0.781122  0.890895  0.750000  1
  Re  Re23  1  0.000416  0.999584  0.500503  1
  Re  Re24  1  0.000416  0.999584  0.999497  1
  Si  Si25  1  0.333238  0.666762  0.250000  1
  Si  Si26  1  0.667293  0.332707  0.750000  1
  Mo  Mo27  1  0.891372  0.108628  0.250000  1
