# generated using pymatgen
data_Er6Sn5Pd6Pb
_symmetry_space_group_name_H-M   'P 1'
_cell_length_a   7.71430600
_cell_length_b   7.69420745
_cell_length_c   7.65135214
_cell_angle_alpha   90.01837868
_cell_angle_beta   90.00000000
_cell_angle_gamma   120.08644743
_symmetry_Int_Tables_number   1
_chemical_formula_structural   Er6Sn5Pd6Pb
_chemical_formula_sum   'Er6 Sn5 Pd6 Pb1'
_cell_volume   392.96201447
_cell_formula_units_Z   1
loop_
 _symmetry_equiv_pos_site_id
 _symmetry_equiv_pos_as_xyz
  1  'x, y, z'
loop_
 _atom_site_type_symbol
 _atom_site_label
 _atom_site_symmetry_multiplicity
 _atom_site_fract_x
 _atom_site_fract_y
 _atom_site_fract_z
 _atom_site_occupancy
  Er  Er0  1  0.402243  0.006646  0.251032  1
  Er  Er1  1  0.603554  0.594747  0.249964  1
  Er  Er2  1  0.994590  0.397833  0.250589  1
  Er  Er3  1  0.395596  0.993354  0.748968  1
  Er  Er4  1  0.596756  0.602167  0.749411  1
  Er  Er5  1  0.008808  0.405253  0.750036  1
  Sn  Sn6  1  0.267593  0.267738  0.499907  1
  Sn  Sn7  1  0.999855  0.732262  0.500093  1
  Sn  Sn8  1  0.000646  0.738502  0.999954  1
  Sn  Sn9  1  0.262144  0.261498  0.000046  1
  Sn  Sn10  1  0.734583  0.000000  0.500000  1
  Pd  Pd11  1  0.324617  0.660068  0.015841  1
  Pd  Pd12  1  0.334038  0.667447  0.485151  1
  Pd  Pd13  1  0.664550  0.339932  0.984159  1
  Pd  Pd14  1  0.666591  0.332553  0.514849  1
  Pd  Pd15  1  0.004493  0.999795  0.256219  1
  Pd  Pd16  1  0.004698  0.000205  0.743781  1
  Pb  Pb17  1  0.734646  0.000000  0.000000  1
