# generated using pymatgen
data_YErAl16Pt9
_symmetry_space_group_name_H-M   'P 1'
_cell_length_a   11.14668823
_cell_length_b   11.14668847
_cell_length_c   11.14668711
_cell_angle_alpha   158.65374713
_cell_angle_beta   115.09647230
_cell_angle_gamma   69.17338810
_symmetry_Int_Tables_number   1
_chemical_formula_structural   YErAl16Pt9
_chemical_formula_sum   'Y1 Er1 Al16 Pt9'
_cell_volume   453.24741578
_cell_formula_units_Z   1
loop_
 _symmetry_equiv_pos_site_id
 _symmetry_equiv_pos_as_xyz
  1  'x, y, z'
loop_
 _atom_site_type_symbol
 _atom_site_label
 _atom_site_symmetry_multiplicity
 _atom_site_fract_x
 _atom_site_fract_y
 _atom_site_fract_z
 _atom_site_occupancy
  Y  Y0  1  0.228400  0.228400  0.000000  1
  Er  Er1  1  0.771642  0.771642  0.000000  1
  Al  Al2  1  0.270893  0.391004  0.879889  1
  Al  Al3  1  0.091721  0.920205  0.171516  1
  Al  Al4  1  0.513191  0.204423  0.308770  1
  Al  Al5  1  0.251386  0.079785  0.171603  1
  Al  Al6  1  0.912688  0.412688  0.500000  1
  Al  Al7  1  0.729165  0.609098  0.120068  1
  Al  Al8  1  0.895653  0.204422  0.691230  1
  Al  Al9  1  0.486967  0.795558  0.691409  1
  Al  Al10  1  0.386271  0.999992  0.386279  1
  Al  Al11  1  0.613713  0.999992  0.613721  1
  Al  Al12  1  0.489030  0.609097  0.879932  1
  Al  Al13  1  0.104150  0.795558  0.308591  1
  Al  Al14  1  0.908182  0.079784  0.828397  1
  Al  Al15  1  0.748689  0.920205  0.828484  1
  Al  Al16  1  0.511115  0.391004  0.120111  1
  Al  Al17  1  0.087219  0.587219  0.500000  1
  Pt  Pt18  1  0.747708  0.499980  0.247727  1
  Pt  Pt19  1  0.021660  0.338968  0.682692  1
  Pt  Pt20  1  0.627400  0.127400  0.500000  1
  Pt  Pt21  1  0.252253  0.499981  0.752273  1
  Pt  Pt22  1  0.372932  0.872932  0.500000  1
  Pt  Pt23  1  0.000030  0.000030  0.000000  1
  Pt  Pt24  1  0.656277  0.338968  0.317308  1
  Pt  Pt25  1  0.344083  0.660832  0.683250  1
  Pt  Pt26  1  0.977582  0.660832  0.316750  1
