# generated using pymatgen
data_Pr17Nd3Si15Rh
_symmetry_space_group_name_H-M   'P 1'
_cell_length_a   7.91316201
_cell_length_b   7.91319176
_cell_length_c   15.24976142
_cell_angle_alpha   90.11185911
_cell_angle_beta   89.82764167
_cell_angle_gamma   90.18286422
_symmetry_Int_Tables_number   1
_chemical_formula_structural   Pr17Nd3Si15Rh
_chemical_formula_sum   'Pr17 Nd3 Si15 Rh1'
_cell_volume   954.90419345
_cell_formula_units_Z   1
loop_
 _symmetry_equiv_pos_site_id
 _symmetry_equiv_pos_as_xyz
  1  'x, y, z'
loop_
 _atom_site_type_symbol
 _atom_site_label
 _atom_site_symmetry_multiplicity
 _atom_site_fract_x
 _atom_site_fract_y
 _atom_site_fract_z
 _atom_site_occupancy
  Pr  Pr0  1  0.692903  0.688197  0.500482  1
  Pr  Pr1  1  0.373848  0.010617  0.448719  1
  Pr  Pr2  1  0.490411  0.875195  0.698105  1
  Pr  Pr3  1  0.510161  0.123871  0.197665  1
  Pr  Pr4  1  0.875347  0.488094  0.300062  1
  Pr  Pr5  1  0.124189  0.509184  0.800021  1
  Pr  Pr6  1  0.626586  0.988413  0.948702  1
  Pr  Pr7  1  0.004563  0.376636  0.552029  1
  Pr  Pr8  1  0.988194  0.625262  0.051238  1
  Pr  Pr9  1  0.134186  0.986060  0.873712  1
  Pr  Pr10  1  0.516722  0.630525  0.125702  1
  Pr  Pr11  1  0.474059  0.361608  0.628682  1
  Pr  Pr12  1  0.627852  0.516167  0.873794  1
  Pr  Pr13  1  0.373120  0.483116  0.373649  1
  Pr  Pr14  1  0.872922  0.020079  0.376972  1
  Pr  Pr15  1  0.982433  0.126697  0.124055  1
  Pr  Pr16  1  0.025531  0.880488  0.625583  1
  Nd  Nd17  1  0.305489  0.306598  0.998059  1
  Nd  Nd18  1  0.190167  0.808607  0.249907  1
  Nd  Nd19  1  0.817657  0.187805  0.750466  1
  Si  Si20  1  0.332492  0.694902  0.950704  1
  Si  Si21  1  0.664952  0.303692  0.452011  1
  Si  Si22  1  0.696903  0.334803  0.049739  1
  Si  Si23  1  0.304456  0.668108  0.548424  1
  Si  Si24  1  0.805192  0.832575  0.202609  1
  Si  Si25  1  0.167938  0.196889  0.298134  1
  Si  Si26  1  0.833955  0.803494  0.799017  1
  Si  Si27  1  0.288280  0.922576  0.058896  1
  Si  Si28  1  0.578398  0.787706  0.309854  1
  Si  Si29  1  0.427669  0.207718  0.812237  1
  Si  Si30  1  0.784123  0.580257  0.690432  1
  Si  Si31  1  0.212661  0.422382  0.189959  1
  Si  Si32  1  0.705678  0.074847  0.559365  1
  Si  Si33  1  0.920220  0.288179  0.941219  1
  Si  Si34  1  0.079566  0.715188  0.441193  1
  Rh  Rh35  1  0.191174  0.173466  0.698603  1
