# generated using pymatgen
data_Hf2Nb8Al5
_symmetry_space_group_name_H-M   'P 1'
_cell_length_a   10.09673100
_cell_length_b   10.09673100
_cell_length_c   5.25350600
_cell_angle_alpha   90.00000000
_cell_angle_beta   90.00000000
_cell_angle_gamma   90.00000000
_symmetry_Int_Tables_number   1
_chemical_formula_structural   Hf2Nb8Al5
_chemical_formula_sum   'Hf4 Nb16 Al10'
_cell_volume   535.56329424
_cell_formula_units_Z   2
loop_
 _symmetry_equiv_pos_site_id
 _symmetry_equiv_pos_as_xyz
  1  'x, y, z'
loop_
 _atom_site_type_symbol
 _atom_site_label
 _atom_site_symmetry_multiplicity
 _atom_site_fract_x
 _atom_site_fract_y
 _atom_site_fract_z
 _atom_site_occupancy
  Hf  Hf0  1  0.395282  0.395282  0.000000  1
  Hf  Hf1  1  0.895282  0.104718  0.500000  1
  Hf  Hf2  1  0.104718  0.895282  0.500000  1
  Hf  Hf3  1  0.604718  0.604718  0.000000  1
  Nb  Nb4  1  0.124279  0.465665  0.000000  1
  Nb  Nb5  1  0.965665  0.375721  0.500000  1
  Nb  Nb6  1  0.034335  0.624279  0.500000  1
  Nb  Nb7  1  0.875721  0.534335  0.000000  1
  Nb  Nb8  1  0.375721  0.965665  0.500000  1
  Nb  Nb9  1  0.624279  0.034335  0.500000  1
  Nb  Nb10  1  0.465665  0.124279  0.000000  1
  Nb  Nb11  1  0.534335  0.875721  0.000000  1
  Nb  Nb12  1  0.180670  0.180670  0.252772  1
  Nb  Nb13  1  0.680670  0.319330  0.752772  1
  Nb  Nb14  1  0.319330  0.680670  0.752772  1
  Nb  Nb15  1  0.819330  0.819330  0.252772  1
  Nb  Nb16  1  0.319330  0.680670  0.247228  1
  Nb  Nb17  1  0.680670  0.319330  0.247228  1
  Nb  Nb18  1  0.180670  0.180670  0.747228  1
  Nb  Nb19  1  0.819330  0.819330  0.747228  1
  Al  Al20  1  0.000000  0.000000  0.000000  1
  Al  Al21  1  0.500000  0.500000  0.500000  1
  Al  Al22  1  0.263908  0.933215  0.000000  1
  Al  Al23  1  0.433215  0.236092  0.500000  1
  Al  Al24  1  0.566785  0.763908  0.500000  1
  Al  Al25  1  0.736092  0.066785  0.000000  1
  Al  Al26  1  0.236092  0.433215  0.500000  1
  Al  Al27  1  0.763908  0.566785  0.500000  1
  Al  Al28  1  0.933215  0.263908  0.000000  1
  Al  Al29  1  0.066785  0.736092  0.000000  1
