# generated using pymatgen
data_Pr3Ho5Cd2CoPt
_symmetry_space_group_name_H-M   'P 1'
_cell_length_a   9.68791506
_cell_length_b   9.68791526
_cell_length_c   9.68674400
_cell_angle_alpha   60.00399922
_cell_angle_beta   60.00399854
_cell_angle_gamma   60.45552875
_symmetry_Int_Tables_number   1
_chemical_formula_structural   Pr3Ho5Cd2CoPt
_chemical_formula_sum   'Pr6 Ho10 Cd4 Co2 Pt2'
_cell_volume   645.09364203
_cell_formula_units_Z   2
loop_
 _symmetry_equiv_pos_site_id
 _symmetry_equiv_pos_as_xyz
  1  'x, y, z'
loop_
 _atom_site_type_symbol
 _atom_site_label
 _atom_site_symmetry_multiplicity
 _atom_site_fract_x
 _atom_site_fract_y
 _atom_site_fract_z
 _atom_site_occupancy
  Pr  Pr0  1  0.939788  0.558195  0.560825  1
  Pr  Pr1  1  0.558195  0.939788  0.941192  1
  Pr  Pr2  1  0.558195  0.939788  0.560825  1
  Pr  Pr3  1  0.939788  0.558195  0.941192  1
  Pr  Pr4  1  0.557141  0.557141  0.942859  1
  Pr  Pr5  1  0.938493  0.938493  0.561507  1
  Ho  Ho6  1  0.344114  0.344114  0.357479  1
  Ho  Ho7  1  0.344114  0.344114  0.954294  1
  Ho  Ho8  1  0.338651  0.962118  0.349615  1
  Ho  Ho9  1  0.962118  0.338651  0.349615  1
  Ho  Ho10  1  0.821809  0.185683  0.187191  1
  Ho  Ho11  1  0.185683  0.821809  0.805317  1
  Ho  Ho12  1  0.185683  0.821809  0.187191  1
  Ho  Ho13  1  0.821809  0.185683  0.805317  1
  Ho  Ho14  1  0.186197  0.186197  0.813803  1
  Ho  Ho15  1  0.812573  0.812573  0.187427  1
  Cd  Cd16  1  0.579864  0.579864  0.577450  1
  Cd  Cd17  1  0.579864  0.579864  0.262820  1
  Cd  Cd18  1  0.581554  0.261828  0.578308  1
  Cd  Cd19  1  0.261828  0.581554  0.578308  1
  Co  Co20  1  0.142239  0.142239  0.140219  1
  Co  Co21  1  0.142239  0.142239  0.575303  1
  Pt  Pt22  1  0.143949  0.574111  0.140970  1
  Pt  Pt23  1  0.574111  0.143949  0.140970  1
