# generated using pymatgen
data_Ca2La2InIr
_symmetry_space_group_name_H-M   'P 1'
_cell_length_a   10.08744497
_cell_length_b   10.08654644
_cell_length_c   10.13750400
_cell_angle_alpha   59.87403107
_cell_angle_beta   59.87419507
_cell_angle_gamma   60.44815832
_symmetry_Int_Tables_number   1
_chemical_formula_structural   Ca2La2InIr
_chemical_formula_sum   'Ca8 La8 In4 Ir4'
_cell_volume   730.38932655
_cell_formula_units_Z   4
loop_
 _symmetry_equiv_pos_site_id
 _symmetry_equiv_pos_as_xyz
  1  'x, y, z'
loop_
 _atom_site_type_symbol
 _atom_site_label
 _atom_site_symmetry_multiplicity
 _atom_site_fract_x
 _atom_site_fract_y
 _atom_site_fract_z
 _atom_site_occupancy
  Ca  Ca0  1  0.195416  0.195500  0.804275  1
  Ca  Ca1  1  0.802972  0.803024  0.196917  1
  Ca  Ca2  1  0.939651  0.560829  0.560505  1
  Ca  Ca3  1  0.558924  0.939353  0.940149  1
  Ca  Ca4  1  0.560597  0.939722  0.560567  1
  Ca  Ca5  1  0.939452  0.558951  0.939991  1
  Ca  Ca6  1  0.554992  0.555119  0.945435  1
  Ca  Ca7  1  0.945293  0.945176  0.554531  1
  La  La8  1  0.344251  0.344533  0.351307  1
  La  La9  1  0.344012  0.344657  0.960919  1
  La  La10  1  0.350893  0.960578  0.344286  1
  La  La11  1  0.961761  0.349468  0.344082  1
  La  La12  1  0.807316  0.191735  0.192235  1
  La  La13  1  0.193129  0.806942  0.807696  1
  La  La14  1  0.192032  0.807596  0.191945  1
  La  La15  1  0.806358  0.193446  0.807483  1
  In  In16  1  0.578993  0.579098  0.577830  1
  In  In17  1  0.578832  0.578927  0.264051  1
  In  In18  1  0.578760  0.264710  0.578242  1
  In  In19  1  0.264692  0.578581  0.578415  1
  Ir  Ir20  1  0.133730  0.133863  0.151655  1
  Ir  Ir21  1  0.133139  0.133174  0.580890  1
  Ir  Ir22  1  0.153449  0.581254  0.133431  1
  Ir  Ir23  1  0.581354  0.153757  0.133163  1
