# generated using pymatgen
data_Y10Ho5Er(CdPd)4
_symmetry_space_group_name_H-M   'P 1'
_cell_length_a   9.70623888
_cell_length_b   9.71569268
_cell_length_c   9.71587629
_cell_angle_alpha   59.89604901
_cell_angle_beta   60.03127239
_cell_angle_gamma   60.03238811
_symmetry_Int_Tables_number   1
_chemical_formula_structural   Y10Ho5Er(CdPd)4
_chemical_formula_sum   'Y10 Ho5 Er1 Cd4 Pd4'
_cell_volume   647.67603290
_cell_formula_units_Z   1
loop_
 _symmetry_equiv_pos_site_id
 _symmetry_equiv_pos_as_xyz
  1  'x, y, z'
loop_
 _atom_site_type_symbol
 _atom_site_label
 _atom_site_symmetry_multiplicity
 _atom_site_fract_x
 _atom_site_fract_y
 _atom_site_fract_z
 _atom_site_occupancy
  Y  Y0  1  0.189774  0.810450  0.189512  1
  Y  Y1  1  0.810257  0.189510  0.810454  1
  Y  Y2  1  0.189788  0.189509  0.810437  1
  Y  Y3  1  0.810258  0.810440  0.189522  1
  Y  Y4  1  0.934563  0.565431  0.565435  1
  Y  Y5  1  0.565023  0.934982  0.934978  1
  Y  Y6  1  0.565133  0.934874  0.565035  1
  Y  Y7  1  0.934958  0.565024  0.934892  1
  Y  Y8  1  0.565133  0.565029  0.934886  1
  Y  Y9  1  0.934963  0.934886  0.565027  1
  Ho  Ho10  1  0.353024  0.353540  0.353544  1
  Ho  Ho11  1  0.353409  0.354773  0.938421  1
  Ho  Ho12  1  0.353407  0.938424  0.354765  1
  Ho  Ho13  1  0.939874  0.353531  0.353553  1
  Ho  Ho14  1  0.809910  0.190084  0.190101  1
  Er  Er15  1  0.189492  0.810573  0.810457  1
  Cd  Cd16  1  0.582182  0.581800  0.581802  1
  Cd  Cd17  1  0.582076  0.581788  0.254060  1
  Cd  Cd18  1  0.582071  0.254048  0.581802  1
  Cd  Cd19  1  0.254218  0.581793  0.581807  1
  Pd  Pd20  1  0.144173  0.145999  0.146002  1
  Pd  Pd21  1  0.146236  0.142865  0.564645  1
  Pd  Pd22  1  0.146244  0.564643  0.142862  1
  Pd  Pd23  1  0.563831  0.145999  0.145997  1
