# generated using pymatgen
data_Dy2Y6Ti11Si16Hg
_symmetry_space_group_name_H-M   'P 1'
_cell_length_a   7.08721730
_cell_length_b   7.08724022
_cell_length_c   12.93580501
_cell_angle_alpha   89.88334427
_cell_angle_beta   90.11678215
_cell_angle_gamma   89.57920282
_symmetry_Int_Tables_number   1
_chemical_formula_structural   Dy2Y6Ti11Si16Hg
_chemical_formula_sum   'Dy2 Y6 Ti11 Si16 Hg1'
_cell_volume   649.72987173
_cell_formula_units_Z   1
loop_
 _symmetry_equiv_pos_site_id
 _symmetry_equiv_pos_as_xyz
  1  'x, y, z'
loop_
 _atom_site_type_symbol
 _atom_site_label
 _atom_site_symmetry_multiplicity
 _atom_site_fract_x
 _atom_site_fract_y
 _atom_site_fract_z
 _atom_site_occupancy
  Dy  Dy0  1  0.498774  0.842481  0.714857  1
  Dy  Dy1  1  0.342894  0.999565  0.468549  1
  Y  Y2  1  0.997755  0.658965  0.033118  1
  Y  Y3  1  0.999692  0.342811  0.531428  1
  Y  Y4  1  0.658958  0.997737  0.966840  1
  Y  Y5  1  0.160493  0.502093  0.783919  1
  Y  Y6  1  0.842447  0.498669  0.285098  1
  Y  Y7  1  0.502049  0.160458  0.216089  1
  Ti  Ti8  1  0.349796  0.504699  0.376259  1
  Ti  Ti9  1  0.852589  0.991142  0.377142  1
  Ti  Ti10  1  0.008737  0.150740  0.125413  1
  Ti  Ti11  1  0.991196  0.852636  0.622833  1
  Ti  Ti12  1  0.504683  0.349740  0.623725  1
  Ti  Ti13  1  0.150778  0.008764  0.874562  1
  Ti  Ti14  1  0.826405  0.173419  0.750557  1
  Ti  Ti15  1  0.173499  0.826420  0.249493  1
  Ti  Ti16  1  0.327068  0.327091  0.999992  1
  Ti  Ti17  1  0.492373  0.648897  0.124597  1
  Ti  Ti18  1  0.648909  0.492454  0.875363  1
  Si  Si19  1  0.067266  0.714308  0.432489  1
  Si  Si20  1  0.952221  0.290212  0.935903  1
  Si  Si21  1  0.714067  0.067100  0.567562  1
  Si  Si22  1  0.209100  0.453613  0.185353  1
  Si  Si23  1  0.794260  0.541276  0.694516  1
  Si  Si24  1  0.453579  0.208987  0.814642  1
  Si  Si25  1  0.541111  0.794424  0.305579  1
  Si  Si26  1  0.290216  0.952196  0.064072  1
  Si  Si27  1  0.798336  0.868565  0.184470  1
  Si  Si28  1  0.275591  0.625880  0.572362  1
  Si  Si29  1  0.705672  0.369067  0.066933  1
  Si  Si30  1  0.625610  0.275480  0.427646  1
  Si  Si31  1  0.369111  0.705724  0.933015  1
  Si  Si32  1  0.132456  0.201616  0.316787  1
  Si  Si33  1  0.201784  0.132218  0.683293  1
  Si  Si34  1  0.868494  0.798362  0.815524  1
  Hg  Hg35  1  0.672032  0.672192  0.500021  1
