# generated using pymatgen
data_Pr16Cd4Co3Pt
_symmetry_space_group_name_H-M   'P 1'
_cell_length_a   9.97544520
_cell_length_b   9.95873622
_cell_length_c   9.95873600
_cell_angle_alpha   60.00000074
_cell_angle_beta   60.05539418
_cell_angle_gamma   60.05539056
_symmetry_Int_Tables_number   1
_chemical_formula_structural   Pr16Cd4Co3Pt
_chemical_formula_sum   'Pr16 Cd4 Co3 Pt1'
_cell_volume   700.14638215
_cell_formula_units_Z   1
loop_
 _symmetry_equiv_pos_site_id
 _symmetry_equiv_pos_as_xyz
  1  'x, y, z'
loop_
 _atom_site_type_symbol
 _atom_site_label
 _atom_site_symmetry_multiplicity
 _atom_site_fract_x
 _atom_site_fract_y
 _atom_site_fract_z
 _atom_site_occupancy
  Pr  Pr0  1  0.339453  0.350687  0.350687  1
  Pr  Pr1  1  0.339453  0.350687  0.959173  1
  Pr  Pr2  1  0.339453  0.959173  0.350687  1
  Pr  Pr3  1  0.963481  0.345506  0.345506  1
  Pr  Pr4  1  0.818220  0.189923  0.189923  1
  Pr  Pr5  1  0.190001  0.811059  0.811059  1
  Pr  Pr6  1  0.190001  0.811059  0.187881  1
  Pr  Pr7  1  0.818220  0.189923  0.801935  1
  Pr  Pr8  1  0.190001  0.187881  0.811059  1
  Pr  Pr9  1  0.818220  0.801935  0.189923  1
  Pr  Pr10  1  0.937042  0.562384  0.562384  1
  Pr  Pr11  1  0.561473  0.938618  0.938618  1
  Pr  Pr12  1  0.561473  0.938618  0.561291  1
  Pr  Pr13  1  0.937042  0.562384  0.938192  1
  Pr  Pr14  1  0.561473  0.561291  0.938618  1
  Pr  Pr15  1  0.937042  0.938192  0.562384  1
  Cd  Cd16  1  0.579366  0.579020  0.579020  1
  Cd  Cd17  1  0.579366  0.579020  0.262594  1
  Cd  Cd18  1  0.579366  0.262594  0.579020  1
  Cd  Cd19  1  0.261962  0.579346  0.579346  1
  Co  Co20  1  0.140832  0.141282  0.141282  1
  Co  Co21  1  0.140832  0.141282  0.576605  1
  Co  Co22  1  0.140832  0.576605  0.141282  1
  Pt  Pt23  1  0.575401  0.141533  0.141533  1
