# generated using pymatgen
data_Ce2Mn3Al20Rh
_symmetry_space_group_name_H-M   'P 1'
_cell_length_a   6.81884755
_cell_length_b   6.81245164
_cell_length_c   9.05616281
_cell_angle_alpha   90.23387390
_cell_angle_beta   90.11043300
_cell_angle_gamma   97.37097470
_symmetry_Int_Tables_number   1
_chemical_formula_structural   Ce2Mn3Al20Rh
_chemical_formula_sum   'Ce2 Mn3 Al20 Rh1'
_cell_volume   417.20537232
_cell_formula_units_Z   1
loop_
 _symmetry_equiv_pos_site_id
 _symmetry_equiv_pos_as_xyz
  1  'x, y, z'
loop_
 _atom_site_type_symbol
 _atom_site_label
 _atom_site_symmetry_multiplicity
 _atom_site_fract_x
 _atom_site_fract_y
 _atom_site_fract_z
 _atom_site_occupancy
  Ce  Ce0  1  0.879852  0.128362  0.746751  1
  Ce  Ce1  1  0.120148  0.871638  0.253249  1
  Mn  Mn2  1  0.000000  0.500000  0.000000  1
  Mn  Mn3  1  0.500000  0.000000  0.500000  1
  Mn  Mn4  1  0.000000  0.500000  0.500000  1
  Al  Al5  1  0.409479  0.134715  0.745933  1
  Al  Al6  1  0.131903  0.411476  0.250604  1
  Al  Al7  1  0.590521  0.865285  0.254067  1
  Al  Al8  1  0.868097  0.588524  0.749396  1
  Al  Al9  1  0.523624  0.778082  0.743975  1
  Al  Al10  1  0.779202  0.520485  0.249992  1
  Al  Al11  1  0.476376  0.221918  0.256025  1
  Al  Al12  1  0.220798  0.479515  0.750008  1
  Al  Al13  1  0.838931  0.160545  0.402064  1
  Al  Al14  1  0.161069  0.839455  0.597936  1
  Al  Al15  1  0.844898  0.163124  0.099853  1
  Al  Al16  1  0.155102  0.836876  0.900147  1
  Al  Al17  1  0.627267  0.381485  0.948697  1
  Al  Al18  1  0.372733  0.618515  0.051303  1
  Al  Al19  1  0.624737  0.375904  0.548515  1
  Al  Al20  1  0.375263  0.624096  0.451485  1
  Al  Al21  1  0.776578  0.768863  0.002005  1
  Al  Al22  1  0.772644  0.771236  0.500682  1
  Al  Al23  1  0.223422  0.231137  0.997995  1
  Al  Al24  1  0.227356  0.228764  0.499318  1
  Rh  Rh25  1  0.500000  0.000000  0.000000  1
