# generated using pymatgen
data_Gd3Lu5B24MoOs3
_symmetry_space_group_name_H-M   'P 1'
_cell_length_a   3.62709800
_cell_length_b   9.11572919
_cell_length_c   11.51431500
_cell_angle_alpha   89.91071622
_cell_angle_beta   90.00000000
_cell_angle_gamma   90.00000000
_symmetry_Int_Tables_number   1
_chemical_formula_structural   Gd3Lu5B24MoOs3
_chemical_formula_sum   'Gd3 Lu5 B24 Mo1 Os3'
_cell_volume   380.70473950
_cell_formula_units_Z   1
loop_
 _symmetry_equiv_pos_site_id
 _symmetry_equiv_pos_as_xyz
  1  'x, y, z'
loop_
 _atom_site_type_symbol
 _atom_site_label
 _atom_site_symmetry_multiplicity
 _atom_site_fract_x
 _atom_site_fract_y
 _atom_site_fract_z
 _atom_site_occupancy
  Gd  Gd0  1  0.000000  0.321673  0.413145  1
  Gd  Gd1  1  0.000000  0.678042  0.585227  1
  Gd  Gd2  1  0.000000  0.820544  0.086880  1
  Lu  Lu3  1  0.000000  0.178552  0.914912  1
  Lu  Lu4  1  0.000000  0.945169  0.372508  1
  Lu  Lu5  1  0.000000  0.057366  0.628536  1
  Lu  Lu6  1  0.000000  0.443250  0.126466  1
  Lu  Lu7  1  0.000000  0.556147  0.871603  1
  B  B8  1  0.500000  0.551788  0.434679  1
  B  B9  1  0.500000  0.445151  0.569010  1
  B  B10  1  0.500000  0.054588  0.066312  1
  B  B11  1  0.500000  0.946939  0.932743  1
  B  B12  1  0.500000  0.752345  0.420658  1
  B  B13  1  0.500000  0.250398  0.582459  1
  B  B14  1  0.500000  0.249471  0.079466  1
  B  B15  1  0.500000  0.750377  0.918242  1
  B  B16  1  0.500000  0.794771  0.264820  1
  B  B17  1  0.500000  0.207360  0.735742  1
  B  B18  1  0.500000  0.291153  0.232217  1
  B  B19  1  0.500000  0.709154  0.766104  1
  B  B20  1  0.500000  0.630285  0.182779  1
  B  B21  1  0.500000  0.368008  0.816386  1
  B  B22  1  0.500000  0.130440  0.313773  1
  B  B23  1  0.500000  0.870918  0.685563  1
  B  B24  1  0.500000  0.983336  0.212825  1
  B  B25  1  0.500000  0.018828  0.788016  1
  B  B26  1  0.500000  0.478574  0.285344  1
  B  B27  1  0.500000  0.516057  0.714229  1
  B  B28  1  0.500000  0.601863  0.026642  1
  B  B29  1  0.500000  0.395290  0.970465  1
  B  B30  1  0.500000  0.102674  0.472356  1
  B  B31  1  0.500000  0.900131  0.529176  1
  Mo  Mo32  1  0.000000  0.638375  0.320363  1
  Os  Os33  1  0.000000  0.359326  0.682313  1
  Os  Os34  1  0.000000  0.138614  0.177483  1
  Os  Os35  1  0.000000  0.863038  0.820558  1
