# generated using pymatgen
data_SrTb6IrI12
_symmetry_space_group_name_H-M   'P 1'
_cell_length_a   9.89344214
_cell_length_b   9.89344289
_cell_length_c   9.89344410
_cell_angle_alpha   106.66293148
_cell_angle_beta   106.66293622
_cell_angle_gamma   106.66293961
_symmetry_Int_Tables_number   1
_chemical_formula_structural   SrTb6IrI12
_chemical_formula_sum   'Sr1 Tb6 Ir1 I12'
_cell_volume   813.77116342
_cell_formula_units_Z   1
loop_
 _symmetry_equiv_pos_site_id
 _symmetry_equiv_pos_as_xyz
  1  'x, y, z'
loop_
 _atom_site_type_symbol
 _atom_site_label
 _atom_site_symmetry_multiplicity
 _atom_site_fract_x
 _atom_site_fract_y
 _atom_site_fract_z
 _atom_site_occupancy
  Sr  Sr0  1  0.500000  0.500000  0.500000  1
  Tb  Tb1  1  0.907662  0.981218  0.704724  1
  Tb  Tb2  1  0.704724  0.907662  0.981218  1
  Tb  Tb3  1  0.981218  0.704724  0.907662  1
  Tb  Tb4  1  0.092338  0.018782  0.295276  1
  Tb  Tb5  1  0.295276  0.092338  0.018782  1
  Tb  Tb6  1  0.018782  0.295276  0.092338  1
  Ir  Ir7  1  0.000000  0.000000  0.000000  1
  I  I8  1  0.925976  0.322543  0.777187  1
  I  I9  1  0.777187  0.925976  0.322543  1
  I  I10  1  0.322543  0.777187  0.925976  1
  I  I11  1  0.074024  0.677457  0.222813  1
  I  I12  1  0.222813  0.074024  0.677457  1
  I  I13  1  0.677457  0.222813  0.074024  1
  I  I14  1  0.551766  0.863084  0.631298  1
  I  I15  1  0.631298  0.551766  0.863084  1
  I  I16  1  0.863084  0.631298  0.551766  1
  I  I17  1  0.448234  0.136916  0.368702  1
  I  I18  1  0.368702  0.448234  0.136916  1
  I  I19  1  0.136916  0.368702  0.448234  1
