# generated using pymatgen
data_YbTm3(Zn4Ru)2
_symmetry_space_group_name_H-M   'P 1'
_cell_length_a   6.93531500
_cell_length_b   6.93531500
_cell_length_c   5.27613300
_cell_angle_alpha   90.00000000
_cell_angle_beta   90.00000000
_cell_angle_gamma   90.00000000
_symmetry_Int_Tables_number   1
_chemical_formula_structural   YbTm3(Zn4Ru)2
_chemical_formula_sum   'Yb1 Tm3 Zn8 Ru2'
_cell_volume   253.77457984
_cell_formula_units_Z   1
loop_
 _symmetry_equiv_pos_site_id
 _symmetry_equiv_pos_as_xyz
  1  'x, y, z'
loop_
 _atom_site_type_symbol
 _atom_site_label
 _atom_site_symmetry_multiplicity
 _atom_site_fract_x
 _atom_site_fract_y
 _atom_site_fract_z
 _atom_site_occupancy
  Yb  Yb0  1  0.000000  0.500000  0.763841  1
  Tm  Tm1  1  0.000000  0.000000  0.997926  1
  Tm  Tm2  1  0.500000  0.000000  0.228077  1
  Tm  Tm3  1  0.500000  0.500000  0.997926  1
  Zn  Zn4  1  0.191028  0.691028  0.290758  1
  Zn  Zn5  1  0.808972  0.691028  0.290758  1
  Zn  Zn6  1  0.808972  0.308972  0.290758  1
  Zn  Zn7  1  0.311588  0.188412  0.713587  1
  Zn  Zn8  1  0.191028  0.308972  0.290758  1
  Zn  Zn9  1  0.688412  0.188412  0.713587  1
  Zn  Zn10  1  0.688412  0.811588  0.713587  1
  Zn  Zn11  1  0.311588  0.811588  0.713587  1
  Ru  Ru12  1  0.500000  0.500000  0.497426  1
  Ru  Ru13  1  0.000000  0.000000  0.497426  1
