# generated using pymatgen
data_Ba3Zn3Co3Si4TeO20
_symmetry_space_group_name_H-M   'P 1'
_cell_length_a   9.97815498
_cell_length_b   9.97815513
_cell_length_c   5.20855900
_cell_angle_alpha   76.01574230
_cell_angle_beta   76.01574209
_cell_angle_gamma   71.62922245
_symmetry_Int_Tables_number   1
_chemical_formula_structural   Ba3Zn3Co3Si4TeO20
_chemical_formula_sum   'Ba3 Zn3 Co3 Si4 Te1 O20'
_cell_volume   469.79305924
_cell_formula_units_Z   1
loop_
 _symmetry_equiv_pos_site_id
 _symmetry_equiv_pos_as_xyz
  1  'x, y, z'
loop_
 _atom_site_type_symbol
 _atom_site_label
 _atom_site_symmetry_multiplicity
 _atom_site_fract_x
 _atom_site_fract_y
 _atom_site_fract_z
 _atom_site_occupancy
  Ba  Ba0  1  0.786109  0.786548  0.747963  1
  Ba  Ba1  1  0.213653  0.214171  0.251922  1
  Ba  Ba2  1  0.500472  0.500251  0.999121  1
  Zn  Zn3  1  0.077378  0.634635  0.172903  1
  Zn  Zn4  1  0.634177  0.077327  0.173916  1
  Zn  Zn5  1  0.922167  0.366011  0.825622  1
  Co  Co6  1  0.151714  0.848007  0.504362  1
  Co  Co7  1  0.851150  0.148488  0.494420  1
  Co  Co8  1  0.364948  0.923834  0.824568  1
  Si  Si9  1  0.518245  0.780069  0.343054  1
  Si  Si10  1  0.219745  0.480867  0.656037  1
  Si  Si11  1  0.481427  0.219502  0.657520  1
  Si  Si12  1  0.780827  0.518682  0.343416  1
  Te  Te13  1  0.999814  0.000498  0.999873  1
  O  O14  1  0.614555  0.884590  0.345116  1
  O  O15  1  0.116279  0.383001  0.657398  1
  O  O16  1  0.383198  0.116692  0.657993  1
  O  O17  1  0.883954  0.616921  0.342587  1
  O  O18  1  0.363738  0.814551  0.550217  1
  O  O19  1  0.185158  0.635139  0.448558  1
  O  O20  1  0.636664  0.182336  0.452911  1
  O  O21  1  0.815575  0.364157  0.550058  1
  O  O22  1  0.505090  0.777028  0.036869  1
  O  O23  1  0.223162  0.494597  0.961939  1
  O  O24  1  0.493841  0.223362  0.964091  1
  O  O25  1  0.776927  0.506102  0.037021  1
  O  O26  1  0.931892  0.934453  0.373880  1
  O  O27  1  0.068558  0.066065  0.626642  1
  O  O28  1  0.189600  0.953125  0.101727  1
  O  O29  1  0.043880  0.811224  0.896773  1
  O  O30  1  0.810285  0.047611  0.900091  1
  O  O31  1  0.954920  0.190253  0.101546  1
  O  O32  1  0.610271  0.610078  0.465855  1
  O  O33  1  0.390628  0.389826  0.534032  1
