# generated using pymatgen
data_ThSiSnIrRh
_symmetry_space_group_name_H-M   'P 1'
_cell_length_a   4.15758500
_cell_length_b   4.15762900
_cell_length_c   11.20535500
_cell_angle_alpha   90.00000000
_cell_angle_beta   90.00000000
_cell_angle_gamma   90.00000000
_symmetry_Int_Tables_number   1
_chemical_formula_structural   ThSiSnIrRh
_chemical_formula_sum   'Th2 Si2 Sn2 Ir2 Rh2'
_cell_volume   193.69235972
_cell_formula_units_Z   2
loop_
 _symmetry_equiv_pos_site_id
 _symmetry_equiv_pos_as_xyz
  1  'x, y, z'
loop_
 _atom_site_type_symbol
 _atom_site_label
 _atom_site_symmetry_multiplicity
 _atom_site_fract_x
 _atom_site_fract_y
 _atom_site_fract_z
 _atom_site_occupancy
  Th  Th0  1  0.000000  0.500000  0.231255  1
  Th  Th1  1  0.500000  0.000000  0.768745  1
  Si  Si2  1  0.000000  0.500000  0.882907  1
  Si  Si3  1  0.500000  0.000000  0.117093  1
  Sn  Sn4  1  0.000000  0.000000  0.499996  1
  Sn  Sn5  1  0.500000  0.500000  0.500004  1
  Ir  Ir6  1  0.000000  0.000000  0.000001  1
  Ir  Ir7  1  0.500000  0.500000  0.999999  1
  Rh  Rh8  1  0.000000  0.500000  0.672654  1
  Rh  Rh9  1  0.500000  0.000000  0.327346  1
