# generated using pymatgen
data_La5Nd5(Sb3Br)2
_symmetry_space_group_name_H-M   'P 1'
_cell_length_a   9.57753000
_cell_length_b   9.58294169
_cell_length_c   6.74749500
_cell_angle_alpha   90.00000000
_cell_angle_beta   90.00000000
_cell_angle_gamma   119.98132784
_symmetry_Int_Tables_number   1
_chemical_formula_structural   La5Nd5(Sb3Br)2
_chemical_formula_sum   'La5 Nd5 Sb6 Br2'
_cell_volume   536.42282962
_cell_formula_units_Z   1
loop_
 _symmetry_equiv_pos_site_id
 _symmetry_equiv_pos_as_xyz
  1  'x, y, z'
loop_
 _atom_site_type_symbol
 _atom_site_label
 _atom_site_symmetry_multiplicity
 _atom_site_fract_x
 _atom_site_fract_y
 _atom_site_fract_z
 _atom_site_occupancy
  La  La0  1  0.000344  0.725627  0.750000  1
  La  La1  1  0.724639  0.724814  0.250000  1
  La  La2  1  0.274717  0.274373  0.750000  1
  La  La3  1  0.725418  0.000000  0.750000  1
  La  La4  1  0.999825  0.275186  0.250000  1
  Nd  Nd5  1  0.276059  0.000000  0.250000  1
  Nd  Nd6  1  0.665964  0.332797  0.499601  1
  Nd  Nd7  1  0.333166  0.667203  0.000399  1
  Nd  Nd8  1  0.333166  0.667203  0.499601  1
  Nd  Nd9  1  0.665964  0.332797  0.000399  1
  Sb  Sb10  1  0.615968  0.616073  0.750000  1
  Sb  Sb11  1  0.001699  0.618326  0.250000  1
  Sb  Sb12  1  0.613361  0.000000  0.250000  1
  Sb  Sb13  1  0.384064  0.000000  0.750000  1
  Sb  Sb14  1  0.999895  0.383927  0.750000  1
  Sb  Sb15  1  0.383373  0.381674  0.250000  1
  Br  Br16  1  0.001189  0.000000  0.498735  1
  Br  Br17  1  0.001189  0.000000  0.001265  1
