# generated using pymatgen
data_Ho5Lu11(In3Rh)2
_symmetry_space_group_name_H-M   'P 1'
_cell_length_a   10.25177763
_cell_length_b   10.25147042
_cell_length_c   6.96326105
_cell_angle_alpha   89.98998396
_cell_angle_beta   90.01105977
_cell_angle_gamma   119.96987385
_symmetry_Int_Tables_number   1
_chemical_formula_structural   Ho5Lu11(In3Rh)2
_chemical_formula_sum   'Ho5 Lu11 In6 Rh2'
_cell_volume   633.95787196
_cell_formula_units_Z   1
loop_
 _symmetry_equiv_pos_site_id
 _symmetry_equiv_pos_as_xyz
  1  'x, y, z'
loop_
 _atom_site_type_symbol
 _atom_site_label
 _atom_site_symmetry_multiplicity
 _atom_site_fract_x
 _atom_site_fract_y
 _atom_site_fract_z
 _atom_site_occupancy
  Ho  Ho0  1  0.532031  0.064091  0.523721  1
  Ho  Ho1  1  0.935936  0.467967  0.523727  1
  Ho  Ho2  1  0.531719  0.468257  0.524015  1
  Ho  Ho3  1  0.467872  0.935593  0.023858  1
  Ho  Ho4  1  0.064367  0.532091  0.023816  1
  Lu  Lu5  1  0.467139  0.532855  0.024109  1
  Lu  Lu6  1  0.177225  0.353519  0.728632  1
  Lu  Lu7  1  0.646480  0.822790  0.728662  1
  Lu  Lu8  1  0.176721  0.823287  0.727867  1
  Lu  Lu9  1  0.822466  0.646320  0.227082  1
  Lu  Lu10  1  0.353686  0.177521  0.227061  1
  Lu  Lu11  1  0.823485  0.176533  0.227717  1
  Lu  Lu12  1  0.666271  0.333729  0.906109  1
  Lu  Lu13  1  0.333717  0.666297  0.405867  1
  Lu  Lu14  1  0.000052  0.999993  0.507653  1
  Lu  Lu15  1  0.999986  0.000014  0.007852  1
  In  In16  1  0.837517  0.674872  0.771690  1
  In  In17  1  0.325112  0.162444  0.771671  1
  In  In18  1  0.837396  0.162698  0.771380  1
  In  In19  1  0.163331  0.325876  0.271103  1
  In  In20  1  0.674153  0.836688  0.271120  1
  In  In21  1  0.162496  0.837493  0.271670  1
  Rh  Rh22  1  0.666688  0.333277  0.294284  1
  Rh  Rh23  1  0.334151  0.665797  0.795014  1
