# generated using pymatgen
data_Yb3Sm(B8Ru7)2
_symmetry_space_group_name_H-M   'P 1'
_cell_length_a   6.45246782
_cell_length_b   6.43708482
_cell_length_c   10.02799400
_cell_angle_alpha   90.00000000
_cell_angle_beta   90.00000000
_cell_angle_gamma   90.08607571
_symmetry_Int_Tables_number   1
_chemical_formula_structural   Yb3Sm(B8Ru7)2
_chemical_formula_sum   'Yb3 Sm1 B16 Ru14'
_cell_volume   416.51308941
_cell_formula_units_Z   1
loop_
 _symmetry_equiv_pos_site_id
 _symmetry_equiv_pos_as_xyz
  1  'x, y, z'
loop_
 _atom_site_type_symbol
 _atom_site_label
 _atom_site_symmetry_multiplicity
 _atom_site_fract_x
 _atom_site_fract_y
 _atom_site_fract_z
 _atom_site_occupancy
  Yb  Yb0  1  0.118104  0.732408  0.500000  1
  Yb  Yb1  1  0.881154  0.266227  0.500000  1
  Yb  Yb2  1  0.263087  0.120817  0.000000  1
  Sm  Sm3  1  0.732991  0.882572  0.000000  1
  B  B4  1  0.500525  0.000375  0.588609  1
  B  B5  1  0.500525  0.000375  0.411391  1
  B  B6  1  0.898837  0.271402  0.166923  1
  B  B7  1  0.101514  0.727716  0.832586  1
  B  B8  1  0.499253  0.500557  0.340935  1
  B  B9  1  0.499407  0.500175  0.841178  1
  B  B10  1  0.274674  0.102278  0.667117  1
  B  B11  1  0.101514  0.727716  0.167414  1
  B  B12  1  0.274674  0.102278  0.332883  1
  B  B13  1  0.898837  0.271402  0.833077  1
  B  B14  1  0.499253  0.500557  0.659065  1
  B  B15  1  0.499407  0.500175  0.158822  1
  B  B16  1  0.999768  0.499146  0.911079  1
  B  B17  1  0.727747  0.898647  0.666249  1
  B  B18  1  0.727747  0.898647  0.333751  1
  B  B19  1  0.999768  0.499146  0.088921  1
  Ru  Ru20  1  0.204532  0.394409  0.755169  1
  Ru  Ru21  1  0.405383  0.288804  0.500000  1
  Ru  Ru22  1  0.394980  0.795901  0.253857  1
  Ru  Ru23  1  0.204532  0.394409  0.244831  1
  Ru  Ru24  1  0.595202  0.712509  0.500000  1
  Ru  Ru25  1  0.605230  0.204312  0.745800  1
  Ru  Ru26  1  0.287584  0.596081  0.000000  1
  Ru  Ru27  1  0.711753  0.400907  0.000000  1
  Ru  Ru28  1  0.794924  0.604917  0.245270  1
  Ru  Ru29  1  0.794924  0.604917  0.754730  1
  Ru  Ru30  1  0.394980  0.795901  0.746143  1
  Ru  Ru31  1  0.000981  0.000004  0.251215  1
  Ru  Ru32  1  0.605230  0.204312  0.254200  1
  Ru  Ru33  1  0.000981  0.000004  0.748785  1
