# generated using pymatgen
data_Tm10In8IrRh3
_symmetry_space_group_name_H-M   'P 1'
_cell_length_a   3.55458300
_cell_length_b   7.98948572
_cell_length_c   18.17641093
_cell_angle_alpha   90.07530751
_cell_angle_beta   90.00000000
_cell_angle_gamma   90.00000000
_symmetry_Int_Tables_number   1
_chemical_formula_structural   Tm10In8IrRh3
_chemical_formula_sum   'Tm10 In8 Ir1 Rh3'
_cell_volume   516.19672165
_cell_formula_units_Z   1
loop_
 _symmetry_equiv_pos_site_id
 _symmetry_equiv_pos_as_xyz
  1  'x, y, z'
loop_
 _atom_site_type_symbol
 _atom_site_label
 _atom_site_symmetry_multiplicity
 _atom_site_fract_x
 _atom_site_fract_y
 _atom_site_fract_z
 _atom_site_occupancy
  Tm  Tm0  1  0.000000  0.500135  0.499870  1
  Tm  Tm1  1  0.000000  0.000224  0.000110  1
  Tm  Tm2  1  0.000000  0.744128  0.278315  1
  Tm  Tm3  1  0.000000  0.254232  0.721260  1
  Tm  Tm4  1  0.000000  0.754309  0.778439  1
  Tm  Tm5  1  0.000000  0.246835  0.221354  1
  Tm  Tm6  1  0.000000  0.617966  0.086710  1
  Tm  Tm7  1  0.000000  0.382550  0.912857  1
  Tm  Tm8  1  0.000000  0.882328  0.586822  1
  Tm  Tm9  1  0.000000  0.117627  0.413207  1
  In  In10  1  0.500000  0.707682  0.932232  1
  In  In11  1  0.500000  0.292267  0.067334  1
  In  In12  1  0.500000  0.792618  0.432945  1
  In  In13  1  0.500000  0.207439  0.567384  1
  In  In14  1  0.500000  0.571308  0.649529  1
  In  In15  1  0.500000  0.428237  0.351136  1
  In  In16  1  0.500000  0.929080  0.149777  1
  In  In17  1  0.500000  0.071338  0.850266  1
  Ir  Ir18  1  0.500000  0.524725  0.196000  1
  Rh  Rh19  1  0.500000  0.474539  0.804106  1
  Rh  Rh20  1  0.500000  0.974932  0.695065  1
  Rh  Rh21  1  0.500000  0.025503  0.305282  1
