# generated using pymatgen
data_Dy6Y4FeHg3
_symmetry_space_group_name_H-M   'P 1'
_cell_length_a   9.59294000
_cell_length_b   9.59294059
_cell_length_c   9.62366300
_cell_angle_alpha   90.00000000
_cell_angle_beta   90.00000000
_cell_angle_gamma   119.99999106
_symmetry_Int_Tables_number   1
_chemical_formula_structural   Dy6Y4FeHg3
_chemical_formula_sum   'Dy12 Y8 Fe2 Hg6'
_cell_volume   766.96326034
_cell_formula_units_Z   2
loop_
 _symmetry_equiv_pos_site_id
 _symmetry_equiv_pos_as_xyz
  1  'x, y, z'
loop_
 _atom_site_type_symbol
 _atom_site_label
 _atom_site_symmetry_multiplicity
 _atom_site_fract_x
 _atom_site_fract_y
 _atom_site_fract_z
 _atom_site_occupancy
  Dy  Dy0  1  0.212134  0.787866  0.435494  1
  Dy  Dy1  1  0.212134  0.424269  0.435494  1
  Dy  Dy2  1  0.575731  0.787866  0.435494  1
  Dy  Dy3  1  0.787866  0.212134  0.564506  1
  Dy  Dy4  1  0.787866  0.575731  0.564506  1
  Dy  Dy5  1  0.424269  0.212134  0.564506  1
  Dy  Dy6  1  0.787866  0.212134  0.935494  1
  Dy  Dy7  1  0.787866  0.575731  0.935494  1
  Dy  Dy8  1  0.424269  0.212134  0.935494  1
  Dy  Dy9  1  0.212134  0.787866  0.064506  1
  Dy  Dy10  1  0.212134  0.424269  0.064506  1
  Dy  Dy11  1  0.575731  0.787866  0.064506  1
  Y  Y12  1  0.000000  0.000000  0.500000  1
  Y  Y13  1  0.000000  0.000000  0.000000  1
  Y  Y14  1  0.541744  0.458256  0.250000  1
  Y  Y15  1  0.541744  0.083488  0.250000  1
  Y  Y16  1  0.916512  0.458256  0.250000  1
  Y  Y17  1  0.458256  0.541744  0.750000  1
  Y  Y18  1  0.458256  0.916512  0.750000  1
  Y  Y19  1  0.083488  0.541744  0.750000  1
  Fe  Fe20  1  0.333333  0.666667  0.250000  1
  Fe  Fe21  1  0.666667  0.333333  0.750000  1
  Hg  Hg22  1  0.881882  0.118118  0.250000  1
  Hg  Hg23  1  0.881882  0.763765  0.250000  1
  Hg  Hg24  1  0.236235  0.118118  0.250000  1
  Hg  Hg25  1  0.118118  0.881882  0.750000  1
  Hg  Hg26  1  0.118118  0.236235  0.750000  1
  Hg  Hg27  1  0.763765  0.881882  0.750000  1
