# generated using pymatgen
data_Eu4HfZr2CrO12
_symmetry_space_group_name_H-M   'P 1'
_cell_length_a   5.70693378
_cell_length_b   5.80619156
_cell_length_c   8.14246693
_cell_angle_alpha   89.77313832
_cell_angle_beta   90.12289241
_cell_angle_gamma   89.94987929
_symmetry_Int_Tables_number   1
_chemical_formula_structural   Eu4HfZr2CrO12
_chemical_formula_sum   'Eu4 Hf1 Zr2 Cr1 O12'
_cell_volume   269.80228535
_cell_formula_units_Z   1
loop_
 _symmetry_equiv_pos_site_id
 _symmetry_equiv_pos_as_xyz
  1  'x, y, z'
loop_
 _atom_site_type_symbol
 _atom_site_label
 _atom_site_symmetry_multiplicity
 _atom_site_fract_x
 _atom_site_fract_y
 _atom_site_fract_z
 _atom_site_occupancy
  Eu  Eu0  1  0.509023  0.545971  0.236625  1
  Eu  Eu1  1  0.991178  0.036515  0.237271  1
  Eu  Eu2  1  0.490977  0.454029  0.763375  1
  Eu  Eu3  1  0.008822  0.963485  0.762729  1
  Hf  Hf4  1  0.000000  0.500000  0.000000  1
  Zr  Zr5  1  0.500000  0.000000  0.500000  1
  Zr  Zr6  1  0.000000  0.500000  0.500000  1
  Cr  Cr7  1  0.500000  0.000000  0.000000  1
  O  O8  1  0.415083  0.974095  0.245502  1
  O  O9  1  0.087501  0.473713  0.247980  1
  O  O10  1  0.584917  0.025905  0.754498  1
  O  O11  1  0.912499  0.526287  0.752020  1
  O  O12  1  0.783934  0.786706  0.042599  1
  O  O13  1  0.700306  0.299400  0.450651  1
  O  O14  1  0.199257  0.201536  0.550256  1
  O  O15  1  0.287703  0.715970  0.959278  1
  O  O16  1  0.216066  0.213294  0.957401  1
  O  O17  1  0.299694  0.700600  0.549349  1
  O  O18  1  0.800743  0.798464  0.449744  1
  O  O19  1  0.712297  0.284030  0.040722  1
