# generated using pymatgen
data_Pr3Ho5(HgRh)2
_symmetry_space_group_name_H-M   'P 1'
_cell_length_a   9.71514803
_cell_length_b   9.71514689
_cell_length_c   9.71514800
_cell_angle_alpha   59.99999623
_cell_angle_beta   60.00000009
_cell_angle_gamma   60.00000013
_symmetry_Int_Tables_number   1
_chemical_formula_structural   Pr3Ho5(HgRh)2
_chemical_formula_sum   'Pr6 Ho10 Hg4 Rh4'
_cell_volume   648.38536726
_cell_formula_units_Z   2
loop_
 _symmetry_equiv_pos_site_id
 _symmetry_equiv_pos_as_xyz
  1  'x, y, z'
loop_
 _atom_site_type_symbol
 _atom_site_label
 _atom_site_symmetry_multiplicity
 _atom_site_fract_x
 _atom_site_fract_y
 _atom_site_fract_z
 _atom_site_occupancy
  Pr  Pr0  1  0.939948  0.560052  0.560052  1
  Pr  Pr1  1  0.560052  0.939948  0.939948  1
  Pr  Pr2  1  0.560052  0.939948  0.560052  1
  Pr  Pr3  1  0.939948  0.560052  0.939948  1
  Pr  Pr4  1  0.560052  0.560052  0.939948  1
  Pr  Pr5  1  0.939948  0.939948  0.560052  1
  Ho  Ho6  1  0.349047  0.349047  0.349047  1
  Ho  Ho7  1  0.349047  0.349047  0.952857  1
  Ho  Ho8  1  0.349047  0.952857  0.349047  1
  Ho  Ho9  1  0.952857  0.349047  0.349047  1
  Ho  Ho10  1  0.812822  0.187178  0.187178  1
  Ho  Ho11  1  0.187178  0.812823  0.812822  1
  Ho  Ho12  1  0.187178  0.812822  0.187177  1
  Ho  Ho13  1  0.812822  0.187178  0.812822  1
  Ho  Ho14  1  0.187178  0.187178  0.812822  1
  Ho  Ho15  1  0.812823  0.812823  0.187177  1
  Hg  Hg16  1  0.582261  0.582261  0.582261  1
  Hg  Hg17  1  0.582261  0.582261  0.253218  1
  Hg  Hg18  1  0.582261  0.253218  0.582261  1
  Hg  Hg19  1  0.253218  0.582261  0.582261  1
  Rh  Rh20  1  0.142252  0.142252  0.142252  1
  Rh  Rh21  1  0.142252  0.142252  0.573244  1
  Rh  Rh22  1  0.142252  0.573244  0.142252  1
  Rh  Rh23  1  0.573244  0.142252  0.142252  1
