# generated using pymatgen
data_HfSc7(V3Si4)4
_symmetry_space_group_name_H-M   'P 1'
_cell_length_a   6.63219817
_cell_length_b   6.63213236
_cell_length_c   12.26540436
_cell_angle_alpha   90.02768549
_cell_angle_beta   90.00182030
_cell_angle_gamma   90.02550234
_symmetry_Int_Tables_number   1
_chemical_formula_structural   HfSc7(V3Si4)4
_chemical_formula_sum   'Hf1 Sc7 V12 Si16'
_cell_volume   539.50125021
_cell_formula_units_Z   1
loop_
 _symmetry_equiv_pos_site_id
 _symmetry_equiv_pos_as_xyz
  1  'x, y, z'
loop_
 _atom_site_type_symbol
 _atom_site_label
 _atom_site_symmetry_multiplicity
 _atom_site_fract_x
 _atom_site_fract_y
 _atom_site_fract_z
 _atom_site_occupancy
  Hf  Hf0  1  0.003512  0.661012  0.030172  1
  Sc  Sc1  1  0.838081  0.501610  0.279677  1
  Sc  Sc2  1  0.162016  0.498135  0.779698  1
  Sc  Sc3  1  0.501442  0.837905  0.720150  1
  Sc  Sc4  1  0.497995  0.162187  0.219934  1
  Sc  Sc5  1  0.998346  0.337911  0.529916  1
  Sc  Sc6  1  0.662302  0.001458  0.970262  1
  Sc  Sc7  1  0.337848  0.998299  0.469963  1
  V  V8  1  0.330147  0.333744  0.000026  1
  V  V9  1  0.168026  0.831198  0.249656  1
  V  V10  1  0.832028  0.168609  0.750208  1
  V  V11  1  0.668619  0.668556  0.500144  1
  V  V12  1  0.006402  0.156782  0.125872  1
  V  V13  1  0.343179  0.507151  0.376513  1
  V  V14  1  0.657731  0.493867  0.877300  1
  V  V15  1  0.507015  0.343483  0.623297  1
  V  V16  1  0.493174  0.657507  0.122623  1
  V  V17  1  0.992567  0.843310  0.626759  1
  V  V18  1  0.155604  0.005632  0.874089  1
  V  V19  1  0.843480  0.992165  0.373270  1
  Si  Si20  1  0.294609  0.960688  0.064764  1
  Si  Si21  1  0.539918  0.793937  0.314610  1
  Si  Si22  1  0.459601  0.206554  0.814550  1
  Si  Si23  1  0.794203  0.540022  0.685424  1
  Si  Si24  1  0.207355  0.458969  0.186152  1
  Si  Si25  1  0.705824  0.040145  0.564687  1
  Si  Si26  1  0.959291  0.292646  0.934742  1
  Si  Si27  1  0.040056  0.705818  0.435394  1
  Si  Si28  1  0.703904  0.369630  0.070380  1
  Si  Si29  1  0.129482  0.203412  0.320052  1
  Si  Si30  1  0.869386  0.796083  0.820799  1
  Si  Si31  1  0.203755  0.129784  0.679907  1
  Si  Si32  1  0.795597  0.870882  0.179732  1
  Si  Si33  1  0.296339  0.630070  0.570063  1
  Si  Si34  1  0.371140  0.704524  0.929273  1
  Si  Si35  1  0.630025  0.296317  0.429943  1
