# generated using pymatgen
data_Na2HfSi2O7
_symmetry_space_group_name_H-M   'P 1'
_cell_length_a   5.48619851
_cell_length_b   6.63446396
_cell_length_c   8.93205435
_cell_angle_alpha   70.94667634
_cell_angle_beta   87.89101820
_cell_angle_gamma   86.20662036
_symmetry_Int_Tables_number   1
_chemical_formula_structural   Na2HfSi2O7
_chemical_formula_sum   'Na4 Hf2 Si4 O14'
_cell_volume   306.58466967
_cell_formula_units_Z   2
loop_
 _symmetry_equiv_pos_site_id
 _symmetry_equiv_pos_as_xyz
  1  'x, y, z'
loop_
 _atom_site_type_symbol
 _atom_site_label
 _atom_site_symmetry_multiplicity
 _atom_site_fract_x
 _atom_site_fract_y
 _atom_site_fract_z
 _atom_site_occupancy
  Na  Na0  1  0.738086  0.882759  0.104669  1
  Na  Na1  1  0.261914  0.117241  0.895331  1
  Na  Na2  1  0.239287  0.343935  0.492076  1
  Na  Na3  1  0.760713  0.656065  0.507924  1
  Hf  Hf4  1  0.223150  0.708967  0.728160  1
  Hf  Hf5  1  0.776850  0.291033  0.271840  1
  Si  Si6  1  0.310819  0.938730  0.335265  1
  Si  Si7  1  0.772312  0.355031  0.855118  1
  Si  Si8  1  0.689181  0.061270  0.664735  1
  Si  Si9  1  0.227688  0.644969  0.144882  1
  O  O10  1  0.892558  0.873412  0.665748  1
  O  O11  1  0.718368  0.278656  0.512175  1
  O  O12  1  0.279821  0.882341  0.165707  1
  O  O13  1  0.816750  0.287977  0.044155  1
  O  O14  1  0.405411  0.991826  0.675589  1
  O  O15  1  0.594589  0.008174  0.324411  1
  O  O16  1  0.025897  0.433977  0.756072  1
  O  O17  1  0.107442  0.126588  0.334252  1
  O  O18  1  0.534831  0.511205  0.785213  1
  O  O19  1  0.465169  0.488795  0.214787  1
  O  O20  1  0.281632  0.721344  0.487825  1
  O  O21  1  0.183250  0.712023  0.955845  1
  O  O22  1  0.974103  0.566023  0.243928  1
  O  O23  1  0.720179  0.117659  0.834293  1
