# generated using pymatgen
data_HoPaAl16Pt9
_symmetry_space_group_name_H-M   'P 1'
_cell_length_a   11.13713986
_cell_length_b   11.13714049
_cell_length_c   11.13714065
_cell_angle_alpha   158.66219256
_cell_angle_beta   114.71257405
_cell_angle_gamma   69.54217572
_symmetry_Int_Tables_number   1
_chemical_formula_structural   HoPaAl16Pt9
_chemical_formula_sum   'Ho1 Pa1 Al16 Pt9'
_cell_volume   453.27483109
_cell_formula_units_Z   1
loop_
 _symmetry_equiv_pos_site_id
 _symmetry_equiv_pos_as_xyz
  1  'x, y, z'
loop_
 _atom_site_type_symbol
 _atom_site_label
 _atom_site_symmetry_multiplicity
 _atom_site_fract_x
 _atom_site_fract_y
 _atom_site_fract_z
 _atom_site_occupancy
  Ho  Ho0  1  0.227102  0.227102  0.000000  1
  Pa  Pa1  1  0.773241  0.773241  0.000000  1
  Al  Al2  1  0.269024  0.389740  0.879284  1
  Al  Al3  1  0.093104  0.920740  0.172364  1
  Al  Al4  1  0.510318  0.203156  0.307162  1
  Al  Al5  1  0.250489  0.079636  0.170852  1
  Al  Al6  1  0.914305  0.414305  0.500000  1
  Al  Al7  1  0.728818  0.609403  0.119416  1
  Al  Al8  1  0.895993  0.203156  0.692838  1
  Al  Al9  1  0.487274  0.796090  0.691183  1
  Al  Al10  1  0.387533  0.999874  0.387659  1
  Al  Al11  1  0.612215  0.999874  0.612341  1
  Al  Al12  1  0.489988  0.609403  0.880584  1
  Al  Al13  1  0.104908  0.796090  0.308817  1
  Al  Al14  1  0.908784  0.079636  0.829148  1
  Al  Al15  1  0.748376  0.920740  0.827636  1
  Al  Al16  1  0.510456  0.389740  0.120716  1
  Al  Al17  1  0.088771  0.588771  0.500000  1
  Pt  Pt18  1  0.746312  0.499665  0.246647  1
  Pt  Pt19  1  0.017743  0.338441  0.679302  1
  Pt  Pt20  1  0.628632  0.128632  0.500000  1
  Pt  Pt21  1  0.253018  0.499665  0.753353  1
  Pt  Pt22  1  0.373088  0.873088  0.500000  1
  Pt  Pt23  1  0.999781  0.999781  0.000000  1
  Pt  Pt24  1  0.659139  0.338441  0.320698  1
  Pt  Pt25  1  0.344372  0.660795  0.683577  1
  Pt  Pt26  1  0.977219  0.660795  0.316423  1
