# generated using pymatgen
data_Er20Si12Se
_symmetry_space_group_name_H-M   'P 1'
_cell_length_a   6.30863701
_cell_length_b   8.39488173
_cell_length_c   14.64726900
_cell_angle_alpha   90.00000683
_cell_angle_beta   90.00000000
_cell_angle_gamma   89.97230217
_symmetry_Int_Tables_number   1
_chemical_formula_structural   Er20Si12Se
_chemical_formula_sum   'Er20 Si12 Se1'
_cell_volume   775.72310762
_cell_formula_units_Z   1
loop_
 _symmetry_equiv_pos_site_id
 _symmetry_equiv_pos_as_xyz
  1  'x, y, z'
loop_
 _atom_site_type_symbol
 _atom_site_label
 _atom_site_symmetry_multiplicity
 _atom_site_fract_x
 _atom_site_fract_y
 _atom_site_fract_z
 _atom_site_occupancy
  Er  Er0  1  0.500001  0.000002  0.333114  1
  Er  Er1  1  0.499991  0.499998  0.831548  1
  Er  Er2  1  0.499991  0.499998  0.168452  1
  Er  Er3  1  0.500001  0.000002  0.666886  1
  Er  Er4  1  0.000008  0.500002  0.169232  1
  Er  Er5  1  0.000001  0.000001  0.662940  1
  Er  Er6  1  0.000001  0.000001  0.337060  1
  Er  Er7  1  0.000008  0.500002  0.830768  1
  Er  Er8  1  0.762113  0.257884  0.000000  1
  Er  Er9  1  0.746846  0.743298  0.500000  1
  Er  Er10  1  0.750504  0.377312  0.380147  1
  Er  Er11  1  0.763665  0.870709  0.871146  1
  Er  Er12  1  0.763665  0.870709  0.128854  1
  Er  Er13  1  0.750504  0.377312  0.619853  1
  Er  Er14  1  0.237880  0.742108  0.000000  1
  Er  Er15  1  0.253154  0.256701  0.500000  1
  Er  Er16  1  0.236325  0.129294  0.128861  1
  Er  Er17  1  0.249503  0.622687  0.619851  1
  Er  Er18  1  0.249503  0.622687  0.380149  1
  Er  Er19  1  0.236325  0.129294  0.871139  1
  Si  Si20  1  0.753424  0.606349  0.000000  1
  Si  Si21  1  0.745328  0.105545  0.500000  1
  Si  Si22  1  0.754409  0.197749  0.199205  1
  Si  Si23  1  0.751431  0.695844  0.695360  1
  Si  Si24  1  0.751431  0.695844  0.304640  1
  Si  Si25  1  0.754409  0.197749  0.800795  1
  Si  Si26  1  0.246575  0.393643  0.000000  1
  Si  Si27  1  0.254685  0.894457  0.500000  1
  Si  Si28  1  0.248565  0.304159  0.304641  1
  Si  Si29  1  0.245595  0.802252  0.800795  1
  Si  Si30  1  0.245595  0.802252  0.199205  1
  Si  Si31  1  0.248565  0.304159  0.695359  1
  Se  Se32  1  0.499999  0.999999  0.000000  1
