# generated using pymatgen
data_MgScNi3P7Ru9
_symmetry_space_group_name_H-M   'P 1'
_cell_length_a   9.35061000
_cell_length_b   9.35060931
_cell_length_c   3.72608200
_cell_angle_alpha   90.00000000
_cell_angle_beta   90.00000000
_cell_angle_gamma   119.99999633
_symmetry_Int_Tables_number   1
_chemical_formula_structural   MgScNi3P7Ru9
_chemical_formula_sum   'Mg1 Sc1 Ni3 P7 Ru9'
_cell_volume   282.13886243
_cell_formula_units_Z   1
loop_
 _symmetry_equiv_pos_site_id
 _symmetry_equiv_pos_as_xyz
  1  'x, y, z'
loop_
 _atom_site_type_symbol
 _atom_site_label
 _atom_site_symmetry_multiplicity
 _atom_site_fract_x
 _atom_site_fract_y
 _atom_site_fract_z
 _atom_site_occupancy
  Mg  Mg0  1  0.666667  0.333333  0.500000  1
  Sc  Sc1  1  0.333333  0.666667  0.000000  1
  Ni  Ni2  1  0.725313  0.882286  0.000000  1
  Ni  Ni3  1  0.117714  0.843027  0.000000  1
  Ni  Ni4  1  0.156973  0.274687  0.000000  1
  P  P5  1  0.592360  0.706526  0.500000  1
  P  P6  1  0.000000  0.000000  0.000000  1
  P  P7  1  0.293474  0.885834  0.500000  1
  P  P8  1  0.114166  0.407640  0.500000  1
  P  P9  1  0.887165  0.593459  0.000000  1
  P  P10  1  0.406541  0.293706  0.000000  1
  P  P11  1  0.706294  0.112835  0.000000  1
  Ru  Ru12  1  0.564400  0.941452  0.500000  1
  Ru  Ru13  1  0.377054  0.435600  0.500000  1
  Ru  Ru14  1  0.914368  0.122741  0.500000  1
  Ru  Ru15  1  0.208372  0.085632  0.500000  1
  Ru  Ru16  1  0.877259  0.791628  0.500000  1
  Ru  Ru17  1  0.437631  0.067462  0.000000  1
  Ru  Ru18  1  0.932538  0.370170  0.000000  1
  Ru  Ru19  1  0.629830  0.562369  0.000000  1
  Ru  Ru20  1  0.058548  0.622946  0.500000  1
