# generated using pymatgen
data_Ce3Th(TcSn)4
_symmetry_space_group_name_H-M   'P 1'
_cell_length_a   6.36985913
_cell_length_b   6.36985892
_cell_length_c   10.08827038
_cell_angle_alpha   76.65029544
_cell_angle_beta   76.65029480
_cell_angle_gamma   45.14735053
_symmetry_Int_Tables_number   1
_chemical_formula_structural   Ce3Th(TcSn)4
_chemical_formula_sum   'Ce3 Th1 Tc4 Sn4'
_cell_volume   280.96686255
_cell_formula_units_Z   1
loop_
 _symmetry_equiv_pos_site_id
 _symmetry_equiv_pos_as_xyz
  1  'x, y, z'
loop_
 _atom_site_type_symbol
 _atom_site_label
 _atom_site_symmetry_multiplicity
 _atom_site_fract_x
 _atom_site_fract_y
 _atom_site_fract_z
 _atom_site_occupancy
  Ce  Ce0  1  0.863770  0.863770  0.415749  1
  Ce  Ce1  1  0.864488  0.864488  0.919227  1
  Ce  Ce2  1  0.135396  0.135396  0.089085  1
  Th  Th3  1  0.126527  0.126527  0.591952  1
  Tc  Tc4  1  0.813470  0.813470  0.162359  1
  Tc  Tc5  1  0.191325  0.191325  0.312214  1
  Tc  Tc6  1  0.189019  0.189019  0.835874  1
  Tc  Tc7  1  0.810211  0.810211  0.658694  1
  Sn  Sn8  1  0.422106  0.422106  0.156184  1
  Sn  Sn9  1  0.413026  0.413026  0.660813  1
  Sn  Sn10  1  0.584835  0.584835  0.848662  1
  Sn  Sn11  1  0.585827  0.585827  0.349187  1
