# generated using pymatgen
data_Dy6Zn3GaSi8
_symmetry_space_group_name_H-M   'P 1'
_cell_length_a   4.11351544
_cell_length_b   4.06755958
_cell_length_c   21.15065660
_cell_angle_alpha   84.48209088
_cell_angle_beta   95.58044503
_cell_angle_gamma   89.99999448
_symmetry_Int_Tables_number   1
_chemical_formula_structural   Dy6Zn3GaSi8
_chemical_formula_sum   'Dy6 Zn3 Ga1 Si8'
_cell_volume   350.56719925
_cell_formula_units_Z   1
loop_
 _symmetry_equiv_pos_site_id
 _symmetry_equiv_pos_as_xyz
  1  'x, y, z'
loop_
 _atom_site_type_symbol
 _atom_site_label
 _atom_site_symmetry_multiplicity
 _atom_site_fract_x
 _atom_site_fract_y
 _atom_site_fract_z
 _atom_site_occupancy
  Dy  Dy0  1  0.374330  0.875670  0.248660  1
  Dy  Dy1  1  0.039664  0.210336  0.579329  1
  Dy  Dy2  1  0.703952  0.546048  0.907907  1
  Dy  Dy3  1  0.294987  0.455013  0.089973  1
  Dy  Dy4  1  0.960103  0.789897  0.420205  1
  Dy  Dy5  1  0.625602  0.124398  0.751203  1
  Zn  Zn6  1  0.903846  0.346154  0.307691  1
  Zn  Zn7  1  0.569313  0.680687  0.638624  1
  Zn  Zn8  1  0.235037  0.014963  0.970074  1
  Ga  Ga9  1  0.764207  0.985793  0.028415  1
  Si  Si10  1  0.431700  0.318300  0.363401  1
  Si  Si11  1  0.096844  0.653156  0.693686  1
  Si  Si12  1  0.848065  0.401935  0.196130  1
  Si  Si13  1  0.513580  0.736420  0.527159  1
  Si  Si14  1  0.179198  0.070802  0.858394  1
  Si  Si15  1  0.820836  0.929164  0.141675  1
  Si  Si16  1  0.486719  0.263281  0.473440  1
  Si  Si17  1  0.152018  0.597982  0.804034  1
