# generated using pymatgen
data_Ac8Co(Si4Ag)3
_symmetry_space_group_name_H-M   'P 1'
_cell_length_a   11.82433145
_cell_length_b   10.17865887
_cell_length_c   8.51778191
_cell_angle_alpha   77.90428482
_cell_angle_beta   57.27091523
_cell_angle_gamma   44.77963940
_symmetry_Int_Tables_number   1
_chemical_formula_structural   Ac8Co(Si4Ag)3
_chemical_formula_sum   'Ac8 Co1 Si12 Ag3'
_cell_volume   580.60988630
_cell_formula_units_Z   1
loop_
 _symmetry_equiv_pos_site_id
 _symmetry_equiv_pos_as_xyz
  1  'x, y, z'
loop_
 _atom_site_type_symbol
 _atom_site_label
 _atom_site_symmetry_multiplicity
 _atom_site_fract_x
 _atom_site_fract_y
 _atom_site_fract_z
 _atom_site_occupancy
  Ac  Ac0  1  0.380076  0.377770  0.619979  1
  Ac  Ac1  1  0.619974  0.622175  0.380089  1
  Ac  Ac2  1  0.871871  0.877739  0.631320  1
  Ac  Ac3  1  0.631303  0.619081  0.871872  1
  Ac  Ac4  1  0.875132  0.880597  0.117026  1
  Ac  Ac5  1  0.117056  0.127223  0.875111  1
  Ac  Ac6  1  0.386769  0.368479  0.116887  1
  Ac  Ac7  1  0.116901  0.127854  0.386761  1
  Co  Co8  1  0.834309  0.165685  0.834299  1
  Si  Si9  1  0.673316  0.326690  0.673353  1
  Si  Si10  1  0.339944  0.660053  0.339899  1
  Si  Si11  1  0.587792  0.912186  0.587813  1
  Si  Si12  1  0.912381  0.587636  0.912342  1
  Si  Si13  1  0.338598  0.658450  0.820727  1
  Si  Si14  1  0.155417  0.847576  0.671181  1
  Si  Si15  1  0.820697  0.182269  0.338598  1
  Si  Si16  1  0.671191  0.325816  0.155401  1
  Si  Si17  1  0.914575  0.589843  0.423170  1
  Si  Si18  1  0.074537  0.426227  0.587353  1
  Si  Si19  1  0.423126  0.072471  0.914572  1
  Si  Si20  1  0.587355  0.911881  0.074461  1
  Ag  Ag21  1  0.167010  0.832970  0.167110  1
  Ag  Ag22  1  0.417152  0.082876  0.417120  1
  Ag  Ag23  1  0.083519  0.416454  0.083557  1
