# generated using pymatgen
data_Eu5Ge2SbH
_symmetry_space_group_name_H-M   'P 1'
_cell_length_a   9.39765475
_cell_length_b   9.39765416
_cell_length_c   9.39765500
_cell_angle_alpha   129.28076776
_cell_angle_beta   129.28076482
_cell_angle_gamma   74.55922444
_symmetry_Int_Tables_number   1
_chemical_formula_structural   Eu5Ge2SbH
_chemical_formula_sum   'Eu10 Ge4 Sb2 H2'
_cell_volume   484.56785629
_cell_formula_units_Z   2
loop_
 _symmetry_equiv_pos_site_id
 _symmetry_equiv_pos_as_xyz
  1  'x, y, z'
loop_
 _atom_site_type_symbol
 _atom_site_label
 _atom_site_symmetry_multiplicity
 _atom_site_fract_x
 _atom_site_fract_y
 _atom_site_fract_z
 _atom_site_occupancy
  Eu  Eu0  1  0.500000  0.500000  0.000000  1
  Eu  Eu1  1  0.000000  0.000000  0.000000  1
  Eu  Eu2  1  0.520077  0.020077  0.826868  1
  Eu  Eu3  1  0.193210  0.693210  0.173132  1
  Eu  Eu4  1  0.020077  0.193210  0.500000  1
  Eu  Eu5  1  0.693210  0.520077  0.500000  1
  Eu  Eu6  1  0.479923  0.979923  0.173132  1
  Eu  Eu7  1  0.806790  0.306790  0.826868  1
  Eu  Eu8  1  0.979923  0.806790  0.500000  1
  Eu  Eu9  1  0.306790  0.479923  0.500000  1
  Ge  Ge10  1  0.879078  0.379078  0.258156  1
  Ge  Ge11  1  0.120922  0.620922  0.741844  1
  Ge  Ge12  1  0.379078  0.120922  0.500000  1
  Ge  Ge13  1  0.620922  0.879078  0.500000  1
  Sb  Sb14  1  0.250000  0.250000  0.000000  1
  Sb  Sb15  1  0.750000  0.750000  0.000000  1
  H  H16  1  0.250000  0.750000  0.500000  1
  H  H17  1  0.750000  0.250000  0.500000  1
