# generated using pymatgen
data_Nb13Co8Mo(OsN2)2
_symmetry_space_group_name_H-M   'P 1'
_cell_length_a   8.16573544
_cell_length_b   8.10301386
_cell_length_c   8.16574963
_cell_angle_alpha   60.06919224
_cell_angle_beta   60.30757403
_cell_angle_gamma   60.06915431
_symmetry_Int_Tables_number   1
_chemical_formula_structural   Nb13Co8Mo(OsN2)2
_chemical_formula_sum   'Nb13 Co8 Mo1 Os2 N4'
_cell_volume   383.33432525
_cell_formula_units_Z   1
loop_
 _symmetry_equiv_pos_site_id
 _symmetry_equiv_pos_as_xyz
  1  'x, y, z'
loop_
 _atom_site_type_symbol
 _atom_site_label
 _atom_site_symmetry_multiplicity
 _atom_site_fract_x
 _atom_site_fract_y
 _atom_site_fract_z
 _atom_site_occupancy
  Nb  Nb0  1  0.625000  0.125000  0.625000  1
  Nb  Nb1  1  0.808322  0.807290  0.189746  1
  Nb  Nb2  1  0.185586  0.193989  0.810524  1
  Nb  Nb3  1  0.813285  0.188514  0.813284  1
  Nb  Nb4  1  0.194741  0.805003  0.194733  1
  Nb  Nb5  1  0.189745  0.807292  0.808325  1
  Nb  Nb6  1  0.810523  0.193992  0.185587  1
  Nb  Nb7  1  0.441678  0.442710  0.060254  1
  Nb  Nb8  1  0.064414  0.056011  0.439476  1
  Nb  Nb9  1  0.436715  0.061486  0.436716  1
  Nb  Nb10  1  0.055259  0.444997  0.055267  1
  Nb  Nb11  1  0.060255  0.442708  0.441675  1
  Nb  Nb12  1  0.439477  0.056008  0.064413  1
  Co  Co13  1  0.737945  0.424332  0.418374  1
  Co  Co14  1  0.423459  0.729012  0.423457  1
  Co  Co15  1  0.418373  0.424338  0.737941  1
  Co  Co16  1  0.420664  0.425710  0.420664  1
  Co  Co17  1  0.512055  0.825668  0.831626  1
  Co  Co18  1  0.826541  0.520988  0.826543  1
  Co  Co19  1  0.831627  0.825662  0.512059  1
  Co  Co20  1  0.829336  0.824290  0.829336  1
  Mo  Mo21  1  0.625000  0.625000  0.625000  1
  Os  Os22  1  0.125000  0.625000  0.625000  1
  Os  Os23  1  0.625000  0.625000  0.125000  1
  N  N24  1  0.625000  0.125000  0.125000  1
  N  N25  1  0.125000  0.625000  0.125000  1
  N  N26  1  0.125000  0.125000  0.625000  1
  N  N27  1  0.125000  0.125000  0.125000  1
