# generated using pymatgen
data_La10Yb5Pr(MgIr)4
_symmetry_space_group_name_H-M   'P 1'
_cell_length_a   10.16906619
_cell_length_b   10.16906728
_cell_length_c   10.15791000
_cell_angle_alpha   60.03629425
_cell_angle_beta   60.03629070
_cell_angle_gamma   60.11764746
_symmetry_Int_Tables_number   1
_chemical_formula_structural   La10Yb5Pr(MgIr)4
_chemical_formula_sum   'La10 Yb5 Pr1 Mg4 Ir4'
_cell_volume   743.83165064
_cell_formula_units_Z   1
loop_
 _symmetry_equiv_pos_site_id
 _symmetry_equiv_pos_as_xyz
  1  'x, y, z'
loop_
 _atom_site_type_symbol
 _atom_site_label
 _atom_site_symmetry_multiplicity
 _atom_site_fract_x
 _atom_site_fract_y
 _atom_site_fract_z
 _atom_site_occupancy
  La  La0  1  0.345325  0.345325  0.344005  1
  La  La1  1  0.345325  0.345325  0.965348  1
  La  La2  1  0.344688  0.966285  0.344514  1
  La  La3  1  0.966285  0.344688  0.344514  1
  La  La4  1  0.811167  0.189017  0.188889  1
  La  La5  1  0.189017  0.811167  0.810927  1
  La  La6  1  0.189017  0.811167  0.188889  1
  La  La7  1  0.811167  0.189017  0.810927  1
  La  La8  1  0.188675  0.188675  0.811325  1
  La  La9  1  0.808877  0.808877  0.191123  1
  Yb  Yb10  1  0.939560  0.561628  0.559068  1
  Yb  Yb11  1  0.561628  0.939560  0.939744  1
  Yb  Yb12  1  0.561628  0.939560  0.559068  1
  Yb  Yb13  1  0.939560  0.561628  0.939744  1
  Yb  Yb14  1  0.559756  0.559756  0.940244  1
  Pr  Pr15  1  0.938283  0.938283  0.561717  1
  Mg  Mg16  1  0.578063  0.578063  0.578073  1
  Mg  Mg17  1  0.578063  0.578063  0.265801  1
  Mg  Mg18  1  0.579471  0.265027  0.577751  1
  Mg  Mg19  1  0.265027  0.579471  0.577751  1
  Ir  Ir20  1  0.139942  0.139942  0.140547  1
  Ir  Ir21  1  0.139942  0.139942  0.579568  1
  Ir  Ir22  1  0.140214  0.579321  0.140232  1
  Ir  Ir23  1  0.579321  0.140214  0.140232  1
