# generated using pymatgen
data_Dy11Hg8Pd4Pb
_symmetry_space_group_name_H-M   'P 1'
_cell_length_a   13.15236800
_cell_length_b   13.15236810
_cell_length_c   3.71956000
_cell_angle_alpha   90.00000000
_cell_angle_beta   90.00000000
_cell_angle_gamma   112.73943834
_symmetry_Int_Tables_number   1
_chemical_formula_structural   Dy11Hg8Pd4Pb
_chemical_formula_sum   'Dy11 Hg8 Pd4 Pb1'
_cell_volume   593.41512681
_cell_formula_units_Z   1
loop_
 _symmetry_equiv_pos_site_id
 _symmetry_equiv_pos_as_xyz
  1  'x, y, z'
loop_
 _atom_site_type_symbol
 _atom_site_label
 _atom_site_symmetry_multiplicity
 _atom_site_fract_x
 _atom_site_fract_y
 _atom_site_fract_z
 _atom_site_occupancy
  Dy  Dy0  1  0.414754  0.075733  0.000000  1
  Dy  Dy1  1  0.585246  0.924267  0.000000  1
  Dy  Dy2  1  0.075733  0.414754  0.000000  1
  Dy  Dy3  1  0.924267  0.585246  0.000000  1
  Dy  Dy4  1  0.167354  0.832646  0.000000  1
  Dy  Dy5  1  0.832646  0.167354  0.000000  1
  Dy  Dy6  1  0.370758  0.629242  0.000000  1
  Dy  Dy7  1  0.629242  0.370758  0.000000  1
  Dy  Dy8  1  0.293228  0.293228  0.000000  1
  Dy  Dy9  1  0.706772  0.706772  0.000000  1
  Dy  Dy10  1  0.000000  0.000000  0.000000  1
  Hg  Hg11  1  0.370287  0.844557  0.500000  1
  Hg  Hg12  1  0.629713  0.155443  0.500000  1
  Hg  Hg13  1  0.844559  0.370287  0.500000  1
  Hg  Hg14  1  0.155441  0.629713  0.500000  1
  Hg  Hg15  1  0.212879  0.064716  0.500000  1
  Hg  Hg16  1  0.787121  0.935284  0.500000  1
  Hg  Hg17  1  0.064715  0.212878  0.500000  1
  Hg  Hg18  1  0.935285  0.787122  0.500000  1
  Pd  Pd19  1  0.447728  0.247363  0.500000  1
  Pd  Pd20  1  0.552272  0.752637  0.500000  1
  Pd  Pd21  1  0.247364  0.447728  0.500000  1
  Pd  Pd22  1  0.752636  0.552272  0.500000  1
  Pb  Pb23  1  0.500000  0.500000  0.500000  1
