# generated using pymatgen
data_Pr5(RhO6)2
_symmetry_space_group_name_H-M   'P 1'
_cell_length_a   7.12883444
_cell_length_b   7.12883450
_cell_length_c   7.64101922
_cell_angle_alpha   74.51042866
_cell_angle_beta   74.51042747
_cell_angle_gamma   50.94906521
_symmetry_Int_Tables_number   1
_chemical_formula_structural   Pr5(RhO6)2
_chemical_formula_sum   'Pr5 Rh2 O12'
_cell_volume   288.06575941
_cell_formula_units_Z   1
loop_
 _symmetry_equiv_pos_site_id
 _symmetry_equiv_pos_as_xyz
  1  'x, y, z'
loop_
 _atom_site_type_symbol
 _atom_site_label
 _atom_site_symmetry_multiplicity
 _atom_site_fract_x
 _atom_site_fract_y
 _atom_site_fract_z
 _atom_site_occupancy
  Pr  Pr0  1  0.305435  0.305435  0.357428  1
  Pr  Pr1  1  0.694565  0.694565  0.642572  1
  Pr  Pr2  1  0.692463  0.692463  0.166466  1
  Pr  Pr3  1  0.307537  0.307537  0.833534  1
  Pr  Pr4  1  0.000000  0.000000  0.500000  1
  Rh  Rh5  1  0.754241  0.245759  0.000000  1
  Rh  Rh6  1  0.245759  0.754241  0.000000  1
  O  O7  1  0.095508  0.597356  0.576782  1
  O  O8  1  0.999063  0.999063  0.172731  1
  O  O9  1  0.402644  0.904492  0.423218  1
  O  O10  1  0.500194  0.500194  0.175714  1
  O  O11  1  0.100574  0.577839  0.079594  1
  O  O12  1  0.904492  0.402644  0.423218  1
  O  O13  1  0.000937  0.000937  0.827269  1
  O  O14  1  0.597356  0.095507  0.576782  1
  O  O15  1  0.499806  0.499806  0.824286  1
  O  O16  1  0.577839  0.100574  0.079594  1
  O  O17  1  0.422161  0.899426  0.920406  1
  O  O18  1  0.899426  0.422161  0.920406  1
