# generated using pymatgen
data_Cs2Hf3(CuSe4)2
_symmetry_space_group_name_H-M   'P 1'
_cell_length_a   3.91664165
_cell_length_b   8.45407743
_cell_length_c   13.43518450
_cell_angle_alpha   93.54941231
_cell_angle_beta   98.38130919
_cell_angle_gamma   103.39377191
_symmetry_Int_Tables_number   1
_chemical_formula_structural   Cs2Hf3(CuSe4)2
_chemical_formula_sum   'Cs2 Hf3 Cu2 Se8'
_cell_volume   426.01793488
_cell_formula_units_Z   1
loop_
 _symmetry_equiv_pos_site_id
 _symmetry_equiv_pos_as_xyz
  1  'x, y, z'
loop_
 _atom_site_type_symbol
 _atom_site_label
 _atom_site_symmetry_multiplicity
 _atom_site_fract_x
 _atom_site_fract_y
 _atom_site_fract_z
 _atom_site_occupancy
  Cs  Cs0  1  0.868604  0.536878  0.200327  1
  Cs  Cs1  1  0.131396  0.463122  0.799672  1
  Hf  Hf2  1  0.500000  0.000000  0.000000  1
  Hf  Hf3  1  0.719482  0.060454  0.378510  1
  Hf  Hf4  1  0.280517  0.939546  0.621489  1
  Cu  Cu5  1  0.146787  0.094597  0.198978  1
  Cu  Cu6  1  0.853212  0.905404  0.801021  1
  Se  Se7  1  0.133378  0.224972  0.041781  1
  Se  Se8  1  0.549513  0.908736  0.190290  1
  Se  Se9  1  0.315116  0.276743  0.353490  1
  Se  Se10  1  0.133628  0.845705  0.421552  1
  Se  Se11  1  0.866372  0.154296  0.578447  1
  Se  Se12  1  0.684885  0.723258  0.646511  1
  Se  Se13  1  0.450487  0.091264  0.809710  1
  Se  Se14  1  0.866621  0.775027  0.958218  1
