# generated using pymatgen
data_Sc10Zn3Co
_symmetry_space_group_name_H-M   'P 1'
_cell_length_a   8.77874800
_cell_length_b   8.77874819
_cell_length_c   8.82728300
_cell_angle_alpha   90.00000000
_cell_angle_beta   90.00000000
_cell_angle_gamma   119.99999929
_symmetry_Int_Tables_number   1
_chemical_formula_structural   Sc10Zn3Co
_chemical_formula_sum   'Sc20 Zn6 Co2'
_cell_volume   589.14589950
_cell_formula_units_Z   2
loop_
 _symmetry_equiv_pos_site_id
 _symmetry_equiv_pos_as_xyz
  1  'x, y, z'
loop_
 _atom_site_type_symbol
 _atom_site_label
 _atom_site_symmetry_multiplicity
 _atom_site_fract_x
 _atom_site_fract_y
 _atom_site_fract_z
 _atom_site_occupancy
  Sc  Sc0  1  0.000000  0.000000  0.500000  1
  Sc  Sc1  1  0.000000  0.000000  0.000000  1
  Sc  Sc2  1  0.542460  0.457540  0.250000  1
  Sc  Sc3  1  0.542460  0.084922  0.250000  1
  Sc  Sc4  1  0.915078  0.457540  0.250000  1
  Sc  Sc5  1  0.457540  0.542460  0.750000  1
  Sc  Sc6  1  0.457540  0.915078  0.750000  1
  Sc  Sc7  1  0.084922  0.542460  0.750000  1
  Sc  Sc8  1  0.208831  0.791169  0.437479  1
  Sc  Sc9  1  0.208831  0.417661  0.437479  1
  Sc  Sc10  1  0.582339  0.791169  0.437479  1
  Sc  Sc11  1  0.791169  0.208831  0.562521  1
  Sc  Sc12  1  0.791169  0.582339  0.562521  1
  Sc  Sc13  1  0.417661  0.208831  0.562521  1
  Sc  Sc14  1  0.791169  0.208831  0.937479  1
  Sc  Sc15  1  0.791169  0.582339  0.937479  1
  Sc  Sc16  1  0.417661  0.208831  0.937479  1
  Sc  Sc17  1  0.208831  0.791169  0.062521  1
  Sc  Sc18  1  0.208831  0.417661  0.062521  1
  Sc  Sc19  1  0.582339  0.791169  0.062521  1
  Zn  Zn20  1  0.885737  0.114263  0.250000  1
  Zn  Zn21  1  0.885737  0.771475  0.250000  1
  Zn  Zn22  1  0.228525  0.114263  0.250000  1
  Zn  Zn23  1  0.114263  0.885737  0.750000  1
  Zn  Zn24  1  0.114263  0.228525  0.750000  1
  Zn  Zn25  1  0.771475  0.885737  0.750000  1
  Co  Co26  1  0.333333  0.666667  0.250000  1
  Co  Co27  1  0.666667  0.333333  0.750000  1
