# generated using pymatgen
data_Rb2Mn(PO4)2
_symmetry_space_group_name_H-M   'P 1'
_cell_length_a   4.68171106
_cell_length_b   7.31136270
_cell_length_c   7.42800483
_cell_angle_alpha   72.31197684
_cell_angle_beta   77.26800399
_cell_angle_gamma   72.06515443
_symmetry_Int_Tables_number   1
_chemical_formula_structural   Rb2Mn(PO4)2
_chemical_formula_sum   'Rb2 Mn1 P2 O8'
_cell_volume   228.19999307
_cell_formula_units_Z   1
loop_
 _symmetry_equiv_pos_site_id
 _symmetry_equiv_pos_as_xyz
  1  'x, y, z'
loop_
 _atom_site_type_symbol
 _atom_site_label
 _atom_site_symmetry_multiplicity
 _atom_site_fract_x
 _atom_site_fract_y
 _atom_site_fract_z
 _atom_site_occupancy
  Rb  Rb0  1  0.331983  0.325995  0.325161  1
  Rb  Rb1  1  0.668016  0.674005  0.674839  1
  Mn  Mn2  1  0.000000  0.000000  0.000000  1
  P  P3  1  0.651176  0.761569  0.166280  1
  P  P4  1  0.348825  0.238430  0.833720  1
  O  O5  1  0.869045  0.784595  0.968092  1
  O  O6  1  0.317098  0.798206  0.135241  1
  O  O7  1  0.701723  0.938142  0.228754  1
  O  O8  1  0.735367  0.562542  0.306605  1
  O  O9  1  0.264633  0.437459  0.693395  1
  O  O10  1  0.298275  0.061859  0.771246  1
  O  O11  1  0.682903  0.201794  0.864759  1
  O  O12  1  0.130956  0.215405  0.031908  1
