# generated using pymatgen
data_Dy2HoSn3GeIr2
_symmetry_space_group_name_H-M   'P 1'
_cell_length_a   7.38662207
_cell_length_b   7.39150327
_cell_length_c   4.17848300
_cell_angle_alpha   90.00000000
_cell_angle_beta   90.00000000
_cell_angle_gamma   119.99424466
_symmetry_Int_Tables_number   1
_chemical_formula_structural   Dy2HoSn3GeIr2
_chemical_formula_sum   'Dy2 Ho1 Sn3 Ge1 Ir2'
_cell_volume   197.58460728
_cell_formula_units_Z   1
loop_
 _symmetry_equiv_pos_site_id
 _symmetry_equiv_pos_as_xyz
  1  'x, y, z'
loop_
 _atom_site_type_symbol
 _atom_site_label
 _atom_site_symmetry_multiplicity
 _atom_site_fract_x
 _atom_site_fract_y
 _atom_site_fract_z
 _atom_site_occupancy
  Dy  Dy0  1  0.399835  0.413130  0.500000  1
  Dy  Dy1  1  0.586866  0.986798  0.500000  1
  Ho  Ho2  1  0.013736  0.600602  0.500000  1
  Sn  Sn3  1  0.741664  0.754763  0.000000  1
  Sn  Sn4  1  0.245013  0.986539  0.000000  1
  Sn  Sn5  1  0.013090  0.258517  0.000000  1
  Ge  Ge6  1  0.666998  0.333564  0.000000  1
  Ir  Ir7  1  0.332803  0.666526  0.000000  1
  Ir  Ir8  1  0.999995  0.999562  0.500000  1
