# generated using pymatgen
data_NdY5(WO7)2
_symmetry_space_group_name_H-M   'P 1'
_cell_length_a   6.50458581
_cell_length_b   6.50458321
_cell_length_c   7.55708496
_cell_angle_alpha   89.91720454
_cell_angle_beta   90.08279950
_cell_angle_gamma   109.14662223
_symmetry_Int_Tables_number   1
_chemical_formula_structural   NdY5(WO7)2
_chemical_formula_sum   'Nd1 Y5 W2 O14'
_cell_volume   302.04979074
_cell_formula_units_Z   1
loop_
 _symmetry_equiv_pos_site_id
 _symmetry_equiv_pos_as_xyz
  1  'x, y, z'
loop_
 _atom_site_type_symbol
 _atom_site_label
 _atom_site_symmetry_multiplicity
 _atom_site_fract_x
 _atom_site_fract_y
 _atom_site_fract_z
 _atom_site_occupancy
  Nd  Nd0  1  0.503718  0.503718  0.250000  1
  Y  Y1  1  0.480030  0.480030  0.750000  1
  Y  Y2  1  0.997926  0.468041  0.500353  1
  Y  Y3  1  0.533632  0.000413  0.504570  1
  Y  Y4  1  0.000413  0.533632  0.995430  1
  Y  Y5  1  0.468041  0.997926  0.999647  1
  W  W6  1  0.000489  0.000489  0.250000  1
  W  W7  1  0.999525  0.999525  0.750000  1
  O  O8  1  0.071356  0.320656  0.218666  1
  O  O9  1  0.683522  0.934615  0.781474  1
  O  O10  1  0.934616  0.683522  0.718526  1
  O  O11  1  0.320656  0.071357  0.281334  1
  O  O12  1  0.677479  0.925247  0.222080  1
  O  O13  1  0.079650  0.323890  0.777659  1
  O  O14  1  0.323890  0.079651  0.722341  1
  O  O15  1  0.925248  0.677479  0.277920  1
  O  O16  1  0.365474  0.633508  0.508023  1
  O  O17  1  0.633509  0.365475  0.991977  1
  O  O18  1  0.361129  0.638460  0.992126  1
  O  O19  1  0.638460  0.361129  0.507874  1
  O  O20  1  0.927925  0.073311  0.499660  1
  O  O21  1  0.073311  0.927925  0.000340  1
