# generated using pymatgen
data_Tb3Tm(Hg2O)4
_symmetry_space_group_name_H-M   'P 1'
_cell_length_a   5.58777600
_cell_length_b   5.60604917
_cell_length_c   11.06188400
_cell_angle_alpha   85.77745369
_cell_angle_beta   89.99870802
_cell_angle_gamma   89.99980267
_symmetry_Int_Tables_number   1
_chemical_formula_structural   Tb3Tm(Hg2O)4
_chemical_formula_sum   'Tb3 Tm1 Hg8 O4'
_cell_volume   345.57676134
_cell_formula_units_Z   1
loop_
 _symmetry_equiv_pos_site_id
 _symmetry_equiv_pos_as_xyz
  1  'x, y, z'
loop_
 _atom_site_type_symbol
 _atom_site_label
 _atom_site_symmetry_multiplicity
 _atom_site_fract_x
 _atom_site_fract_y
 _atom_site_fract_z
 _atom_site_occupancy
  Tb  Tb0  1  0.575031  0.486838  0.098335  1
  Tb  Tb1  1  0.075046  0.986990  0.098408  1
  Tb  Tb2  1  0.575017  0.013983  0.900069  1
  Tm  Tm3  1  0.074960  0.513148  0.906013  1
  Hg  Hg4  1  0.574749  0.966483  0.275526  1
  Hg  Hg5  1  0.074607  0.966136  0.413916  1
  Hg  Hg6  1  0.574714  0.031447  0.585252  1
  Hg  Hg7  1  0.074685  0.033100  0.724489  1
  Hg  Hg8  1  0.075148  0.462496  0.277196  1
  Hg  Hg9  1  0.575334  0.471285  0.413910  1
  Hg  Hg10  1  0.075465  0.529100  0.589373  1
  Hg  Hg11  1  0.575219  0.536532  0.724537  1
  O  O12  1  0.826770  0.252534  0.998160  1
  O  O13  1  0.826934  0.748692  0.998382  1
  O  O14  1  0.323260  0.252551  0.998091  1
  O  O15  1  0.323098  0.748685  0.998343  1
