# generated using pymatgen
data_Ta(B2Rh)2
_symmetry_space_group_name_H-M   'P 1'
_cell_length_a   6.88556366
_cell_length_b   6.88556257
_cell_length_c   6.88556351
_cell_angle_alpha   152.27301032
_cell_angle_beta   38.66309437
_cell_angle_gamma   153.59312229
_symmetry_Int_Tables_number   1
_chemical_formula_structural   Ta(B2Rh)2
_chemical_formula_sum   'Ta1 B4 Rh2'
_cell_volume   67.43616348
_cell_formula_units_Z   1
loop_
 _symmetry_equiv_pos_site_id
 _symmetry_equiv_pos_as_xyz
  1  'x, y, z'
loop_
 _atom_site_type_symbol
 _atom_site_label
 _atom_site_symmetry_multiplicity
 _atom_site_fract_x
 _atom_site_fract_y
 _atom_site_fract_z
 _atom_site_occupancy
  Ta  Ta0  1  0.499998  0.499998  0.000000  1
  B  B1  1  0.930116  0.499998  0.430118  1
  B  B2  1  0.069882  0.500001  0.569883  1
  B  B3  1  0.355540  0.000000  0.355540  1
  B  B4  1  0.644460  0.000000  0.644460  1
  Rh  Rh5  1  0.183952  0.000000  0.183952  1
  Rh  Rh6  1  0.816048  0.000000  0.816048  1
