# generated using pymatgen
data_Nd4Al4OsPt3
_symmetry_space_group_name_H-M   'P 1'
_cell_length_a   4.46287900
_cell_length_b   7.08429772
_cell_length_c   7.98217004
_cell_angle_alpha   89.61303877
_cell_angle_beta   90.00000000
_cell_angle_gamma   90.00000000
_symmetry_Int_Tables_number   1
_chemical_formula_structural   Nd4Al4OsPt3
_chemical_formula_sum   'Nd4 Al4 Os1 Pt3'
_cell_volume   252.36143407
_cell_formula_units_Z   1
loop_
 _symmetry_equiv_pos_site_id
 _symmetry_equiv_pos_as_xyz
  1  'x, y, z'
loop_
 _atom_site_type_symbol
 _atom_site_label
 _atom_site_symmetry_multiplicity
 _atom_site_fract_x
 _atom_site_fract_y
 _atom_site_fract_z
 _atom_site_occupancy
  Nd  Nd0  1  0.750000  0.470448  0.180520  1
  Nd  Nd1  1  0.250000  0.022920  0.682521  1
  Nd  Nd2  1  0.750000  0.966852  0.321246  1
  Nd  Nd3  1  0.250000  0.530452  0.812054  1
  Al  Al4  1  0.750000  0.853119  0.933563  1
  Al  Al5  1  0.250000  0.647515  0.438014  1
  Al  Al6  1  0.750000  0.361881  0.564284  1
  Al  Al7  1  0.250000  0.144045  0.063716  1
  Os  Os8  1  0.750000  0.724676  0.616973  1
  Pt  Pt9  1  0.750000  0.218905  0.887129  1
  Pt  Pt10  1  0.250000  0.279730  0.384424  1
  Pt  Pt11  1  0.250000  0.779456  0.115557  1
