# generated using pymatgen
data_HoTm2Lu5(CdIr)2
_symmetry_space_group_name_H-M   'P 1'
_cell_length_a   9.47288607
_cell_length_b   9.47288580
_cell_length_c   9.47098200
_cell_angle_alpha   60.00665490
_cell_angle_beta   60.00665586
_cell_angle_gamma   59.98670077
_symmetry_Int_Tables_number   1
_chemical_formula_structural   HoTm2Lu5(CdIr)2
_chemical_formula_sum   'Ho2 Tm4 Lu10 Cd4 Ir4'
_cell_volume   600.95870700
_cell_formula_units_Z   2
loop_
 _symmetry_equiv_pos_site_id
 _symmetry_equiv_pos_as_xyz
  1  'x, y, z'
loop_
 _atom_site_type_symbol
 _atom_site_label
 _atom_site_symmetry_multiplicity
 _atom_site_fract_x
 _atom_site_fract_y
 _atom_site_fract_z
 _atom_site_occupancy
  Ho  Ho0  1  0.811209  0.811209  0.188791  1
  Ho  Ho1  1  0.188791  0.188791  0.811209  1
  Tm  Tm2  1  0.189113  0.810887  0.810887  1
  Tm  Tm3  1  0.810887  0.189113  0.189113  1
  Tm  Tm4  1  0.810887  0.189113  0.810887  1
  Tm  Tm5  1  0.189113  0.810887  0.189113  1
  Lu  Lu6  1  0.598647  0.598647  0.598809  1
  Lu  Lu7  1  0.598647  0.598647  0.203897  1
  Lu  Lu8  1  0.598809  0.203897  0.598647  1
  Lu  Lu9  1  0.203897  0.598809  0.598647  1
  Lu  Lu10  1  0.061300  0.438700  0.438700  1
  Lu  Lu11  1  0.438700  0.061300  0.061300  1
  Lu  Lu12  1  0.438700  0.061300  0.438700  1
  Lu  Lu13  1  0.061300  0.438700  0.061300  1
  Lu  Lu14  1  0.438735  0.438735  0.061265  1
  Lu  Lu15  1  0.061265  0.061265  0.438735  1
  Cd  Cd16  1  0.830894  0.830894  0.830559  1
  Cd  Cd17  1  0.830894  0.830894  0.507653  1
  Cd  Cd18  1  0.830559  0.507653  0.830894  1
  Cd  Cd19  1  0.507653  0.830559  0.830894  1
  Ir  Ir20  1  0.391750  0.391750  0.391539  1
  Ir  Ir21  1  0.391750  0.391750  0.824963  1
  Ir  Ir22  1  0.391539  0.824963  0.391750  1
  Ir  Ir23  1  0.824963  0.391539  0.391750  1
