# generated using pymatgen
data_Lu7Sc3(In2Ni)4
_symmetry_space_group_name_H-M   'P 1'
_cell_length_a   3.48344900
_cell_length_b   7.79974461
_cell_length_c   17.49726735
_cell_angle_alpha   89.91518644
_cell_angle_beta   90.00000000
_cell_angle_gamma   90.00000000
_symmetry_Int_Tables_number   1
_chemical_formula_structural   Lu7Sc3(In2Ni)4
_chemical_formula_sum   'Lu7 Sc3 In8 Ni4'
_cell_volume   475.40045296
_cell_formula_units_Z   1
loop_
 _symmetry_equiv_pos_site_id
 _symmetry_equiv_pos_as_xyz
  1  'x, y, z'
loop_
 _atom_site_type_symbol
 _atom_site_label
 _atom_site_symmetry_multiplicity
 _atom_site_fract_x
 _atom_site_fract_y
 _atom_site_fract_z
 _atom_site_occupancy
  Lu  Lu0  1  0.000000  0.885216  0.586232  1
  Lu  Lu1  1  0.000000  0.384078  0.912785  1
  Lu  Lu2  1  0.000000  0.615667  0.087475  1
  Lu  Lu3  1  0.000000  0.245703  0.223517  1
  Lu  Lu4  1  0.000000  0.753725  0.777042  1
  Lu  Lu5  1  0.000000  0.254060  0.720860  1
  Lu  Lu6  1  0.000000  0.745451  0.279199  1
  Sc  Sc7  1  0.000000  0.114624  0.412403  1
  Sc  Sc8  1  0.000000  0.999755  0.000069  1
  Sc  Sc9  1  0.000000  0.500432  0.499319  1
  In  In10  1  0.500000  0.420510  0.353985  1
  In  In11  1  0.500000  0.573251  0.646795  1
  In  In12  1  0.500000  0.073449  0.851372  1
  In  In13  1  0.500000  0.926940  0.149308  1
  In  In14  1  0.500000  0.288399  0.067145  1
  In  In15  1  0.500000  0.711414  0.932958  1
  In  In16  1  0.500000  0.210200  0.563369  1
  In  In17  1  0.500000  0.794452  0.433593  1
  Ni  Ni18  1  0.500000  0.028444  0.307458  1
  Ni  Ni19  1  0.500000  0.974751  0.694972  1
  Ni  Ni20  1  0.500000  0.473979  0.803509  1
  Ni  Ni21  1  0.500000  0.525501  0.196634  1
