# generated using pymatgen
data_TbTmThSi2
_symmetry_space_group_name_H-M   'P 1'
_cell_length_a   7.55386311
_cell_length_b   7.55386311
_cell_length_c   4.23364700
_cell_angle_alpha   90.00000000
_cell_angle_beta   90.00000000
_cell_angle_gamma   89.98070385
_symmetry_Int_Tables_number   1
_chemical_formula_structural   TbTmThSi2
_chemical_formula_sum   'Tb2 Tm2 Th2 Si4'
_cell_volume   241.57547358
_cell_formula_units_Z   2
loop_
 _symmetry_equiv_pos_site_id
 _symmetry_equiv_pos_as_xyz
  1  'x, y, z'
loop_
 _atom_site_type_symbol
 _atom_site_label
 _atom_site_symmetry_multiplicity
 _atom_site_fract_x
 _atom_site_fract_y
 _atom_site_fract_z
 _atom_site_occupancy
  Tb  Tb0  1  0.174887  0.325113  0.500000  1
  Tb  Tb1  1  0.825113  0.674887  0.500000  1
  Tm  Tm2  1  0.000000  0.000000  0.000000  1
  Tm  Tm3  1  0.500000  0.500000  0.000000  1
  Th  Th4  1  0.679107  0.179107  0.500000  1
  Th  Th5  1  0.320893  0.820893  0.500000  1
  Si  Si6  1  0.114996  0.614996  0.000000  1
  Si  Si7  1  0.885004  0.385004  0.000000  1
  Si  Si8  1  0.620152  0.879848  0.000000  1
  Si  Si9  1  0.379848  0.120152  0.000000  1
