# generated using pymatgen
data_Tb7Yb(Si3Pd)4
_symmetry_space_group_name_H-M   'P 1'
_cell_length_a   8.25344900
_cell_length_b   8.22075640
_cell_length_c   7.96223800
_cell_angle_alpha   90.00000000
_cell_angle_beta   90.00000000
_cell_angle_gamma   120.13164412
_symmetry_Int_Tables_number   1
_chemical_formula_structural   Tb7Yb(Si3Pd)4
_chemical_formula_sum   'Tb7 Yb1 Si12 Pd4'
_cell_volume   467.23503703
_cell_formula_units_Z   1
loop_
 _symmetry_equiv_pos_site_id
 _symmetry_equiv_pos_as_xyz
  1  'x, y, z'
loop_
 _atom_site_type_symbol
 _atom_site_label
 _atom_site_symmetry_multiplicity
 _atom_site_fract_x
 _atom_site_fract_y
 _atom_site_fract_z
 _atom_site_occupancy
  Tb  Tb0  1  0.490138  0.980278  0.750000  1
  Tb  Tb1  1  0.980007  0.489711  0.250000  1
  Tb  Tb2  1  0.019422  0.509290  0.750000  1
  Tb  Tb3  1  0.509705  0.489711  0.250000  1
  Tb  Tb4  1  0.489867  0.509290  0.750000  1
  Tb  Tb5  1  0.000081  0.000163  0.250000  1
  Tb  Tb6  1  0.000130  0.000261  0.750000  1
  Yb  Yb7  1  0.509894  0.019788  0.250000  1
  Si  Si8  1  0.165505  0.331010  0.000927  1
  Si  Si9  1  0.834545  0.669091  0.997728  1
  Si  Si10  1  0.669740  0.834463  0.001840  1
  Si  Si11  1  0.834545  0.669091  0.502272  1
  Si  Si12  1  0.329869  0.165481  0.996947  1
  Si  Si13  1  0.165505  0.331010  0.499073  1
  Si  Si14  1  0.164724  0.834463  0.001840  1
  Si  Si15  1  0.329869  0.165481  0.503053  1
  Si  Si16  1  0.835612  0.165481  0.996947  1
  Si  Si17  1  0.669740  0.834463  0.498160  1
  Si  Si18  1  0.835612  0.165481  0.503053  1
  Si  Si19  1  0.164724  0.834463  0.498160  1
  Pd  Pd20  1  0.334051  0.668103  0.036369  1
  Pd  Pd21  1  0.666331  0.332661  0.965051  1
  Pd  Pd22  1  0.666331  0.332661  0.534949  1
  Pd  Pd23  1  0.334051  0.668103  0.463631  1
