# generated using pymatgen
data_RbLaPr2F10
_symmetry_space_group_name_H-M   'P 1'
_cell_length_a   8.74869658
_cell_length_b   8.74869706
_cell_length_c   8.70461000
_cell_angle_alpha   60.16655069
_cell_angle_beta   60.16654888
_cell_angle_gamma   59.66688271
_symmetry_Int_Tables_number   1
_chemical_formula_structural   RbLaPr2F10
_chemical_formula_sum   'Rb2 La2 Pr4 F20'
_cell_volume   471.08475367
_cell_formula_units_Z   2
loop_
 _symmetry_equiv_pos_site_id
 _symmetry_equiv_pos_as_xyz
  1  'x, y, z'
loop_
 _atom_site_type_symbol
 _atom_site_label
 _atom_site_symmetry_multiplicity
 _atom_site_fract_x
 _atom_site_fract_y
 _atom_site_fract_z
 _atom_site_occupancy
  Rb  Rb0  1  0.250000  0.250000  0.250000  1
  Rb  Rb1  1  0.750000  0.750000  0.750000  1
  La  La2  1  0.241033  0.241033  0.758967  1
  La  La3  1  0.758967  0.758967  0.241033  1
  Pr  Pr4  1  0.760289  0.239711  0.239711  1
  Pr  Pr5  1  0.239711  0.760289  0.760289  1
  Pr  Pr6  1  0.239711  0.760289  0.239711  1
  Pr  Pr7  1  0.760289  0.239711  0.760289  1
  F  F8  1  0.830411  0.497877  0.502123  1
  F  F9  1  0.169589  0.502123  0.497877  1
  F  F10  1  0.497877  0.830411  0.169589  1
  F  F11  1  0.502123  0.169589  0.830411  1
  F  F12  1  0.497877  0.830411  0.502123  1
  F  F13  1  0.169589  0.502123  0.830411  1
  F  F14  1  0.502123  0.169589  0.497877  1
  F  F15  1  0.830411  0.497877  0.169589  1
  F  F16  1  0.500000  0.500000  0.828987  1
  F  F17  1  0.500000  0.500000  0.171013  1
  F  F18  1  0.171013  0.828987  0.500000  1
  F  F19  1  0.828987  0.171013  0.500000  1
  F  F20  1  0.109684  0.109684  0.113686  1
  F  F21  1  0.890316  0.890316  0.886314  1
  F  F22  1  0.109684  0.109684  0.666948  1
  F  F23  1  0.113686  0.666948  0.109684  1
  F  F24  1  0.890316  0.890316  0.333052  1
  F  F25  1  0.886314  0.333052  0.890316  1
  F  F26  1  0.666948  0.113686  0.109684  1
  F  F27  1  0.333052  0.886314  0.890316  1
