# generated using pymatgen
data_Pr5TiWO12
_symmetry_space_group_name_H-M   'P 1'
_cell_length_a   7.12038382
_cell_length_b   7.12038275
_cell_length_c   7.69668535
_cell_angle_alpha   74.40596852
_cell_angle_beta   74.40598161
_cell_angle_gamma   50.95011203
_symmetry_Int_Tables_number   1
_chemical_formula_structural   Pr5TiWO12
_chemical_formula_sum   'Pr5 Ti1 W1 O12'
_cell_volume   289.29772406
_cell_formula_units_Z   1
loop_
 _symmetry_equiv_pos_site_id
 _symmetry_equiv_pos_as_xyz
  1  'x, y, z'
loop_
 _atom_site_type_symbol
 _atom_site_label
 _atom_site_symmetry_multiplicity
 _atom_site_fract_x
 _atom_site_fract_y
 _atom_site_fract_z
 _atom_site_occupancy
  Pr  Pr0  1  0.314869  0.296980  0.358970  1
  Pr  Pr1  1  0.703020  0.685131  0.641030  1
  Pr  Pr2  1  0.693986  0.691649  0.167647  1
  Pr  Pr3  1  0.308351  0.306014  0.832353  1
  Pr  Pr4  1  0.002330  0.997670  0.500000  1
  Ti  Ti5  1  0.760778  0.239222  0.000000  1
  W  W6  1  0.239320  0.760680  0.000000  1
  O  O7  1  0.099781  0.593743  0.576228  1
  O  O8  1  0.989119  0.008665  0.178181  1
  O  O9  1  0.406257  0.900219  0.423772  1
  O  O10  1  0.497811  0.504162  0.174474  1
  O  O11  1  0.100859  0.584422  0.078450  1
  O  O12  1  0.909974  0.402587  0.420258  1
  O  O13  1  0.991335  0.010881  0.821819  1
  O  O14  1  0.597413  0.090025  0.579742  1
  O  O15  1  0.495838  0.502189  0.825526  1
  O  O16  1  0.578276  0.104897  0.077908  1
  O  O17  1  0.415578  0.899141  0.921550  1
  O  O18  1  0.895103  0.421724  0.922092  1
