# generated using pymatgen
data_Er2Mn4Fe7CoP7
_symmetry_space_group_name_H-M   'P 1'
_cell_length_a   9.01732266
_cell_length_b   9.14022997
_cell_length_c   3.58700000
_cell_angle_alpha   90.00000000
_cell_angle_beta   90.00000000
_cell_angle_gamma   119.96629582
_symmetry_Int_Tables_number   1
_chemical_formula_structural   Er2Mn4Fe7CoP7
_chemical_formula_sum   'Er2 Mn4 Fe7 Co1 P7'
_cell_volume   256.12038064
_cell_formula_units_Z   1
loop_
 _symmetry_equiv_pos_site_id
 _symmetry_equiv_pos_as_xyz
  1  'x, y, z'
loop_
 _atom_site_type_symbol
 _atom_site_label
 _atom_site_symmetry_multiplicity
 _atom_site_fract_x
 _atom_site_fract_y
 _atom_site_fract_z
 _atom_site_occupancy
  Er  Er0  1  0.334967  0.672972  0.000000  1
  Er  Er1  1  0.998709  0.995211  0.500000  1
  Mn  Mn2  1  0.278347  0.381974  0.500000  1
  Mn  Mn3  1  0.791418  0.226423  0.500000  1
  Mn  Mn4  1  0.769637  0.557720  0.500000  1
  Mn  Mn5  1  0.439509  0.209921  0.500000  1
  Fe  Fe6  1  0.043795  0.280791  0.000000  1
  Fe  Fe7  1  0.724881  0.762616  0.000000  1
  Fe  Fe8  1  0.239614  0.961184  0.000000  1
  Fe  Fe9  1  0.549723  0.060400  0.000000  1
  Fe  Fe10  1  0.937812  0.486095  0.000000  1
  Fe  Fe11  1  0.507741  0.453251  0.000000  1
  Fe  Fe12  1  0.101760  0.719570  0.500000  1
  Co  Co13  1  0.615474  0.897696  0.500000  1
  P  P14  1  0.780608  0.033410  0.000000  1
  P  P15  1  0.967461  0.744532  0.000000  1
  P  P16  1  0.253686  0.209678  0.000000  1
  P  P17  1  0.377047  0.928069  0.500000  1
  P  P18  1  0.071830  0.459446  0.500000  1
  P  P19  1  0.552572  0.626866  0.500000  1
  P  P20  1  0.663408  0.332179  0.000000  1
