# generated using pymatgen
data_Y2Sc2CrB12Os
_symmetry_space_group_name_H-M   'P 1'
_cell_length_a   3.51374400
_cell_length_b   8.99087018
_cell_length_c   11.37287901
_cell_angle_alpha   90.00889047
_cell_angle_beta   90.00000000
_cell_angle_gamma   90.00000000
_symmetry_Int_Tables_number   1
_chemical_formula_structural   Y2Sc2CrB12Os
_chemical_formula_sum   'Y4 Sc4 Cr2 B24 Os2'
_cell_volume   359.28762381
_cell_formula_units_Z   2
loop_
 _symmetry_equiv_pos_site_id
 _symmetry_equiv_pos_as_xyz
  1  'x, y, z'
loop_
 _atom_site_type_symbol
 _atom_site_label
 _atom_site_symmetry_multiplicity
 _atom_site_fract_x
 _atom_site_fract_y
 _atom_site_fract_z
 _atom_site_occupancy
  Y  Y0  1  0.000000  0.819341  0.086428  1
  Y  Y1  1  0.000000  0.180659  0.913572  1
  Y  Y2  1  0.000000  0.322626  0.415065  1
  Y  Y3  1  0.000000  0.677374  0.584935  1
  Sc  Sc4  1  0.000000  0.446012  0.129432  1
  Sc  Sc5  1  0.000000  0.553988  0.870568  1
  Sc  Sc6  1  0.000000  0.942183  0.372147  1
  Sc  Sc7  1  0.000000  0.057817  0.627853  1
  Cr  Cr8  1  0.000000  0.641016  0.317689  1
  Cr  Cr9  1  0.000000  0.358984  0.682311  1
  B  B10  1  0.500000  0.054619  0.067678  1
  B  B11  1  0.500000  0.945381  0.932322  1
  B  B12  1  0.500000  0.554648  0.431934  1
  B  B13  1  0.500000  0.445352  0.568066  1
  B  B14  1  0.500000  0.253931  0.082228  1
  B  B15  1  0.500000  0.746069  0.917772  1
  B  B16  1  0.500000  0.752160  0.417674  1
  B  B17  1  0.500000  0.247840  0.582326  1
  B  B18  1  0.500000  0.294785  0.235402  1
  B  B19  1  0.500000  0.705215  0.764598  1
  B  B20  1  0.500000  0.793832  0.265441  1
  B  B21  1  0.500000  0.206168  0.734559  1
  B  B22  1  0.500000  0.128890  0.317064  1
  B  B23  1  0.500000  0.871110  0.682936  1
  B  B24  1  0.500000  0.629060  0.183828  1
  B  B25  1  0.500000  0.370940  0.816172  1
  B  B26  1  0.500000  0.482343  0.286218  1
  B  B27  1  0.500000  0.517657  0.713782  1
  B  B28  1  0.500000  0.981088  0.214557  1
  B  B29  1  0.500000  0.018912  0.785443  1
  B  B30  1  0.500000  0.097301  0.473531  1
  B  B31  1  0.500000  0.902699  0.526469  1
  B  B32  1  0.500000  0.597243  0.026303  1
  B  B33  1  0.500000  0.402757  0.973697  1
  Os  Os34  1  0.000000  0.140476  0.181371  1
  Os  Os35  1  0.000000  0.859524  0.818629  1
