# generated using pymatgen
data_KCeH9W
_symmetry_space_group_name_H-M   'P 1'
_cell_length_a   9.04255500
_cell_length_b   9.04255445
_cell_length_c   5.25986800
_cell_angle_alpha   90.00000000
_cell_angle_beta   90.00000000
_cell_angle_gamma   119.99999835
_symmetry_Int_Tables_number   1
_chemical_formula_structural   KCeH9W
_chemical_formula_sum   'K3 Ce3 H27 W3'
_cell_volume   372.46697848
_cell_formula_units_Z   3
loop_
 _symmetry_equiv_pos_site_id
 _symmetry_equiv_pos_as_xyz
  1  'x, y, z'
loop_
 _atom_site_type_symbol
 _atom_site_label
 _atom_site_symmetry_multiplicity
 _atom_site_fract_x
 _atom_site_fract_y
 _atom_site_fract_z
 _atom_site_occupancy
  K  K0  1  0.000000  0.601739  0.000000  1
  K  K1  1  0.398261  0.398261  0.000000  1
  K  K2  1  0.601739  0.000000  0.000000  1
  Ce  Ce3  1  0.000000  0.263835  0.500000  1
  Ce  Ce4  1  0.736165  0.736165  0.500000  1
  Ce  Ce5  1  0.263835  0.000000  0.500000  1
  H  H6  1  0.802288  0.325647  0.741175  1
  H  H7  1  0.674353  0.476640  0.741175  1
  H  H8  1  0.523360  0.197712  0.741175  1
  H  H9  1  0.197712  0.523360  0.258825  1
  H  H10  1  0.523360  0.197712  0.258825  1
  H  H11  1  0.802288  0.325647  0.258825  1
  H  H12  1  0.674353  0.476640  0.258825  1
  H  H13  1  0.325647  0.802288  0.741175  1
  H  H14  1  0.476640  0.674353  0.741175  1
  H  H15  1  0.199981  0.000000  0.000000  1
  H  H16  1  0.800019  0.800019  0.000000  1
  H  H17  1  0.000000  0.199981  0.000000  1
  H  H18  1  0.859052  0.000000  0.253381  1
  H  H19  1  0.140948  0.140948  0.746619  1
  H  H20  1  0.000000  0.859052  0.746619  1
  H  H21  1  0.000000  0.859052  0.253381  1
  H  H22  1  0.140948  0.140948  0.253381  1
  H  H23  1  0.859052  0.000000  0.746619  1
  H  H24  1  0.137271  0.665236  0.500000  1
  H  H25  1  0.527965  0.862729  0.500000  1
  H  H26  1  0.334764  0.472035  0.500000  1
  H  H27  1  0.472035  0.334764  0.500000  1
  H  H28  1  0.862729  0.527965  0.500000  1
  H  H29  1  0.665236  0.137271  0.500000  1
  H  H30  1  0.197712  0.523360  0.741175  1
  H  H31  1  0.325647  0.802288  0.258825  1
  H  H32  1  0.476640  0.674353  0.258825  1
  W  W33  1  0.666667  0.333333  0.500000  1
  W  W34  1  0.333333  0.666667  0.500000  1
  W  W35  1  0.000000  0.000000  0.000000  1
