# generated using pymatgen
data_Eu3In3Ag2Hg
_symmetry_space_group_name_H-M   'P 1'
_cell_length_a   8.06731500
_cell_length_b   8.06731462
_cell_length_c   4.36871200
_cell_angle_alpha   90.00000000
_cell_angle_beta   90.00000000
_cell_angle_gamma   120.00000567
_symmetry_Int_Tables_number   1
_chemical_formula_structural   Eu3In3Ag2Hg
_chemical_formula_sum   'Eu3 In3 Ag2 Hg1'
_cell_volume   246.23060472
_cell_formula_units_Z   1
loop_
 _symmetry_equiv_pos_site_id
 _symmetry_equiv_pos_as_xyz
  1  'x, y, z'
loop_
 _atom_site_type_symbol
 _atom_site_label
 _atom_site_symmetry_multiplicity
 _atom_site_fract_x
 _atom_site_fract_y
 _atom_site_fract_z
 _atom_site_occupancy
  Eu  Eu0  1  0.406382  0.996069  0.500000  1
  Eu  Eu1  1  0.003931  0.410312  0.500000  1
  Eu  Eu2  1  0.589687  0.593618  0.500000  1
  In  In3  1  0.751094  0.993072  0.000000  1
  In  In4  1  0.241978  0.248906  0.000000  1
  In  In5  1  0.006928  0.758022  0.000000  1
  Ag  Ag6  1  0.333333  0.666666  0.000000  1
  Ag  Ag7  1  0.000000  0.000000  0.500000  1
  Hg  Hg8  1  0.666667  0.333334  0.000000  1
