# generated using pymatgen
data_Yb7Ce(MgSn3)2
_symmetry_space_group_name_H-M   'P 1'
_cell_length_a   9.10082307
_cell_length_b   9.10082460
_cell_length_c   9.08580938
_cell_angle_alpha   96.63305993
_cell_angle_beta   96.21390787
_cell_angle_gamma   140.95198393
_symmetry_Int_Tables_number   1
_chemical_formula_structural   Yb7Ce(MgSn3)2
_chemical_formula_sum   'Yb7 Ce1 Mg2 Sn6'
_cell_volume   446.71853282
_cell_formula_units_Z   1
loop_
 _symmetry_equiv_pos_site_id
 _symmetry_equiv_pos_as_xyz
  1  'x, y, z'
loop_
 _atom_site_type_symbol
 _atom_site_label
 _atom_site_symmetry_multiplicity
 _atom_site_fract_x
 _atom_site_fract_y
 _atom_site_fract_z
 _atom_site_occupancy
  Yb  Yb0  1  0.916154  0.781900  0.698055  1
  Yb  Yb1  1  0.779883  0.082686  0.862569  1
  Yb  Yb2  1  0.413072  0.717895  0.130968  1
  Yb  Yb3  1  0.216818  0.915359  0.132177  1
  Yb  Yb4  1  0.581322  0.283063  0.864385  1
  Yb  Yb5  1  0.719703  0.579238  0.298941  1
  Yb  Yb6  1  0.285357  0.420381  0.705737  1
  Ce  Ce7  1  0.086470  0.220790  0.307260  1
  Mg  Mg8  1  0.251034  0.749779  0.502134  1
  Mg  Mg9  1  0.752355  0.251100  0.502134  1
  Sn  Sn10  1  0.151476  0.653833  0.805308  1
  Sn  Sn11  1  0.849644  0.344362  0.194007  1
  Sn  Sn12  1  0.343933  0.151051  0.494984  1
  Sn  Sn13  1  0.651832  0.842620  0.494452  1
  Sn  Sn14  1  0.247173  0.249672  0.003445  1
  Sn  Sn15  1  0.753772  0.756271  0.003445  1
