# generated using pymatgen
data_Hf6Ni20As3P10
_symmetry_space_group_name_H-M   'P 1'
_cell_length_a   12.58865171
_cell_length_b   12.62699526
_cell_length_c   3.63090900
_cell_angle_alpha   90.00000000
_cell_angle_beta   90.00000000
_cell_angle_gamma   120.07955942
_symmetry_Int_Tables_number   1
_chemical_formula_structural   Hf6Ni20As3P10
_chemical_formula_sum   'Hf6 Ni20 As3 P10'
_cell_volume   499.43215712
_cell_formula_units_Z   1
loop_
 _symmetry_equiv_pos_site_id
 _symmetry_equiv_pos_as_xyz
  1  'x, y, z'
loop_
 _atom_site_type_symbol
 _atom_site_label
 _atom_site_symmetry_multiplicity
 _atom_site_fract_x
 _atom_site_fract_y
 _atom_site_fract_z
 _atom_site_occupancy
  Hf  Hf0  1  0.523706  0.807914  0.000000  1
  Hf  Hf1  1  0.283200  0.476173  0.000000  1
  Hf  Hf2  1  0.192008  0.714125  0.000000  1
  Hf  Hf3  1  0.807980  0.282243  0.500000  1
  Hf  Hf4  1  0.481414  0.197201  0.500000  1
  Hf  Hf5  1  0.716808  0.518422  0.500000  1
  Ni  Ni6  1  0.793138  0.909386  0.000000  1
  Ni  Ni7  1  0.109655  0.208692  0.000000  1
  Ni  Ni8  1  0.092870  0.884854  0.000000  1
  Ni  Ni9  1  0.333085  0.666030  0.500000  1
  Ni  Ni10  1  0.912005  0.094109  0.500000  1
  Ni  Ni11  1  0.166984  0.086300  0.500000  1
  Ni  Ni12  1  0.917857  0.830941  0.500000  1
  Ni  Ni13  1  0.666963  0.332683  0.000000  1
  Ni  Ni14  1  0.556448  0.578445  0.000000  1
  Ni  Ni15  1  0.019123  0.435834  0.000000  1
  Ni  Ni16  1  0.421562  0.976991  0.000000  1
  Ni  Ni17  1  0.668707  0.751653  0.500000  1
  Ni  Ni18  1  0.074884  0.327498  0.500000  1
  Ni  Ni19  1  0.249049  0.916221  0.500000  1
  Ni  Ni20  1  0.980421  0.560037  0.500000  1
  Ni  Ni21  1  0.583370  0.020567  0.500000  1
  Ni  Ni22  1  0.438098  0.417756  0.500000  1
  Ni  Ni23  1  0.752439  0.083809  0.000000  1
  Ni  Ni24  1  0.329163  0.256163  0.000000  1
  Ni  Ni25  1  0.925121  0.667131  0.000000  1
  As  As26  1  0.289651  0.057054  0.000000  1
  As  As27  1  0.768431  0.711372  0.000000  1
  As  As28  1  0.000336  0.000527  0.000000  1
  P  P29  1  0.470925  0.613408  0.500000  1
  P  P30  1  0.141939  0.527479  0.500000  1
  P  P31  1  0.386833  0.856848  0.500000  1
  P  P32  1  0.709967  0.947610  0.500000  1
  P  P33  1  0.235230  0.291270  0.500000  1
  P  P34  1  0.053520  0.761356  0.500000  1
  P  P35  1  0.859452  0.468757  0.000000  1
  P  P36  1  0.612614  0.140982  0.000000  1
  P  P37  1  0.529520  0.388213  0.000000  1
  P  P38  1  0.945522  0.233947  0.000000  1
