# generated using pymatgen
data_Sc6NbAl13Os7W2
_symmetry_space_group_name_H-M   'P 1'
_cell_length_a   8.84573052
_cell_length_b   8.83271869
_cell_length_c   8.83271859
_cell_angle_alpha   59.86447112
_cell_angle_beta   59.82691706
_cell_angle_gamma   59.82686506
_symmetry_Int_Tables_number   1
_chemical_formula_structural   Sc6NbAl13Os7W2
_chemical_formula_sum   'Sc6 Nb1 Al13 Os7 W2'
_cell_volume   486.20756693
_cell_formula_units_Z   1
loop_
 _symmetry_equiv_pos_site_id
 _symmetry_equiv_pos_as_xyz
  1  'x, y, z'
loop_
 _atom_site_type_symbol
 _atom_site_label
 _atom_site_symmetry_multiplicity
 _atom_site_fract_x
 _atom_site_fract_y
 _atom_site_fract_z
 _atom_site_occupancy
  Sc  Sc0  1  0.713137  0.713411  0.277327  1
  Sc  Sc1  1  0.289795  0.710882  0.290699  1
  Sc  Sc2  1  0.711460  0.289855  0.289854  1
  Sc  Sc3  1  0.289791  0.290702  0.710887  1
  Sc  Sc4  1  0.713142  0.277326  0.713410  1
  Sc  Sc5  1  0.277866  0.712490  0.712490  1
  Nb  Nb6  1  0.363032  0.877397  0.877396  1
  Al  Al7  1  0.880875  0.880211  0.880212  1
  Al  Al8  1  0.120731  0.121082  0.638155  1
  Al  Al9  1  0.120729  0.638156  0.121081  1
  Al  Al10  1  0.636982  0.121274  0.121275  1
  Al  Al11  1  0.122271  0.122126  0.122127  1
  Al  Al12  1  0.666514  0.665511  0.008832  1
  Al  Al13  1  0.666515  0.008831  0.665511  1
  Al  Al14  1  0.009354  0.665869  0.665869  1
  Al  Al15  1  0.657933  0.657735  0.657733  1
  Al  Al16  1  0.335116  0.335803  0.996588  1
  Al  Al17  1  0.335115  0.996587  0.335802  1
  Al  Al18  1  0.995982  0.335539  0.335540  1
  Al  Al19  1  0.335302  0.335658  0.335658  1
  Os  Os20  1  0.997050  0.006487  0.006487  1
  Os  Os21  1  0.998237  0.998210  0.496962  1
  Os  Os22  1  0.507712  0.996819  0.500591  1
  Os  Os23  1  0.995805  0.504867  0.504866  1
  Os  Os24  1  0.507710  0.500594  0.996817  1
  Os  Os25  1  0.998233  0.496960  0.998212  1
  Os  Os26  1  0.500320  0.998751  0.998750  1
  W  W27  1  0.876647  0.875771  0.365097  1
  W  W28  1  0.876644  0.365098  0.875771  1
