# generated using pymatgen
data_Ho5(Th3Ru2)3
_symmetry_space_group_name_H-M   'P 1'
_cell_length_a   9.78323997
_cell_length_b   9.90015258
_cell_length_c   6.34532601
_cell_angle_alpha   90.20860756
_cell_angle_beta   90.13635294
_cell_angle_gamma   120.50114419
_symmetry_Int_Tables_number   1
_chemical_formula_structural   Ho5(Th3Ru2)3
_chemical_formula_sum   'Ho5 Th9 Ru6'
_cell_volume   529.52407195
_cell_formula_units_Z   1
loop_
 _symmetry_equiv_pos_site_id
 _symmetry_equiv_pos_as_xyz
  1  'x, y, z'
loop_
 _atom_site_type_symbol
 _atom_site_label
 _atom_site_symmetry_multiplicity
 _atom_site_fract_x
 _atom_site_fract_y
 _atom_site_fract_z
 _atom_site_occupancy
  Ho  Ho0  1  0.459597  0.536009  0.298891  1
  Ho  Ho1  1  0.073450  0.535366  0.300878  1
  Ho  Ho2  1  0.923642  0.459828  0.799328  1
  Ho  Ho3  1  0.251615  0.125569  0.507743  1
  Ho  Ho4  1  0.540921  0.078535  0.794799  1
  Th  Th5  1  0.747533  0.875974  0.011263  1
  Th  Th6  1  0.666489  0.332819  0.272480  1
  Th  Th7  1  0.127863  0.873464  0.005231  1
  Th  Th8  1  0.458843  0.922350  0.301127  1
  Th  Th9  1  0.537596  0.460887  0.796513  1
  Th  Th10  1  0.879420  0.132045  0.512839  1
  Th  Th11  1  0.126012  0.251374  0.010821  1
  Th  Th12  1  0.876172  0.747481  0.507327  1
  Th  Th13  1  0.333095  0.666101  0.771822  1
  Ru  Ru14  1  0.810022  0.629680  0.047526  1
  Ru  Ru15  1  0.818407  0.181779  0.051276  1
  Ru  Ru16  1  0.631959  0.819223  0.543615  1
  Ru  Ru17  1  0.371750  0.189800  0.041399  1
  Ru  Ru18  1  0.182295  0.374123  0.558875  1
  Ru  Ru19  1  0.183319  0.807593  0.550244  1
