# generated using pymatgen
data_Hf3Th(PN3)4
_symmetry_space_group_name_H-M   'P 1'
_cell_length_a   6.69930228
_cell_length_b   6.69930176
_cell_length_c   5.35088227
_cell_angle_alpha   78.63110047
_cell_angle_beta   78.63110306
_cell_angle_gamma   84.87982883
_symmetry_Int_Tables_number   1
_chemical_formula_structural   Hf3Th(PN3)4
_chemical_formula_sum   'Hf3 Th1 P4 N12'
_cell_volume   230.50179747
_cell_formula_units_Z   1
loop_
 _symmetry_equiv_pos_site_id
 _symmetry_equiv_pos_as_xyz
  1  'x, y, z'
loop_
 _atom_site_type_symbol
 _atom_site_label
 _atom_site_symmetry_multiplicity
 _atom_site_fract_x
 _atom_site_fract_y
 _atom_site_fract_z
 _atom_site_occupancy
  Hf  Hf0  1  0.905161  0.094839  0.250000  1
  Hf  Hf1  1  0.323665  0.676335  0.250000  1
  Hf  Hf2  1  0.106729  0.893271  0.750000  1
  Th  Th3  1  0.677043  0.322957  0.750000  1
  P  P4  1  0.195458  0.381975  0.759558  1
  P  P5  1  0.377827  0.197473  0.264347  1
  P  P6  1  0.802527  0.622173  0.235653  1
  P  P7  1  0.618025  0.804542  0.740442  1
  N  N8  1  0.316331  0.385343  0.013166  1
  N  N9  1  0.028076  0.209626  0.847993  1
  N  N10  1  0.987691  0.777846  0.151128  1
  N  N11  1  0.372596  0.337726  0.495477  1
  N  N12  1  0.610744  0.125686  0.169583  1
  N  N13  1  0.388670  0.874314  0.858467  1
  N  N14  1  0.874314  0.389256  0.330417  1
  N  N15  1  0.662274  0.627404  0.004523  1
  N  N16  1  0.790374  0.971924  0.652007  1
  N  N17  1  0.125686  0.611330  0.641533  1
  N  N18  1  0.222154  0.012309  0.348872  1
  N  N19  1  0.614657  0.683669  0.486834  1
