# generated using pymatgen
data_Nd4Al11Ga6SiIr6
_symmetry_space_group_name_H-M   'P 1'
_cell_length_a   7.58438195
_cell_length_b   7.57409593
_cell_length_c   9.69404109
_cell_angle_alpha   90.05503400
_cell_angle_beta   89.84496531
_cell_angle_gamma   119.68572225
_symmetry_Int_Tables_number   1
_chemical_formula_structural   Nd4Al11Ga6SiIr6
_chemical_formula_sum   'Nd4 Al11 Ga6 Si1 Ir6'
_cell_volume   483.78401690
_cell_formula_units_Z   1
loop_
 _symmetry_equiv_pos_site_id
 _symmetry_equiv_pos_as_xyz
  1  'x, y, z'
loop_
 _atom_site_type_symbol
 _atom_site_label
 _atom_site_symmetry_multiplicity
 _atom_site_fract_x
 _atom_site_fract_y
 _atom_site_fract_z
 _atom_site_occupancy
  Nd  Nd0  1  0.997060  0.664010  0.247260  1
  Nd  Nd1  1  0.002841  0.331103  0.753175  1
  Nd  Nd2  1  0.674546  0.003055  0.247219  1
  Nd  Nd3  1  0.330241  0.003423  0.750390  1
  Al  Al4  1  0.995634  0.669933  0.926745  1
  Al  Al5  1  0.997161  0.665970  0.570614  1
  Al  Al6  1  0.334222  0.000987  0.428845  1
  Al  Al7  1  0.003460  0.334409  0.432605  1
  Al  Al8  1  0.665296  0.997023  0.570693  1
  Al  Al9  1  0.660171  0.991602  0.926585  1
  Al  Al10  1  0.333644  0.001914  0.072089  1
  Al  Al11  1  0.335360  0.334596  0.551654  1
  Al  Al12  1  0.666498  0.666565  0.447033  1
  Al  Al13  1  0.664921  0.665638  0.054505  1
  Al  Al14  1  0.337446  0.335200  0.948684  1
  Ga  Ga15  1  0.132172  0.128913  0.250716  1
  Ga  Ga16  1  0.870575  0.872349  0.749903  1
  Ga  Ga17  1  0.344124  0.547340  0.251252  1
  Ga  Ga18  1  0.660886  0.454217  0.750184  1
  Ga  Ga19  1  0.544332  0.339883  0.249864  1
  Ga  Ga20  1  0.452968  0.658610  0.750010  1
  Si  Si21  1  0.000448  0.334295  0.068479  1
  Ir  Ir22  1  0.677284  0.328949  0.000803  1
  Ir  Ir23  1  0.319446  0.661752  0.001149  1
  Ir  Ir24  1  0.328822  0.669974  0.499938  1
  Ir  Ir25  1  0.671101  0.329207  0.499282  1
  Ir  Ir26  1  0.999336  0.008514  0.001020  1
  Ir  Ir27  1  0.000006  0.000570  0.499303  1
