# generated using pymatgen
data_Ca2NdTaO6
_symmetry_space_group_name_H-M   'P 1'
_cell_length_a   5.93078780
_cell_length_b   5.65508064
_cell_length_c   9.95430749
_cell_angle_alpha   55.60700465
_cell_angle_beta   89.41299710
_cell_angle_gamma   89.72909002
_symmetry_Int_Tables_number   1
_chemical_formula_structural   Ca2NdTaO6
_chemical_formula_sum   'Ca4 Nd2 Ta2 O12'
_cell_volume   275.47940160
_cell_formula_units_Z   2
loop_
 _symmetry_equiv_pos_site_id
 _symmetry_equiv_pos_as_xyz
  1  'x, y, z'
loop_
 _atom_site_type_symbol
 _atom_site_label
 _atom_site_symmetry_multiplicity
 _atom_site_fract_x
 _atom_site_fract_y
 _atom_site_fract_z
 _atom_site_occupancy
  Ca  Ca0  1  0.549794  0.272548  0.742004  1
  Ca  Ca1  1  0.450206  0.727452  0.257996  1
  Ca  Ca2  1  0.500000  0.500000  0.000000  1
  Ca  Ca3  1  0.000000  0.500000  0.500000  1
  Nd  Nd4  1  0.060751  0.728260  0.754433  1
  Nd  Nd5  1  0.939249  0.271740  0.245567  1
  Ta  Ta6  1  0.500000  0.000000  0.500000  1
  Ta  Ta7  1  0.000000  0.000000  0.000000  1
  O  O8  1  0.444366  0.893735  0.728333  1
  O  O9  1  0.555634  0.106265  0.271667  1
  O  O10  1  0.939927  0.109630  0.771828  1
  O  O11  1  0.060073  0.890370  0.228172  1
  O  O12  1  0.787392  0.764247  0.568555  1
  O  O13  1  0.212608  0.235753  0.431445  1
  O  O14  1  0.275847  0.254647  0.921175  1
  O  O15  1  0.724153  0.745353  0.078825  1
  O  O16  1  0.316118  0.658265  0.560626  1
  O  O17  1  0.683882  0.341735  0.439374  1
  O  O18  1  0.827462  0.343799  0.953387  1
  O  O19  1  0.172538  0.656201  0.046613  1
