# generated using pymatgen
data_Pr2Nd2Y2OsI10
_symmetry_space_group_name_H-M   'P 1'
_cell_length_a   7.91580089
_cell_length_b   9.99025626
_cell_length_c   9.97992617
_cell_angle_alpha   107.30860040
_cell_angle_beta   96.21138321
_cell_angle_gamma   104.59470240
_symmetry_Int_Tables_number   1
_chemical_formula_structural   Pr2Nd2Y2OsI10
_chemical_formula_sum   'Pr2 Nd2 Y2 Os1 I10'
_cell_volume   714.69636412
_cell_formula_units_Z   1
loop_
 _symmetry_equiv_pos_site_id
 _symmetry_equiv_pos_as_xyz
  1  'x, y, z'
loop_
 _atom_site_type_symbol
 _atom_site_label
 _atom_site_symmetry_multiplicity
 _atom_site_fract_x
 _atom_site_fract_y
 _atom_site_fract_z
 _atom_site_occupancy
  Pr  Pr0  1  0.116815  0.041948  0.758995  1
  Pr  Pr1  1  0.883185  0.958052  0.241005  1
  Nd  Nd2  1  0.967601  0.281977  0.084126  1
  Nd  Nd3  1  0.032399  0.718023  0.915874  1
  Y  Y4  1  0.351023  0.125696  0.167131  1
  Y  Y5  1  0.648977  0.874304  0.832869  1
  Os  Os6  1  0.000000  0.000000  0.000000  1
  I  I7  1  0.353582  0.443457  0.270634  1
  I  I8  1  0.646418  0.556543  0.729366  1
  I  I9  1  0.263687  0.088072  0.453550  1
  I  I10  1  0.736313  0.911928  0.546450  1
  I  I11  1  0.087372  0.369779  0.817243  1
  I  I12  1  0.912628  0.630221  0.182757  1
  I  I13  1  0.454667  0.821320  0.088805  1
  I  I14  1  0.545333  0.178680  0.911195  1
  I  I15  1  0.770180  0.255916  0.346125  1
  I  I16  1  0.229820  0.744084  0.653875  1
