# generated using pymatgen
data_TbDyHPd6
_symmetry_space_group_name_H-M   'P 1'
_cell_length_a   5.89683533
_cell_length_b   5.89683538
_cell_length_c   5.89683500
_cell_angle_alpha   59.99999652
_cell_angle_beta   59.99999622
_cell_angle_gamma   60.00000426
_symmetry_Int_Tables_number   1
_chemical_formula_structural   TbDyHPd6
_chemical_formula_sum   'Tb1 Dy1 H1 Pd6'
_cell_volume   144.99130943
_cell_formula_units_Z   1
loop_
 _symmetry_equiv_pos_site_id
 _symmetry_equiv_pos_as_xyz
  1  'x, y, z'
loop_
 _atom_site_type_symbol
 _atom_site_label
 _atom_site_symmetry_multiplicity
 _atom_site_fract_x
 _atom_site_fract_y
 _atom_site_fract_z
 _atom_site_occupancy
  Tb  Tb0  1  0.250000  0.250000  0.250000  1
  Dy  Dy1  1  0.750000  0.750000  0.750000  1
  H  H2  1  0.500000  0.500000  0.500000  1
  Pd  Pd3  1  0.751159  0.248841  0.248841  1
  Pd  Pd4  1  0.248841  0.751159  0.248841  1
  Pd  Pd5  1  0.751159  0.751159  0.248841  1
  Pd  Pd6  1  0.248841  0.248841  0.751159  1
  Pd  Pd7  1  0.751159  0.248841  0.751159  1
  Pd  Pd8  1  0.248841  0.751159  0.751159  1
