# generated using pymatgen
data_Er6Tm4ZnSb5
_symmetry_space_group_name_H-M   'P 1'
_cell_length_a   8.80289900
_cell_length_b   8.81644412
_cell_length_c   6.32662400
_cell_angle_alpha   90.00000000
_cell_angle_beta   90.00000000
_cell_angle_gamma   119.94918730
_symmetry_Int_Tables_number   1
_chemical_formula_structural   Er6Tm4ZnSb5
_chemical_formula_sum   'Er6 Tm4 Zn1 Sb5'
_cell_volume   425.44553992
_cell_formula_units_Z   1
loop_
 _symmetry_equiv_pos_site_id
 _symmetry_equiv_pos_as_xyz
  1  'x, y, z'
loop_
 _atom_site_type_symbol
 _atom_site_label
 _atom_site_symmetry_multiplicity
 _atom_site_fract_x
 _atom_site_fract_y
 _atom_site_fract_z
 _atom_site_occupancy
  Er  Er0  1  0.246449  0.000000  0.250000  1
  Er  Er1  1  0.758529  0.000000  0.750000  1
  Er  Er2  1  0.985030  0.232232  0.250000  1
  Er  Er3  1  0.752799  0.767768  0.250000  1
  Er  Er4  1  0.243723  0.242229  0.750000  1
  Er  Er5  1  0.001493  0.757771  0.750000  1
  Tm  Tm6  1  0.342648  0.677716  0.000419  1
  Tm  Tm7  1  0.664934  0.322284  0.499581  1
  Tm  Tm8  1  0.664934  0.322284  0.000419  1
  Tm  Tm9  1  0.342648  0.677716  0.499581  1
  Zn  Zn10  1  0.603208  0.000000  0.250000  1
  Sb  Sb11  1  0.392645  0.000000  0.750000  1
  Sb  Sb12  1  0.997410  0.609169  0.250000  1
  Sb  Sb13  1  0.388242  0.390831  0.250000  1
  Sb  Sb14  1  0.610563  0.605819  0.750000  1
  Sb  Sb15  1  0.004744  0.394181  0.750000  1
