# generated using pymatgen
data_Cs3Np2TlTe6
_symmetry_space_group_name_H-M   'P 1'
_cell_length_a   8.13170566
_cell_length_b   8.13170620
_cell_length_c   8.95783100
_cell_angle_alpha   81.34215647
_cell_angle_beta   81.34214877
_cell_angle_gamma   120.12796106
_symmetry_Int_Tables_number   1
_chemical_formula_structural   Cs3Np2TlTe6
_chemical_formula_sum   'Cs3 Np2 Tl1 Te6'
_cell_volume   488.44871465
_cell_formula_units_Z   1
loop_
 _symmetry_equiv_pos_site_id
 _symmetry_equiv_pos_as_xyz
  1  'x, y, z'
loop_
 _atom_site_type_symbol
 _atom_site_label
 _atom_site_symmetry_multiplicity
 _atom_site_fract_x
 _atom_site_fract_y
 _atom_site_fract_z
 _atom_site_occupancy
  Cs  Cs0  1  0.651198  0.348802  0.500000  1
  Cs  Cs1  1  0.348802  0.651198  0.500000  1
  Cs  Cs2  1  0.000000  0.000000  0.500000  1
  Np  Np3  1  0.832145  0.167855  0.000000  1
  Np  Np4  1  0.167855  0.832145  0.000000  1
  Tl  Tl5  1  0.500000  0.500000  0.000000  1
  Te  Te6  1  0.802274  0.802274  0.188424  1
  Te  Te7  1  0.197726  0.197726  0.811576  1
  Te  Te8  1  0.434009  0.066333  0.196852  1
  Te  Te9  1  0.565991  0.933667  0.803148  1
  Te  Te10  1  0.933667  0.565991  0.803148  1
  Te  Te11  1  0.066333  0.434009  0.196852  1
