# generated using pymatgen
data_Dy5Y6Ho9(Cd3Ru)2
_symmetry_space_group_name_H-M   'P 1'
_cell_length_a   9.59617200
_cell_length_b   9.59660189
_cell_length_c   9.82659700
_cell_angle_alpha   89.99999812
_cell_angle_beta   90.00073154
_cell_angle_gamma   120.00148109
_symmetry_Int_Tables_number   1
_chemical_formula_structural   Dy5Y6Ho9(Cd3Ru)2
_chemical_formula_sum   'Dy5 Y6 Ho9 Cd6 Ru2'
_cell_volume   783.68728030
_cell_formula_units_Z   1
loop_
 _symmetry_equiv_pos_site_id
 _symmetry_equiv_pos_as_xyz
  1  'x, y, z'
loop_
 _atom_site_type_symbol
 _atom_site_label
 _atom_site_symmetry_multiplicity
 _atom_site_fract_x
 _atom_site_fract_y
 _atom_site_fract_z
 _atom_site_occupancy
  Dy  Dy0  1  0.209870  0.790179  0.439771  1
  Dy  Dy1  1  0.209870  0.419691  0.439771  1
  Dy  Dy2  1  0.580290  0.790145  0.439761  1
  Dy  Dy3  1  0.790090  0.209862  0.560252  1
  Dy  Dy4  1  0.790090  0.580228  0.560252  1
  Y  Y5  1  0.541150  0.458806  0.249929  1
  Y  Y6  1  0.541150  0.082344  0.249929  1
  Y  Y7  1  0.917675  0.458837  0.249902  1
  Y  Y8  1  0.458832  0.541128  0.750080  1
  Y  Y9  1  0.458832  0.917706  0.750080  1
  Y  Y10  1  0.082340  0.541171  0.750104  1
  Ho  Ho11  1  0.000042  0.000021  0.500009  1
  Ho  Ho12  1  0.999998  0.999999  0.000005  1
  Ho  Ho13  1  0.419739  0.209869  0.560234  1
  Ho  Ho14  1  0.790080  0.209897  0.939805  1
  Ho  Ho15  1  0.790080  0.580183  0.939805  1
  Ho  Ho16  1  0.419843  0.209922  0.939769  1
  Ho  Ho17  1  0.209914  0.790090  0.060197  1
  Ho  Ho18  1  0.209914  0.419824  0.060197  1
  Ho  Ho19  1  0.580182  0.790091  0.060185  1
  Cd  Cd20  1  0.885475  0.114529  0.249952  1
  Cd  Cd21  1  0.885475  0.770947  0.249952  1
  Cd  Cd22  1  0.229071  0.114536  0.249970  1
  Cd  Cd23  1  0.114543  0.885485  0.750042  1
  Cd  Cd24  1  0.114543  0.229057  0.750042  1
  Cd  Cd25  1  0.770947  0.885473  0.750052  1
  Ru  Ru26  1  0.333332  0.666667  0.249895  1
  Ru  Ru27  1  0.666632  0.333316  0.750059  1
