# generated using pymatgen
data_Ce2TmLu5(ReB6)4
_symmetry_space_group_name_H-M   'P 1'
_cell_length_a   3.66040600
_cell_length_b   9.10927009
_cell_length_c   11.48483100
_cell_angle_alpha   90.10026688
_cell_angle_beta   90.00000000
_cell_angle_gamma   90.00000000
_symmetry_Int_Tables_number   1
_chemical_formula_structural   Ce2TmLu5(ReB6)4
_chemical_formula_sum   'Ce2 Tm1 Lu5 Re4 B24'
_cell_volume   382.94533344
_cell_formula_units_Z   1
loop_
 _symmetry_equiv_pos_site_id
 _symmetry_equiv_pos_as_xyz
  1  'x, y, z'
loop_
 _atom_site_type_symbol
 _atom_site_label
 _atom_site_symmetry_multiplicity
 _atom_site_fract_x
 _atom_site_fract_y
 _atom_site_fract_z
 _atom_site_occupancy
  Ce  Ce0  1  0.000000  0.321517  0.413551  1
  Ce  Ce1  1  0.000000  0.678459  0.586448  1
  Tm  Tm2  1  0.000000  0.823833  0.085290  1
  Lu  Lu3  1  0.000000  0.176063  0.914726  1
  Lu  Lu4  1  0.000000  0.943985  0.369972  1
  Lu  Lu5  1  0.000000  0.056140  0.630057  1
  Lu  Lu6  1  0.000000  0.443118  0.127778  1
  Lu  Lu7  1  0.000000  0.556756  0.872145  1
  Re  Re8  1  0.000000  0.638807  0.319999  1
  Re  Re9  1  0.000000  0.360983  0.680186  1
  Re  Re10  1  0.000000  0.139347  0.179161  1
  Re  Re11  1  0.000000  0.860979  0.820700  1
  B  B12  1  0.500000  0.554602  0.430848  1
  B  B13  1  0.500000  0.445271  0.569203  1
  B  B14  1  0.500000  0.053573  0.065765  1
  B  B15  1  0.500000  0.946799  0.934001  1
  B  B16  1  0.500000  0.751275  0.416658  1
  B  B17  1  0.500000  0.248734  0.583429  1
  B  B18  1  0.500000  0.249903  0.079400  1
  B  B19  1  0.500000  0.750131  0.920189  1
  B  B20  1  0.500000  0.793369  0.263569  1
  B  B21  1  0.500000  0.206507  0.736702  1
  B  B22  1  0.500000  0.291960  0.232738  1
  B  B23  1  0.500000  0.708067  0.767181  1
  B  B24  1  0.500000  0.630926  0.183288  1
  B  B25  1  0.500000  0.368801  0.816909  1
  B  B26  1  0.500000  0.129973  0.313489  1
  B  B27  1  0.500000  0.870190  0.686548  1
  B  B28  1  0.500000  0.981644  0.210984  1
  B  B29  1  0.500000  0.018757  0.789117  1
  B  B30  1  0.500000  0.482976  0.285346  1
  B  B31  1  0.500000  0.516879  0.714720  1
  B  B32  1  0.500000  0.600286  0.027774  1
  B  B33  1  0.500000  0.399322  0.972095  1
  B  B34  1  0.500000  0.099791  0.472311  1
  B  B35  1  0.500000  0.900278  0.527722  1
