# generated using pymatgen
data_Dy8AlPt24
_symmetry_space_group_name_H-M   'P 1'
_cell_length_a   8.36317400
_cell_length_b   8.36317400
_cell_length_c   8.36317400
_cell_angle_alpha   90.00000000
_cell_angle_beta   90.00000000
_cell_angle_gamma   90.00000000
_symmetry_Int_Tables_number   1
_chemical_formula_structural   Dy8AlPt24
_chemical_formula_sum   'Dy8 Al1 Pt24'
_cell_volume   584.94279747
_cell_formula_units_Z   1
loop_
 _symmetry_equiv_pos_site_id
 _symmetry_equiv_pos_as_xyz
  1  'x, y, z'
loop_
 _atom_site_type_symbol
 _atom_site_label
 _atom_site_symmetry_multiplicity
 _atom_site_fract_x
 _atom_site_fract_y
 _atom_site_fract_z
 _atom_site_occupancy
  Dy  Dy0  1  0.251485  0.251485  0.251485  1
  Dy  Dy1  1  0.748515  0.748515  0.748515  1
  Dy  Dy2  1  0.748515  0.748515  0.251485  1
  Dy  Dy3  1  0.748515  0.251485  0.748515  1
  Dy  Dy4  1  0.251485  0.251485  0.748515  1
  Dy  Dy5  1  0.251485  0.748515  0.251485  1
  Dy  Dy6  1  0.251485  0.748515  0.748515  1
  Dy  Dy7  1  0.748515  0.251485  0.251485  1
  Al  Al8  1  0.000000  0.000000  0.000000  1
  Pt  Pt9  1  0.260611  0.500000  0.000000  1
  Pt  Pt10  1  0.739389  0.500000  0.000000  1
  Pt  Pt11  1  0.000000  0.260611  0.500000  1
  Pt  Pt12  1  0.500000  0.260611  0.000000  1
  Pt  Pt13  1  0.000000  0.739389  0.500000  1
  Pt  Pt14  1  0.500000  0.739389  0.000000  1
  Pt  Pt15  1  0.500000  0.000000  0.260611  1
  Pt  Pt16  1  0.260611  0.000000  0.500000  1
  Pt  Pt17  1  0.500000  0.000000  0.739389  1
  Pt  Pt18  1  0.739389  0.000000  0.500000  1
  Pt  Pt19  1  0.000000  0.500000  0.260611  1
  Pt  Pt20  1  0.000000  0.500000  0.739389  1
  Pt  Pt21  1  0.253188  0.500000  0.500000  1
  Pt  Pt22  1  0.746812  0.500000  0.500000  1
  Pt  Pt23  1  0.500000  0.253188  0.500000  1
  Pt  Pt24  1  0.500000  0.746812  0.500000  1
  Pt  Pt25  1  0.500000  0.500000  0.253188  1
  Pt  Pt26  1  0.500000  0.500000  0.746812  1
  Pt  Pt27  1  0.291820  0.000000  0.000000  1
  Pt  Pt28  1  0.708180  0.000000  0.000000  1
  Pt  Pt29  1  0.000000  0.291820  0.000000  1
  Pt  Pt30  1  0.000000  0.708180  0.000000  1
  Pt  Pt31  1  0.000000  0.000000  0.291820  1
  Pt  Pt32  1  0.000000  0.000000  0.708180  1
