# generated using pymatgen
data_ErPa3(CdPt2)2
_symmetry_space_group_name_H-M   'P 1'
_cell_length_a   7.84138281
_cell_length_b   7.84138281
_cell_length_c   3.62398600
_cell_angle_alpha   90.00000000
_cell_angle_beta   90.00000000
_cell_angle_gamma   90.84226776
_symmetry_Int_Tables_number   1
_chemical_formula_structural   ErPa3(CdPt2)2
_chemical_formula_sum   'Er1 Pa3 Cd2 Pt4'
_cell_volume   222.80498174
_cell_formula_units_Z   1
loop_
 _symmetry_equiv_pos_site_id
 _symmetry_equiv_pos_as_xyz
  1  'x, y, z'
loop_
 _atom_site_type_symbol
 _atom_site_label
 _atom_site_symmetry_multiplicity
 _atom_site_fract_x
 _atom_site_fract_y
 _atom_site_fract_z
 _atom_site_occupancy
  Er  Er0  1  0.671416  0.828584  0.500001  1
  Pa  Pa1  1  0.333302  0.166697  0.500001  1
  Pa  Pa2  1  0.829520  0.331122  0.500001  1
  Pa  Pa3  1  0.168877  0.670480  0.500001  1
  Cd  Cd4  1  0.994795  0.998613  0.000000  1
  Cd  Cd5  1  0.501388  0.505206  0.000000  1
  Pt  Pt6  1  0.628240  0.140054  0.000000  1
  Pt  Pt7  1  0.135970  0.364030  0.000000  1
  Pt  Pt8  1  0.876544  0.623456  0.000000  1
  Pt  Pt9  1  0.359946  0.871760  0.000000  1
