# generated using pymatgen
data_Ce2ErTm2AgPb3
_symmetry_space_group_name_H-M   'P 1'
_cell_length_a   9.49693601
_cell_length_b   9.49693640
_cell_length_c   6.44194300
_cell_angle_alpha   90.00000000
_cell_angle_beta   90.00000000
_cell_angle_gamma   119.99391461
_symmetry_Int_Tables_number   1
_chemical_formula_structural   Ce2ErTm2AgPb3
_chemical_formula_sum   'Ce4 Er2 Tm4 Ag2 Pb6'
_cell_volume   503.20063279
_cell_formula_units_Z   2
loop_
 _symmetry_equiv_pos_site_id
 _symmetry_equiv_pos_as_xyz
  1  'x, y, z'
loop_
 _atom_site_type_symbol
 _atom_site_label
 _atom_site_symmetry_multiplicity
 _atom_site_fract_x
 _atom_site_fract_y
 _atom_site_fract_z
 _atom_site_occupancy
  Ce  Ce0  1  0.666588  0.333360  0.499824  1
  Ce  Ce1  1  0.333360  0.666588  0.499824  1
  Ce  Ce2  1  0.333360  0.666588  0.000176  1
  Ce  Ce3  1  0.666588  0.333360  0.000176  1
  Er  Er4  1  0.724717  0.999852  0.750000  1
  Er  Er5  1  0.999852  0.724717  0.750000  1
  Tm  Tm6  1  0.724774  0.724774  0.250000  1
  Tm  Tm7  1  0.275389  0.999969  0.250000  1
  Tm  Tm8  1  0.999969  0.275389  0.250000  1
  Tm  Tm9  1  0.274962  0.274962  0.750000  1
  Ag  Ag10  1  0.000464  0.000464  0.499022  1
  Ag  Ag11  1  0.000464  0.000464  0.000978  1
  Pb  Pb12  1  0.372298  0.372298  0.250000  1
  Pb  Pb13  1  0.627626  0.999992  0.250000  1
  Pb  Pb14  1  0.999992  0.627626  0.250000  1
  Pb  Pb15  1  0.626986  0.626986  0.750000  1
  Pb  Pb16  1  0.372341  0.000270  0.750000  1
  Pb  Pb17  1  0.000270  0.372341  0.750000  1
