# generated using pymatgen
data_Tm4Lu4Mn(B8Ir)3
_symmetry_space_group_name_H-M   'P 1'
_cell_length_a   3.57551300
_cell_length_b   9.04396300
_cell_length_c   11.41108213
_cell_angle_alpha   89.96633119
_cell_angle_beta   90.00000000
_cell_angle_gamma   90.00000000
_symmetry_Int_Tables_number   1
_chemical_formula_structural   Tm4Lu4Mn(B8Ir)3
_chemical_formula_sum   'Tm4 Lu4 Mn1 B24 Ir3'
_cell_volume   368.99790008
_cell_formula_units_Z   1
loop_
 _symmetry_equiv_pos_site_id
 _symmetry_equiv_pos_as_xyz
  1  'x, y, z'
loop_
 _atom_site_type_symbol
 _atom_site_label
 _atom_site_symmetry_multiplicity
 _atom_site_fract_x
 _atom_site_fract_y
 _atom_site_fract_z
 _atom_site_occupancy
  Tm  Tm0  1  0.000000  0.325691  0.411930  1
  Tm  Tm1  1  0.000000  0.678630  0.580741  1
  Tm  Tm2  1  0.000000  0.815898  0.091255  1
  Tm  Tm3  1  0.000000  0.180234  0.913953  1
  Lu  Lu4  1  0.000000  0.938026  0.374151  1
  Lu  Lu5  1  0.000000  0.056228  0.624600  1
  Lu  Lu6  1  0.000000  0.447950  0.128995  1
  Lu  Lu7  1  0.000000  0.556658  0.874519  1
  Mn  Mn8  1  0.000000  0.638021  0.320268  1
  B  B9  1  0.500000  0.554317  0.431924  1
  B  B10  1  0.500000  0.447350  0.564791  1
  B  B11  1  0.500000  0.052974  0.066205  1
  B  B12  1  0.500000  0.946459  0.934925  1
  B  B13  1  0.500000  0.747192  0.417860  1
  B  B14  1  0.500000  0.249917  0.578016  1
  B  B15  1  0.500000  0.251608  0.079950  1
  B  B16  1  0.500000  0.749578  0.921682  1
  B  B17  1  0.500000  0.790344  0.266498  1
  B  B18  1  0.500000  0.206889  0.735557  1
  B  B19  1  0.500000  0.293559  0.235079  1
  B  B20  1  0.500000  0.707414  0.764173  1
  B  B21  1  0.500000  0.630874  0.186599  1
  B  B22  1  0.500000  0.368696  0.817286  1
  B  B23  1  0.500000  0.130517  0.316648  1
  B  B24  1  0.500000  0.868935  0.682360  1
  B  B25  1  0.500000  0.979838  0.213469  1
  B  B26  1  0.500000  0.019674  0.786184  1
  B  B27  1  0.500000  0.484241  0.287920  1
  B  B28  1  0.500000  0.519910  0.712839  1
  B  B29  1  0.500000  0.606186  0.029316  1
  B  B30  1  0.500000  0.394397  0.971215  1
  B  B31  1  0.500000  0.106340  0.470450  1
  B  B32  1  0.500000  0.893094  0.529131  1
  Ir  Ir33  1  0.000000  0.362013  0.679029  1
  Ir  Ir34  1  0.000000  0.138179  0.179224  1
  Ir  Ir35  1  0.000000  0.862170  0.821258  1
