# generated using pymatgen
data_Cs(NpSe2)4
_symmetry_space_group_name_H-M   'P 1'
_cell_length_a   10.67639261
_cell_length_b   10.67639266
_cell_length_c   10.67639300
_cell_angle_alpha   44.30392367
_cell_angle_beta   44.30392338
_cell_angle_gamma   44.30392603
_symmetry_Int_Tables_number   1
_chemical_formula_structural   Cs(NpSe2)4
_chemical_formula_sum   'Cs1 Np4 Se8'
_cell_volume   539.57648911
_cell_formula_units_Z   1
loop_
 _symmetry_equiv_pos_site_id
 _symmetry_equiv_pos_as_xyz
  1  'x, y, z'
loop_
 _atom_site_type_symbol
 _atom_site_label
 _atom_site_symmetry_multiplicity
 _atom_site_fract_x
 _atom_site_fract_y
 _atom_site_fract_z
 _atom_site_occupancy
  Cs  Cs0  1  0.500000  0.500000  0.500000  1
  Np  Np1  1  0.000000  0.500000  0.500000  1
  Np  Np2  1  0.500000  0.000000  0.500000  1
  Np  Np3  1  0.500000  0.500000  0.000000  1
  Np  Np4  1  0.000000  0.000000  0.000000  1
  Se  Se5  1  0.277321  0.777225  0.777225  1
  Se  Se6  1  0.222775  0.222775  0.722679  1
  Se  Se7  1  0.722679  0.222775  0.222775  1
  Se  Se8  1  0.222775  0.722679  0.222775  1
  Se  Se9  1  0.278105  0.278105  0.278105  1
  Se  Se10  1  0.721895  0.721895  0.721895  1
  Se  Se11  1  0.777225  0.277321  0.777225  1
  Se  Se12  1  0.777225  0.777225  0.277321  1
