# generated using pymatgen
data_Hf2Zr4MnSi6Ru5
_symmetry_space_group_name_H-M   'P 1'
_cell_length_a   7.64031154
_cell_length_b   7.63591537
_cell_length_c   7.63591603
_cell_angle_alpha   127.92348695
_cell_angle_beta   122.29365521
_cell_angle_gamma   81.42585823
_symmetry_Int_Tables_number   1
_chemical_formula_structural   Hf2Zr4MnSi6Ru5
_chemical_formula_sum   'Hf2 Zr4 Mn1 Si6 Ru5'
_cell_volume   286.12018533
_cell_formula_units_Z   1
loop_
 _symmetry_equiv_pos_site_id
 _symmetry_equiv_pos_as_xyz
  1  'x, y, z'
loop_
 _atom_site_type_symbol
 _atom_site_label
 _atom_site_symmetry_multiplicity
 _atom_site_fract_x
 _atom_site_fract_y
 _atom_site_fract_z
 _atom_site_occupancy
  Hf  Hf0  1  0.050319  0.255085  0.701190  1
  Hf  Hf1  1  0.949681  0.650870  0.204764  1
  Zr  Zr2  1  0.466425  0.695095  0.723819  1
  Zr  Zr3  1  0.533575  0.257394  0.228670  1
  Zr  Zr4  1  0.745729  0.830589  0.583300  1
  Zr  Zr5  1  0.254271  0.837570  0.084860  1
  Mn  Mn6  1  0.500000  0.497399  0.997399  1
  Si  Si7  1  0.273674  0.269807  0.495364  1
  Si  Si8  1  0.726326  0.221689  0.996133  1
  Si  Si9  1  0.326352  0.585325  0.243281  1
  Si  Si10  1  0.673648  0.916929  0.258973  1
  Si  Si11  1  0.160993  0.924401  0.749399  1
  Si  Si12  1  0.839007  0.588405  0.763407  1
  Ru  Ru13  1  0.000000  0.499399  0.499399  1
  Ru  Ru14  1  0.096003  0.255272  0.103218  1
  Ru  Ru15  1  0.903997  0.007216  0.159270  1
  Ru  Ru16  1  0.347181  0.010188  0.604151  1
  Ru  Ru17  1  0.652819  0.256969  0.663006  1
