# generated using pymatgen
data_La2Ti3VO10
_symmetry_space_group_name_H-M   'P 1'
_cell_length_a   5.88895700
_cell_length_b   7.86577700
_cell_length_c   8.88386600
_cell_angle_alpha   90.00000000
_cell_angle_beta   90.00000000
_cell_angle_gamma   90.00000000
_symmetry_Int_Tables_number   1
_chemical_formula_structural   La2Ti3VO10
_chemical_formula_sum   'La4 Ti6 V2 O20'
_cell_volume   411.51153386
_cell_formula_units_Z   2
loop_
 _symmetry_equiv_pos_site_id
 _symmetry_equiv_pos_as_xyz
  1  'x, y, z'
loop_
 _atom_site_type_symbol
 _atom_site_label
 _atom_site_symmetry_multiplicity
 _atom_site_fract_x
 _atom_site_fract_y
 _atom_site_fract_z
 _atom_site_occupancy
  La  La0  1  0.998104  0.354481  0.672770  1
  La  La1  1  0.998104  0.645519  0.327230  1
  La  La2  1  0.001896  0.854481  0.827230  1
  La  La3  1  0.001896  0.145519  0.172770  1
  Ti  Ti4  1  0.504772  0.116441  0.859209  1
  Ti  Ti5  1  0.504772  0.883559  0.140791  1
  Ti  Ti6  1  0.495228  0.616441  0.640791  1
  Ti  Ti7  1  0.495228  0.383559  0.359209  1
  Ti  Ti8  1  0.754880  0.500000  0.000000  1
  Ti  Ti9  1  0.245120  0.000000  0.500000  1
  V  V10  1  0.259032  0.500000  0.000000  1
  V  V11  1  0.740968  0.000000  0.500000  1
  O  O12  1  0.259856  0.903973  0.291255  1
  O  O13  1  0.259856  0.096027  0.708745  1
  O  O14  1  0.740144  0.403973  0.208745  1
  O  O15  1  0.740144  0.596027  0.791255  1
  O  O16  1  0.744268  0.101821  0.719535  1
  O  O17  1  0.744268  0.898179  0.280465  1
  O  O18  1  0.255732  0.601821  0.780465  1
  O  O19  1  0.255732  0.398179  0.219535  1
  O  O20  1  0.507383  0.331883  0.924658  1
  O  O21  1  0.507383  0.668117  0.075342  1
  O  O22  1  0.492617  0.831883  0.575342  1
  O  O23  1  0.492617  0.168117  0.424658  1
  O  O24  1  0.281663  0.000000  0.000000  1
  O  O25  1  0.718337  0.500000  0.500000  1
  O  O26  1  0.714169  0.000000  0.000000  1
  O  O27  1  0.285831  0.500000  0.500000  1
  O  O28  1  0.015779  0.161206  0.447686  1
  O  O29  1  0.015779  0.838794  0.552314  1
  O  O30  1  0.984221  0.661206  0.052314  1
  O  O31  1  0.984221  0.338794  0.947686  1
