# generated using pymatgen
data_YbTmU(SnIr)3
_symmetry_space_group_name_H-M   'P 1'
_cell_length_a   7.51424658
_cell_length_b   7.62930897
_cell_length_c   3.87939500
_cell_angle_alpha   90.00000000
_cell_angle_beta   90.00000000
_cell_angle_gamma   120.92140463
_symmetry_Int_Tables_number   1
_chemical_formula_structural   YbTmU(SnIr)3
_chemical_formula_sum   'Yb1 Tm1 U1 Sn3 Ir3'
_cell_volume   190.79089481
_cell_formula_units_Z   1
loop_
 _symmetry_equiv_pos_site_id
 _symmetry_equiv_pos_as_xyz
  1  'x, y, z'
loop_
 _atom_site_type_symbol
 _atom_site_label
 _atom_site_symmetry_multiplicity
 _atom_site_fract_x
 _atom_site_fract_y
 _atom_site_fract_z
 _atom_site_occupancy
  Yb  Yb0  1  0.595974  0.594783  0.500000  1
  Tm  Tm1  1  0.403196  0.998639  0.500000  1
  U  U2  1  0.998836  0.412790  0.500000  1
  Sn  Sn3  1  0.996270  0.755564  0.000000  1
  Sn  Sn4  1  0.279747  0.264810  0.000000  1
  Sn  Sn5  1  0.725180  0.980958  0.000000  1
  Ir  Ir6  1  0.291055  0.636910  0.000000  1
  Ir  Ir7  1  0.702332  0.330928  0.000000  1
  Ir  Ir8  1  0.007410  0.024619  0.500000  1
