# generated using pymatgen
data_Tb3Dy3Rh2
_symmetry_space_group_name_H-M   'P 1'
_cell_length_a   6.29983561
_cell_length_b   7.16895700
_cell_length_c   9.51524954
_cell_angle_alpha   90.00000000
_cell_angle_beta   90.12320021
_cell_angle_gamma   90.00000000
_symmetry_Int_Tables_number   1
_chemical_formula_structural   Tb3Dy3Rh2
_chemical_formula_sum   'Tb6 Dy6 Rh4'
_cell_volume   429.73860627
_cell_formula_units_Z   2
loop_
 _symmetry_equiv_pos_site_id
 _symmetry_equiv_pos_as_xyz
  1  'x, y, z'
loop_
 _atom_site_type_symbol
 _atom_site_label
 _atom_site_symmetry_multiplicity
 _atom_site_fract_x
 _atom_site_fract_y
 _atom_site_fract_z
 _atom_site_occupancy
  Tb  Tb0  1  0.330141  0.676081  0.062796  1
  Tb  Tb1  1  0.169859  0.176081  0.437204  1
  Tb  Tb2  1  0.866096  0.532188  0.250019  1
  Tb  Tb3  1  0.633904  0.032188  0.249981  1
  Tb  Tb4  1  0.133226  0.467511  0.750151  1
  Tb  Tb5  1  0.366774  0.967511  0.749849  1
  Dy  Dy6  1  0.669798  0.324209  0.563413  1
  Dy  Dy7  1  0.830202  0.824209  0.936587  1
  Dy  Dy8  1  0.669953  0.323953  0.936697  1
  Dy  Dy9  1  0.830047  0.823953  0.563303  1
  Dy  Dy10  1  0.330431  0.676097  0.437053  1
  Dy  Dy11  1  0.169569  0.176097  0.062947  1
  Rh  Rh12  1  0.061273  0.882736  0.249818  1
  Rh  Rh13  1  0.438727  0.382736  0.250182  1
  Rh  Rh14  1  0.937880  0.117225  0.750577  1
  Rh  Rh15  1  0.562120  0.617225  0.749423  1
