# generated using pymatgen
data_Tb10ErIn9(CuNi)2
_symmetry_space_group_name_H-M   'P 1'
_cell_length_a   3.66720900
_cell_length_b   13.04113118
_cell_length_c   13.00601746
_cell_angle_alpha   110.48570222
_cell_angle_beta   90.00000000
_cell_angle_gamma   90.00000000
_symmetry_Int_Tables_number   1
_chemical_formula_structural   Tb10ErIn9(CuNi)2
_chemical_formula_sum   'Tb10 Er1 In9 Cu2 Ni2'
_cell_volume   582.67097947
_cell_formula_units_Z   1
loop_
 _symmetry_equiv_pos_site_id
 _symmetry_equiv_pos_as_xyz
  1  'x, y, z'
loop_
 _atom_site_type_symbol
 _atom_site_label
 _atom_site_symmetry_multiplicity
 _atom_site_fract_x
 _atom_site_fract_y
 _atom_site_fract_z
 _atom_site_occupancy
  Tb  Tb0  1  0.000000  0.073106  0.419548  1
  Tb  Tb1  1  0.000000  0.579482  0.922525  1
  Tb  Tb2  1  0.000000  0.420411  0.077497  1
  Tb  Tb3  1  0.000000  0.158807  0.841031  1
  Tb  Tb4  1  0.000000  0.841149  0.159127  1
  Tb  Tb5  1  0.000000  0.379512  0.633750  1
  Tb  Tb6  1  0.000000  0.620842  0.366332  1
  Tb  Tb7  1  0.000000  0.684748  0.691321  1
  Tb  Tb8  1  0.000000  0.315646  0.308583  1
  Tb  Tb9  1  0.000000  0.999982  0.999843  1
  Er  Er10  1  0.000000  0.925374  0.580279  1
  In  In11  1  0.500000  0.158588  0.632903  1
  In  In12  1  0.500000  0.840594  0.368200  1
  In  In13  1  0.500000  0.632657  0.157016  1
  In  In14  1  0.500000  0.367334  0.843087  1
  In  In15  1  0.500000  0.924390  0.778438  1
  In  In16  1  0.500000  0.075948  0.220582  1
  In  In17  1  0.500000  0.780140  0.923659  1
  In  In18  1  0.500000  0.219876  0.076074  1
  In  In19  1  0.500000  0.500258  0.500017  1
  Cu  Cu20  1  0.500000  0.750103  0.546800  1
  Cu  Cu21  1  0.500000  0.251157  0.453389  1
  Ni  Ni22  1  0.500000  0.548570  0.750932  1
  Ni  Ni23  1  0.500000  0.451325  0.249067  1
