# generated using pymatgen
data_Zr8Co9(P4Ru)3
_symmetry_space_group_name_H-M   'P 1'
_cell_length_a   3.68149000
_cell_length_b   10.03917642
_cell_length_c   12.42277801
_cell_angle_alpha   89.98154096
_cell_angle_beta   90.00000000
_cell_angle_gamma   90.00000000
_symmetry_Int_Tables_number   1
_chemical_formula_structural   Zr8Co9(P4Ru)3
_chemical_formula_sum   'Zr8 Co9 P12 Ru3'
_cell_volume   459.13501364
_cell_formula_units_Z   1
loop_
 _symmetry_equiv_pos_site_id
 _symmetry_equiv_pos_as_xyz
  1  'x, y, z'
loop_
 _atom_site_type_symbol
 _atom_site_label
 _atom_site_symmetry_multiplicity
 _atom_site_fract_x
 _atom_site_fract_y
 _atom_site_fract_z
 _atom_site_occupancy
  Zr  Zr0  1  0.250000  0.344203  0.995355  1
  Zr  Zr1  1  0.250000  0.160137  0.495664  1
  Zr  Zr2  1  0.750000  0.655846  0.004057  1
  Zr  Zr3  1  0.750000  0.841663  0.504867  1
  Zr  Zr4  1  0.250000  0.427938  0.706339  1
  Zr  Zr5  1  0.250000  0.071551  0.211435  1
  Zr  Zr6  1  0.750000  0.572015  0.290267  1
  Zr  Zr7  1  0.750000  0.928183  0.788927  1
  Co  Co8  1  0.750000  0.397698  0.521298  1
  Co  Co9  1  0.250000  0.135980  0.714285  1
  Co  Co10  1  0.250000  0.366021  0.217646  1
  Co  Co11  1  0.750000  0.866066  0.284508  1
  Co  Co12  1  0.750000  0.632226  0.781628  1
  Co  Co13  1  0.250000  0.768747  0.168402  1
  Co  Co14  1  0.250000  0.731409  0.667843  1
  Co  Co15  1  0.750000  0.231166  0.830205  1
  Co  Co16  1  0.750000  0.272037  0.335872  1
  P  P17  1  0.250000  0.108372  0.891754  1
  P  P18  1  0.250000  0.391967  0.395481  1
  P  P19  1  0.750000  0.892388  0.107556  1
  P  P20  1  0.750000  0.603032  0.605029  1
  P  P21  1  0.250000  0.729362  0.847067  1
  P  P22  1  0.250000  0.768508  0.348967  1
  P  P23  1  0.750000  0.270182  0.154324  1
  P  P24  1  0.750000  0.234954  0.648927  1
  P  P25  1  0.250000  0.553233  0.129664  1
  P  P26  1  0.250000  0.947047  0.627927  1
  P  P27  1  0.750000  0.446026  0.869767  1
  P  P28  1  0.750000  0.054121  0.372382  1
  Ru  Ru29  1  0.250000  0.897944  0.978892  1
  Ru  Ru30  1  0.250000  0.596084  0.482683  1
  Ru  Ru31  1  0.750000  0.103892  0.020981  1
