# generated using pymatgen
data_Tb3Ho5Tl3Co
_symmetry_space_group_name_H-M   'P 1'
_cell_length_a   10.30855100
_cell_length_b   10.30878149
_cell_length_c   7.10238500
_cell_angle_alpha   89.99451904
_cell_angle_beta   90.00015149
_cell_angle_gamma   119.99877300
_symmetry_Int_Tables_number   1
_chemical_formula_structural   Tb3Ho5Tl3Co
_chemical_formula_sum   'Tb6 Ho10 Tl6 Co2'
_cell_volume   653.64985208
_cell_formula_units_Z   2
loop_
 _symmetry_equiv_pos_site_id
 _symmetry_equiv_pos_as_xyz
  1  'x, y, z'
loop_
 _atom_site_type_symbol
 _atom_site_label
 _atom_site_symmetry_multiplicity
 _atom_site_fract_x
 _atom_site_fract_y
 _atom_site_fract_z
 _atom_site_occupancy
  Tb  Tb0  1  0.536841  0.073681  0.504652  1
  Tb  Tb1  1  0.926000  0.463409  0.505279  1
  Tb  Tb2  1  0.537417  0.463411  0.505280  1
  Tb  Tb3  1  0.462888  0.925772  0.005725  1
  Tb  Tb4  1  0.074556  0.537070  0.005568  1
  Tb  Tb5  1  0.462515  0.537064  0.005566  1
  Ho  Ho6  1  0.177569  0.355135  0.708028  1
  Ho  Ho7  1  0.644696  0.822535  0.708842  1
  Ho  Ho8  1  0.177843  0.822532  0.708840  1
  Ho  Ho9  1  0.822105  0.644209  0.207513  1
  Ho  Ho10  1  0.355493  0.178038  0.208124  1
  Ho  Ho11  1  0.822540  0.178038  0.208124  1
  Ho  Ho12  1  0.666525  0.333051  0.898127  1
  Ho  Ho13  1  0.333462  0.666925  0.398770  1
  Ho  Ho14  1  0.999515  0.999035  0.490950  1
  Ho  Ho15  1  0.999770  0.999547  0.991493  1
  Tl  Tl16  1  0.836858  0.673710  0.757756  1
  Tl  Tl17  1  0.326347  0.163233  0.757499  1
  Tl  Tl18  1  0.836889  0.163241  0.757497  1
  Tl  Tl19  1  0.163072  0.326150  0.258296  1
  Tl  Tl20  1  0.674103  0.837088  0.257091  1
  Tl  Tl21  1  0.162979  0.837093  0.257081  1
  Co  Co22  1  0.666665  0.333331  0.275842  1
  Co  Co23  1  0.333354  0.666701  0.776103  1
