# generated using pymatgen
data_La2Be4Ir5Rh
_symmetry_space_group_name_H-M   'P 1'
_cell_length_a   5.45149655
_cell_length_b   6.52949919
_cell_length_c   6.52163255
_cell_angle_alpha   65.25406892
_cell_angle_beta   65.38392785
_cell_angle_gamma   65.23322934
_symmetry_Int_Tables_number   1
_chemical_formula_structural   La2Be4Ir5Rh
_chemical_formula_sum   'La2 Be4 Ir5 Rh1'
_cell_volume   183.06275085
_cell_formula_units_Z   1
loop_
 _symmetry_equiv_pos_site_id
 _symmetry_equiv_pos_as_xyz
  1  'x, y, z'
loop_
 _atom_site_type_symbol
 _atom_site_label
 _atom_site_symmetry_multiplicity
 _atom_site_fract_x
 _atom_site_fract_y
 _atom_site_fract_z
 _atom_site_occupancy
  La  La0  1  0.519990  0.748448  0.751557  1
  La  La1  1  0.480010  0.251552  0.248443  1
  Be  Be2  1  0.204261  0.580920  0.580794  1
  Be  Be3  1  0.795739  0.419080  0.419206  1
  Be  Be4  1  0.133963  0.080791  0.080904  1
  Be  Be5  1  0.866037  0.919209  0.919096  1
  Ir  Ir6  1  0.499634  0.230866  0.765720  1
  Ir  Ir7  1  0.996193  0.734289  0.269144  1
  Ir  Ir8  1  0.500366  0.769134  0.234280  1
  Ir  Ir9  1  0.003807  0.265711  0.730856  1
  Ir  Ir10  1  0.000000  0.000000  0.500000  1
  Rh  Rh11  1  0.000000  0.500000  0.000000  1
