# generated using pymatgen
data_Dy2TmLu5(CdNi)2
_symmetry_space_group_name_H-M   'P 1'
_cell_length_a   9.40395570
_cell_length_b   9.40395573
_cell_length_c   9.39864600
_cell_angle_alpha   60.01867596
_cell_angle_beta   60.01867586
_cell_angle_gamma   59.96265042
_symmetry_Int_Tables_number   1
_chemical_formula_structural   Dy2TmLu5(CdNi)2
_chemical_formula_sum   'Dy4 Tm2 Lu10 Cd4 Ni4'
_cell_volume   587.72095491
_cell_formula_units_Z   2
loop_
 _symmetry_equiv_pos_site_id
 _symmetry_equiv_pos_as_xyz
  1  'x, y, z'
loop_
 _atom_site_type_symbol
 _atom_site_label
 _atom_site_symmetry_multiplicity
 _atom_site_fract_x
 _atom_site_fract_y
 _atom_site_fract_z
 _atom_site_occupancy
  Dy  Dy0  1  0.349578  0.349578  0.349342  1
  Dy  Dy1  1  0.349578  0.349578  0.951503  1
  Dy  Dy2  1  0.349342  0.951503  0.349578  1
  Dy  Dy3  1  0.951503  0.349342  0.349578  1
  Tm  Tm4  1  0.565100  0.565100  0.934900  1
  Tm  Tm5  1  0.934900  0.934900  0.565100  1
  Lu  Lu6  1  0.812330  0.187670  0.187670  1
  Lu  Lu7  1  0.187670  0.812330  0.812330  1
  Lu  Lu8  1  0.187670  0.812330  0.187670  1
  Lu  Lu9  1  0.812330  0.187670  0.812330  1
  Lu  Lu10  1  0.187417  0.187417  0.812583  1
  Lu  Lu11  1  0.812583  0.812583  0.187417  1
  Lu  Lu12  1  0.936186  0.563814  0.563814  1
  Lu  Lu13  1  0.563814  0.936186  0.936186  1
  Lu  Lu14  1  0.563814  0.936186  0.563814  1
  Lu  Lu15  1  0.936186  0.563814  0.936186  1
  Cd  Cd16  1  0.582098  0.582098  0.581255  1
  Cd  Cd17  1  0.582098  0.582098  0.254550  1
  Cd  Cd18  1  0.581255  0.254550  0.582098  1
  Cd  Cd19  1  0.254550  0.581255  0.582098  1
  Ni  Ni20  1  0.141302  0.141302  0.140593  1
  Ni  Ni21  1  0.141302  0.141302  0.576805  1
  Ni  Ni22  1  0.140593  0.576805  0.141302  1
  Ni  Ni23  1  0.576805  0.140593  0.141302  1
