# generated using pymatgen
data_Dy2Y11Th7Sn16
_symmetry_space_group_name_H-M   'P 1'
_cell_length_a   8.12936700
_cell_length_b   8.24299228
_cell_length_c   15.57393200
_cell_angle_alpha   90.03948082
_cell_angle_beta   90.38757953
_cell_angle_gamma   89.87892293
_symmetry_Int_Tables_number   1
_chemical_formula_structural   Dy2Y11Th7Sn16
_chemical_formula_sum   'Dy2 Y11 Th7 Sn16'
_cell_volume   1043.58755683
_cell_formula_units_Z   1
loop_
 _symmetry_equiv_pos_site_id
 _symmetry_equiv_pos_as_xyz
  1  'x, y, z'
loop_
 _atom_site_type_symbol
 _atom_site_label
 _atom_site_symmetry_multiplicity
 _atom_site_fract_x
 _atom_site_fract_y
 _atom_site_fract_z
 _atom_site_occupancy
  Dy  Dy0  1  0.360894  0.834388  0.876651  1
  Dy  Dy1  1  0.858300  0.664056  0.623529  1
  Y  Y2  1  0.641341  0.164332  0.375910  1
  Y  Y3  1  0.137394  0.336102  0.123523  1
  Y  Y4  1  0.638162  0.163435  0.123000  1
  Y  Y5  1  0.141938  0.336652  0.376302  1
  Y  Y6  1  0.357590  0.838099  0.624927  1
  Y  Y7  1  0.861921  0.662689  0.876169  1
  Y  Y8  1  0.524225  0.325186  0.900423  1
  Y  Y9  1  0.189135  0.498663  0.750227  1
  Y  Y10  1  0.689518  0.001708  0.750387  1
  Y  Y11  1  0.810294  0.501808  0.249813  1
  Y  Y12  1  0.310265  0.997578  0.250465  1
  Th  Th13  1  0.017699  0.179365  0.596413  1
  Th  Th14  1  0.483770  0.678557  0.403912  1
  Th  Th15  1  0.980445  0.821115  0.096255  1
  Th  Th16  1  0.481529  0.678940  0.097400  1
  Th  Th17  1  0.983724  0.821582  0.404786  1
  Th  Th18  1  0.515372  0.320946  0.594983  1
  Th  Th19  1  0.017106  0.177057  0.903926  1
  Sn  Sn20  1  0.297314  0.035554  0.043053  1
  Sn  Sn21  1  0.801242  0.460505  0.458335  1
  Sn  Sn22  1  0.698649  0.962066  0.541794  1
  Sn  Sn23  1  0.205902  0.533745  0.957489  1
  Sn  Sn24  1  0.699742  0.961309  0.957741  1
  Sn  Sn25  1  0.199092  0.541503  0.541257  1
  Sn  Sn26  1  0.301275  0.039349  0.458636  1
  Sn  Sn27  1  0.796157  0.460363  0.041084  1
  Sn  Sn28  1  0.556364  0.620307  0.749087  1
  Sn  Sn29  1  0.055621  0.880368  0.750493  1
  Sn  Sn30  1  0.443425  0.378778  0.249448  1
  Sn  Sn31  1  0.943667  0.120522  0.249936  1
  Sn  Sn32  1  0.325918  0.146552  0.752083  1
  Sn  Sn33  1  0.823042  0.356539  0.749645  1
  Sn  Sn34  1  0.677017  0.856808  0.250537  1
  Sn  Sn35  1  0.174946  0.643471  0.250376  1
