# generated using pymatgen
data_ErMg3Ge4P2Ir7
_symmetry_space_group_name_H-M   'P 1'
_cell_length_a   7.08956368
_cell_length_b   7.07970908
_cell_length_c   7.07970912
_cell_angle_alpha   109.23074701
_cell_angle_beta   110.20329717
_cell_angle_gamma   110.20329129
_symmetry_Int_Tables_number   1
_chemical_formula_structural   ErMg3Ge4P2Ir7
_chemical_formula_sum   'Er1 Mg3 Ge4 P2 Ir7'
_cell_volume   269.31536215
_cell_formula_units_Z   1
loop_
 _symmetry_equiv_pos_site_id
 _symmetry_equiv_pos_as_xyz
  1  'x, y, z'
loop_
 _atom_site_type_symbol
 _atom_site_label
 _atom_site_symmetry_multiplicity
 _atom_site_fract_x
 _atom_site_fract_y
 _atom_site_fract_z
 _atom_site_occupancy
  Er  Er0  1  0.500000  0.499486  0.500514  1
  Mg  Mg1  1  0.999792  0.000605  0.478557  1
  Mg  Mg2  1  0.000208  0.521443  0.999395  1
  Mg  Mg3  1  0.500000  0.000373  0.999627  1
  Ge  Ge4  1  0.991715  0.310768  0.307011  1
  Ge  Ge5  1  0.294871  0.295540  0.988643  1
  Ge  Ge6  1  0.705129  0.011357  0.704460  1
  Ge  Ge7  1  0.008285  0.692989  0.689232  1
  P  P8  1  0.675387  0.674666  0.003324  1
  P  P9  1  0.324613  0.996676  0.325334  1
  Ir  Ir10  1  0.747411  0.244014  0.495806  1
  Ir  Ir11  1  0.749856  0.506304  0.244288  1
  Ir  Ir12  1  0.500000  0.248278  0.751722  1
  Ir  Ir13  1  0.252589  0.504194  0.755986  1
  Ir  Ir14  1  0.250144  0.755712  0.493696  1
  Ir  Ir15  1  0.500000  0.753446  0.246554  1
  Ir  Ir16  1  0.000000  0.984150  0.015850  1
