# generated using pymatgen
data_Hf6Si5AsRu6
_symmetry_space_group_name_H-M   'P 1'
_cell_length_a   7.61549496
_cell_length_b   7.61846410
_cell_length_c   7.61930186
_cell_angle_alpha   128.02095315
_cell_angle_beta   121.49643501
_cell_angle_gamma   82.05762079
_symmetry_Int_Tables_number   1
_chemical_formula_structural   Hf6Si5AsRu6
_chemical_formula_sum   'Hf6 Si5 As1 Ru6'
_cell_volume   285.63157463
_cell_formula_units_Z   1
loop_
 _symmetry_equiv_pos_site_id
 _symmetry_equiv_pos_as_xyz
  1  'x, y, z'
loop_
 _atom_site_type_symbol
 _atom_site_label
 _atom_site_symmetry_multiplicity
 _atom_site_fract_x
 _atom_site_fract_y
 _atom_site_fract_z
 _atom_site_occupancy
  Hf  Hf0  1  0.466974  0.700423  0.727855  1
  Hf  Hf1  1  0.526527  0.254880  0.223666  1
  Hf  Hf2  1  0.747225  0.834354  0.581864  1
  Hf  Hf3  1  0.256696  0.837767  0.087329  1
  Hf  Hf4  1  0.052579  0.252146  0.703860  1
  Hf  Hf5  1  0.949291  0.653887  0.209336  1
  Si  Si6  1  0.274924  0.269822  0.495063  1
  Si  Si7  1  0.724461  0.220286  0.994330  1
  Si  Si8  1  0.328569  0.587285  0.250370  1
  Si  Si9  1  0.673696  0.922191  0.259761  1
  Si  Si10  1  0.161182  0.921977  0.749977  1
  As  As11  1  0.838704  0.587697  0.760294  1
  Ru  Ru12  1  0.499030  0.498729  0.997798  1
  Ru  Ru13  1  0.002584  0.499688  0.496266  1
  Ru  Ru14  1  0.097468  0.253133  0.103328  1
  Ru  Ru15  1  0.903274  0.011881  0.161655  1
  Ru  Ru16  1  0.349370  0.006173  0.603908  1
  Ru  Ru17  1  0.647445  0.247279  0.652941  1
