# generated using pymatgen
data_Eu5SnGe2
_symmetry_space_group_name_H-M   'P 1'
_cell_length_a   9.50357840
_cell_length_b   9.50357774
_cell_length_c   9.50357774
_cell_angle_alpha   129.96523541
_cell_angle_beta   129.96523397
_cell_angle_gamma   73.46234945
_symmetry_Int_Tables_number   1
_chemical_formula_structural   Eu5SnGe2
_chemical_formula_sum   'Eu10 Sn2 Ge4'
_cell_volume   492.10689593
_cell_formula_units_Z   2
loop_
 _symmetry_equiv_pos_site_id
 _symmetry_equiv_pos_as_xyz
  1  'x, y, z'
loop_
 _atom_site_type_symbol
 _atom_site_label
 _atom_site_symmetry_multiplicity
 _atom_site_fract_x
 _atom_site_fract_y
 _atom_site_fract_z
 _atom_site_occupancy
  Eu  Eu0  1  0.814594  0.314594  0.847885  1
  Eu  Eu1  1  0.466709  0.966709  0.152115  1
  Eu  Eu2  1  0.685405  0.533290  0.500000  1
  Eu  Eu3  1  0.033291  0.185406  0.500000  1
  Eu  Eu4  1  0.185405  0.685405  0.152115  1
  Eu  Eu5  1  0.533290  0.033291  0.847885  1
  Eu  Eu6  1  0.966709  0.814594  0.500000  1
  Eu  Eu7  1  0.314594  0.466709  0.500000  1
  Eu  Eu8  1  0.000000  0.000000  0.000000  1
  Eu  Eu9  1  0.500000  0.500000  0.000000  1
  Sn  Sn10  1  0.250000  0.250000  0.000000  1
  Sn  Sn11  1  0.750000  0.750000  0.000000  1
  Ge  Ge12  1  0.883438  0.383439  0.266878  1
  Ge  Ge13  1  0.116562  0.616561  0.733122  1
  Ge  Ge14  1  0.616562  0.883438  0.500000  1
  Ge  Ge15  1  0.383438  0.116562  0.500000  1
