# generated using pymatgen
data_Sm8Ga(CuPd11)2
_symmetry_space_group_name_H-M   'P 1'
_cell_length_a   8.36473200
_cell_length_b   8.46350600
_cell_length_c   8.45175200
_cell_angle_alpha   90.00000000
_cell_angle_beta   90.00000000
_cell_angle_gamma   90.00000000
_symmetry_Int_Tables_number   1
_chemical_formula_structural   Sm8Ga(CuPd11)2
_chemical_formula_sum   'Sm8 Ga1 Cu2 Pd22'
_cell_volume   598.34144029
_cell_formula_units_Z   1
loop_
 _symmetry_equiv_pos_site_id
 _symmetry_equiv_pos_as_xyz
  1  'x, y, z'
loop_
 _atom_site_type_symbol
 _atom_site_label
 _atom_site_symmetry_multiplicity
 _atom_site_fract_x
 _atom_site_fract_y
 _atom_site_fract_z
 _atom_site_occupancy
  Sm  Sm0  1  0.251260  0.249629  0.253119  1
  Sm  Sm1  1  0.748740  0.750371  0.746881  1
  Sm  Sm2  1  0.748740  0.750371  0.253119  1
  Sm  Sm3  1  0.748740  0.249629  0.746881  1
  Sm  Sm4  1  0.251260  0.249629  0.746881  1
  Sm  Sm5  1  0.251260  0.750371  0.253119  1
  Sm  Sm6  1  0.251260  0.750371  0.746881  1
  Sm  Sm7  1  0.748740  0.249629  0.253119  1
  Ga  Ga8  1  0.000000  0.000000  0.000000  1
  Cu  Cu9  1  0.264015  0.500000  0.000000  1
  Cu  Cu10  1  0.735985  0.500000  0.000000  1
  Pd  Pd11  1  0.000000  0.260785  0.500000  1
  Pd  Pd12  1  0.500000  0.266916  0.000000  1
  Pd  Pd13  1  0.000000  0.739215  0.500000  1
  Pd  Pd14  1  0.500000  0.733084  0.000000  1
  Pd  Pd15  1  0.500000  0.000000  0.260061  1
  Pd  Pd16  1  0.260935  0.000000  0.500000  1
  Pd  Pd17  1  0.500000  0.000000  0.739939  1
  Pd  Pd18  1  0.739065  0.000000  0.500000  1
  Pd  Pd19  1  0.000000  0.500000  0.259836  1
  Pd  Pd20  1  0.000000  0.500000  0.740164  1
  Pd  Pd21  1  0.253635  0.500000  0.500000  1
  Pd  Pd22  1  0.746365  0.500000  0.500000  1
  Pd  Pd23  1  0.500000  0.253791  0.500000  1
  Pd  Pd24  1  0.500000  0.746209  0.500000  1
  Pd  Pd25  1  0.500000  0.500000  0.248923  1
  Pd  Pd26  1  0.500000  0.500000  0.751077  1
  Pd  Pd27  1  0.295149  0.000000  0.000000  1
  Pd  Pd28  1  0.704851  0.000000  0.000000  1
  Pd  Pd29  1  0.000000  0.299339  0.000000  1
  Pd  Pd30  1  0.000000  0.700661  0.000000  1
  Pd  Pd31  1  0.000000  0.000000  0.292535  1
  Pd  Pd32  1  0.000000  0.000000  0.707465  1
