# generated using pymatgen
data_Dy6Tm6CoRh3
_symmetry_space_group_name_H-M   'P 1'
_cell_length_a   6.24525682
_cell_length_b   7.08968137
_cell_length_c   9.33461200
_cell_angle_alpha   90.00000000
_cell_angle_beta   90.00000000
_cell_angle_gamma   90.25056577
_symmetry_Int_Tables_number   1
_chemical_formula_structural   Dy6Tm6CoRh3
_chemical_formula_sum   'Dy6 Tm6 Co1 Rh3'
_cell_volume   413.30355155
_cell_formula_units_Z   1
loop_
 _symmetry_equiv_pos_site_id
 _symmetry_equiv_pos_as_xyz
  1  'x, y, z'
loop_
 _atom_site_type_symbol
 _atom_site_label
 _atom_site_symmetry_multiplicity
 _atom_site_fract_x
 _atom_site_fract_y
 _atom_site_fract_z
 _atom_site_occupancy
  Dy  Dy0  1  0.131954  0.466837  0.750000  1
  Dy  Dy1  1  0.369748  0.964095  0.750000  1
  Dy  Dy2  1  0.856246  0.531049  0.250000  1
  Dy  Dy3  1  0.628295  0.044994  0.250000  1
  Dy  Dy4  1  0.327698  0.670063  0.065227  1
  Dy  Dy5  1  0.327698  0.670063  0.434773  1
  Tm  Tm6  1  0.673414  0.322054  0.937317  1
  Tm  Tm7  1  0.177300  0.181466  0.433570  1
  Tm  Tm8  1  0.829572  0.823542  0.561915  1
  Tm  Tm9  1  0.177300  0.181466  0.066430  1
  Tm  Tm10  1  0.829572  0.823542  0.938085  1
  Tm  Tm11  1  0.673414  0.322054  0.562683  1
  Co  Co12  1  0.445751  0.382825  0.250000  1
  Rh  Rh13  1  0.559468  0.614465  0.750000  1
  Rh  Rh14  1  0.943761  0.114928  0.750000  1
  Rh  Rh15  1  0.048807  0.886558  0.250000  1
