# generated using pymatgen
data_TmMgB6Rh
_symmetry_space_group_name_H-M   'P 1'
_cell_length_a   3.53239700
_cell_length_b   8.89047100
_cell_length_c   11.28617900
_cell_angle_alpha   90.00000000
_cell_angle_beta   90.00000000
_cell_angle_gamma   90.00000000
_symmetry_Int_Tables_number   1
_chemical_formula_structural   TmMgB6Rh
_chemical_formula_sum   'Tm4 Mg4 B24 Rh4'
_cell_volume   354.43876192
_cell_formula_units_Z   4
loop_
 _symmetry_equiv_pos_site_id
 _symmetry_equiv_pos_as_xyz
  1  'x, y, z'
loop_
 _atom_site_type_symbol
 _atom_site_label
 _atom_site_symmetry_multiplicity
 _atom_site_fract_x
 _atom_site_fract_y
 _atom_site_fract_z
 _atom_site_occupancy
  Tm  Tm0  1  0.500000  0.320054  0.413845  1
  Tm  Tm1  1  0.500000  0.679946  0.586155  1
  Tm  Tm2  1  0.500000  0.179946  0.913845  1
  Tm  Tm3  1  0.500000  0.820054  0.086155  1
  Mg  Mg4  1  0.500000  0.447305  0.121050  1
  Mg  Mg5  1  0.500000  0.552695  0.878950  1
  Mg  Mg6  1  0.500000  0.052695  0.621050  1
  Mg  Mg7  1  0.500000  0.947305  0.378950  1
  B  B8  1  0.000000  0.099899  0.472885  1
  B  B9  1  0.000000  0.900101  0.527115  1
  B  B10  1  0.000000  0.400101  0.972885  1
  B  B11  1  0.000000  0.599899  0.027115  1
  B  B12  1  0.000000  0.128799  0.318986  1
  B  B13  1  0.000000  0.871201  0.681014  1
  B  B14  1  0.000000  0.371201  0.818986  1
  B  B15  1  0.000000  0.628799  0.181014  1
  B  B16  1  0.000000  0.055298  0.066211  1
  B  B17  1  0.000000  0.944702  0.933789  1
  B  B18  1  0.000000  0.444702  0.566211  1
  B  B19  1  0.000000  0.555298  0.433789  1
  B  B20  1  0.000000  0.481733  0.285171  1
  B  B21  1  0.000000  0.518267  0.714829  1
  B  B22  1  0.000000  0.018267  0.785171  1
  B  B23  1  0.000000  0.981733  0.214829  1
  B  B24  1  0.000000  0.255114  0.079190  1
  B  B25  1  0.000000  0.744886  0.920810  1
  B  B26  1  0.000000  0.244886  0.579190  1
  B  B27  1  0.000000  0.755114  0.420810  1
  B  B28  1  0.000000  0.294620  0.234897  1
  B  B29  1  0.000000  0.705380  0.765103  1
  B  B30  1  0.000000  0.205380  0.734897  1
  B  B31  1  0.000000  0.794620  0.265103  1
  Rh  Rh32  1  0.500000  0.141158  0.181612  1
  Rh  Rh33  1  0.500000  0.858842  0.818388  1
  Rh  Rh34  1  0.500000  0.358842  0.681612  1
  Rh  Rh35  1  0.500000  0.641158  0.318388  1
