# generated using pymatgen
data_Pa3MoF20
_symmetry_space_group_name_H-M   'P 1'
_cell_length_a   9.38045499
_cell_length_b   9.38045404
_cell_length_c   5.54906815
_cell_angle_alpha   86.92251018
_cell_angle_beta   86.92251734
_cell_angle_gamma   112.54943143
_symmetry_Int_Tables_number   1
_chemical_formula_structural   Pa3MoF20
_chemical_formula_sum   'Pa3 Mo1 F20'
_cell_volume   448.83622222
_cell_formula_units_Z   1
loop_
 _symmetry_equiv_pos_site_id
 _symmetry_equiv_pos_as_xyz
  1  'x, y, z'
loop_
 _atom_site_type_symbol
 _atom_site_label
 _atom_site_symmetry_multiplicity
 _atom_site_fract_x
 _atom_site_fract_y
 _atom_site_fract_z
 _atom_site_occupancy
  Pa  Pa0  1  0.802609  0.210689  0.006530  1
  Pa  Pa1  1  0.210689  0.802609  0.006530  1
  Pa  Pa2  1  0.738186  0.738186  0.733890  1
  Mo  Mo3  1  0.253361  0.253361  0.257498  1
  F  F4  1  0.852819  0.852819  0.409035  1
  F  F5  1  0.135744  0.135744  0.533770  1
  F  F6  1  0.638020  0.638020  0.069825  1
  F  F7  1  0.326321  0.326321  0.938473  1
  F  F8  1  0.528447  0.726578  0.626206  1
  F  F9  1  0.271852  0.445703  0.364214  1
  F  F10  1  0.445703  0.271852  0.364214  1
  F  F11  1  0.726578  0.528447  0.626206  1
  F  F12  1  0.783251  0.975724  0.876709  1
  F  F13  1  0.036790  0.224691  0.134521  1
  F  F14  1  0.224691  0.036790  0.134521  1
  F  F15  1  0.975724  0.783251  0.876709  1
  F  F16  1  0.916008  0.301385  0.673857  1
  F  F17  1  0.709024  0.100367  0.340611  1
  F  F18  1  0.100367  0.709024  0.340611  1
  F  F19  1  0.301385  0.916008  0.673857  1
  F  F20  1  0.586952  0.170561  0.890571  1
  F  F21  1  0.837751  0.427168  0.115534  1
  F  F22  1  0.427168  0.837751  0.115534  1
  F  F23  1  0.170561  0.586952  0.890571  1
