# generated using pymatgen
data_Ac3Yb13Sb12
_symmetry_space_group_name_H-M   'P 1'
_cell_length_a   9.63223818
_cell_length_b   9.63223832
_cell_length_c   9.63223842
_cell_angle_alpha   90.15875534
_cell_angle_beta   90.15875180
_cell_angle_gamma   89.84124557
_symmetry_Int_Tables_number   1
_chemical_formula_structural   Ac3Yb13Sb12
_chemical_formula_sum   'Ac3 Yb13 Sb12'
_cell_volume   893.66893984
_cell_formula_units_Z   1
loop_
 _symmetry_equiv_pos_site_id
 _symmetry_equiv_pos_as_xyz
  1  'x, y, z'
loop_
 _atom_site_type_symbol
 _atom_site_label
 _atom_site_symmetry_multiplicity
 _atom_site_fract_x
 _atom_site_fract_y
 _atom_site_fract_z
 _atom_site_occupancy
  Ac  Ac0  1  0.929610  0.071736  0.573605  1
  Ac  Ac1  1  0.426395  0.429610  0.428264  1
  Ac  Ac2  1  0.571736  0.926395  0.070390  1
  Yb  Yb3  1  0.824738  0.324738  0.175262  1
  Yb  Yb4  1  0.932719  0.923325  0.929757  1
  Yb  Yb5  1  0.826873  0.674543  0.324410  1
  Yb  Yb6  1  0.178597  0.819454  0.320378  1
  Yb  Yb7  1  0.174543  0.175590  0.173127  1
  Yb  Yb8  1  0.322134  0.822134  0.677866  1
  Yb  Yb9  1  0.070243  0.432719  0.576675  1
  Yb  Yb10  1  0.319454  0.179622  0.821403  1
  Yb  Yb11  1  0.675590  0.326873  0.825457  1
  Yb  Yb12  1  0.679622  0.678597  0.680546  1
  Yb  Yb13  1  0.571282  0.071282  0.428718  1
  Yb  Yb14  1  0.423325  0.570243  0.067281  1
  Yb  Yb15  1  0.071726  0.571726  0.928274  1
  Sb  Sb16  1  0.754387  0.377192  0.500244  1
  Sb  Sb17  1  0.877192  0.999756  0.245613  1
  Sb  Sb18  1  0.000562  0.744879  0.627768  1
  Sb  Sb19  1  0.256042  0.122738  0.498728  1
  Sb  Sb20  1  0.121966  0.499548  0.249155  1
  Sb  Sb21  1  0.999548  0.250845  0.878034  1
  Sb  Sb22  1  0.244879  0.872232  0.999438  1
  Sb  Sb23  1  0.372232  0.500562  0.755121  1
  Sb  Sb24  1  0.499756  0.254387  0.122808  1
  Sb  Sb25  1  0.750845  0.621966  0.000452  1
  Sb  Sb26  1  0.622738  0.001272  0.743958  1
  Sb  Sb27  1  0.501272  0.756042  0.377262  1
