# generated using pymatgen
data_HoTmSi2NiOs
_symmetry_space_group_name_H-M   'P 1'
_cell_length_a   4.20522900
_cell_length_b   6.82773065
_cell_length_c   7.17499522
_cell_angle_alpha   91.95289761
_cell_angle_beta   90.00000000
_cell_angle_gamma   90.00000000
_symmetry_Int_Tables_number   1
_chemical_formula_structural   HoTmSi2NiOs
_chemical_formula_sum   'Ho2 Tm2 Si4 Ni2 Os2'
_cell_volume   205.89003450
_cell_formula_units_Z   2
loop_
 _symmetry_equiv_pos_site_id
 _symmetry_equiv_pos_as_xyz
  1  'x, y, z'
loop_
 _atom_site_type_symbol
 _atom_site_label
 _atom_site_symmetry_multiplicity
 _atom_site_fract_x
 _atom_site_fract_y
 _atom_site_fract_z
 _atom_site_occupancy
  Ho  Ho0  1  0.250000  0.492762  0.798564  1
  Ho  Ho1  1  0.750000  0.507238  0.201436  1
  Tm  Tm2  1  0.750000  0.009783  0.317018  1
  Tm  Tm3  1  0.250000  0.990217  0.682982  1
  Si  Si4  1  0.750000  0.698343  0.601856  1
  Si  Si5  1  0.250000  0.301657  0.398144  1
  Si  Si6  1  0.250000  0.799495  0.100004  1
  Si  Si7  1  0.750000  0.200505  0.899996  1
  Ni  Ni8  1  0.250000  0.667798  0.423380  1
  Ni  Ni9  1  0.750000  0.332202  0.576620  1
  Os  Os10  1  0.750000  0.841792  0.929338  1
  Os  Os11  1  0.250000  0.158208  0.070662  1
