# generated using pymatgen
data_Er4Tc2(OsRu)3
_symmetry_space_group_name_H-M   'P 1'
_cell_length_a   5.29270134
_cell_length_b   5.28521727
_cell_length_c   9.05075900
_cell_angle_alpha   90.00000000
_cell_angle_beta   90.00000000
_cell_angle_gamma   121.76452632
_symmetry_Int_Tables_number   1
_chemical_formula_structural   Er4Tc2(OsRu)3
_chemical_formula_sum   'Er4 Tc2 Os3 Ru3'
_cell_volume   215.25632932
_cell_formula_units_Z   1
loop_
 _symmetry_equiv_pos_site_id
 _symmetry_equiv_pos_as_xyz
  1  'x, y, z'
loop_
 _atom_site_type_symbol
 _atom_site_label
 _atom_site_symmetry_multiplicity
 _atom_site_fract_x
 _atom_site_fract_y
 _atom_site_fract_z
 _atom_site_occupancy
  Er  Er0  1  0.334688  0.664682  0.434286  1
  Er  Er1  1  0.665096  0.334320  0.564664  1
  Er  Er2  1  0.665096  0.334320  0.935336  1
  Er  Er3  1  0.334688  0.664682  0.065714  1
  Tc  Tc4  1  0.828094  0.662397  0.250000  1
  Tc  Tc5  1  0.660901  0.831270  0.750000  1
  Os  Os6  1  0.170550  0.341267  0.750000  1
  Os  Os7  1  0.170621  0.829762  0.750000  1
  Os  Os8  1  0.339100  0.173825  0.250000  1
  Ru  Ru9  1  0.002042  0.994866  0.001005  1
  Ru  Ru10  1  0.827081  0.173744  0.250000  1
  Ru  Ru11  1  0.002042  0.994866  0.498995  1
