# generated using pymatgen
data_Ca5CuHgIr
_symmetry_space_group_name_H-M   'P 1'
_cell_length_a   9.17303398
_cell_length_b   9.17303403
_cell_length_c   9.23687776
_cell_angle_alpha   129.91051136
_cell_angle_beta   129.91050381
_cell_angle_gamma   73.01559502
_symmetry_Int_Tables_number   1
_chemical_formula_structural   Ca5CuHgIr
_chemical_formula_sum   'Ca10 Cu2 Hg2 Ir2'
_cell_volume   447.75839886
_cell_formula_units_Z   2
loop_
 _symmetry_equiv_pos_site_id
 _symmetry_equiv_pos_as_xyz
  1  'x, y, z'
loop_
 _atom_site_type_symbol
 _atom_site_label
 _atom_site_symmetry_multiplicity
 _atom_site_fract_x
 _atom_site_fract_y
 _atom_site_fract_z
 _atom_site_occupancy
  Ca  Ca0  1  0.527622  0.027622  0.824967  1
  Ca  Ca1  1  0.202656  0.702656  0.175033  1
  Ca  Ca2  1  0.043850  0.186562  0.500000  1
  Ca  Ca3  1  0.686562  0.543850  0.500000  1
  Ca  Ca4  1  0.472378  0.972378  0.175033  1
  Ca  Ca5  1  0.797344  0.297344  0.824967  1
  Ca  Ca6  1  0.956150  0.813438  0.500000  1
  Ca  Ca7  1  0.313438  0.456150  0.500000  1
  Ca  Ca8  1  0.500000  0.500000  0.000000  1
  Ca  Ca9  1  0.000000  0.000000  0.000000  1
  Cu  Cu10  1  0.112563  0.612563  0.725125  1
  Cu  Cu11  1  0.887437  0.387437  0.274875  1
  Hg  Hg12  1  0.250000  0.250000  0.000000  1
  Hg  Hg13  1  0.750000  0.750000  0.000000  1
  Ir  Ir14  1  0.623673  0.876327  0.500000  1
  Ir  Ir15  1  0.376327  0.123673  0.500000  1
