# generated using pymatgen
data_RbEu2Nb3O10
_symmetry_space_group_name_H-M   'P 1'
_cell_length_a   3.99933800
_cell_length_b   3.99933800
_cell_length_c   15.53649800
_cell_angle_alpha   90.00000000
_cell_angle_beta   90.00000000
_cell_angle_gamma   90.00000000
_symmetry_Int_Tables_number   1
_chemical_formula_structural   RbEu2Nb3O10
_chemical_formula_sum   'Rb1 Eu2 Nb3 O10'
_cell_volume   248.50169352
_cell_formula_units_Z   1
loop_
 _symmetry_equiv_pos_site_id
 _symmetry_equiv_pos_as_xyz
  1  'x, y, z'
loop_
 _atom_site_type_symbol
 _atom_site_label
 _atom_site_symmetry_multiplicity
 _atom_site_fract_x
 _atom_site_fract_y
 _atom_site_fract_z
 _atom_site_occupancy
  Rb  Rb0  1  0.500000  0.500000  0.500000  1
  Eu  Eu1  1  0.500000  0.500000  0.853533  1
  Eu  Eu2  1  0.500000  0.500000  0.146467  1
  Nb  Nb3  1  0.000000  0.000000  0.000000  1
  Nb  Nb4  1  0.000000  0.000000  0.280526  1
  Nb  Nb5  1  0.000000  0.000000  0.719474  1
  O  O6  1  0.000000  0.000000  0.603588  1
  O  O7  1  0.000000  0.000000  0.396412  1
  O  O8  1  0.500000  0.000000  0.747713  1
  O  O9  1  0.000000  0.500000  0.747713  1
  O  O10  1  0.500000  0.000000  0.252287  1
  O  O11  1  0.000000  0.500000  0.252287  1
  O  O12  1  0.000000  0.500000  0.000000  1
  O  O13  1  0.500000  0.000000  0.000000  1
  O  O14  1  0.000000  0.000000  0.128095  1
  O  O15  1  0.000000  0.000000  0.871905  1
