# generated using pymatgen
data_HoTh2Ga3Co2Ni
_symmetry_space_group_name_H-M   'P 1'
_cell_length_a   7.04111500
_cell_length_b   7.15740135
_cell_length_c   3.87677000
_cell_angle_alpha   90.00000000
_cell_angle_beta   90.00000000
_cell_angle_gamma   119.46398846
_symmetry_Int_Tables_number   1
_chemical_formula_structural   HoTh2Ga3Co2Ni
_chemical_formula_sum   'Ho1 Th2 Ga3 Co2 Ni1'
_cell_volume   170.10533781
_cell_formula_units_Z   1
loop_
 _symmetry_equiv_pos_site_id
 _symmetry_equiv_pos_as_xyz
  1  'x, y, z'
loop_
 _atom_site_type_symbol
 _atom_site_label
 _atom_site_symmetry_multiplicity
 _atom_site_fract_x
 _atom_site_fract_y
 _atom_site_fract_z
 _atom_site_occupancy
  Ho  Ho0  1  0.585543  0.000000  0.000000  1
  Th  Th1  1  0.999291  0.576014  0.000000  1
  Th  Th2  1  0.423277  0.423986  0.000000  1
  Ga  Ga3  1  0.252047  0.000000  0.500000  1
  Ga  Ga4  1  0.988187  0.227498  0.500000  1
  Ga  Ga5  1  0.760690  0.772502  0.500000  1
  Co  Co6  1  0.313652  0.643453  0.500000  1
  Co  Co7  1  0.670200  0.356547  0.500000  1
  Ni  Ni8  1  0.007115  0.000000  0.000000  1
