# generated using pymatgen
data_Tm5Th3(Nb3Si4)4
_symmetry_space_group_name_H-M   'P 1'
_cell_length_a   7.09825308
_cell_length_b   7.09840286
_cell_length_c   13.15044585
_cell_angle_alpha   89.85324092
_cell_angle_beta   90.00461278
_cell_angle_gamma   90.10663852
_symmetry_Int_Tables_number   1
_chemical_formula_structural   Tm5Th3(Nb3Si4)4
_chemical_formula_sum   'Tm5 Th3 Nb12 Si16'
_cell_volume   662.59846046
_cell_formula_units_Z   1
loop_
 _symmetry_equiv_pos_site_id
 _symmetry_equiv_pos_as_xyz
  1  'x, y, z'
loop_
 _atom_site_type_symbol
 _atom_site_label
 _atom_site_symmetry_multiplicity
 _atom_site_fract_x
 _atom_site_fract_y
 _atom_site_fract_z
 _atom_site_occupancy
  Tm  Tm0  1  0.999959  0.342422  0.215876  1
  Tm  Tm1  1  0.998849  0.658467  0.718735  1
  Tm  Tm2  1  0.158334  0.501050  0.467212  1
  Tm  Tm3  1  0.499417  0.840726  0.032035  1
  Tm  Tm4  1  0.840590  0.499786  0.968365  1
  Th  Th5  1  0.496984  0.161534  0.532385  1
  Th  Th6  1  0.339268  0.996082  0.783041  1
  Th  Th7  1  0.661140  0.003838  0.281751  1
  Nb  Nb8  1  0.168961  0.170177  0.999262  1
  Nb  Nb9  1  0.829847  0.830826  0.499322  1
  Nb  Nb10  1  0.330393  0.670793  0.248634  1
  Nb  Nb11  1  0.668887  0.329642  0.751125  1
  Nb  Nb12  1  0.155735  0.991051  0.374186  1
  Nb  Nb13  1  0.846143  0.006529  0.876662  1
  Nb  Nb14  1  0.508956  0.655068  0.626382  1
  Nb  Nb15  1  0.345690  0.494584  0.876103  1
  Nb  Nb16  1  0.491945  0.346377  0.125168  1
  Nb  Nb17  1  0.655893  0.503412  0.373828  1
  Nb  Nb18  1  0.997754  0.156566  0.625160  1
  Nb  Nb19  1  0.003527  0.844632  0.124426  1
  Si  Si20  1  0.287473  0.044658  0.183102  1
  Si  Si21  1  0.716377  0.952649  0.687473  1
  Si  Si22  1  0.452511  0.783894  0.436560  1
  Si  Si23  1  0.204195  0.543061  0.063552  1
  Si  Si24  1  0.547030  0.208235  0.939128  1
  Si  Si25  1  0.799475  0.460959  0.564245  1
  Si  Si26  1  0.038436  0.300004  0.814737  1
  Si  Si27  1  0.959216  0.700348  0.312894  1
  Si  Si28  1  0.361429  0.301070  0.314982  1
  Si  Si29  1  0.637390  0.699920  0.818782  1
  Si  Si30  1  0.198701  0.862083  0.565924  1
  Si  Si31  1  0.127494  0.790547  0.935538  1
  Si  Si32  1  0.797588  0.134302  0.065922  1
  Si  Si33  1  0.879191  0.209395  0.433550  1
  Si  Si34  1  0.290079  0.378361  0.684282  1
  Si  Si35  1  0.705142  0.626952  0.179672  1
