# generated using pymatgen
data_Pr3Bi(MoO4)6
_symmetry_space_group_name_H-M   'P 1'
_cell_length_a   7.66665824
_cell_length_b   7.66665824
_cell_length_c   11.00891447
_cell_angle_alpha   89.97631479
_cell_angle_beta   89.97631479
_cell_angle_gamma   90.01570659
_symmetry_Int_Tables_number   1
_chemical_formula_structural   Pr3Bi(MoO4)6
_chemical_formula_sum   'Pr3 Bi1 Mo6 O24'
_cell_volume   647.07797024
_cell_formula_units_Z   1
loop_
 _symmetry_equiv_pos_site_id
 _symmetry_equiv_pos_as_xyz
  1  'x, y, z'
loop_
 _atom_site_type_symbol
 _atom_site_label
 _atom_site_symmetry_multiplicity
 _atom_site_fract_x
 _atom_site_fract_y
 _atom_site_fract_z
 _atom_site_occupancy
  Pr  Pr0  1  0.812578  0.312578  0.738398  1
  Pr  Pr1  1  0.689898  0.810380  0.261869  1
  Pr  Pr2  1  0.310380  0.189898  0.261869  1
  Bi  Bi3  1  0.195964  0.695964  0.738931  1
  Mo  Mo4  1  0.208912  0.708912  0.356675  1
  Mo  Mo5  1  0.791415  0.291415  0.355879  1
  Mo  Mo6  1  0.706975  0.791777  0.645150  1
  Mo  Mo7  1  0.291777  0.206975  0.645150  1
  Mo  Mo8  1  0.002248  0.997366  0.998112  1
  Mo  Mo9  1  0.497366  0.502248  0.998112  1
  O  O10  1  0.998568  0.226274  0.297572  1
  O  O11  1  0.001306  0.773896  0.298768  1
  O  O12  1  0.225569  0.999007  0.704810  1
  O  O13  1  0.499007  0.725569  0.704810  1
  O  O14  1  0.772056  0.998813  0.703015  1
  O  O15  1  0.498813  0.272056  0.703015  1
  O  O16  1  0.273896  0.501306  0.298768  1
  O  O17  1  0.726274  0.498568  0.297572  1
  O  O18  1  0.186106  0.042030  0.093311  1
  O  O19  1  0.816669  0.953519  0.092201  1
  O  O20  1  0.047251  0.811307  0.903291  1
  O  O21  1  0.311307  0.547251  0.903291  1
  O  O22  1  0.958296  0.184032  0.905362  1
  O  O23  1  0.684032  0.458296  0.905362  1
  O  O24  1  0.453519  0.316669  0.092201  1
  O  O25  1  0.542030  0.686106  0.093311  1
  O  O26  1  0.628642  0.128642  0.310295  1
  O  O27  1  0.371844  0.871844  0.311084  1
  O  O28  1  0.128906  0.368780  0.689731  1
  O  O29  1  0.868780  0.628906  0.689731  1
  O  O30  1  0.197710  0.697710  0.517841  1
  O  O31  1  0.802956  0.302956  0.517213  1
  O  O32  1  0.696041  0.802911  0.483650  1
  O  O33  1  0.302911  0.196041  0.483650  1
