# generated using pymatgen
data_Ce2Fe9Ni3P7
_symmetry_space_group_name_H-M   'P 1'
_cell_length_a   9.03427300
_cell_length_b   9.03427195
_cell_length_c   3.67017500
_cell_angle_alpha   90.00000000
_cell_angle_beta   90.00000000
_cell_angle_gamma   120.00000018
_symmetry_Int_Tables_number   1
_chemical_formula_structural   Ce2Fe9Ni3P7
_chemical_formula_sum   'Ce2 Fe9 Ni3 P7'
_cell_volume   259.42019007
_cell_formula_units_Z   1
loop_
 _symmetry_equiv_pos_site_id
 _symmetry_equiv_pos_as_xyz
  1  'x, y, z'
loop_
 _atom_site_type_symbol
 _atom_site_label
 _atom_site_symmetry_multiplicity
 _atom_site_fract_x
 _atom_site_fract_y
 _atom_site_fract_z
 _atom_site_occupancy
  Ce  Ce0  1  0.333333  0.666667  0.000000  1
  Ce  Ce1  1  0.666667  0.333333  0.500000  1
  Fe  Fe2  1  0.154215  0.881249  0.000000  1
  Fe  Fe3  1  0.118751  0.272966  0.000000  1
  Fe  Fe4  1  0.727034  0.845785  0.000000  1
  Fe  Fe5  1  0.386268  0.952106  0.500000  1
  Fe  Fe6  1  0.047894  0.434163  0.500000  1
  Fe  Fe7  1  0.565837  0.613732  0.500000  1
  Fe  Fe8  1  0.216447  0.119036  0.500000  1
  Fe  Fe9  1  0.880964  0.097413  0.500000  1
  Fe  Fe10  1  0.902587  0.783553  0.500000  1
  Ni  Ni11  1  0.430080  0.366536  0.000000  1
  Ni  Ni12  1  0.633464  0.063545  0.000000  1
  Ni  Ni13  1  0.936455  0.569920  0.000000  1
  P  P14  1  0.404657  0.103555  0.000000  1
  P  P15  1  0.896445  0.301102  0.000000  1
  P  P16  1  0.698898  0.595343  0.000000  1
  P  P17  1  0.113597  0.716066  0.500000  1
  P  P18  1  0.283934  0.397530  0.500000  1
  P  P19  1  0.602470  0.886403  0.500000  1
  P  P20  1  0.000000  0.000000  0.000000  1
