# generated using pymatgen
data_Tm4Lu4Sc11Si16Os
_symmetry_space_group_name_H-M   'P 1'
_cell_length_a   6.94503012
_cell_length_b   7.30533995
_cell_length_c   13.75216503
_cell_angle_alpha   90.00509421
_cell_angle_beta   89.99367018
_cell_angle_gamma   90.04931555
_symmetry_Int_Tables_number   1
_chemical_formula_structural   Tm4Lu4Sc11Si16Os
_chemical_formula_sum   'Tm4 Lu4 Sc11 Si16 Os1'
_cell_volume   697.72691165
_cell_formula_units_Z   1
loop_
 _symmetry_equiv_pos_site_id
 _symmetry_equiv_pos_as_xyz
  1  'x, y, z'
loop_
 _atom_site_type_symbol
 _atom_site_label
 _atom_site_symmetry_multiplicity
 _atom_site_fract_x
 _atom_site_fract_y
 _atom_site_fract_z
 _atom_site_occupancy
  Tm  Tm0  1  0.512354  0.321857  0.093274  1
  Tm  Tm1  1  0.012756  0.179591  0.408603  1
  Tm  Tm2  1  0.512524  0.322281  0.406122  1
  Tm  Tm3  1  0.489833  0.674166  0.596312  1
  Lu  Lu4  1  0.012887  0.179986  0.091439  1
  Lu  Lu5  1  0.991656  0.817472  0.901665  1
  Lu  Lu6  1  0.489727  0.674143  0.903693  1
  Lu  Lu7  1  0.991740  0.817371  0.599042  1
  Sc  Sc8  1  0.844074  0.495773  0.249596  1
  Sc  Sc9  1  0.344778  0.004626  0.249678  1
  Sc  Sc10  1  0.653571  0.993568  0.750167  1
  Sc  Sc11  1  0.322642  0.174874  0.628133  1
  Sc  Sc12  1  0.673769  0.825342  0.374094  1
  Sc  Sc13  1  0.173804  0.673761  0.377310  1
  Sc  Sc14  1  0.673624  0.825289  0.125325  1
  Sc  Sc15  1  0.824109  0.331223  0.629843  1
  Sc  Sc16  1  0.322770  0.174824  0.872293  1
  Sc  Sc17  1  0.823882  0.331031  0.870799  1
  Sc  Sc18  1  0.173413  0.673586  0.122392  1
  Si  Si19  1  0.023723  0.107658  0.750348  1
  Si  Si20  1  0.975923  0.889183  0.249754  1
  Si  Si21  1  0.471251  0.612669  0.249662  1
  Si  Si22  1  0.510672  0.399157  0.750377  1
  Si  Si23  1  0.282753  0.853314  0.750458  1
  Si  Si24  1  0.720813  0.132676  0.249500  1
  Si  Si25  1  0.216815  0.368652  0.249583  1
  Si  Si26  1  0.794002  0.633826  0.750464  1
  Si  Si27  1  0.156701  0.467646  0.550446  1
  Si  Si28  1  0.842341  0.536724  0.464744  1
  Si  Si29  1  0.345302  0.965627  0.462808  1
  Si  Si30  1  0.842374  0.535979  0.035400  1
  Si  Si31  1  0.660526  0.034411  0.540142  1
  Si  Si32  1  0.157669  0.467885  0.949407  1
  Si  Si33  1  0.660064  0.033501  0.959644  1
  Si  Si34  1  0.344056  0.965136  0.037042  1
  Os  Os35  1  0.151099  0.505195  0.750440  1
