# generated using pymatgen
data_Na4YbTeO6
_symmetry_space_group_name_H-M   'P 1'
_cell_length_a   5.74030074
_cell_length_b   5.74030097
_cell_length_c   5.80487609
_cell_angle_alpha   100.08020119
_cell_angle_beta   100.08019396
_cell_angle_gamma   119.64109482
_symmetry_Int_Tables_number   1
_chemical_formula_structural   Na4YbTeO6
_chemical_formula_sum   'Na4 Yb1 Te1 O6'
_cell_volume   155.84484038
_cell_formula_units_Z   1
loop_
 _symmetry_equiv_pos_site_id
 _symmetry_equiv_pos_as_xyz
  1  'x, y, z'
loop_
 _atom_site_type_symbol
 _atom_site_label
 _atom_site_symmetry_multiplicity
 _atom_site_fract_x
 _atom_site_fract_y
 _atom_site_fract_z
 _atom_site_occupancy
  Na  Na0  1  0.499898  0.500102  0.000000  1
  Na  Na1  1  0.004638  0.995362  0.500000  1
  Na  Na2  1  0.660294  0.339707  0.500000  1
  Na  Na3  1  0.335980  0.664020  0.500000  1
  Yb  Yb4  1  0.833087  0.166914  0.000000  1
  Te  Te5  1  0.167124  0.832876  0.000000  1
  O  O6  1  0.959635  0.616745  0.202807  1
  O  O7  1  0.226947  0.183347  0.212971  1
  O  O8  1  0.527511  0.915051  0.213312  1
  O  O9  1  0.084949  0.472489  0.786688  1
  O  O10  1  0.816653  0.773053  0.787029  1
  O  O11  1  0.383256  0.040365  0.797193  1
