# generated using pymatgen
data_Er3Al12Os3Pt
_symmetry_space_group_name_H-M   'P 1'
_cell_length_a   8.78632600
_cell_length_b   8.82959269
_cell_length_c   9.54706504
_cell_angle_alpha   89.74412655
_cell_angle_beta   90.00000000
_cell_angle_gamma   119.83803495
_symmetry_Int_Tables_number   1
_chemical_formula_structural   Er3Al12Os3Pt
_chemical_formula_sum   'Er6 Al24 Os6 Pt2'
_cell_volume   642.46463547
_cell_formula_units_Z   2
loop_
 _symmetry_equiv_pos_site_id
 _symmetry_equiv_pos_as_xyz
  1  'x, y, z'
loop_
 _atom_site_type_symbol
 _atom_site_label
 _atom_site_symmetry_multiplicity
 _atom_site_fract_x
 _atom_site_fract_y
 _atom_site_fract_z
 _atom_site_occupancy
  Er  Er0  1  0.192992  0.385985  0.253381  1
  Er  Er1  1  0.807008  0.614015  0.746619  1
  Er  Er2  1  0.611822  0.809068  0.253302  1
  Er  Er3  1  0.388178  0.190932  0.746698  1
  Er  Er4  1  0.197245  0.809068  0.253302  1
  Er  Er5  1  0.802755  0.190932  0.746698  1
  Al  Al6  1  0.335523  0.671047  0.027049  1
  Al  Al7  1  0.664477  0.328953  0.972951  1
  Al  Al8  1  0.666666  0.333331  0.523082  1
  Al  Al9  1  0.333334  0.666669  0.476918  1
  Al  Al10  1  0.163499  0.326997  0.575751  1
  Al  Al11  1  0.836501  0.673003  0.424249  1
  Al  Al12  1  0.672198  0.835453  0.576374  1
  Al  Al13  1  0.838320  0.676640  0.079509  1
  Al  Al14  1  0.327802  0.164547  0.423626  1
  Al  Al15  1  0.161680  0.323360  0.920491  1
  Al  Al16  1  0.163255  0.835453  0.576374  1
  Al  Al17  1  0.325776  0.158632  0.078447  1
  Al  Al18  1  0.836745  0.164547  0.423626  1
  Al  Al19  1  0.674224  0.841368  0.921553  1
  Al  Al20  1  0.832856  0.158632  0.078447  1
  Al  Al21  1  0.167144  0.841368  0.921553  1
  Al  Al22  1  0.561668  0.123336  0.249134  1
  Al  Al23  1  0.438332  0.876664  0.750866  1
  Al  Al24  1  0.875517  0.437993  0.251731  1
  Al  Al25  1  0.124483  0.562007  0.748269  1
  Al  Al26  1  0.562476  0.437993  0.251731  1
  Al  Al27  1  0.437524  0.562007  0.748269  1
  Al  Al28  1  0.001075  0.002150  0.250332  1
  Al  Al29  1  0.998925  0.997850  0.749668  1
  Os  Os30  1  0.500000  0.000000  0.000000  1
  Os  Os31  1  0.500000  0.000000  0.500000  1
  Os  Os32  1  0.000000  0.500000  0.500000  1
  Os  Os33  1  0.500000  0.500000  0.500000  1
  Os  Os34  1  0.000000  0.000000  0.000000  1
  Os  Os35  1  0.000000  0.000000  0.500000  1
  Pt  Pt36  1  0.000000  0.500000  0.000000  1
  Pt  Pt37  1  0.500000  0.500000  0.000000  1
