# generated using pymatgen
data_Dy4Mn7V3(Fe5P6)2
_symmetry_space_group_name_H-M   'P 1'
_cell_length_a   3.65132900
_cell_length_b   10.38937202
_cell_length_c   12.13948277
_cell_angle_alpha   90.29329250
_cell_angle_beta   90.00000000
_cell_angle_gamma   90.00000000
_symmetry_Int_Tables_number   1
_chemical_formula_structural   Dy4Mn7V3(Fe5P6)2
_chemical_formula_sum   'Dy4 Mn7 V3 Fe10 P12'
_cell_volume   460.50543186
_cell_formula_units_Z   1
loop_
 _symmetry_equiv_pos_site_id
 _symmetry_equiv_pos_as_xyz
  1  'x, y, z'
loop_
 _atom_site_type_symbol
 _atom_site_label
 _atom_site_symmetry_multiplicity
 _atom_site_fract_x
 _atom_site_fract_y
 _atom_site_fract_z
 _atom_site_occupancy
  Dy  Dy0  1  0.250000  0.585219  0.710962  1
  Dy  Dy1  1  0.250000  0.915312  0.211438  1
  Dy  Dy2  1  0.750000  0.422361  0.289498  1
  Dy  Dy3  1  0.750000  0.077305  0.791407  1
  Mn  Mn4  1  0.750000  0.207628  0.510216  1
  Mn  Mn5  1  0.250000  0.411163  0.492196  1
  Mn  Mn6  1  0.250000  0.086619  0.992312  1
  Mn  Mn7  1  0.750000  0.595494  0.507543  1
  Mn  Mn8  1  0.750000  0.903362  0.008511  1
  Mn  Mn9  1  0.250000  0.216750  0.177615  1
  Mn  Mn10  1  0.250000  0.281939  0.674422  1
  V  V11  1  0.250000  0.697751  0.991573  1
  V  V12  1  0.250000  0.800553  0.491102  1
  V  V13  1  0.750000  0.296755  0.009735  1
  Fe  Fe14  1  0.750000  0.780623  0.826721  1
  Fe  Fe15  1  0.750000  0.719416  0.325962  1
  Fe  Fe16  1  0.250000  0.876618  0.696463  1
  Fe  Fe17  1  0.250000  0.623430  0.196603  1
  Fe  Fe18  1  0.750000  0.125716  0.301990  1
  Fe  Fe19  1  0.750000  0.373222  0.798776  1
  Fe  Fe20  1  0.250000  0.461811  0.932133  1
  Fe  Fe21  1  0.250000  0.040112  0.434498  1
  Fe  Fe22  1  0.750000  0.534946  0.064077  1
  Fe  Fe23  1  0.750000  0.966699  0.564005  1
  P  P24  1  0.250000  0.426019  0.111137  1
  P  P25  1  0.250000  0.073372  0.612638  1
  P  P26  1  0.750000  0.575245  0.886834  1
  P  P27  1  0.750000  0.924745  0.387368  1
  P  P28  1  0.250000  0.263194  0.868527  1
  P  P29  1  0.250000  0.236544  0.369861  1
  P  P30  1  0.750000  0.729244  0.136575  1
  P  P31  1  0.750000  0.772624  0.636808  1
  P  P32  1  0.250000  0.602325  0.381784  1
  P  P33  1  0.250000  0.895586  0.881895  1
  P  P34  1  0.750000  0.406651  0.612666  1
  P  P35  1  0.750000  0.093647  0.114146  1
