# generated using pymatgen
data_Ce4Zn2BRh10
_symmetry_space_group_name_H-M   'P 1'
_cell_length_a   7.10201707
_cell_length_b   7.18312161
_cell_length_c   7.18312131
_cell_angle_alpha   108.05270873
_cell_angle_beta   110.42582505
_cell_angle_gamma   110.42583365
_symmetry_Int_Tables_number   1
_chemical_formula_structural   Ce4Zn2BRh10
_chemical_formula_sum   'Ce4 Zn2 B1 Rh10'
_cell_volume   280.24850250
_cell_formula_units_Z   1
loop_
 _symmetry_equiv_pos_site_id
 _symmetry_equiv_pos_as_xyz
  1  'x, y, z'
loop_
 _atom_site_type_symbol
 _atom_site_label
 _atom_site_symmetry_multiplicity
 _atom_site_fract_x
 _atom_site_fract_y
 _atom_site_fract_z
 _atom_site_occupancy
  Ce  Ce0  1  0.021209  0.010605  0.510605  1
  Ce  Ce1  1  0.021209  0.510605  0.010605  1
  Ce  Ce2  1  0.480237  0.972410  0.972410  1
  Ce  Ce3  1  0.480237  0.507827  0.507827  1
  Zn  Zn4  1  0.743984  0.246978  0.497006  1
  Zn  Zn5  1  0.743984  0.497006  0.246978  1
  B  B6  1  0.002507  0.001254  0.001254  1
  Rh  Rh7  1  0.516184  0.258091  0.758091  1
  Rh  Rh8  1  0.235532  0.490180  0.745352  1
  Rh  Rh9  1  0.235532  0.745352  0.490180  1
  Rh  Rh10  1  0.516184  0.758091  0.258091  1
  Rh  Rh11  1  0.752815  0.741751  0.011063  1
  Rh  Rh12  1  0.273113  0.010522  0.262591  1
  Rh  Rh13  1  0.975672  0.246377  0.246377  1
  Rh  Rh14  1  0.273113  0.262591  0.010522  1
  Rh  Rh15  1  0.752815  0.011063  0.741751  1
  Rh  Rh16  1  0.975672  0.729296  0.729296  1
