# generated using pymatgen
data_LiAc2MnN4
_symmetry_space_group_name_H-M   'P 1'
_cell_length_a   5.49586600
_cell_length_b   6.03980780
_cell_length_c   6.79461800
_cell_angle_alpha   75.74200912
_cell_angle_beta   90.00000000
_cell_angle_gamma   90.00000000
_symmetry_Int_Tables_number   1
_chemical_formula_structural   LiAc2MnN4
_chemical_formula_sum   'Li2 Ac4 Mn2 N8'
_cell_volume   218.59295822
_cell_formula_units_Z   2
loop_
 _symmetry_equiv_pos_site_id
 _symmetry_equiv_pos_as_xyz
  1  'x, y, z'
loop_
 _atom_site_type_symbol
 _atom_site_label
 _atom_site_symmetry_multiplicity
 _atom_site_fract_x
 _atom_site_fract_y
 _atom_site_fract_z
 _atom_site_occupancy
  Li  Li0  1  0.750000  0.296725  0.301672  1
  Li  Li1  1  0.250000  0.703275  0.698328  1
  Ac  Ac2  1  0.250000  0.254255  0.054367  1
  Ac  Ac3  1  0.750000  0.745745  0.945633  1
  Ac  Ac4  1  0.750000  0.770340  0.440359  1
  Ac  Ac5  1  0.250000  0.229660  0.559641  1
  Mn  Mn6  1  0.250000  0.715070  0.205358  1
  Mn  Mn7  1  0.750000  0.284930  0.794642  1
  N  N8  1  0.509006  0.481999  0.742601  1
  N  N9  1  0.009006  0.518001  0.257399  1
  N  N10  1  0.490994  0.518001  0.257399  1
  N  N11  1  0.990994  0.481999  0.742601  1
  N  N12  1  0.750000  0.105508  0.619442  1
  N  N13  1  0.250000  0.894492  0.380558  1
  N  N14  1  0.750000  0.139682  0.055164  1
  N  N15  1  0.250000  0.860318  0.944836  1
