# generated using pymatgen
data_PrAl10OsRh
_symmetry_space_group_name_H-M   'P 1'
_cell_length_a   6.88182119
_cell_length_b   6.90402074
_cell_length_c   9.23321800
_cell_angle_alpha   90.00000000
_cell_angle_beta   90.00000000
_cell_angle_gamma   97.12030477
_symmetry_Int_Tables_number   1
_chemical_formula_structural   PrAl10OsRh
_chemical_formula_sum   'Pr2 Al20 Os2 Rh2'
_cell_volume   435.30768306
_cell_formula_units_Z   2
loop_
 _symmetry_equiv_pos_site_id
 _symmetry_equiv_pos_as_xyz
  1  'x, y, z'
loop_
 _atom_site_type_symbol
 _atom_site_label
 _atom_site_symmetry_multiplicity
 _atom_site_fract_x
 _atom_site_fract_y
 _atom_site_fract_z
 _atom_site_occupancy
  Pr  Pr0  1  0.872092  0.123647  0.750000  1
  Pr  Pr1  1  0.127908  0.876353  0.250000  1
  Al  Al2  1  0.620563  0.376016  0.549674  1
  Al  Al3  1  0.379437  0.623984  0.450326  1
  Al  Al4  1  0.379437  0.623984  0.049674  1
  Al  Al5  1  0.620563  0.376016  0.950326  1
  Al  Al6  1  0.226105  0.225014  0.499045  1
  Al  Al7  1  0.773895  0.774986  0.500955  1
  Al  Al8  1  0.773895  0.774986  0.999045  1
  Al  Al9  1  0.226105  0.225014  0.000955  1
  Al  Al10  1  0.840897  0.158301  0.103102  1
  Al  Al11  1  0.159103  0.841699  0.896898  1
  Al  Al12  1  0.159103  0.841699  0.603102  1
  Al  Al13  1  0.840897  0.158301  0.396898  1
  Al  Al14  1  0.856461  0.589383  0.750000  1
  Al  Al15  1  0.143539  0.410617  0.250000  1
  Al  Al16  1  0.410452  0.142120  0.750000  1
  Al  Al17  1  0.589548  0.857880  0.250000  1
  Al  Al18  1  0.224905  0.482722  0.750000  1
  Al  Al19  1  0.775095  0.517278  0.250000  1
  Al  Al20  1  0.516776  0.778961  0.750000  1
  Al  Al21  1  0.483224  0.221039  0.250000  1
  Os  Os22  1  0.500000  0.000000  0.000000  1
  Os  Os23  1  0.500000  0.000000  0.500000  1
  Rh  Rh24  1  0.000000  0.500000  0.500000  1
  Rh  Rh25  1  0.000000  0.500000  0.000000  1
