# generated using pymatgen
data_Nd2Sb4Pd3
_symmetry_space_group_name_H-M   'P 1'
_cell_length_a   4.48752152
_cell_length_b   4.48752163
_cell_length_c   21.42304444
_cell_angle_alpha   96.01195031
_cell_angle_beta   96.01194904
_cell_angle_gamma   90.00000968
_symmetry_Int_Tables_number   1
_chemical_formula_structural   Nd2Sb4Pd3
_chemical_formula_sum   'Nd4 Sb8 Pd6'
_cell_volume   426.65536584
_cell_formula_units_Z   2
loop_
 _symmetry_equiv_pos_site_id
 _symmetry_equiv_pos_as_xyz
  1  'x, y, z'
loop_
 _atom_site_type_symbol
 _atom_site_label
 _atom_site_symmetry_multiplicity
 _atom_site_fract_x
 _atom_site_fract_y
 _atom_site_fract_z
 _atom_site_occupancy
  Nd  Nd0  1  0.057680  0.057680  0.115360  1
  Nd  Nd1  1  0.185980  0.185980  0.371961  1
  Nd  Nd2  1  0.814019  0.814019  0.628039  1
  Nd  Nd3  1  0.942319  0.942319  0.884640  1
  Sb  Sb4  1  0.538930  0.538930  0.077861  1
  Sb  Sb5  1  0.617365  0.117365  0.234730  1
  Sb  Sb6  1  0.117365  0.617365  0.234730  1
  Sb  Sb7  1  0.715078  0.715078  0.430157  1
  Sb  Sb8  1  0.284921  0.284921  0.569843  1
  Sb  Sb9  1  0.882635  0.382635  0.765271  1
  Sb  Sb10  1  0.382635  0.882635  0.765271  1
  Sb  Sb11  1  0.461070  0.461070  0.922139  1
  Pd  Pd12  1  0.500000  0.000000  0.000000  1
  Pd  Pd13  1  0.000000  0.500000  0.000000  1
  Pd  Pd14  1  0.653859  0.653859  0.307718  1
  Pd  Pd15  1  0.750000  0.250000  0.500000  1
  Pd  Pd16  1  0.250000  0.750000  0.500000  1
  Pd  Pd17  1  0.346141  0.346141  0.692282  1
