# generated using pymatgen
data_LiBe12Pd6Rh5
_symmetry_space_group_name_H-M   'P 1'
_cell_length_a   3.97592100
_cell_length_b   5.60412600
_cell_length_c   11.87410700
_cell_angle_alpha   90.00005480
_cell_angle_beta   89.99688026
_cell_angle_gamma   89.99988101
_symmetry_Int_Tables_number   1
_chemical_formula_structural   LiBe12Pd6Rh5
_chemical_formula_sum   'Li1 Be12 Pd6 Rh5'
_cell_volume   264.57365409
_cell_formula_units_Z   1
loop_
 _symmetry_equiv_pos_site_id
 _symmetry_equiv_pos_as_xyz
  1  'x, y, z'
loop_
 _atom_site_type_symbol
 _atom_site_label
 _atom_site_symmetry_multiplicity
 _atom_site_fract_x
 _atom_site_fract_y
 _atom_site_fract_z
 _atom_site_occupancy
  Li  Li0  1  0.000000  0.000000  0.000000  1
  Be  Be1  1  0.499993  0.275606  0.000001  1
  Be  Be2  1  0.500005  0.724394  0.999999  1
  Be  Be3  1  0.000187  0.259066  0.174309  1
  Be  Be4  1  0.000186  0.740930  0.174312  1
  Be  Be5  1  0.500162  0.247743  0.332415  1
  Be  Be6  1  0.500163  0.752253  0.332419  1
  Be  Be7  1  0.999997  0.248547  0.500001  1
  Be  Be8  1  0.000003  0.751453  0.499999  1
  Be  Be9  1  0.499838  0.247747  0.667581  1
  Be  Be10  1  0.499839  0.752257  0.667585  1
  Be  Be11  1  0.999816  0.259069  0.825687  1
  Be  Be12  1  0.999815  0.740933  0.825690  1
  Pd  Pd13  1  0.000000  0.500000  0.000000  1
  Pd  Pd14  1  0.500160  0.000001  0.154411  1
  Pd  Pd15  1  0.000089  0.499998  0.335161  1
  Pd  Pd16  1  0.499999  0.000000  0.500000  1
  Pd  Pd17  1  0.999912  0.500002  0.664839  1
  Pd  Pd18  1  0.499839  0.999999  0.845588  1
  Rh  Rh19  1  0.500108  0.500003  0.164563  1
  Rh  Rh20  1  0.000111  0.999999  0.330326  1
  Rh  Rh21  1  0.499999  0.500000  0.500000  1
  Rh  Rh22  1  0.999890  0.000001  0.669674  1
  Rh  Rh23  1  0.499891  0.499997  0.835437  1
