# generated using pymatgen
data_Tm5ScCo5
_symmetry_space_group_name_H-M   'P 1'
_cell_length_a   5.54238022
_cell_length_b   5.54238093
_cell_length_c   20.82627700
_cell_angle_alpha   90.00000000
_cell_angle_beta   90.00000000
_cell_angle_gamma   138.24459235
_symmetry_Int_Tables_number   1
_chemical_formula_structural   Tm5ScCo5
_chemical_formula_sum   'Tm10 Sc2 Co10'
_cell_volume   426.03698824
_cell_formula_units_Z   2
loop_
 _symmetry_equiv_pos_site_id
 _symmetry_equiv_pos_as_xyz
  1  'x, y, z'
loop_
 _atom_site_type_symbol
 _atom_site_label
 _atom_site_symmetry_multiplicity
 _atom_site_fract_x
 _atom_site_fract_y
 _atom_site_fract_z
 _atom_site_occupancy
  Tm  Tm0  1  0.289761  0.710239  0.250000  1
  Tm  Tm1  1  0.291136  0.708864  0.071191  1
  Tm  Tm2  1  0.994076  0.005924  0.838042  1
  Tm  Tm3  1  0.710239  0.289761  0.750000  1
  Tm  Tm4  1  0.708864  0.291136  0.571191  1
  Tm  Tm5  1  0.005924  0.994076  0.338042  1
  Tm  Tm6  1  0.994076  0.005924  0.661958  1
  Tm  Tm7  1  0.708864  0.291136  0.928809  1
  Tm  Tm8  1  0.005924  0.994076  0.161958  1
  Tm  Tm9  1  0.291136  0.708864  0.428809  1
  Sc  Sc10  1  0.000000  0.000000  0.500000  1
  Sc  Sc11  1  0.000000  0.000000  0.000000  1
  Co  Co12  1  0.290502  0.709498  0.656842  1
  Co  Co13  1  0.587598  0.412402  0.436257  1
  Co  Co14  1  0.412731  0.587269  0.750000  1
  Co  Co15  1  0.412402  0.587598  0.936257  1
  Co  Co16  1  0.587269  0.412731  0.250000  1
  Co  Co17  1  0.412402  0.587598  0.563743  1
  Co  Co18  1  0.709498  0.290502  0.343158  1
  Co  Co19  1  0.709498  0.290502  0.156842  1
  Co  Co20  1  0.587598  0.412402  0.063743  1
  Co  Co21  1  0.290502  0.709498  0.843158  1
