# generated using pymatgen
data_PrNd5Al24(Ir3Ru)2
_symmetry_space_group_name_H-M   'P 1'
_cell_length_a   8.91938900
_cell_length_b   8.91613362
_cell_length_c   9.60989600
_cell_angle_alpha   90.00000000
_cell_angle_beta   90.00000000
_cell_angle_gamma   120.01197246
_symmetry_Int_Tables_number   1
_chemical_formula_structural   PrNd5Al24(Ir3Ru)2
_chemical_formula_sum   'Pr1 Nd5 Al24 Ir6 Ru2'
_cell_volume   661.77230185
_cell_formula_units_Z   1
loop_
 _symmetry_equiv_pos_site_id
 _symmetry_equiv_pos_as_xyz
  1  'x, y, z'
loop_
 _atom_site_type_symbol
 _atom_site_label
 _atom_site_symmetry_multiplicity
 _atom_site_fract_x
 _atom_site_fract_y
 _atom_site_fract_z
 _atom_site_occupancy
  Pr  Pr0  1  0.190452  0.380903  0.250000  1
  Nd  Nd1  1  0.809480  0.618961  0.750000  1
  Nd  Nd2  1  0.619231  0.809668  0.250000  1
  Nd  Nd3  1  0.381012  0.190543  0.750000  1
  Nd  Nd4  1  0.190438  0.809669  0.250000  1
  Nd  Nd5  1  0.809530  0.190542  0.750000  1
  Al  Al6  1  0.333498  0.666995  0.014623  1
  Al  Al7  1  0.666677  0.333355  0.984976  1
  Al  Al8  1  0.666677  0.333355  0.515024  1
  Al  Al9  1  0.333498  0.666995  0.485377  1
  Al  Al10  1  0.162873  0.325747  0.575564  1
  Al  Al11  1  0.837105  0.674209  0.424849  1
  Al  Al12  1  0.674252  0.837121  0.575211  1
  Al  Al13  1  0.837105  0.674209  0.075151  1
  Al  Al14  1  0.325883  0.162659  0.424978  1
  Al  Al15  1  0.162873  0.325747  0.924436  1
  Al  Al16  1  0.162866  0.837117  0.575211  1
  Al  Al17  1  0.325883  0.162659  0.075022  1
  Al  Al18  1  0.836776  0.162659  0.424977  1
  Al  Al19  1  0.674252  0.837121  0.924789  1
  Al  Al20  1  0.836776  0.162659  0.075023  1
  Al  Al21  1  0.162866  0.837117  0.924789  1
  Al  Al22  1  0.563084  0.126168  0.250000  1
  Al  Al23  1  0.436905  0.873811  0.750000  1
  Al  Al24  1  0.873388  0.436989  0.250000  1
  Al  Al25  1  0.126196  0.563119  0.750000  1
  Al  Al26  1  0.563601  0.436989  0.250000  1
  Al  Al27  1  0.436923  0.563119  0.750000  1
  Al  Al28  1  0.999698  0.999395  0.250000  1
  Al  Al29  1  0.000004  0.000008  0.750000  1
  Ir  Ir30  1  0.500039  0.000078  0.999953  1
  Ir  Ir31  1  0.999862  0.500117  0.999791  1
  Ir  Ir32  1  0.500039  0.000078  0.500047  1
  Ir  Ir33  1  0.500256  0.500118  0.999790  1
  Ir  Ir34  1  0.999862  0.500117  0.500209  1
  Ir  Ir35  1  0.500256  0.500118  0.500210  1
  Ru  Ru36  1  0.999942  0.999884  0.999919  1
  Ru  Ru37  1  0.999942  0.999884  0.500081  1
