# generated using pymatgen
data_Ce6U2BiSb9
_symmetry_space_group_name_H-M   'P 1'
_cell_length_a   9.65386500
_cell_length_b   9.65386669
_cell_length_c   6.21825100
_cell_angle_alpha   90.00000000
_cell_angle_beta   90.00000000
_cell_angle_gamma   119.99999763
_symmetry_Int_Tables_number   1
_chemical_formula_structural   Ce6U2BiSb9
_chemical_formula_sum   'Ce6 U2 Bi1 Sb9'
_cell_volume   501.88175647
_cell_formula_units_Z   1
loop_
 _symmetry_equiv_pos_site_id
 _symmetry_equiv_pos_as_xyz
  1  'x, y, z'
loop_
 _atom_site_type_symbol
 _atom_site_label
 _atom_site_symmetry_multiplicity
 _atom_site_fract_x
 _atom_site_fract_y
 _atom_site_fract_z
 _atom_site_occupancy
  Ce  Ce0  1  0.616548  0.002916  0.251686  1
  Ce  Ce1  1  0.386368  0.002916  0.748314  1
  Ce  Ce2  1  0.997084  0.613632  0.251686  1
  Ce  Ce3  1  0.997084  0.383452  0.748314  1
  Ce  Ce4  1  0.386368  0.383452  0.251686  1
  Ce  Ce5  1  0.616548  0.613632  0.748314  1
  U  U6  1  0.000000  0.000000  0.000000  1
  U  U7  1  0.000000  0.000000  0.500000  1
  Bi  Bi8  1  0.333333  0.666667  0.000000  1
  Sb  Sb9  1  0.275649  0.999045  0.249124  1
  Sb  Sb10  1  0.723396  0.999045  0.750876  1
  Sb  Sb11  1  0.000955  0.276604  0.249124  1
  Sb  Sb12  1  0.000955  0.724351  0.750876  1
  Sb  Sb13  1  0.723396  0.724351  0.249124  1
  Sb  Sb14  1  0.275649  0.276604  0.750876  1
  Sb  Sb15  1  0.666667  0.333333  0.000000  1
  Sb  Sb16  1  0.666667  0.333333  0.500000  1
  Sb  Sb17  1  0.333333  0.666667  0.500000  1
