# generated using pymatgen
data_Ce4In2Ga3Rh
_symmetry_space_group_name_H-M   'P 1'
_cell_length_a   7.57732282
_cell_length_b   7.57830782
_cell_length_c   4.17449400
_cell_angle_alpha   90.00000000
_cell_angle_beta   90.00000000
_cell_angle_gamma   90.15376788
_symmetry_Int_Tables_number   1
_chemical_formula_structural   Ce4In2Ga3Rh
_chemical_formula_sum   'Ce4 In2 Ga3 Rh1'
_cell_volume   239.71229466
_cell_formula_units_Z   1
loop_
 _symmetry_equiv_pos_site_id
 _symmetry_equiv_pos_as_xyz
  1  'x, y, z'
loop_
 _atom_site_type_symbol
 _atom_site_label
 _atom_site_symmetry_multiplicity
 _atom_site_fract_x
 _atom_site_fract_y
 _atom_site_fract_z
 _atom_site_occupancy
  Ce  Ce0  1  0.660420  0.176517  0.500000  1
  Ce  Ce1  1  0.323514  0.839591  0.500000  1
  Ce  Ce2  1  0.186842  0.313156  0.500000  1
  Ce  Ce3  1  0.827408  0.672639  0.500000  1
  In  In4  1  0.002216  0.002950  0.000000  1
  In  In5  1  0.497049  0.497755  0.000000  1
  Ga  Ga6  1  0.123817  0.619445  0.000000  1
  Ga  Ga7  1  0.880532  0.376158  0.000000  1
  Ga  Ga8  1  0.621975  0.878037  0.000000  1
  Rh  Rh9  1  0.376226  0.123751  0.000000  1
