# generated using pymatgen
data_Hf8FeCoTe8
_symmetry_space_group_name_H-M   'P 1'
_cell_length_a   5.29811000
_cell_length_b   11.07511100
_cell_length_c   19.81249800
_cell_angle_alpha   90.00000000
_cell_angle_beta   90.00000000
_cell_angle_gamma   90.00000000
_symmetry_Int_Tables_number   1
_chemical_formula_structural   Hf8FeCoTe8
_chemical_formula_sum   'Hf16 Fe2 Co2 Te16'
_cell_volume   1162.54104264
_cell_formula_units_Z   2
loop_
 _symmetry_equiv_pos_site_id
 _symmetry_equiv_pos_as_xyz
  1  'x, y, z'
loop_
 _atom_site_type_symbol
 _atom_site_label
 _atom_site_symmetry_multiplicity
 _atom_site_fract_x
 _atom_site_fract_y
 _atom_site_fract_z
 _atom_site_occupancy
  Hf  Hf0  1  0.498184  0.564552  0.388024  1
  Hf  Hf1  1  0.498184  0.435448  0.611976  1
  Hf  Hf2  1  0.501816  0.064552  0.111976  1
  Hf  Hf3  1  0.501816  0.935448  0.888024  1
  Hf  Hf4  1  0.498174  0.700154  0.536352  1
  Hf  Hf5  1  0.498174  0.299846  0.463648  1
  Hf  Hf6  1  0.501826  0.200154  0.963648  1
  Hf  Hf7  1  0.501826  0.799846  0.036352  1
  Hf  Hf8  1  0.001844  0.687191  0.446590  1
  Hf  Hf9  1  0.001844  0.312809  0.553410  1
  Hf  Hf10  1  0.998156  0.187191  0.053410  1
  Hf  Hf11  1  0.998156  0.812809  0.946590  1
  Hf  Hf12  1  0.001790  0.405084  0.395296  1
  Hf  Hf13  1  0.001790  0.594916  0.604704  1
  Hf  Hf14  1  0.998210  0.905084  0.104704  1
  Hf  Hf15  1  0.998210  0.094916  0.895296  1
  Fe  Fe16  1  0.250121  0.500000  0.500000  1
  Fe  Fe17  1  0.749879  0.000000  0.000000  1
  Co  Co18  1  0.749920  0.500000  0.500000  1
  Co  Co19  1  0.250080  0.000000  0.000000  1
  Te  Te20  1  0.999329  0.845246  0.563006  1
  Te  Te21  1  0.999329  0.154754  0.436994  1
  Te  Te22  1  0.000671  0.345246  0.936994  1
  Te  Te23  1  0.000671  0.654754  0.063006  1
  Te  Te24  1  0.500642  0.333999  0.318935  1
  Te  Te25  1  0.500642  0.666001  0.681065  1
  Te  Te26  1  0.499358  0.833999  0.181065  1
  Te  Te27  1  0.499358  0.166001  0.818935  1
  Te  Te28  1  0.500661  0.823806  0.407700  1
  Te  Te29  1  0.500661  0.176194  0.592300  1
  Te  Te30  1  0.499339  0.323806  0.092300  1
  Te  Te31  1  0.499339  0.676194  0.907700  1
  Te  Te32  1  0.999383  0.612898  0.306466  1
  Te  Te33  1  0.999383  0.387102  0.693534  1
  Te  Te34  1  0.000617  0.112898  0.193534  1
  Te  Te35  1  0.000617  0.887102  0.806466  1
