# generated using pymatgen
data_VGaPd2(SeO3)8
_symmetry_space_group_name_H-M   'P 1'
_cell_length_a   8.16831353
_cell_length_b   8.12533316
_cell_length_c   7.92167242
_cell_angle_alpha   91.15162553
_cell_angle_beta   89.87104005
_cell_angle_gamma   89.36419893
_symmetry_Int_Tables_number   1
_chemical_formula_structural   VGaPd2(SeO3)8
_chemical_formula_sum   'V1 Ga1 Pd2 Se8 O24'
_cell_volume   525.62335433
_cell_formula_units_Z   1
loop_
 _symmetry_equiv_pos_site_id
 _symmetry_equiv_pos_as_xyz
  1  'x, y, z'
loop_
 _atom_site_type_symbol
 _atom_site_label
 _atom_site_symmetry_multiplicity
 _atom_site_fract_x
 _atom_site_fract_y
 _atom_site_fract_z
 _atom_site_occupancy
  V  V0  1  0.500000  0.500000  0.500000  1
  Ga  Ga1  1  0.000000  0.500000  0.000000  1
  Pd  Pd2  1  0.000000  0.000000  0.500000  1
  Pd  Pd3  1  0.500000  0.000000  0.000000  1
  Se  Se4  1  0.337797  0.681697  0.176729  1
  Se  Se5  1  0.842657  0.321109  0.313238  1
  Se  Se6  1  0.683181  0.832347  0.668186  1
  Se  Se7  1  0.175993  0.167233  0.838449  1
  Se  Se8  1  0.662203  0.318303  0.823271  1
  Se  Se9  1  0.157343  0.678891  0.686762  1
  Se  Se10  1  0.316819  0.167653  0.331814  1
  Se  Se11  1  0.824007  0.832767  0.161551  1
  O  O12  1  0.239020  0.564587  0.031785  1
  O  O13  1  0.719271  0.427883  0.464500  1
  O  O14  1  0.754537  0.986782  0.535807  1
  O  O15  1  0.254647  0.007525  0.965062  1
  O  O16  1  0.515765  0.944568  0.749198  1
  O  O17  1  0.464500  0.524952  0.267277  1
  O  O18  1  0.954662  0.484094  0.246383  1
  O  O19  1  0.012726  0.053602  0.751732  1
  O  O20  1  0.990069  0.244314  0.453241  1
  O  O21  1  0.571353  0.725700  0.513389  1
  O  O22  1  0.496278  0.756431  0.050202  1
  O  O23  1  0.067149  0.266597  0.996736  1
  O  O24  1  0.760980  0.435413  0.968215  1
  O  O25  1  0.280729  0.572117  0.535500  1
  O  O26  1  0.245463  0.013218  0.464193  1
  O  O27  1  0.745353  0.992475  0.034938  1
  O  O28  1  0.484235  0.055432  0.250802  1
  O  O29  1  0.535500  0.475048  0.732723  1
  O  O30  1  0.045338  0.515906  0.753617  1
  O  O31  1  0.987274  0.946398  0.248268  1
  O  O32  1  0.009931  0.755686  0.546759  1
  O  O33  1  0.428647  0.274300  0.486611  1
  O  O34  1  0.503722  0.243569  0.949798  1
  O  O35  1  0.932851  0.733403  0.003264  1
