# generated using pymatgen
data_CaLa4Pr5Ru4
_symmetry_space_group_name_H-M   'P 1'
_cell_length_a   9.05595357
_cell_length_b   9.10282874
_cell_length_c   7.38356162
_cell_angle_alpha   84.64221216
_cell_angle_beta   84.29424722
_cell_angle_gamma   43.18172650
_symmetry_Int_Tables_number   1
_chemical_formula_structural   CaLa4Pr5Ru4
_chemical_formula_sum   'Ca1 La4 Pr5 Ru4'
_cell_volume   414.25806387
_cell_formula_units_Z   1
loop_
 _symmetry_equiv_pos_site_id
 _symmetry_equiv_pos_as_xyz
  1  'x, y, z'
loop_
 _atom_site_type_symbol
 _atom_site_label
 _atom_site_symmetry_multiplicity
 _atom_site_fract_x
 _atom_site_fract_y
 _atom_site_fract_z
 _atom_site_occupancy
  Ca  Ca0  1  0.360942  0.209083  0.814834  1
  La  La1  1  0.015705  0.794937  0.903182  1
  La  La2  1  0.202565  0.986569  0.595853  1
  La  La3  1  0.989710  0.198195  0.093058  1
  La  La4  1  0.794392  0.013694  0.404173  1
  Pr  Pr5  1  0.788300  0.640484  0.681215  1
  Pr  Pr6  1  0.636821  0.792360  0.182321  1
  Pr  Pr7  1  0.209697  0.361738  0.315595  1
  Pr  Pr8  1  0.572212  0.424807  0.748794  1
  Pr  Pr9  1  0.427969  0.573050  0.252303  1
  Ru  Ru10  1  0.156012  0.628237  0.583576  1
  Ru  Ru11  1  0.381491  0.830359  0.915189  1
  Ru  Ru12  1  0.837813  0.387416  0.413608  1
  Ru  Ru13  1  0.626371  0.159072  0.096300  1
