# generated using pymatgen
data_YEr3Sc2(B2Rh5)2
_symmetry_space_group_name_H-M   'P 1'
_cell_length_a   9.69305310
_cell_length_b   9.69305310
_cell_length_c   3.20171200
_cell_angle_alpha   90.00000000
_cell_angle_beta   90.00000000
_cell_angle_gamma   89.81892190
_symmetry_Int_Tables_number   1
_chemical_formula_structural   YEr3Sc2(B2Rh5)2
_chemical_formula_sum   'Y1 Er3 Sc2 B4 Rh10'
_cell_volume   300.81624013
_cell_formula_units_Z   1
loop_
 _symmetry_equiv_pos_site_id
 _symmetry_equiv_pos_as_xyz
  1  'x, y, z'
loop_
 _atom_site_type_symbol
 _atom_site_label
 _atom_site_symmetry_multiplicity
 _atom_site_fract_x
 _atom_site_fract_y
 _atom_site_fract_z
 _atom_site_occupancy
  Y  Y0  1  0.824293  0.324293  0.000000  1
  Er  Er1  1  0.324298  0.175298  0.000000  1
  Er  Er2  1  0.675298  0.824298  0.000000  1
  Er  Er3  1  0.175796  0.675796  0.000000  1
  Sc  Sc4  1  0.000131  0.000168  0.000000  1
  Sc  Sc5  1  0.500168  0.500131  0.000000  1
  B  B6  1  0.619325  0.119325  0.000000  1
  B  B7  1  0.120848  0.380787  0.000000  1
  B  B8  1  0.880787  0.620848  0.000000  1
  B  B9  1  0.379647  0.879647  0.000000  1
  Rh  Rh10  1  0.072723  0.225571  0.500000  1
  Rh  Rh11  1  0.225143  0.929174  0.500000  1
  Rh  Rh12  1  0.773398  0.068524  0.500000  1
  Rh  Rh13  1  0.929662  0.775254  0.500000  1
  Rh  Rh14  1  0.429174  0.725143  0.500000  1
  Rh  Rh15  1  0.568524  0.273398  0.500000  1
  Rh  Rh16  1  0.725571  0.572723  0.500000  1
  Rh  Rh17  1  0.275254  0.429662  0.500000  1
  Rh  Rh18  1  0.499116  0.999116  0.500000  1
  Rh  Rh19  1  0.000844  0.500844  0.500000  1
