# generated using pymatgen
data_Dy8Hf3Si16W9
_symmetry_space_group_name_H-M   'P 1'
_cell_length_a   6.96671389
_cell_length_b   6.96671417
_cell_length_c   12.91928300
_cell_angle_alpha   89.97083116
_cell_angle_beta   90.02916509
_cell_angle_gamma   89.91834780
_symmetry_Int_Tables_number   1
_chemical_formula_structural   Dy8Hf3Si16W9
_chemical_formula_sum   'Dy8 Hf3 Si16 W9'
_cell_volume   627.03795008
_cell_formula_units_Z   1
loop_
 _symmetry_equiv_pos_site_id
 _symmetry_equiv_pos_as_xyz
  1  'x, y, z'
loop_
 _atom_site_type_symbol
 _atom_site_label
 _atom_site_symmetry_multiplicity
 _atom_site_fract_x
 _atom_site_fract_y
 _atom_site_fract_z
 _atom_site_occupancy
  Dy  Dy0  1  0.001046  0.336407  0.216912  1
  Dy  Dy1  1  0.003654  0.662699  0.720437  1
  Dy  Dy2  1  0.162137  0.498121  0.468605  1
  Dy  Dy3  1  0.500038  0.839312  0.030815  1
  Dy  Dy4  1  0.839312  0.500038  0.969185  1
  Dy  Dy5  1  0.498121  0.162137  0.531395  1
  Dy  Dy6  1  0.336407  0.001046  0.783088  1
  Dy  Dy7  1  0.662699  0.003654  0.279563  1
  Hf  Hf8  1  0.832654  0.832654  0.500000  1
  Hf  Hf9  1  0.330905  0.667443  0.247722  1
  Hf  Hf10  1  0.667443  0.330905  0.752278  1
  Si  Si11  1  0.372682  0.294857  0.317694  1
  Si  Si12  1  0.625723  0.706966  0.817797  1
  Si  Si13  1  0.205168  0.873376  0.568264  1
  Si  Si14  1  0.124885  0.801986  0.933497  1
  Si  Si15  1  0.801986  0.124885  0.066503  1
  Si  Si16  1  0.873376  0.205168  0.431736  1
  Si  Si17  1  0.294857  0.372682  0.682306  1
  Si  Si18  1  0.706966  0.625723  0.182203  1
  Si  Si19  1  0.289583  0.043681  0.184206  1
  Si  Si20  1  0.707954  0.959559  0.688535  1
  Si  Si21  1  0.458396  0.791285  0.437563  1
  Si  Si22  1  0.209904  0.532198  0.059241  1
  Si  Si23  1  0.532198  0.209904  0.940759  1
  Si  Si24  1  0.791285  0.458396  0.562437  1
  Si  Si25  1  0.043681  0.289583  0.815794  1
  Si  Si26  1  0.959559  0.707954  0.311465  1
  W  W27  1  0.166342  0.166342  0.000000  1
  W  W28  1  0.162041  0.995182  0.375024  1
  W  W29  1  0.833521  0.005248  0.876864  1
  W  W30  1  0.505727  0.661721  0.626725  1
  W  W31  1  0.340221  0.497380  0.873678  1
  W  W32  1  0.497380  0.340221  0.126322  1
  W  W33  1  0.661721  0.505727  0.373275  1
  W  W34  1  0.995182  0.162041  0.624976  1
  W  W35  1  0.005248  0.833521  0.123136  1
