# generated using pymatgen
data_La2Nd2LuSn4
_symmetry_space_group_name_H-M   'P 1'
_cell_length_a   8.24761700
_cell_length_b   8.41216200
_cell_length_c   15.91999000
_cell_angle_alpha   90.00000000
_cell_angle_beta   90.00000000
_cell_angle_gamma   90.00000000
_symmetry_Int_Tables_number   1
_chemical_formula_structural   La2Nd2LuSn4
_chemical_formula_sum   'La8 Nd8 Lu4 Sn16'
_cell_volume   1104.53352806
_cell_formula_units_Z   4
loop_
 _symmetry_equiv_pos_site_id
 _symmetry_equiv_pos_as_xyz
  1  'x, y, z'
loop_
 _atom_site_type_symbol
 _atom_site_label
 _atom_site_symmetry_multiplicity
 _atom_site_fract_x
 _atom_site_fract_y
 _atom_site_fract_z
 _atom_site_occupancy
  La  La0  1  0.517900  0.321166  0.903025  1
  La  La1  1  0.017900  0.178834  0.596975  1
  La  La2  1  0.482100  0.678834  0.403025  1
  La  La3  1  0.982100  0.821166  0.096975  1
  La  La4  1  0.482100  0.678834  0.096975  1
  La  La5  1  0.982100  0.821166  0.403025  1
  La  La6  1  0.517900  0.321166  0.596975  1
  La  La7  1  0.017900  0.178834  0.903025  1
  Nd  Nd8  1  0.363778  0.837051  0.877904  1
  Nd  Nd9  1  0.863778  0.662949  0.622096  1
  Nd  Nd10  1  0.636222  0.162949  0.377904  1
  Nd  Nd11  1  0.136222  0.337051  0.122096  1
  Nd  Nd12  1  0.636222  0.162949  0.122096  1
  Nd  Nd13  1  0.136222  0.337051  0.377904  1
  Nd  Nd14  1  0.363778  0.837051  0.622096  1
  Nd  Nd15  1  0.863778  0.662949  0.877904  1
  Lu  Lu16  1  0.197063  0.502641  0.750000  1
  Lu  Lu17  1  0.697063  0.997359  0.750000  1
  Lu  Lu18  1  0.802937  0.497359  0.250000  1
  Lu  Lu19  1  0.302937  0.002641  0.250000  1
  Sn  Sn20  1  0.298345  0.037985  0.043290  1
  Sn  Sn21  1  0.798345  0.462015  0.456710  1
  Sn  Sn22  1  0.701655  0.962015  0.543290  1
  Sn  Sn23  1  0.201655  0.537985  0.956710  1
  Sn  Sn24  1  0.701655  0.962015  0.956710  1
  Sn  Sn25  1  0.201655  0.537985  0.543290  1
  Sn  Sn26  1  0.298345  0.037985  0.456710  1
  Sn  Sn27  1  0.798345  0.462015  0.043290  1
  Sn  Sn28  1  0.561094  0.619149  0.750000  1
  Sn  Sn29  1  0.061094  0.880851  0.750000  1
  Sn  Sn30  1  0.438906  0.380851  0.250000  1
  Sn  Sn31  1  0.938906  0.119149  0.250000  1
  Sn  Sn32  1  0.325397  0.146926  0.750000  1
  Sn  Sn33  1  0.825397  0.353074  0.750000  1
  Sn  Sn34  1  0.674603  0.853074  0.250000  1
  Sn  Sn35  1  0.174603  0.646926  0.250000  1
