# generated using pymatgen
data_Nd4Co4HgTe
_symmetry_space_group_name_H-M   'P 1'
_cell_length_a   3.99796600
_cell_length_b   3.99796590
_cell_length_c   16.98109300
_cell_angle_alpha   90.00000000
_cell_angle_beta   90.00000000
_cell_angle_gamma   120.00000086
_symmetry_Int_Tables_number   1
_chemical_formula_structural   Nd4Co4HgTe
_chemical_formula_sum   'Nd4 Co4 Hg1 Te1'
_cell_volume   235.05768251
_cell_formula_units_Z   1
loop_
 _symmetry_equiv_pos_site_id
 _symmetry_equiv_pos_as_xyz
  1  'x, y, z'
loop_
 _atom_site_type_symbol
 _atom_site_label
 _atom_site_symmetry_multiplicity
 _atom_site_fract_x
 _atom_site_fract_y
 _atom_site_fract_z
 _atom_site_occupancy
  Nd  Nd0  1  0.000000  0.000000  0.116256  1
  Nd  Nd1  1  0.000000  0.000000  0.887515  1
  Nd  Nd2  1  0.000000  0.000000  0.612485  1
  Nd  Nd3  1  0.000000  0.000000  0.383744  1
  Co  Co4  1  0.333333  0.666667  0.501146  1
  Co  Co5  1  0.666667  0.333333  0.499479  1
  Co  Co6  1  0.666667  0.333333  0.000521  1
  Co  Co7  1  0.333333  0.666667  0.998854  1
  Hg  Hg8  1  0.666667  0.333333  0.750000  1
  Te  Te9  1  0.333333  0.666667  0.250000  1
