# generated using pymatgen
data_CaPr4GaSi2
_symmetry_space_group_name_H-M   'P 1'
_cell_length_a   7.81051900
_cell_length_b   9.14537360
_cell_length_c   7.81051900
_cell_angle_alpha   115.27861466
_cell_angle_beta   90.00000000
_cell_angle_gamma   115.27861466
_symmetry_Int_Tables_number   1
_chemical_formula_structural   CaPr4GaSi2
_chemical_formula_sum   'Ca2 Pr8 Ga2 Si4'
_cell_volume   444.68565297
_cell_formula_units_Z   2
loop_
 _symmetry_equiv_pos_site_id
 _symmetry_equiv_pos_as_xyz
  1  'x, y, z'
loop_
 _atom_site_type_symbol
 _atom_site_label
 _atom_site_symmetry_multiplicity
 _atom_site_fract_x
 _atom_site_fract_y
 _atom_site_fract_z
 _atom_site_occupancy
  Ca  Ca0  1  0.000000  0.000000  0.000000  1
  Ca  Ca1  1  0.500000  0.000000  0.500000  1
  Pr  Pr2  1  0.536174  0.714672  0.678499  1
  Pr  Pr3  1  0.178499  0.714672  0.036174  1
  Pr  Pr4  1  0.678499  0.714672  0.178499  1
  Pr  Pr5  1  0.036174  0.714672  0.536174  1
  Pr  Pr6  1  0.463826  0.285328  0.321501  1
  Pr  Pr7  1  0.821501  0.285328  0.963826  1
  Pr  Pr8  1  0.321501  0.285328  0.821501  1
  Pr  Pr9  1  0.963826  0.285328  0.463826  1
  Ga  Ga10  1  0.750000  0.500000  0.750000  1
  Ga  Ga11  1  0.250000  0.500000  0.250000  1
  Si  Si12  1  0.887694  0.000000  0.612306  1
  Si  Si13  1  0.112306  0.000000  0.387694  1
  Si  Si14  1  0.612306  0.000000  0.112306  1
  Si  Si15  1  0.387694  0.000000  0.887694  1
