# generated using pymatgen
data_Ta6MnSi2Ge4Mo5
_symmetry_space_group_name_H-M   'P 1'
_cell_length_a   7.75373426
_cell_length_b   7.75379806
_cell_length_c   7.75379767
_cell_angle_alpha   126.51589397
_cell_angle_beta   128.97141433
_cell_angle_gamma   77.05738355
_symmetry_Int_Tables_number   1
_chemical_formula_structural   Ta6MnSi2Ge4Mo5
_chemical_formula_sum   'Ta6 Mn1 Si2 Ge4 Mo5'
_cell_volume   282.72911624
_cell_formula_units_Z   1
loop_
 _symmetry_equiv_pos_site_id
 _symmetry_equiv_pos_as_xyz
  1  'x, y, z'
loop_
 _atom_site_type_symbol
 _atom_site_label
 _atom_site_symmetry_multiplicity
 _atom_site_fract_x
 _atom_site_fract_y
 _atom_site_fract_z
 _atom_site_occupancy
  Ta  Ta0  1  0.548516  0.102753  0.050801  1
  Ta  Ta1  1  0.451484  0.502285  0.554236  1
  Ta  Ta2  1  0.948161  0.502279  0.050680  1
  Ta  Ta3  1  0.051839  0.102519  0.554118  1
  Ta  Ta4  1  0.748576  0.888697  0.637137  1
  Ta  Ta5  1  0.251424  0.888562  0.140123  1
  Mn  Mn6  1  0.000000  0.243423  0.243423  1
  Si  Si7  1  0.754983  0.485613  0.240492  1
  Si  Si8  1  0.245017  0.485509  0.730631  1
  Ge  Ge9  1  0.333500  0.831182  0.497877  1
  Ge  Ge10  1  0.666500  0.164376  0.497682  1
  Ge  Ge11  1  0.837695  0.843102  0.005225  1
  Ge  Ge12  1  0.162305  0.167530  0.005406  1
  Mo  Mo13  1  0.127176  0.751605  0.624531  1
  Mo  Mo14  1  0.872824  0.497353  0.624429  1
  Mo  Mo15  1  0.626795  0.750597  0.123744  1
  Mo  Mo16  1  0.373205  0.496949  0.123803  1
  Mo  Mo17  1  0.500000  0.237661  0.737661  1
