# generated using pymatgen
data_Dy5Tc6P12Ir4Rh9
_symmetry_space_group_name_H-M   'P 1'
_cell_length_a   12.68565400
_cell_length_b   12.68565432
_cell_length_c   3.95511900
_cell_angle_alpha   90.00000000
_cell_angle_beta   90.00000000
_cell_angle_gamma   119.99999916
_symmetry_Int_Tables_number   1
_chemical_formula_structural   Dy5Tc6P12Ir4Rh9
_chemical_formula_sum   'Dy5 Tc6 P12 Ir4 Rh9'
_cell_volume   551.20852415
_cell_formula_units_Z   1
loop_
 _symmetry_equiv_pos_site_id
 _symmetry_equiv_pos_as_xyz
  1  'x, y, z'
loop_
 _atom_site_type_symbol
 _atom_site_label
 _atom_site_symmetry_multiplicity
 _atom_site_fract_x
 _atom_site_fract_y
 _atom_site_fract_z
 _atom_site_occupancy
  Dy  Dy0  1  0.333333  0.666667  0.500000  1
  Dy  Dy1  1  0.666667  0.333333  0.500000  1
  Dy  Dy2  1  0.999781  0.811534  0.000000  1
  Dy  Dy3  1  0.188466  0.188247  0.000000  1
  Dy  Dy4  1  0.811753  0.000219  0.000000  1
  Tc  Tc5  1  0.988615  0.444094  0.500000  1
  Tc  Tc6  1  0.555906  0.544521  0.500000  1
  Tc  Tc7  1  0.455479  0.011385  0.500000  1
  Tc  Tc8  1  0.619562  0.798839  0.500000  1
  Tc  Tc9  1  0.201161  0.820723  0.500000  1
  Tc  Tc10  1  0.179277  0.380438  0.500000  1
  P  P11  1  0.005943  0.636884  0.500000  1
  P  P12  1  0.363116  0.369060  0.500000  1
  P  P13  1  0.630940  0.994057  0.500000  1
  P  P14  1  0.521421  0.692668  0.000000  1
  P  P15  1  0.307332  0.828752  0.000000  1
  P  P16  1  0.171248  0.478579  0.000000  1
  P  P17  1  0.482550  0.165114  0.000000  1
  P  P18  1  0.682564  0.517450  0.000000  1
  P  P19  1  0.834886  0.317436  0.000000  1
  P  P20  1  0.004649  0.182876  0.500000  1
  P  P21  1  0.817124  0.821772  0.500000  1
  P  P22  1  0.178228  0.995351  0.500000  1
  Ir  Ir23  1  0.995372  0.279864  0.000000  1
  Ir  Ir24  1  0.720136  0.715510  0.000000  1
  Ir  Ir25  1  0.284490  0.004628  0.000000  1
  Ir  Ir26  1  0.000000  0.000000  0.500000  1
  Rh  Rh27  1  0.507688  0.875449  0.000000  1
  Rh  Rh28  1  0.124551  0.632239  0.000000  1
  Rh  Rh29  1  0.367761  0.492312  0.000000  1
  Rh  Rh30  1  0.490288  0.355455  0.000000  1
  Rh  Rh31  1  0.865169  0.509712  0.000000  1
  Rh  Rh32  1  0.644545  0.134831  0.000000  1
  Rh  Rh33  1  0.375049  0.184610  0.500000  1
  Rh  Rh34  1  0.809561  0.624951  0.500000  1
  Rh  Rh35  1  0.815390  0.190439  0.500000  1
