# generated using pymatgen
data_TmSc2(CuSi)4
_symmetry_space_group_name_H-M   'P 1'
_cell_length_a   7.58577475
_cell_length_b   7.58577447
_cell_length_c   7.58577389
_cell_angle_alpha   149.50993004
_cell_angle_beta   129.06246548
_cell_angle_gamma   60.53548535
_symmetry_Int_Tables_number   1
_chemical_formula_structural   TmSc2(CuSi)4
_chemical_formula_sum   'Tm1 Sc2 Cu4 Si4'
_cell_volume   170.51761041
_cell_formula_units_Z   1
loop_
 _symmetry_equiv_pos_site_id
 _symmetry_equiv_pos_as_xyz
  1  'x, y, z'
loop_
 _atom_site_type_symbol
 _atom_site_label
 _atom_site_symmetry_multiplicity
 _atom_site_fract_x
 _atom_site_fract_y
 _atom_site_fract_z
 _atom_site_occupancy
  Tm  Tm0  1  0.000000  0.000000  0.000000  1
  Sc  Sc1  1  0.375098  0.875098  0.500000  1
  Sc  Sc2  1  0.624902  0.124902  0.500000  1
  Cu  Cu3  1  0.634497  0.327744  0.306753  1
  Cu  Cu4  1  0.365503  0.672256  0.693247  1
  Cu  Cu5  1  0.020992  0.327744  0.693247  1
  Cu  Cu6  1  0.979008  0.672256  0.306753  1
  Si  Si7  1  0.219911  0.219911  0.000000  1
  Si  Si8  1  0.780089  0.780089  0.000000  1
  Si  Si9  1  0.682846  0.500000  0.182846  1
  Si  Si10  1  0.317154  0.500000  0.817154  1
