# generated using pymatgen
data_Na4Ac7La9Pb16
_symmetry_space_group_name_H-M   'P 1'
_cell_length_a   8.57064883
_cell_length_b   16.55447731
_cell_length_c   8.67925400
_cell_angle_alpha   90.09217111
_cell_angle_beta   89.61070934
_cell_angle_gamma   90.29793827
_symmetry_Int_Tables_number   1
_chemical_formula_structural   Na4Ac7La9Pb16
_chemical_formula_sum   'Na4 Ac7 La9 Pb16'
_cell_volume   1231.38862681
_cell_formula_units_Z   1
loop_
 _symmetry_equiv_pos_site_id
 _symmetry_equiv_pos_as_xyz
  1  'x, y, z'
loop_
 _atom_site_type_symbol
 _atom_site_label
 _atom_site_symmetry_multiplicity
 _atom_site_fract_x
 _atom_site_fract_y
 _atom_site_fract_z
 _atom_site_occupancy
  Na  Na0  1  0.816251  0.748554  0.501599  1
  Na  Na1  1  0.317650  0.748171  0.997722  1
  Na  Na2  1  0.184279  0.251286  0.499381  1
  Na  Na3  1  0.682978  0.251191  0.001970  1
  Ac  Ac4  1  0.998845  0.902098  0.816463  1
  Ac  Ac5  1  0.499851  0.097275  0.315722  1
  Ac  Ac6  1  0.000390  0.405933  0.186841  1
  Ac  Ac7  1  0.502300  0.404518  0.318323  1
  Ac  Ac8  1  0.000774  0.096477  0.182667  1
  Ac  Ac9  1  0.500074  0.901892  0.683895  1
  Ac  Ac10  1  0.998385  0.595834  0.812654  1
  La  La11  1  0.644628  0.624947  0.166691  1
  La  La12  1  0.150008  0.873211  0.330626  1
  La  La13  1  0.350219  0.125017  0.831080  1
  La  La14  1  0.857008  0.377231  0.665110  1
  La  La15  1  0.356570  0.375466  0.833378  1
  La  La16  1  0.851051  0.125501  0.669479  1
  La  La17  1  0.649143  0.873904  0.168613  1
  La  La18  1  0.143310  0.623385  0.333592  1
  La  La19  1  0.497640  0.597517  0.684399  1
  Pb  Pb20  1  0.685760  0.462690  0.954963  1
  Pb  Pb21  1  0.181832  0.038423  0.541497  1
  Pb  Pb22  1  0.317115  0.960132  0.041462  1
  Pb  Pb23  1  0.801513  0.541493  0.460927  1
  Pb  Pb24  1  0.313964  0.540302  0.038195  1
  Pb  Pb25  1  0.818562  0.960311  0.457851  1
  Pb  Pb26  1  0.682317  0.038906  0.958338  1
  Pb  Pb27  1  0.195963  0.463107  0.546336  1
  Pb  Pb28  1  0.453178  0.747689  0.393888  1
  Pb  Pb29  1  0.952290  0.748688  0.107113  1
  Pb  Pb30  1  0.548631  0.249826  0.608842  1
  Pb  Pb31  1  0.047114  0.251661  0.891244  1
  Pb  Pb32  1  0.693381  0.747622  0.858761  1
  Pb  Pb33  1  0.197442  0.749154  0.639901  1
  Pb  Pb34  1  0.302945  0.250704  0.139109  1
  Pb  Pb35  1  0.806639  0.249876  0.361366  1
