# generated using pymatgen
data_Dy9Y3Co4SnRu
_symmetry_space_group_name_H-M   'P 1'
_cell_length_a   8.32445460
_cell_length_b   8.31758872
_cell_length_c   8.31741840
_cell_angle_alpha   106.66382280
_cell_angle_beta   110.54579821
_cell_angle_gamma   111.20400984
_symmetry_Int_Tables_number   1
_chemical_formula_structural   Dy9Y3Co4SnRu
_chemical_formula_sum   'Dy9 Y3 Co4 Sn1 Ru1'
_cell_volume   442.71962040
_cell_formula_units_Z   1
loop_
 _symmetry_equiv_pos_site_id
 _symmetry_equiv_pos_as_xyz
  1  'x, y, z'
loop_
 _atom_site_type_symbol
 _atom_site_label
 _atom_site_symmetry_multiplicity
 _atom_site_fract_x
 _atom_site_fract_y
 _atom_site_fract_z
 _atom_site_occupancy
  Dy  Dy0  1  0.526594  0.711092  0.815506  1
  Dy  Dy1  1  0.307136  0.619582  0.312878  1
  Dy  Dy2  1  0.307187  0.994378  0.687620  1
  Dy  Dy3  1  0.692967  0.380716  0.687628  1
  Dy  Dy4  1  0.693021  0.005459  0.312319  1
  Dy  Dy5  1  0.193609  0.213138  0.406431  1
  Dy  Dy6  1  0.806631  0.787117  0.594202  1
  Dy  Dy7  1  0.193616  0.787192  0.980492  1
  Dy  Dy8  1  0.806639  0.212441  0.019535  1
  Y  Y9  1  0.474468  0.288882  0.185575  1
  Y  Y10  1  0.102786  0.288598  0.814175  1
  Y  Y11  1  0.897503  0.711584  0.185912  1
  Co  Co12  1  0.499648  0.611758  0.110316  1
  Co  Co13  1  0.499645  0.389166  0.887722  1
  Co  Co14  1  0.379161  0.999722  0.379431  1
  Co  Co15  1  0.620458  0.999985  0.620462  1
  Sn  Sn16  1  0.999671  0.499938  0.499759  1
  Ru  Ru17  1  0.999258  0.999252  0.000034  1
