# generated using pymatgen
data_Pr3NdGa18(RuPt2)2
_symmetry_space_group_name_H-M   'P 1'
_cell_length_a   7.72441895
_cell_length_b   7.72647297
_cell_length_c   9.66418100
_cell_angle_alpha   90.00000000
_cell_angle_beta   90.00000000
_cell_angle_gamma   119.61970577
_symmetry_Int_Tables_number   1
_chemical_formula_structural   Pr3NdGa18(RuPt2)2
_chemical_formula_sum   'Pr3 Nd1 Ga18 Ru2 Pt4'
_cell_volume   501.41154864
_cell_formula_units_Z   1
loop_
 _symmetry_equiv_pos_site_id
 _symmetry_equiv_pos_as_xyz
  1  'x, y, z'
loop_
 _atom_site_type_symbol
 _atom_site_label
 _atom_site_symmetry_multiplicity
 _atom_site_fract_x
 _atom_site_fract_y
 _atom_site_fract_z
 _atom_site_occupancy
  Pr  Pr0  1  0.997556  0.666533  0.250000  1
  Pr  Pr1  1  0.002691  0.333544  0.750000  1
  Pr  Pr2  1  0.666519  0.997490  0.250000  1
  Nd  Nd3  1  0.333352  0.002487  0.750000  1
  Ga  Ga4  1  0.121532  0.121546  0.250000  1
  Ga  Ga5  1  0.879188  0.878641  0.750000  1
  Ga  Ga6  1  0.002297  0.328340  0.078624  1
  Ga  Ga7  1  0.998486  0.672441  0.920745  1
  Ga  Ga8  1  0.998486  0.672441  0.579255  1
  Ga  Ga9  1  0.328408  0.002232  0.421906  1
  Ga  Ga10  1  0.002297  0.328340  0.421376  1
  Ga  Ga11  1  0.670808  0.997617  0.579251  1
  Ga  Ga12  1  0.670808  0.997617  0.920749  1
  Ga  Ga13  1  0.328408  0.002232  0.078094  1
  Ga  Ga14  1  0.326794  0.326041  0.561868  1
  Ga  Ga15  1  0.673284  0.673341  0.438953  1
  Ga  Ga16  1  0.673284  0.673341  0.061047  1
  Ga  Ga17  1  0.326794  0.326041  0.938132  1
  Ga  Ga18  1  0.343004  0.541884  0.250000  1
  Ga  Ga19  1  0.656092  0.457090  0.750000  1
  Ga  Ga20  1  0.541740  0.342902  0.250000  1
  Ga  Ga21  1  0.457909  0.657420  0.750000  1
  Ru  Ru22  1  0.000264  0.000080  0.999662  1
  Ru  Ru23  1  0.000264  0.000080  0.500338  1
  Pt  Pt24  1  0.670485  0.329233  0.999819  1
  Pt  Pt25  1  0.329382  0.670907  0.999817  1
  Pt  Pt26  1  0.329382  0.670907  0.500183  1
  Pt  Pt27  1  0.670485  0.329233  0.500181  1
