# generated using pymatgen
data_CrAg3Se8
_symmetry_space_group_name_H-M   'P 1'
_cell_length_a   6.48854383
_cell_length_b   6.50363998
_cell_length_c   6.48353500
_cell_angle_alpha   90.68659953
_cell_angle_beta   89.36632485
_cell_angle_gamma   90.70220361
_symmetry_Int_Tables_number   1
_chemical_formula_structural   CrAg3Se8
_chemical_formula_sum   'Cr1 Ag3 Se8'
_cell_volume   273.54320125
_cell_formula_units_Z   1
loop_
 _symmetry_equiv_pos_site_id
 _symmetry_equiv_pos_as_xyz
  1  'x, y, z'
loop_
 _atom_site_type_symbol
 _atom_site_label
 _atom_site_symmetry_multiplicity
 _atom_site_fract_x
 _atom_site_fract_y
 _atom_site_fract_z
 _atom_site_occupancy
  Cr  Cr0  1  0.000000  0.000000  0.000000  1
  Ag  Ag1  1  0.500000  0.000000  0.500000  1
  Ag  Ag2  1  0.000000  0.500000  0.500000  1
  Ag  Ag3  1  0.500000  0.500000  0.000000  1
  Se  Se4  1  0.629503  0.094948  0.099574  1
  Se  Se5  1  0.099346  0.370517  0.904945  1
  Se  Se6  1  0.396595  0.603276  0.396694  1
  Se  Se7  1  0.904888  0.900502  0.629231  1
  Se  Se8  1  0.095112  0.099498  0.370769  1
  Se  Se9  1  0.603405  0.396724  0.603306  1
  Se  Se10  1  0.900654  0.629483  0.095055  1
  Se  Se11  1  0.370497  0.905052  0.900426  1
