# generated using pymatgen
data_Li3Y3CdAs2
_symmetry_space_group_name_H-M   'P 1'
_cell_length_a   7.13769800
_cell_length_b   7.13769905
_cell_length_c   4.26842800
_cell_angle_alpha   90.00000000
_cell_angle_beta   90.00000000
_cell_angle_gamma   119.99999515
_symmetry_Int_Tables_number   1
_chemical_formula_structural   Li3Y3CdAs2
_chemical_formula_sum   'Li3 Y3 Cd1 As2'
_cell_volume   188.32805198
_cell_formula_units_Z   1
loop_
 _symmetry_equiv_pos_site_id
 _symmetry_equiv_pos_as_xyz
  1  'x, y, z'
loop_
 _atom_site_type_symbol
 _atom_site_label
 _atom_site_symmetry_multiplicity
 _atom_site_fract_x
 _atom_site_fract_y
 _atom_site_fract_z
 _atom_site_occupancy
  Li  Li0  1  0.250750  0.000000  0.500000  1
  Li  Li1  1  0.749250  0.749250  0.500000  1
  Li  Li2  1  0.000000  0.250750  0.500000  1
  Y  Y3  1  0.000000  0.569500  0.000000  1
  Y  Y4  1  0.569500  0.000000  0.000000  1
  Y  Y5  1  0.430500  0.430500  0.000000  1
  Cd  Cd6  1  0.000000  0.000000  0.000000  1
  As  As7  1  0.333333  0.666667  0.500000  1
  As  As8  1  0.666667  0.333333  0.500000  1
