# generated using pymatgen
data_Li8Tb8Si3Sb5
_symmetry_space_group_name_H-M   'P 1'
_cell_length_a   9.18420039
_cell_length_b   9.18576999
_cell_length_c   7.01100000
_cell_angle_alpha   90.00000000
_cell_angle_beta   89.91807578
_cell_angle_gamma   120.00565627
_symmetry_Int_Tables_number   1
_chemical_formula_structural   Li8Tb8Si3Sb5
_chemical_formula_sum   'Li8 Tb8 Si3 Sb5'
_cell_volume   512.20305940
_cell_formula_units_Z   1
loop_
 _symmetry_equiv_pos_site_id
 _symmetry_equiv_pos_as_xyz
  1  'x, y, z'
loop_
 _atom_site_type_symbol
 _atom_site_label
 _atom_site_symmetry_multiplicity
 _atom_site_fract_x
 _atom_site_fract_y
 _atom_site_fract_z
 _atom_site_occupancy
  Li  Li0  1  0.177342  0.342042  0.278321  1
  Li  Li1  1  0.177342  0.835300  0.278321  1
  Li  Li2  1  0.651046  0.825523  0.285751  1
  Li  Li3  1  0.825559  0.654353  0.782915  1
  Li  Li4  1  0.825559  0.171205  0.782915  1
  Li  Li5  1  0.346858  0.173428  0.787999  1
  Li  Li6  1  0.336627  0.668314  0.663930  1
  Li  Li7  1  0.656931  0.328465  0.169395  1
  Tb  Tb8  1  0.508218  0.032722  0.492923  1
  Tb  Tb9  1  0.508218  0.475494  0.492923  1
  Tb  Tb10  1  0.975504  0.487752  0.496885  1
  Tb  Tb11  1  0.482992  0.977078  0.001418  1
  Tb  Tb12  1  0.482992  0.505915  0.001418  1
  Tb  Tb13  1  0.023920  0.511961  0.997802  1
  Tb  Tb14  1  0.009264  0.004633  0.496854  1
  Tb  Tb15  1  0.011898  0.005949  0.006210  1
  Si  Si16  1  0.332379  0.166189  0.236316  1
  Si  Si17  1  0.330623  0.665312  0.254126  1
  Si  Si18  1  0.668202  0.334101  0.756631  1
  Sb  Sb19  1  0.166584  0.333644  0.735836  1
  Sb  Sb20  1  0.166584  0.832941  0.735836  1
  Sb  Sb21  1  0.668464  0.834232  0.735809  1
  Sb  Sb22  1  0.833447  0.667413  0.235720  1
  Sb  Sb23  1  0.833447  0.166033  0.235720  1
