# generated using pymatgen
data_Tm4LuIrPt2
_symmetry_space_group_name_H-M   'P 1'
_cell_length_a   10.90120000
_cell_length_b   10.90120000
_cell_length_c   6.27344600
_cell_angle_alpha   90.00000000
_cell_angle_beta   90.00000000
_cell_angle_gamma   90.00000000
_symmetry_Int_Tables_number   1
_chemical_formula_structural   Tm4LuIrPt2
_chemical_formula_sum   'Tm16 Lu4 Ir4 Pt8'
_cell_volume   745.51224164
_cell_formula_units_Z   4
loop_
 _symmetry_equiv_pos_site_id
 _symmetry_equiv_pos_as_xyz
  1  'x, y, z'
loop_
 _atom_site_type_symbol
 _atom_site_label
 _atom_site_symmetry_multiplicity
 _atom_site_fract_x
 _atom_site_fract_y
 _atom_site_fract_z
 _atom_site_occupancy
  Tm  Tm0  1  0.294858  0.086730  0.374786  1
  Tm  Tm1  1  0.294858  0.913270  0.874786  1
  Tm  Tm2  1  0.705142  0.086730  0.874786  1
  Tm  Tm3  1  0.705142  0.913270  0.374786  1
  Tm  Tm4  1  0.586730  0.794858  0.874786  1
  Tm  Tm5  1  0.586730  0.205142  0.374786  1
  Tm  Tm6  1  0.413270  0.794858  0.374786  1
  Tm  Tm7  1  0.413270  0.205142  0.874786  1
  Tm  Tm8  1  0.205142  0.413270  0.625214  1
  Tm  Tm9  1  0.205142  0.586730  0.125214  1
  Tm  Tm10  1  0.794858  0.413270  0.125214  1
  Tm  Tm11  1  0.794858  0.586730  0.625214  1
  Tm  Tm12  1  0.913270  0.705142  0.125214  1
  Tm  Tm13  1  0.913270  0.294858  0.625214  1
  Tm  Tm14  1  0.086730  0.705142  0.625214  1
  Tm  Tm15  1  0.086730  0.294858  0.125214  1
  Lu  Lu16  1  0.000000  0.000000  0.500000  1
  Lu  Lu17  1  0.000000  0.000000  0.000000  1
  Lu  Lu18  1  0.500000  0.500000  0.000000  1
  Lu  Lu19  1  0.500000  0.500000  0.500000  1
  Ir  Ir20  1  0.500000  0.000000  0.120938  1
  Ir  Ir21  1  0.500000  0.000000  0.620938  1
  Ir  Ir22  1  0.000000  0.500000  0.879062  1
  Ir  Ir23  1  0.000000  0.500000  0.379062  1
  Pt  Pt24  1  0.846998  0.153002  0.250000  1
  Pt  Pt25  1  0.846998  0.846998  0.750000  1
  Pt  Pt26  1  0.153002  0.153002  0.750000  1
  Pt  Pt27  1  0.153002  0.846998  0.250000  1
  Pt  Pt28  1  0.653002  0.346998  0.750000  1
  Pt  Pt29  1  0.653002  0.653002  0.250000  1
  Pt  Pt30  1  0.346998  0.346998  0.250000  1
  Pt  Pt31  1  0.346998  0.653002  0.750000  1
