# generated using pymatgen
data_YbTh(Al3Ni)6
_symmetry_space_group_name_H-M   'P 1'
_cell_length_a   10.14396319
_cell_length_b   10.14396376
_cell_length_c   10.14396380
_cell_angle_alpha   42.39142937
_cell_angle_beta   42.39142783
_cell_angle_gamma   42.39142649
_symmetry_Int_Tables_number   1
_chemical_formula_structural   YbTh(Al3Ni)6
_chemical_formula_sum   'Yb1 Th1 Al18 Ni6'
_cell_volume   429.51093454
_cell_formula_units_Z   1
loop_
 _symmetry_equiv_pos_site_id
 _symmetry_equiv_pos_as_xyz
  1  'x, y, z'
loop_
 _atom_site_type_symbol
 _atom_site_label
 _atom_site_symmetry_multiplicity
 _atom_site_fract_x
 _atom_site_fract_y
 _atom_site_fract_z
 _atom_site_occupancy
  Yb  Yb0  1  0.833178  0.833178  0.833178  1
  Th  Th1  1  0.166813  0.166813  0.166813  1
  Al  Al2  1  0.100999  0.434717  0.756259  1
  Al  Al3  1  0.434717  0.756259  0.100999  1
  Al  Al4  1  0.573551  0.894665  0.239894  1
  Al  Al5  1  0.947972  0.947972  0.947972  1
  Al  Al6  1  0.050769  0.050769  0.050769  1
  Al  Al7  1  0.292405  0.702901  0.504638  1
  Al  Al8  1  0.894665  0.239894  0.573551  1
  Al  Al9  1  0.386414  0.386414  0.386414  1
  Al  Al10  1  0.504638  0.292405  0.702901  1
  Al  Al11  1  0.239894  0.573551  0.894665  1
  Al  Al12  1  0.718331  0.718331  0.718331  1
  Al  Al13  1  0.613896  0.613896  0.613896  1
  Al  Al14  1  0.334994  0.999466  0.665543  1
  Al  Al15  1  0.702901  0.504638  0.292405  1
  Al  Al16  1  0.665543  0.334994  0.999466  1
  Al  Al17  1  0.282631  0.282631  0.282631  1
  Al  Al18  1  0.999466  0.665543  0.334994  1
  Al  Al19  1  0.756259  0.100999  0.434717  1
  Ni  Ni20  1  0.416105  0.078816  0.759530  1
  Ni  Ni21  1  0.579753  0.242544  0.923216  1
  Ni  Ni22  1  0.078816  0.759530  0.416105  1
  Ni  Ni23  1  0.759530  0.416105  0.078816  1
  Ni  Ni24  1  0.923216  0.579753  0.242544  1
  Ni  Ni25  1  0.242544  0.923216  0.579753  1
