# generated using pymatgen
data_NdDyNi2(B4Os3)2
_symmetry_space_group_name_H-M   'P 1'
_cell_length_a   7.59893382
_cell_length_b   7.29309624
_cell_length_c   3.99572800
_cell_angle_alpha   90.00000000
_cell_angle_beta   90.00000000
_cell_angle_gamma   87.73909006
_symmetry_Int_Tables_number   1
_chemical_formula_structural   NdDyNi2(B4Os3)2
_chemical_formula_sum   'Nd1 Dy1 Ni2 B8 Os6'
_cell_volume   221.26988596
_cell_formula_units_Z   1
loop_
 _symmetry_equiv_pos_site_id
 _symmetry_equiv_pos_as_xyz
  1  'x, y, z'
loop_
 _atom_site_type_symbol
 _atom_site_label
 _atom_site_symmetry_multiplicity
 _atom_site_fract_x
 _atom_site_fract_y
 _atom_site_fract_z
 _atom_site_occupancy
  Nd  Nd0  1  0.500000  0.500000  0.987516  1
  Dy  Dy1  1  0.000000  0.000000  0.403224  1
  Ni  Ni2  1  0.359996  0.114508  0.118887  1
  Ni  Ni3  1  0.640004  0.885492  0.118887  1
  B  B4  1  0.655583  0.808034  0.615546  1
  B  B5  1  0.172808  0.278314  0.893144  1
  B  B6  1  0.291439  0.832409  0.117728  1
  B  B7  1  0.708561  0.167591  0.117728  1
  B  B8  1  0.344417  0.191966  0.615546  1
  B  B9  1  0.827192  0.721686  0.893144  1
  B  B10  1  0.217870  0.665648  0.397554  1
  B  B11  1  0.782130  0.334352  0.397554  1
  Os  Os12  1  0.620224  0.130705  0.623658  1
  Os  Os13  1  0.101628  0.652930  0.894719  1
  Os  Os14  1  0.151946  0.384733  0.393393  1
  Os  Os15  1  0.848054  0.615267  0.393393  1
  Os  Os16  1  0.898372  0.347070  0.894719  1
  Os  Os17  1  0.379776  0.869295  0.623658  1
