# generated using pymatgen
data_Sc4TaFe8Co11P12
_symmetry_space_group_name_H-M   'P 1'
_cell_length_a   3.61110700
_cell_length_b   10.17364850
_cell_length_c   11.69890297
_cell_angle_alpha   90.19904881
_cell_angle_beta   90.00000000
_cell_angle_gamma   90.00000000
_symmetry_Int_Tables_number   1
_chemical_formula_structural   Sc4TaFe8Co11P12
_chemical_formula_sum   'Sc4 Ta1 Fe8 Co11 P12'
_cell_volume   429.79326330
_cell_formula_units_Z   1
loop_
 _symmetry_equiv_pos_site_id
 _symmetry_equiv_pos_as_xyz
  1  'x, y, z'
loop_
 _atom_site_type_symbol
 _atom_site_label
 _atom_site_symmetry_multiplicity
 _atom_site_fract_x
 _atom_site_fract_y
 _atom_site_fract_z
 _atom_site_occupancy
  Sc  Sc0  1  0.250000  0.579109  0.704179  1
  Sc  Sc1  1  0.250000  0.922718  0.206664  1
  Sc  Sc2  1  0.750000  0.421414  0.295149  1
  Sc  Sc3  1  0.750000  0.081530  0.790766  1
  Ta  Ta4  1  0.250000  0.705304  0.990027  1
  Fe  Fe5  1  0.250000  0.096721  0.986884  1
  Fe  Fe6  1  0.250000  0.457231  0.932415  1
  Fe  Fe7  1  0.250000  0.037138  0.428938  1
  Fe  Fe8  1  0.750000  0.533110  0.068351  1
  Fe  Fe9  1  0.750000  0.963645  0.567264  1
  Fe  Fe10  1  0.250000  0.787569  0.491561  1
  Fe  Fe11  1  0.750000  0.291886  0.009892  1
  Fe  Fe12  1  0.750000  0.212088  0.508845  1
  Co  Co13  1  0.250000  0.224557  0.174326  1
  Co  Co14  1  0.250000  0.274852  0.676040  1
  Co  Co15  1  0.750000  0.777039  0.822267  1
  Co  Co16  1  0.750000  0.723214  0.329631  1
  Co  Co17  1  0.250000  0.880519  0.698672  1
  Co  Co18  1  0.250000  0.617571  0.206670  1
  Co  Co19  1  0.750000  0.122277  0.296903  1
  Co  Co20  1  0.750000  0.377682  0.798191  1
  Co  Co21  1  0.250000  0.406218  0.487351  1
  Co  Co22  1  0.750000  0.591280  0.516961  1
  Co  Co23  1  0.750000  0.908983  0.014706  1
  P  P24  1  0.250000  0.422102  0.116083  1
  P  P25  1  0.250000  0.076740  0.612008  1
  P  P26  1  0.750000  0.571545  0.880016  1
  P  P27  1  0.750000  0.924893  0.385025  1
  P  P28  1  0.250000  0.260123  0.866415  1
  P  P29  1  0.250000  0.236557  0.366102  1
  P  P30  1  0.750000  0.735608  0.143495  1
  P  P31  1  0.750000  0.765320  0.632499  1
  P  P32  1  0.250000  0.598016  0.395200  1
  P  P33  1  0.250000  0.914932  0.884407  1
  P  P34  1  0.750000  0.398048  0.609437  1
  P  P35  1  0.750000  0.102462  0.106660  1
