# generated using pymatgen
data_Li13In5
_symmetry_space_group_name_H-M   'P 1'
_cell_length_a   4.73915100
_cell_length_b   4.73915248
_cell_length_c   17.08777000
_cell_angle_alpha   90.00000000
_cell_angle_beta   90.00000000
_cell_angle_gamma   120.00001062
_symmetry_Int_Tables_number   1
_chemical_formula_structural   Li13In5
_chemical_formula_sum   'Li13 In5'
_cell_volume   332.36646927
_cell_formula_units_Z   1
loop_
 _symmetry_equiv_pos_site_id
 _symmetry_equiv_pos_as_xyz
  1  'x, y, z'
loop_
 _atom_site_type_symbol
 _atom_site_label
 _atom_site_symmetry_multiplicity
 _atom_site_fract_x
 _atom_site_fract_y
 _atom_site_fract_z
 _atom_site_occupancy
  Li  Li0  1  0.000000  0.000000  0.500000  1
  Li  Li1  1  0.000000  0.000000  0.671511  1
  Li  Li2  1  0.000000  0.000000  0.328489  1
  Li  Li3  1  0.000000  0.000000  0.835167  1
  Li  Li4  1  0.000000  0.000000  0.164833  1
  Li  Li5  1  0.333333  0.666667  0.946484  1
  Li  Li6  1  0.666667  0.333333  0.053516  1
  Li  Li7  1  0.333333  0.666667  0.446097  1
  Li  Li8  1  0.666667  0.333333  0.553903  1
  Li  Li9  1  0.333333  0.666667  0.283571  1
  Li  Li10  1  0.666667  0.333333  0.716429  1
  Li  Li11  1  0.333333  0.666667  0.113138  1
  Li  Li12  1  0.666667  0.333333  0.886862  1
  In  In13  1  0.000000  0.000000  0.000000  1
  In  In14  1  0.333333  0.666667  0.781045  1
  In  In15  1  0.666667  0.333333  0.218955  1
  In  In16  1  0.333333  0.666667  0.609070  1
  In  In17  1  0.666667  0.333333  0.390930  1
