# generated using pymatgen
data_Ba2MgCd(SnSe4)2
_symmetry_space_group_name_H-M   'P 1'
_cell_length_a   6.68678454
_cell_length_b   6.68073168
_cell_length_c   11.61859200
_cell_angle_alpha   90.00000000
_cell_angle_beta   90.00000000
_cell_angle_gamma   117.51413556
_symmetry_Int_Tables_number   1
_chemical_formula_structural   Ba2MgCd(SnSe4)2
_chemical_formula_sum   'Ba2 Mg1 Cd1 Sn2 Se8'
_cell_volume   460.32863476
_cell_formula_units_Z   1
loop_
 _symmetry_equiv_pos_site_id
 _symmetry_equiv_pos_as_xyz
  1  'x, y, z'
loop_
 _atom_site_type_symbol
 _atom_site_label
 _atom_site_symmetry_multiplicity
 _atom_site_fract_x
 _atom_site_fract_y
 _atom_site_fract_z
 _atom_site_occupancy
  Ba  Ba0  1  0.952038  0.951594  0.501263  1
  Ba  Ba1  1  0.952038  0.951594  0.998737  1
  Mg  Mg2  1  0.684777  0.359598  0.750000  1
  Cd  Cd3  1  0.351675  0.678257  0.250000  1
  Sn  Sn4  1  0.243592  0.673356  0.750000  1
  Sn  Sn5  1  0.672901  0.245327  0.250000  1
  Se  Se6  1  0.980579  0.460302  0.581014  1
  Se  Se7  1  0.463439  0.990930  0.422487  1
  Se  Se8  1  0.650818  0.744204  0.750000  1
  Se  Se9  1  0.758627  0.655945  0.250000  1
  Se  Se10  1  0.980579  0.460302  0.918986  1
  Se  Se11  1  0.463439  0.990930  0.077513  1
  Se  Se12  1  0.263828  0.069536  0.750000  1
  Se  Se13  1  0.062466  0.248922  0.250000  1
