# generated using pymatgen
data_AgClF34
_symmetry_space_group_name_H-M   'P 1'
_cell_length_a   8.79276411
_cell_length_b   8.46502475
_cell_length_c   10.11948142
_cell_angle_alpha   80.08811536
_cell_angle_beta   87.63810235
_cell_angle_gamma   64.77580022
_symmetry_Int_Tables_number   1
_chemical_formula_structural   AgClF34
_chemical_formula_sum   'Ag1 Cl1 F34'
_cell_volume   670.77534108
_cell_formula_units_Z   1
loop_
 _symmetry_equiv_pos_site_id
 _symmetry_equiv_pos_as_xyz
  1  'x, y, z'
loop_
 _atom_site_type_symbol
 _atom_site_label
 _atom_site_symmetry_multiplicity
 _atom_site_fract_x
 _atom_site_fract_y
 _atom_site_fract_z
 _atom_site_occupancy
  Ag  Ag0  1  0.868887  0.247222  0.749082  1
  Cl  Cl1  1  0.135965  0.752525  0.239388  1
  F  F2  1  0.608259  0.212316  0.489539  1
  F  F3  1  0.388701  0.787210  0.523883  1
  F  F4  1  0.827430  0.675252  0.718965  1
  F  F5  1  0.159018  0.288513  0.289006  1
  F  F6  1  0.089598  0.754713  0.862719  1
  F  F7  1  0.886093  0.265706  0.125222  1
  F  F8  1  0.562498  0.149250  0.380921  1
  F  F9  1  0.441784  0.852563  0.625542  1
  F  F10  1  0.641420  0.335583  0.676103  1
  F  F11  1  0.336616  0.678322  0.296415  1
  F  F12  1  0.943701  0.059078  0.643165  1
  F  F13  1  0.076011  0.918281  0.327752  1
  F  F14  1  0.916809  0.393427  0.599616  1
  F  F15  1  0.100325  0.624682  0.371666  1
  F  F16  1  0.837383  0.826585  0.636850  1
  F  F17  1  0.135486  0.178992  0.403818  1
  F  F18  1  0.797978  0.439265  0.850926  1
  F  F19  1  0.196187  0.585211  0.151222  1
  F  F20  1  0.222667  0.682733  0.774930  1
  F  F21  1  0.789788  0.307061  0.241478  1
  F  F22  1  0.937224  0.825257  0.182035  1
  F  F23  1  0.094653  0.159314  0.824740  1
  F  F24  1  0.819562  0.101176  0.897410  1
  F  F25  1  0.171817  0.880849  0.107449  1
  F  F26  1  0.492798  0.590103  0.993432  1
  F  F27  1  0.505316  0.414799  0.006877  1
  F  F28  1  0.464535  0.086369  0.861650  1
  F  F29  1  0.547136  0.913087  0.136263  1
  F  F30  1  0.284275  0.263237  0.604686  1
  F  F31  1  0.718405  0.744728  0.400855  1
  F  F32  1  0.260043  0.407626  0.670068  1
  F  F33  1  0.742427  0.604519  0.330041  1
  F  F34  1  0.549983  0.905847  0.845665  1
  F  F35  1  0.449218  0.088597  0.160621  1
