# generated using pymatgen
data_Th2AsRh6
_symmetry_space_group_name_H-M   'P 1'
_cell_length_a   6.13412331
_cell_length_b   6.13412326
_cell_length_c   6.13412400
_cell_angle_alpha   60.00000678
_cell_angle_beta   60.00000709
_cell_angle_gamma   60.00000441
_symmetry_Int_Tables_number   1
_chemical_formula_structural   Th2AsRh6
_chemical_formula_sum   'Th2 As1 Rh6'
_cell_volume   163.20844002
_cell_formula_units_Z   1
loop_
 _symmetry_equiv_pos_site_id
 _symmetry_equiv_pos_as_xyz
  1  'x, y, z'
loop_
 _atom_site_type_symbol
 _atom_site_label
 _atom_site_symmetry_multiplicity
 _atom_site_fract_x
 _atom_site_fract_y
 _atom_site_fract_z
 _atom_site_occupancy
  Th  Th0  1  0.250000  0.250000  0.250000  1
  Th  Th1  1  0.750000  0.750000  0.750000  1
  As  As2  1  0.499999  0.499999  0.499999  1
  Rh  Rh3  1  0.771438  0.228561  0.228561  1
  Rh  Rh4  1  0.228561  0.771438  0.228561  1
  Rh  Rh5  1  0.771438  0.771438  0.228561  1
  Rh  Rh6  1  0.228561  0.228561  0.771438  1
  Rh  Rh7  1  0.771438  0.228561  0.771438  1
  Rh  Rh8  1  0.228561  0.771438  0.771438  1
