# generated using pymatgen
data_Ba5CdOs3O16
_symmetry_space_group_name_H-M   'P 1'
_cell_length_a   6.07644394
_cell_length_b   6.09916370
_cell_length_c   10.58948581
_cell_angle_alpha   93.79010442
_cell_angle_beta   93.47471004
_cell_angle_gamma   89.67862969
_symmetry_Int_Tables_number   1
_chemical_formula_structural   Ba5CdOs3O16
_chemical_formula_sum   'Ba5 Cd1 Os3 O16'
_cell_volume   390.88057587
_cell_formula_units_Z   1
loop_
 _symmetry_equiv_pos_site_id
 _symmetry_equiv_pos_as_xyz
  1  'x, y, z'
loop_
 _atom_site_type_symbol
 _atom_site_label
 _atom_site_symmetry_multiplicity
 _atom_site_fract_x
 _atom_site_fract_y
 _atom_site_fract_z
 _atom_site_occupancy
  Ba  Ba0  1  0.510199  0.027969  0.199182  1
  Ba  Ba1  1  0.031865  0.502883  0.200907  1
  Ba  Ba2  1  0.999993  0.000016  0.500027  1
  Ba  Ba3  1  0.968131  0.497097  0.799091  1
  Ba  Ba4  1  0.489825  0.972029  0.800806  1
  Cd  Cd5  1  0.499996  0.499996  0.000003  1
  Os  Os6  1  0.000014  0.000001  0.000008  1
  Os  Os7  1  0.561622  0.560830  0.390664  1
  Os  Os8  1  0.438454  0.439248  0.609246  1
  O  O9  1  0.738438  0.187156  0.002900  1
  O  O10  1  0.817599  0.744454  0.020090  1
  O  O11  1  0.044298  0.046182  0.175011  1
  O  O12  1  0.473107  0.468700  0.207371  1
  O  O13  1  0.758483  0.758791  0.330483  1
  O  O14  1  0.321456  0.746625  0.378256  1
  O  O15  1  0.752673  0.324777  0.379226  1
  O  O16  1  0.331581  0.327656  0.438373  1
  O  O17  1  0.668397  0.672286  0.561572  1
  O  O18  1  0.247234  0.675348  0.620802  1
  O  O19  1  0.678603  0.253324  0.621758  1
  O  O20  1  0.241426  0.241114  0.669507  1
  O  O21  1  0.526912  0.531308  0.792652  1
  O  O22  1  0.955695  0.953799  0.825030  1
  O  O23  1  0.182405  0.255540  0.979928  1
  O  O24  1  0.261592  0.812860  0.997118  1
