# generated using pymatgen
data_RbSc3(CuTe3)2
_symmetry_space_group_name_H-M   'P 1'
_cell_length_a   9.14670073
_cell_length_b   9.14670124
_cell_length_c   10.33802864
_cell_angle_alpha   67.04022533
_cell_angle_beta   67.04022363
_cell_angle_gamma   26.82202421
_symmetry_Int_Tables_number   1
_chemical_formula_structural   RbSc3(CuTe3)2
_chemical_formula_sum   'Rb1 Sc3 Cu2 Te6'
_cell_volume   357.50649570
_cell_formula_units_Z   1
loop_
 _symmetry_equiv_pos_site_id
 _symmetry_equiv_pos_as_xyz
  1  'x, y, z'
loop_
 _atom_site_type_symbol
 _atom_site_label
 _atom_site_symmetry_multiplicity
 _atom_site_fract_x
 _atom_site_fract_y
 _atom_site_fract_z
 _atom_site_occupancy
  Rb  Rb0  1  0.000000  0.000000  0.000000  1
  Sc  Sc1  1  0.288481  0.288481  0.634985  1
  Sc  Sc2  1  0.711519  0.711519  0.365015  1
  Sc  Sc3  1  0.000000  0.000000  0.500000  1
  Cu  Cu4  1  0.274813  0.274813  0.916515  1
  Cu  Cu5  1  0.725187  0.725187  0.083485  1
  Te  Te6  1  0.572128  0.572128  0.287310  1
  Te  Te7  1  0.140439  0.140439  0.576752  1
  Te  Te8  1  0.700351  0.700351  0.850138  1
  Te  Te9  1  0.859561  0.859561  0.423248  1
  Te  Te10  1  0.427872  0.427872  0.712690  1
  Te  Te11  1  0.299649  0.299649  0.149862  1
