# generated using pymatgen
data_EuDy2Ga8Ag3
_symmetry_space_group_name_H-M   'P 1'
_cell_length_a   4.38589756
_cell_length_b   8.40823924
_cell_length_c   8.40823962
_cell_angle_alpha   69.84756453
_cell_angle_beta   74.88189060
_cell_angle_gamma   74.88189065
_symmetry_Int_Tables_number   1
_chemical_formula_structural   EuDy2Ga8Ag3
_chemical_formula_sum   'Eu1 Dy2 Ga8 Ag3'
_cell_volume   275.97365962
_cell_formula_units_Z   1
loop_
 _symmetry_equiv_pos_site_id
 _symmetry_equiv_pos_as_xyz
  1  'x, y, z'
loop_
 _atom_site_type_symbol
 _atom_site_label
 _atom_site_symmetry_multiplicity
 _atom_site_fract_x
 _atom_site_fract_y
 _atom_site_fract_z
 _atom_site_occupancy
  Eu  Eu0  1  0.500000  0.500000  0.500000  1
  Dy  Dy1  1  0.799229  0.200771  0.200771  1
  Dy  Dy2  1  0.200771  0.799229  0.799229  1
  Ga  Ga3  1  0.644889  0.072612  0.637610  1
  Ga  Ga4  1  0.355111  0.927388  0.362390  1
  Ga  Ga5  1  0.644889  0.637610  0.072612  1
  Ga  Ga6  1  0.355111  0.362390  0.927388  1
  Ga  Ga7  1  0.839274  0.793242  0.528210  1
  Ga  Ga8  1  0.160726  0.206758  0.471790  1
  Ga  Ga9  1  0.839274  0.528210  0.793242  1
  Ga  Ga10  1  0.160726  0.471790  0.206758  1
  Ag  Ag11  1  0.500000  0.000000  0.000000  1
  Ag  Ag12  1  0.000000  0.808744  0.191256  1
  Ag  Ag13  1  0.000000  0.191256  0.808744  1
