# generated using pymatgen
data_Tm8Lu12HgBi11
_symmetry_space_group_name_H-M   'P 1'
_cell_length_a   8.11496278
_cell_length_b   9.37612300
_cell_length_c   11.85669463
_cell_angle_alpha   90.00000000
_cell_angle_beta   89.65196615
_cell_angle_gamma   90.00000000
_symmetry_Int_Tables_number   1
_chemical_formula_structural   Tm8Lu12HgBi11
_chemical_formula_sum   'Tm8 Lu12 Hg1 Bi11'
_cell_volume   902.12236662
_cell_formula_units_Z   1
loop_
 _symmetry_equiv_pos_site_id
 _symmetry_equiv_pos_as_xyz
  1  'x, y, z'
loop_
 _atom_site_type_symbol
 _atom_site_label
 _atom_site_symmetry_multiplicity
 _atom_site_fract_x
 _atom_site_fract_y
 _atom_site_fract_z
 _atom_site_occupancy
  Tm  Tm0  1  0.355527  0.250000  0.289748  1
  Tm  Tm1  1  0.647369  0.750000  0.717107  1
  Tm  Tm2  1  0.149013  0.750000  0.783232  1
  Tm  Tm3  1  0.853634  0.250000  0.215548  1
  Tm  Tm4  1  0.191760  0.250000  0.779903  1
  Tm  Tm5  1  0.809507  0.750000  0.216934  1
  Tm  Tm6  1  0.312585  0.750000  0.281758  1
  Tm  Tm7  1  0.679869  0.250000  0.713027  1
  Lu  Lu8  1  0.033775  0.250000  0.508456  1
  Lu  Lu9  1  0.978797  0.750000  0.489609  1
  Lu  Lu10  1  0.475910  0.750000  0.010255  1
  Lu  Lu11  1  0.524719  0.250000  0.990001  1
  Lu  Lu12  1  0.193313  0.066379  0.060570  1
  Lu  Lu13  1  0.806569  0.933526  0.940706  1
  Lu  Lu14  1  0.307242  0.945563  0.559716  1
  Lu  Lu15  1  0.806569  0.566474  0.940706  1
  Lu  Lu16  1  0.688078  0.070375  0.443925  1
  Lu  Lu17  1  0.193313  0.433621  0.060570  1
  Lu  Lu18  1  0.688078  0.429625  0.443925  1
  Lu  Lu19  1  0.307242  0.554437  0.559716  1
  Hg  Hg20  1  0.405628  0.250000  0.540824  1
  Bi  Bi21  1  0.594390  0.750000  0.457385  1
  Bi  Bi22  1  0.095099  0.750000  0.043051  1
  Bi  Bi23  1  0.905440  0.250000  0.954555  1
  Bi  Bi24  1  0.062456  0.002371  0.323681  1
  Bi  Bi25  1  0.935570  0.997047  0.675372  1
  Bi  Bi26  1  0.435761  0.996702  0.826034  1
  Bi  Bi27  1  0.935570  0.502953  0.675372  1
  Bi  Bi28  1  0.564502  0.003760  0.174300  1
  Bi  Bi29  1  0.062456  0.497629  0.323681  1
  Bi  Bi30  1  0.564502  0.496240  0.174300  1
  Bi  Bi31  1  0.435761  0.503298  0.826034  1
