# generated using pymatgen
data_HfBe9Nb2
_symmetry_space_group_name_H-M   'P 1'
_cell_length_a   7.58765458
_cell_length_b   7.58765490
_cell_length_c   7.58765443
_cell_angle_alpha   35.43213519
_cell_angle_beta   35.43213136
_cell_angle_gamma   35.43213421
_symmetry_Int_Tables_number   1
_chemical_formula_structural   HfBe9Nb2
_chemical_formula_sum   'Hf1 Be9 Nb2'
_cell_volume   131.19051030
_cell_formula_units_Z   1
loop_
 _symmetry_equiv_pos_site_id
 _symmetry_equiv_pos_as_xyz
  1  'x, y, z'
loop_
 _atom_site_type_symbol
 _atom_site_label
 _atom_site_symmetry_multiplicity
 _atom_site_fract_x
 _atom_site_fract_y
 _atom_site_fract_z
 _atom_site_occupancy
  Hf  Hf0  1  0.000000  0.000000  0.000000  1
  Be  Be1  1  0.500000  0.500000  0.500000  1
  Be  Be2  1  0.335146  0.335146  0.335147  1
  Be  Be3  1  0.664854  0.664854  0.664853  1
  Be  Be4  1  0.076305  0.585511  0.585511  1
  Be  Be5  1  0.585511  0.585511  0.076305  1
  Be  Be6  1  0.585511  0.076305  0.585511  1
  Be  Be7  1  0.414489  0.923695  0.414489  1
  Be  Be8  1  0.923695  0.414489  0.414489  1
  Be  Be9  1  0.414489  0.414489  0.923695  1
  Nb  Nb10  1  0.142620  0.142620  0.142620  1
  Nb  Nb11  1  0.857380  0.857380  0.857380  1
