# generated using pymatgen
data_Ca3Zr5(Ni4As3)4
_symmetry_space_group_name_H-M   'P 1'
_cell_length_a   12.77062436
_cell_length_b   12.76537422
_cell_length_c   3.88637000
_cell_angle_alpha   90.00000000
_cell_angle_beta   90.00000000
_cell_angle_gamma   119.98639559
_symmetry_Int_Tables_number   1
_chemical_formula_structural   Ca3Zr5(Ni4As3)4
_chemical_formula_sum   'Ca3 Zr5 Ni16 As12'
_cell_volume   548.75687946
_cell_formula_units_Z   1
loop_
 _symmetry_equiv_pos_site_id
 _symmetry_equiv_pos_as_xyz
  1  'x, y, z'
loop_
 _atom_site_type_symbol
 _atom_site_label
 _atom_site_symmetry_multiplicity
 _atom_site_fract_x
 _atom_site_fract_y
 _atom_site_fract_z
 _atom_site_occupancy
  Ca  Ca0  1  0.000000  0.179914  0.500000  1
  Ca  Ca1  1  0.667745  0.333220  0.000000  1
  Ca  Ca2  1  0.332255  0.665476  0.000000  1
  Zr  Zr3  1  0.818228  0.818845  0.500000  1
  Zr  Zr4  1  0.181772  0.000617  0.500000  1
  Zr  Zr5  1  0.000000  0.561507  0.000000  1
  Zr  Zr6  1  0.439978  0.439363  0.000000  1
  Zr  Zr7  1  0.560022  0.999384  0.000000  1
  Ni  Ni8  1  0.000000  0.727487  0.500000  1
  Ni  Ni9  1  0.278366  0.271931  0.500000  1
  Ni  Ni10  1  0.721634  0.993565  0.500000  1
  Ni  Ni11  1  0.806218  0.180901  0.000000  1
  Ni  Ni12  1  0.821006  0.630997  0.000000  1
  Ni  Ni13  1  0.371228  0.190994  0.000000  1
  Ni  Ni14  1  0.178994  0.809992  0.000000  1
  Ni  Ni15  1  0.628772  0.819766  0.000000  1
  Ni  Ni16  1  0.193782  0.374683  0.000000  1
  Ni  Ni17  1  0.878556  0.360705  0.500000  1
  Ni  Ni18  1  0.642626  0.523413  0.500000  1
  Ni  Ni19  1  0.478057  0.119172  0.500000  1
  Ni  Ni20  1  0.357374  0.880788  0.500000  1
  Ni  Ni21  1  0.521943  0.641116  0.500000  1
  Ni  Ni22  1  0.121444  0.482150  0.500000  1
  Ni  Ni23  1  0.000000  0.996454  0.000000  1
  As  As24  1  0.000000  0.823708  0.000000  1
  As  As25  1  0.176345  0.174323  0.000000  1
  As  As26  1  0.823655  0.997977  0.000000  1
  As  As27  1  0.692659  0.169306  0.500000  1
  As  As28  1  0.828948  0.522792  0.500000  1
  As  As29  1  0.481278  0.308355  0.500000  1
  As  As30  1  0.171052  0.693843  0.500000  1
  As  As31  1  0.518722  0.827077  0.500000  1
  As  As32  1  0.307341  0.476646  0.500000  1
  As  As33  1  0.000000  0.353302  0.000000  1
  As  As34  1  0.650037  0.650134  0.000000  1
  As  As35  1  0.349963  0.000097  0.000000  1
