# generated using pymatgen
data_Ho7Er3(GaSb2)2
_symmetry_space_group_name_H-M   'P 1'
_cell_length_a   8.83356200
_cell_length_b   8.81404030
_cell_length_c   6.40915900
_cell_angle_alpha   89.99859589
_cell_angle_beta   90.00070050
_cell_angle_gamma   119.92691594
_symmetry_Int_Tables_number   1
_chemical_formula_structural   Ho7Er3(GaSb2)2
_chemical_formula_sum   'Ho7 Er3 Ga2 Sb4'
_cell_volume   432.47592186
_cell_formula_units_Z   1
loop_
 _symmetry_equiv_pos_site_id
 _symmetry_equiv_pos_as_xyz
  1  'x, y, z'
loop_
 _atom_site_type_symbol
 _atom_site_label
 _atom_site_symmetry_multiplicity
 _atom_site_fract_x
 _atom_site_fract_y
 _atom_site_fract_z
 _atom_site_occupancy
  Ho  Ho0  1  0.011517  0.766973  0.750004  1
  Ho  Ho1  1  0.011517  0.244544  0.249996  1
  Ho  Ho2  1  0.752902  0.753565  0.250010  1
  Ho  Ho3  1  0.752902  0.999339  0.749990  1
  Ho  Ho4  1  0.244462  0.233090  0.750116  1
  Ho  Ho5  1  0.244462  0.011372  0.249884  1
  Ho  Ho6  1  0.336164  0.668082  0.500000  1
  Er  Er7  1  0.652555  0.326278  0.000000  1
  Er  Er8  1  0.652270  0.326135  0.500000  1
  Er  Er9  1  0.336092  0.668047  0.000000  1
  Ga  Ga10  1  0.394902  0.997381  0.750395  1
  Ga  Ga11  1  0.394902  0.397520  0.249605  1
  Sb  Sb12  1  0.998173  0.606877  0.249743  1
  Sb  Sb13  1  0.998173  0.391296  0.750257  1
  Sb  Sb14  1  0.609504  0.607614  0.750392  1
  Sb  Sb15  1  0.609504  0.001890  0.249608  1
