# generated using pymatgen
data_TbY7(Sc3Ga4)4
_symmetry_space_group_name_H-M   'P 1'
_cell_length_a   7.28780209
_cell_length_b   7.54459978
_cell_length_c   14.51130000
_cell_angle_alpha   89.97674632
_cell_angle_beta   90.00878957
_cell_angle_gamma   90.01182786
_symmetry_Int_Tables_number   1
_chemical_formula_structural   TbY7(Sc3Ga4)4
_chemical_formula_sum   'Tb1 Y7 Sc12 Ga16'
_cell_volume   797.88269742
_cell_formula_units_Z   1
loop_
 _symmetry_equiv_pos_site_id
 _symmetry_equiv_pos_as_xyz
  1  'x, y, z'
loop_
 _atom_site_type_symbol
 _atom_site_label
 _atom_site_symmetry_multiplicity
 _atom_site_fract_x
 _atom_site_fract_y
 _atom_site_fract_z
 _atom_site_occupancy
  Tb  Tb0  1  0.488897  0.678290  0.595613  1
  Y  Y1  1  0.011039  0.177500  0.095451  1
  Y  Y2  1  0.988958  0.822472  0.904421  1
  Y  Y3  1  0.488975  0.677483  0.904641  1
  Y  Y4  1  0.988950  0.822307  0.595374  1
  Y  Y5  1  0.510984  0.322447  0.095438  1
  Y  Y6  1  0.011224  0.177517  0.404739  1
  Y  Y7  1  0.511065  0.322478  0.404888  1
  Sc  Sc8  1  0.161773  0.502310  0.749871  1
  Sc  Sc9  1  0.838361  0.497799  0.250039  1
  Sc  Sc10  1  0.338360  0.002198  0.250075  1
  Sc  Sc11  1  0.661593  0.997723  0.749862  1
  Sc  Sc12  1  0.330255  0.174249  0.624458  1
  Sc  Sc13  1  0.669491  0.825467  0.375671  1
  Sc  Sc14  1  0.169675  0.674197  0.375536  1
  Sc  Sc15  1  0.669661  0.825622  0.124348  1
  Sc  Sc16  1  0.830314  0.325882  0.624382  1
  Sc  Sc17  1  0.330403  0.174320  0.875550  1
  Sc  Sc18  1  0.830270  0.325818  0.875479  1
  Sc  Sc19  1  0.169645  0.674329  0.124356  1
  Ga  Ga20  1  0.031497  0.117911  0.749928  1
  Ga  Ga21  1  0.968369  0.881970  0.250086  1
  Ga  Ga22  1  0.468427  0.617815  0.250039  1
  Ga  Ga23  1  0.531340  0.382314  0.749834  1
  Ga  Ga24  1  0.284130  0.872521  0.749759  1
  Ga  Ga25  1  0.715924  0.127409  0.250107  1
  Ga  Ga26  1  0.215922  0.372485  0.250046  1
  Ga  Ga27  1  0.783906  0.627529  0.749883  1
  Ga  Ga28  1  0.160911  0.465316  0.540340  1
  Ga  Ga29  1  0.839889  0.534993  0.459797  1
  Ga  Ga30  1  0.339469  0.964413  0.459894  1
  Ga  Ga31  1  0.839627  0.535154  0.040212  1
  Ga  Ga32  1  0.660384  0.034960  0.540407  1
  Ga  Ga33  1  0.160324  0.464676  0.959610  1
  Ga  Ga34  1  0.660416  0.035282  0.959640  1
  Ga  Ga35  1  0.339571  0.964846  0.040224  1
