# generated using pymatgen
data_Ta2NbAl2AuC
_symmetry_space_group_name_H-M   'P 1'
_cell_length_a   8.43277527
_cell_length_b   8.43287052
_cell_length_c   8.43399800
_cell_angle_alpha   59.99482792
_cell_angle_beta   59.99711858
_cell_angle_gamma   60.00922954
_symmetry_Int_Tables_number   1
_chemical_formula_structural   Ta2NbAl2AuC
_chemical_formula_sum   'Ta8 Nb4 Al8 Au4 C4'
_cell_volume   424.10002583
_cell_formula_units_Z   4
loop_
 _symmetry_equiv_pos_site_id
 _symmetry_equiv_pos_as_xyz
  1  'x, y, z'
loop_
 _atom_site_type_symbol
 _atom_site_label
 _atom_site_symmetry_multiplicity
 _atom_site_fract_x
 _atom_site_fract_y
 _atom_site_fract_z
 _atom_site_occupancy
  Ta  Ta0  1  0.679507  0.678433  0.320985  1
  Ta  Ta1  1  0.320985  0.321075  0.679507  1
  Ta  Ta2  1  0.571592  0.570539  0.928914  1
  Ta  Ta3  1  0.929184  0.570291  0.571335  1
  Ta  Ta4  1  0.571335  0.929191  0.929184  1
  Ta  Ta5  1  0.928914  0.928956  0.571592  1
  Ta  Ta6  1  0.679108  0.320892  0.679108  1
  Ta  Ta7  1  0.929036  0.570964  0.929036  1
  Nb  Nb8  1  0.569593  0.930407  0.569593  1
  Nb  Nb9  1  0.319604  0.679829  0.680920  1
  Nb  Nb10  1  0.680920  0.319646  0.319604  1
  Nb  Nb11  1  0.319465  0.680535  0.319465  1
  Al  Al12  1  0.914350  0.913806  0.913883  1
  Al  Al13  1  0.991642  0.335854  0.335933  1
  Al  Al14  1  0.336024  0.991089  0.336728  1
  Al  Al15  1  0.335933  0.336570  0.991642  1
  Al  Al16  1  0.913883  0.257962  0.914350  1
  Al  Al17  1  0.913576  0.914181  0.258544  1
  Al  Al18  1  0.258544  0.913699  0.913576  1
  Al  Al19  1  0.336728  0.336160  0.336024  1
  Au  Au20  1  0.125529  0.125643  0.124006  1
  Au  Au21  1  0.625039  0.125049  0.123377  1
  Au  Au22  1  0.124006  0.624823  0.125529  1
  Au  Au23  1  0.123377  0.126536  0.625039  1
  C  C24  1  0.626965  0.623149  0.625328  1
  C  C25  1  0.123371  0.624295  0.626465  1
  C  C26  1  0.625328  0.124558  0.626965  1
  C  C27  1  0.626465  0.625869  0.123371  1
