# generated using pymatgen
data_Tb2Dy(Ga3Ru)3
_symmetry_space_group_name_H-M   'P 1'
_cell_length_a   6.44143528
_cell_length_b   6.44141515
_cell_length_c   6.45211716
_cell_angle_alpha   89.99122161
_cell_angle_beta   89.97564911
_cell_angle_gamma   90.02348158
_symmetry_Int_Tables_number   1
_chemical_formula_structural   Tb2Dy(Ga3Ru)3
_chemical_formula_sum   'Tb2 Dy1 Ga9 Ru3'
_cell_volume   267.71092996
_cell_formula_units_Z   1
loop_
 _symmetry_equiv_pos_site_id
 _symmetry_equiv_pos_as_xyz
  1  'x, y, z'
loop_
 _atom_site_type_symbol
 _atom_site_label
 _atom_site_symmetry_multiplicity
 _atom_site_fract_x
 _atom_site_fract_y
 _atom_site_fract_z
 _atom_site_occupancy
  Tb  Tb0  1  0.500009  0.000003  0.500013  1
  Tb  Tb1  1  0.000028  0.499999  0.499976  1
  Dy  Dy2  1  0.500008  0.500014  0.000031  1
  Ga  Ga3  1  0.499967  0.500011  0.500007  1
  Ga  Ga4  1  0.210581  0.210583  0.789856  1
  Ga  Ga5  1  0.210624  0.789357  0.210229  1
  Ga  Ga6  1  0.789332  0.210589  0.210231  1
  Ga  Ga7  1  0.789345  0.789356  0.789849  1
  Ga  Ga8  1  0.789422  0.789427  0.210127  1
  Ga  Ga9  1  0.789387  0.210605  0.789781  1
  Ga  Ga10  1  0.210679  0.789401  0.789752  1
  Ga  Ga11  1  0.210663  0.210651  0.210145  1
  Ru  Ru12  1  0.999980  0.999996  0.500024  1
  Ru  Ru13  1  0.999954  0.500013  0.999992  1
  Ru  Ru14  1  0.500021  0.999994  0.999988  1
