# generated using pymatgen
data_PaCu4Ag
_symmetry_space_group_name_H-M   'P 1'
_cell_length_a   5.06298360
_cell_length_b   5.06298317
_cell_length_c   5.06259900
_cell_angle_alpha   119.94312709
_cell_angle_beta   119.94312313
_cell_angle_gamma   60.05424289
_symmetry_Int_Tables_number   1
_chemical_formula_structural   PaCu4Ag
_chemical_formula_sum   'Pa1 Cu4 Ag1'
_cell_volume   91.88029332
_cell_formula_units_Z   1
loop_
 _symmetry_equiv_pos_site_id
 _symmetry_equiv_pos_as_xyz
  1  'x, y, z'
loop_
 _atom_site_type_symbol
 _atom_site_label
 _atom_site_symmetry_multiplicity
 _atom_site_fract_x
 _atom_site_fract_y
 _atom_site_fract_z
 _atom_site_occupancy
  Pa  Pa0  1  0.625264  0.625264  0.374823  1
  Cu  Cu1  1  0.001133  0.001133  0.998869  1
  Cu  Cu2  1  0.496647  0.001207  0.998818  1
  Cu  Cu3  1  0.001207  0.496647  0.998818  1
  Cu  Cu4  1  0.001193  0.001193  0.503358  1
  Ag  Ag5  1  0.374558  0.374558  0.625314  1
