# generated using pymatgen
data_Dy15ErCd3AgIr4
_symmetry_space_group_name_H-M   'P 1'
_cell_length_a   9.62837053
_cell_length_b   9.62837106
_cell_length_c   9.62837016
_cell_angle_alpha   59.88023681
_cell_angle_beta   59.88023750
_cell_angle_gamma   59.88024082
_symmetry_Int_Tables_number   1
_chemical_formula_structural   Dy15ErCd3AgIr4
_chemical_formula_sum   'Dy15 Er1 Cd3 Ag1 Ir4'
_cell_volume   629.45061873
_cell_formula_units_Z   1
loop_
 _symmetry_equiv_pos_site_id
 _symmetry_equiv_pos_as_xyz
  1  'x, y, z'
loop_
 _atom_site_type_symbol
 _atom_site_label
 _atom_site_symmetry_multiplicity
 _atom_site_fract_x
 _atom_site_fract_y
 _atom_site_fract_z
 _atom_site_occupancy
  Dy  Dy0  1  0.599836  0.599836  0.202118  1
  Dy  Dy1  1  0.599836  0.202118  0.599836  1
  Dy  Dy2  1  0.202118  0.599836  0.599836  1
  Dy  Dy3  1  0.060117  0.439385  0.439385  1
  Dy  Dy4  1  0.438177  0.060421  0.060421  1
  Dy  Dy5  1  0.439385  0.060117  0.439385  1
  Dy  Dy6  1  0.060421  0.438177  0.060421  1
  Dy  Dy7  1  0.439385  0.439385  0.060117  1
  Dy  Dy8  1  0.060421  0.060421  0.438177  1
  Dy  Dy9  1  0.185917  0.812085  0.812085  1
  Dy  Dy10  1  0.812007  0.186882  0.186882  1
  Dy  Dy11  1  0.812085  0.185917  0.812085  1
  Dy  Dy12  1  0.186882  0.812007  0.186882  1
  Dy  Dy13  1  0.812085  0.812085  0.185917  1
  Dy  Dy14  1  0.186882  0.186882  0.812007  1
  Er  Er15  1  0.598498  0.598498  0.598498  1
  Cd  Cd16  1  0.831062  0.831062  0.508370  1
  Cd  Cd17  1  0.831062  0.508370  0.831062  1
  Cd  Cd18  1  0.508370  0.831062  0.831062  1
  Ag  Ag19  1  0.832883  0.832883  0.832883  1
  Ir  Ir20  1  0.391865  0.391865  0.391865  1
  Ir  Ir21  1  0.393049  0.393049  0.824607  1
  Ir  Ir22  1  0.393049  0.824607  0.393049  1
  Ir  Ir23  1  0.824607  0.393049  0.393049  1
