# generated using pymatgen
data_Pr2Zn2SiPIr6
_symmetry_space_group_name_H-M   'P 1'
_cell_length_a   6.78443487
_cell_length_b   6.77049547
_cell_length_c   6.78443528
_cell_angle_alpha   130.76115124
_cell_angle_beta   112.84607928
_cell_angle_gamma   87.71302737
_symmetry_Int_Tables_number   1
_chemical_formula_structural   Pr2Zn2SiPIr6
_chemical_formula_sum   'Pr2 Zn2 Si1 P1 Ir6'
_cell_volume   207.09335829
_cell_formula_units_Z   1
loop_
 _symmetry_equiv_pos_site_id
 _symmetry_equiv_pos_as_xyz
  1  'x, y, z'
loop_
 _atom_site_type_symbol
 _atom_site_label
 _atom_site_symmetry_multiplicity
 _atom_site_fract_x
 _atom_site_fract_y
 _atom_site_fract_z
 _atom_site_occupancy
  Pr  Pr0  1  0.242645  0.983941  0.741296  1
  Pr  Pr1  1  0.754450  0.015541  0.261091  1
  Zn  Zn2  1  0.061668  0.295874  0.234206  1
  Zn  Zn3  1  0.925230  0.689532  0.764302  1
  Si  Si4  1  0.610631  0.369138  0.758507  1
  P  P5  1  0.407184  0.648974  0.241790  1
  Ir  Ir6  1  0.486314  0.498330  0.486142  1
  Ir  Ir7  1  0.012188  0.498330  0.012016  1
  Ir  Ir8  1  0.288444  0.000983  0.290004  1
  Ir  Ir9  1  0.710979  0.000983  0.712539  1
  Ir  Ir10  1  0.278374  0.499186  0.777294  1
  Ir  Ir11  1  0.721891  0.499186  0.220811  1
