# generated using pymatgen
data_TbErBi4(SbO7)2
_symmetry_space_group_name_H-M   'P 1'
_cell_length_a   6.50988528
_cell_length_b   6.80716722
_cell_length_c   7.66194105
_cell_angle_alpha   106.36900408
_cell_angle_beta   89.63271605
_cell_angle_gamma   98.94776809
_symmetry_Int_Tables_number   1
_chemical_formula_structural   TbErBi4(SbO7)2
_chemical_formula_sum   'Tb1 Er1 Bi4 Sb2 O14'
_cell_volume   321.55262781
_cell_formula_units_Z   1
loop_
 _symmetry_equiv_pos_site_id
 _symmetry_equiv_pos_as_xyz
  1  'x, y, z'
loop_
 _atom_site_type_symbol
 _atom_site_label
 _atom_site_symmetry_multiplicity
 _atom_site_fract_x
 _atom_site_fract_y
 _atom_site_fract_z
 _atom_site_occupancy
  Tb  Tb0  1  0.543212  0.996237  0.752491  1
  Er  Er1  1  0.457127  0.004212  0.247609  1
  Bi  Bi2  1  0.255630  0.512136  0.878587  1
  Bi  Bi3  1  0.743615  0.489108  0.121805  1
  Bi  Bi4  1  0.730303  0.461481  0.607826  1
  Bi  Bi5  1  0.269591  0.537473  0.390510  1
  Sb  Sb6  1  0.000266  0.000048  0.499606  1
  Sb  Sb7  1  0.000090  0.000000  0.000729  1
  O  O8  1  0.458702  0.661011  0.180306  1
  O  O9  1  0.541646  0.343632  0.821067  1
  O  O10  1  0.293185  0.953080  0.956455  1
  O  O11  1  0.707015  0.046377  0.047664  1
  O  O12  1  0.287599  0.927049  0.512650  1
  O  O13  1  0.712548  0.072619  0.483813  1
  O  O14  1  0.527847  0.347109  0.347441  1
  O  O15  1  0.470114  0.648684  0.650804  1
  O  O16  1  0.916678  0.688613  0.954818  1
  O  O17  1  0.082750  0.311280  0.045176  1
  O  O18  1  0.098191  0.306425  0.612254  1
  O  O19  1  0.901116  0.693469  0.388018  1
  O  O20  1  0.901760  0.955024  0.738543  1
  O  O21  1  0.101016  0.044935  0.261829  1
