# generated using pymatgen
data_CeHo3(InPd2)2
_symmetry_space_group_name_H-M   'P 1'
_cell_length_a   7.76313394
_cell_length_b   7.76313394
_cell_length_c   3.71198100
_cell_angle_alpha   90.00000000
_cell_angle_beta   90.00000000
_cell_angle_gamma   90.58437545
_symmetry_Int_Tables_number   1
_chemical_formula_structural   CeHo3(InPd2)2
_chemical_formula_sum   'Ce1 Ho3 In2 Pd4'
_cell_volume   223.69553443
_cell_formula_units_Z   1
loop_
 _symmetry_equiv_pos_site_id
 _symmetry_equiv_pos_as_xyz
  1  'x, y, z'
loop_
 _atom_site_type_symbol
 _atom_site_label
 _atom_site_symmetry_multiplicity
 _atom_site_fract_x
 _atom_site_fract_y
 _atom_site_fract_z
 _atom_site_occupancy
  Ce  Ce0  1  0.327455  0.827455  0.500000  1
  Ho  Ho1  1  0.826143  0.670508  0.500000  1
  Ho  Ho2  1  0.170508  0.326143  0.500000  1
  Ho  Ho3  1  0.673843  0.173843  0.500000  1
  In  In4  1  0.997123  0.001071  0.000000  1
  In  In5  1  0.501071  0.497123  0.000000  1
  Pd  Pd6  1  0.372197  0.127904  0.000000  1
  Pd  Pd7  1  0.873541  0.373541  0.000000  1
  Pd  Pd8  1  0.130215  0.630215  0.000000  1
  Pd  Pd9  1  0.627904  0.872197  0.000000  1
