# generated using pymatgen
data_Ce3ScBi5
_symmetry_space_group_name_H-M   'P 1'
_cell_length_a   9.71280200
_cell_length_b   9.71280176
_cell_length_c   6.58715300
_cell_angle_alpha   90.00000000
_cell_angle_beta   90.00000000
_cell_angle_gamma   120.00000081
_symmetry_Int_Tables_number   1
_chemical_formula_structural   Ce3ScBi5
_chemical_formula_sum   'Ce6 Sc2 Bi10'
_cell_volume   538.16746582
_cell_formula_units_Z   2
loop_
 _symmetry_equiv_pos_site_id
 _symmetry_equiv_pos_as_xyz
  1  'x, y, z'
loop_
 _atom_site_type_symbol
 _atom_site_label
 _atom_site_symmetry_multiplicity
 _atom_site_fract_x
 _atom_site_fract_y
 _atom_site_fract_z
 _atom_site_occupancy
  Ce  Ce0  1  0.000000  0.616322  0.250000  1
  Ce  Ce1  1  0.383678  0.383678  0.250000  1
  Ce  Ce2  1  0.383678  0.000000  0.750000  1
  Ce  Ce3  1  0.616322  0.616322  0.750000  1
  Ce  Ce4  1  0.616322  0.000000  0.250000  1
  Ce  Ce5  1  0.000000  0.383678  0.750000  1
  Sc  Sc6  1  0.000000  0.000000  0.000000  1
  Sc  Sc7  1  0.000000  0.000000  0.500000  1
  Bi  Bi8  1  0.000000  0.264115  0.250000  1
  Bi  Bi9  1  0.333333  0.666667  0.500000  1
  Bi  Bi10  1  0.666667  0.333333  0.000000  1
  Bi  Bi11  1  0.333333  0.666667  0.000000  1
  Bi  Bi12  1  0.264115  0.264115  0.750000  1
  Bi  Bi13  1  0.735885  0.000000  0.750000  1
  Bi  Bi14  1  0.000000  0.735885  0.750000  1
  Bi  Bi15  1  0.735885  0.735885  0.250000  1
  Bi  Bi16  1  0.264115  0.000000  0.250000  1
  Bi  Bi17  1  0.666667  0.333333  0.500000  1
