# generated using pymatgen
data_DyEr3Hf3PtF28
_symmetry_space_group_name_H-M   'P 1'
_cell_length_a   5.65336820
_cell_length_b   8.96487811
_cell_length_c   12.06059517
_cell_angle_alpha   62.42224294
_cell_angle_beta   89.93299447
_cell_angle_gamma   89.97946315
_symmetry_Int_Tables_number   1
_chemical_formula_structural   DyEr3Hf3PtF28
_chemical_formula_sum   'Dy1 Er3 Hf3 Pt1 F28'
_cell_volume   541.80335979
_cell_formula_units_Z   1
loop_
 _symmetry_equiv_pos_site_id
 _symmetry_equiv_pos_as_xyz
  1  'x, y, z'
loop_
 _atom_site_type_symbol
 _atom_site_label
 _atom_site_symmetry_multiplicity
 _atom_site_fract_x
 _atom_site_fract_y
 _atom_site_fract_z
 _atom_site_occupancy
  Dy  Dy0  1  0.743550  0.814065  0.267361  1
  Er  Er1  1  0.757892  0.816685  0.765334  1
  Er  Er2  1  0.258233  0.184249  0.732594  1
  Er  Er3  1  0.240797  0.184202  0.238569  1
  Hf  Hf4  1  0.756724  0.274248  0.955915  1
  Hf  Hf5  1  0.256518  0.725125  0.545562  1
  Hf  Hf6  1  0.244833  0.724884  0.044465  1
  Pt  Pt7  1  0.739514  0.271284  0.456043  1
  F  F8  1  0.463244  0.709707  0.919280  1
  F  F9  1  0.937000  0.295303  0.581452  1
  F  F10  1  0.534652  0.289050  0.079884  1
  F  F11  1  0.040619  0.710809  0.419985  1
  F  F12  1  0.444939  0.279146  0.542571  1
  F  F13  1  0.950524  0.723334  0.949733  1
  F  F14  1  0.551259  0.718534  0.453731  1
  F  F15  1  0.047992  0.276609  0.051991  1
  F  F16  1  0.773292  0.525375  0.859307  1
  F  F17  1  0.267323  0.473067  0.639957  1
  F  F18  1  0.225864  0.473733  0.142555  1
  F  F19  1  0.729127  0.518333  0.357413  1
  F  F20  1  0.758819  0.023489  0.057956  1
  F  F21  1  0.260842  0.975892  0.443897  1
  F  F22  1  0.243342  0.975804  0.940269  1
  F  F23  1  0.742827  0.023693  0.549828  1
  F  F24  1  0.982122  0.733004  0.648286  1
  F  F25  1  0.486642  0.266935  0.850128  1
  F  F26  1  0.025763  0.272217  0.362307  1
  F  F27  1  0.518666  0.732197  0.146796  1
  F  F28  1  0.039136  0.747890  0.172291  1
  F  F29  1  0.548088  0.255938  0.324213  1
  F  F30  1  0.969774  0.252584  0.828814  1
  F  F31  1  0.466230  0.745700  0.673653  1
  F  F32  1  0.421386  0.973436  0.235375  1
  F  F33  1  0.923837  0.030070  0.268612  1
  F  F34  1  0.574234  0.028848  0.763038  1
  F  F35  1  0.074394  0.974560  0.730836  1
