# generated using pymatgen
data_Dy2Lu2Al15(GaIr2)3
_symmetry_space_group_name_H-M   'P 1'
_cell_length_a   7.51945323
_cell_length_b   7.52069190
_cell_length_c   9.50385800
_cell_angle_alpha   90.00000000
_cell_angle_beta   90.00000000
_cell_angle_gamma   119.37275440
_symmetry_Int_Tables_number   1
_chemical_formula_structural   Dy2Lu2Al15(GaIr2)3
_chemical_formula_sum   'Dy2 Lu2 Al15 Ga3 Ir6'
_cell_volume   468.36566737
_cell_formula_units_Z   1
loop_
 _symmetry_equiv_pos_site_id
 _symmetry_equiv_pos_as_xyz
  1  'x, y, z'
loop_
 _atom_site_type_symbol
 _atom_site_label
 _atom_site_symmetry_multiplicity
 _atom_site_fract_x
 _atom_site_fract_y
 _atom_site_fract_z
 _atom_site_occupancy
  Dy  Dy0  1  0.998713  0.676080  0.250000  1
  Dy  Dy1  1  0.671193  0.991432  0.250000  1
  Lu  Lu2  1  0.005431  0.323907  0.750000  1
  Lu  Lu3  1  0.322834  0.003512  0.750000  1
  Al  Al4  1  0.002141  0.335618  0.071110  1
  Al  Al5  1  0.998966  0.663753  0.924327  1
  Al  Al6  1  0.998966  0.663753  0.575673  1
  Al  Al7  1  0.336508  0.003993  0.428880  1
  Al  Al8  1  0.002141  0.335618  0.428890  1
  Al  Al9  1  0.663875  0.999646  0.575352  1
  Al  Al10  1  0.663875  0.999646  0.924648  1
  Al  Al11  1  0.336508  0.003993  0.071120  1
  Al  Al12  1  0.333658  0.333812  0.558652  1
  Al  Al13  1  0.666087  0.665543  0.449897  1
  Al  Al14  1  0.666087  0.665543  0.050103  1
  Al  Al15  1  0.333658  0.333812  0.941348  1
  Al  Al16  1  0.661680  0.447673  0.750000  1
  Al  Al17  1  0.550981  0.339773  0.250000  1
  Al  Al18  1  0.448187  0.661868  0.750000  1
  Ga  Ga19  1  0.132805  0.133301  0.250000  1
  Ga  Ga20  1  0.863923  0.864382  0.750000  1
  Ga  Ga21  1  0.340209  0.547014  0.250000  1
  Ir  Ir22  1  0.671726  0.328754  0.999339  1
  Ir  Ir23  1  0.328018  0.672990  0.997179  1
  Ir  Ir24  1  0.328018  0.672990  0.502821  1
  Ir  Ir25  1  0.671726  0.328754  0.500661  1
  Ir  Ir26  1  0.001041  0.001421  0.998489  1
  Ir  Ir27  1  0.001041  0.001421  0.501511  1
