# generated using pymatgen
data_Tb4Er(SiB4)2
_symmetry_space_group_name_H-M   'P 1'
_cell_length_a   7.24044300
_cell_length_b   7.24044300
_cell_length_c   8.11734700
_cell_angle_alpha   90.00000000
_cell_angle_beta   90.00000000
_cell_angle_gamma   90.00000000
_symmetry_Int_Tables_number   1
_chemical_formula_structural   Tb4Er(SiB4)2
_chemical_formula_sum   'Tb8 Er2 Si4 B16'
_cell_volume   425.54391956
_cell_formula_units_Z   2
loop_
 _symmetry_equiv_pos_site_id
 _symmetry_equiv_pos_as_xyz
  1  'x, y, z'
loop_
 _atom_site_type_symbol
 _atom_site_label
 _atom_site_symmetry_multiplicity
 _atom_site_fract_x
 _atom_site_fract_y
 _atom_site_fract_z
 _atom_site_occupancy
  Tb  Tb0  1  0.680347  0.180347  0.224995  1
  Tb  Tb1  1  0.319653  0.819653  0.775005  1
  Tb  Tb2  1  0.319653  0.819653  0.224995  1
  Tb  Tb3  1  0.819653  0.680347  0.224995  1
  Tb  Tb4  1  0.819653  0.680347  0.775005  1
  Tb  Tb5  1  0.680347  0.180347  0.775005  1
  Tb  Tb6  1  0.180347  0.319653  0.775005  1
  Tb  Tb7  1  0.180347  0.319653  0.224995  1
  Er  Er8  1  0.000000  0.000000  0.500000  1
  Er  Er9  1  0.500000  0.500000  0.500000  1
  Si  Si10  1  0.115225  0.615225  0.500000  1
  Si  Si11  1  0.884775  0.384775  0.500000  1
  Si  Si12  1  0.384775  0.115225  0.500000  1
  Si  Si13  1  0.615225  0.884775  0.500000  1
  B  B14  1  0.172355  0.039085  0.000000  1
  B  B15  1  0.827645  0.960915  0.000000  1
  B  B16  1  0.960915  0.172355  0.000000  1
  B  B17  1  0.327645  0.539085  0.000000  1
  B  B18  1  0.039085  0.827645  0.000000  1
  B  B19  1  0.672355  0.460915  0.000000  1
  B  B20  1  0.539085  0.672355  0.000000  1
  B  B21  1  0.460915  0.327645  0.000000  1
  B  B22  1  0.090067  0.590067  0.000000  1
  B  B23  1  0.909933  0.409933  0.000000  1
  B  B24  1  0.409933  0.090067  0.000000  1
  B  B25  1  0.590067  0.909933  0.000000  1
  B  B26  1  0.000000  0.000000  0.161733  1
  B  B27  1  0.000000  0.000000  0.838267  1
  B  B28  1  0.500000  0.500000  0.838267  1
  B  B29  1  0.500000  0.500000  0.161733  1
