# generated using pymatgen
data_Hf8In4Cu2(NiAu)3
_symmetry_space_group_name_H-M   'P 1'
_cell_length_a   7.30879718
_cell_length_b   7.30866468
_cell_length_c   6.89911997
_cell_angle_alpha   89.93196961
_cell_angle_beta   90.20484606
_cell_angle_gamma   89.75004461
_symmetry_Int_Tables_number   1
_chemical_formula_structural   Hf8In4Cu2(NiAu)3
_chemical_formula_sum   'Hf8 In4 Cu2 Ni3 Au3'
_cell_volume   368.52794198
_cell_formula_units_Z   1
loop_
 _symmetry_equiv_pos_site_id
 _symmetry_equiv_pos_as_xyz
  1  'x, y, z'
loop_
 _atom_site_type_symbol
 _atom_site_label
 _atom_site_symmetry_multiplicity
 _atom_site_fract_x
 _atom_site_fract_y
 _atom_site_fract_z
 _atom_site_occupancy
  Hf  Hf0  1  0.183739  0.189644  0.982791  1
  Hf  Hf1  1  0.815162  0.822173  0.983779  1
  Hf  Hf2  1  0.304634  0.691078  0.516923  1
  Hf  Hf3  1  0.693449  0.302287  0.513064  1
  Hf  Hf4  1  0.648913  0.341141  0.983848  1
  Hf  Hf5  1  0.346746  0.642585  0.981668  1
  Hf  Hf6  1  0.856107  0.857721  0.517145  1
  Hf  Hf7  1  0.147058  0.149071  0.522516  1
  In  In8  1  0.508018  0.001695  0.248682  1
  In  In9  1  0.996003  0.491815  0.248012  1
  In  In10  1  0.998540  0.501967  0.751636  1
  In  In11  1  0.497272  0.000063  0.751390  1
  Cu  Cu12  1  0.871036  0.131634  0.207270  1
  Cu  Cu13  1  0.626753  0.624221  0.706018  1
  Ni  Ni14  1  0.378234  0.376860  0.712268  1
  Ni  Ni15  1  0.125312  0.875002  0.790781  1
  Ni  Ni16  1  0.874744  0.125905  0.788872  1
  Au  Au17  1  0.367786  0.367253  0.295691  1
  Au  Au18  1  0.632971  0.632627  0.289308  1
  Au  Au19  1  0.127522  0.875257  0.208337  1
