# generated using pymatgen
data_BaGa2Ag5
_symmetry_space_group_name_H-M   'P 1'
_cell_length_a   7.50888900
_cell_length_b   9.13830500
_cell_length_c   10.23981800
_cell_angle_alpha   90.00000000
_cell_angle_beta   90.00000000
_cell_angle_gamma   90.00000000
_symmetry_Int_Tables_number   1
_chemical_formula_structural   BaGa2Ag5
_chemical_formula_sum   'Ba4 Ga8 Ag20'
_cell_volume   702.64113466
_cell_formula_units_Z   4
loop_
 _symmetry_equiv_pos_site_id
 _symmetry_equiv_pos_as_xyz
  1  'x, y, z'
loop_
 _atom_site_type_symbol
 _atom_site_label
 _atom_site_symmetry_multiplicity
 _atom_site_fract_x
 _atom_site_fract_y
 _atom_site_fract_z
 _atom_site_occupancy
  Ba  Ba0  1  0.250000  0.248801  0.119312  1
  Ba  Ba1  1  0.250000  0.748801  0.380688  1
  Ba  Ba2  1  0.750000  0.751199  0.880688  1
  Ba  Ba3  1  0.750000  0.251199  0.619312  1
  Ga  Ga4  1  0.250000  0.057639  0.615975  1
  Ga  Ga5  1  0.250000  0.557639  0.884025  1
  Ga  Ga6  1  0.750000  0.942361  0.384025  1
  Ga  Ga7  1  0.750000  0.442361  0.115975  1
  Ga  Ga8  1  0.250000  0.355219  0.475310  1
  Ga  Ga9  1  0.250000  0.855219  0.024690  1
  Ga  Ga10  1  0.750000  0.644781  0.524690  1
  Ga  Ga11  1  0.750000  0.144781  0.975310  1
  Ag  Ag12  1  0.053791  0.107946  0.395872  1
  Ag  Ag13  1  0.446209  0.607946  0.104128  1
  Ag  Ag14  1  0.553791  0.892054  0.604128  1
  Ag  Ag15  1  0.946209  0.392054  0.895872  1
  Ag  Ag16  1  0.946209  0.892054  0.604128  1
  Ag  Ag17  1  0.553791  0.392054  0.895872  1
  Ag  Ag18  1  0.446209  0.107946  0.395872  1
  Ag  Ag19  1  0.053791  0.607946  0.104128  1
  Ag  Ag20  1  0.048452  0.064617  0.854834  1
  Ag  Ag21  1  0.451548  0.564617  0.645166  1
  Ag  Ag22  1  0.548452  0.935383  0.145166  1
  Ag  Ag23  1  0.951548  0.435383  0.354834  1
  Ag  Ag24  1  0.951548  0.935383  0.145166  1
  Ag  Ag25  1  0.548452  0.435383  0.354834  1
  Ag  Ag26  1  0.451548  0.064617  0.854834  1
  Ag  Ag27  1  0.048452  0.564617  0.645166  1
  Ag  Ag28  1  0.250000  0.311919  0.738073  1
  Ag  Ag29  1  0.250000  0.811919  0.761927  1
  Ag  Ag30  1  0.750000  0.688081  0.261927  1
  Ag  Ag31  1  0.750000  0.188081  0.238073  1
