# generated using pymatgen
data_DyYAl20IrRu3
_symmetry_space_group_name_H-M   'P 1'
_cell_length_a   6.85005146
_cell_length_b   6.85319392
_cell_length_c   9.15041000
_cell_angle_alpha   90.08584512
_cell_angle_beta   90.04857977
_cell_angle_gamma   96.71433444
_symmetry_Int_Tables_number   1
_chemical_formula_structural   DyYAl20IrRu3
_chemical_formula_sum   'Dy1 Y1 Al20 Ir1 Ru3'
_cell_volume   426.61663916
_cell_formula_units_Z   1
loop_
 _symmetry_equiv_pos_site_id
 _symmetry_equiv_pos_as_xyz
  1  'x, y, z'
loop_
 _atom_site_type_symbol
 _atom_site_label
 _atom_site_symmetry_multiplicity
 _atom_site_fract_x
 _atom_site_fract_y
 _atom_site_fract_z
 _atom_site_occupancy
  Dy  Dy0  1  0.870898  0.127324  0.750395  1
  Y  Y1  1  0.129102  0.872676  0.249605  1
  Al  Al2  1  0.620681  0.375949  0.550871  1
  Al  Al3  1  0.379319  0.624051  0.449129  1
  Al  Al4  1  0.377138  0.623335  0.050046  1
  Al  Al5  1  0.622862  0.376665  0.949954  1
  Al  Al6  1  0.226827  0.224232  0.498769  1
  Al  Al7  1  0.773173  0.775768  0.501231  1
  Al  Al8  1  0.774102  0.774546  0.000537  1
  Al  Al9  1  0.225898  0.225454  0.999463  1
  Al  Al10  1  0.844092  0.156747  0.100188  1
  Al  Al11  1  0.155908  0.843253  0.899812  1
  Al  Al12  1  0.157529  0.845300  0.601713  1
  Al  Al13  1  0.842471  0.154700  0.398287  1
  Al  Al14  1  0.857700  0.587596  0.751516  1
  Al  Al15  1  0.142300  0.412404  0.248484  1
  Al  Al16  1  0.413482  0.141537  0.750425  1
  Al  Al17  1  0.586518  0.858463  0.249575  1
  Al  Al18  1  0.222305  0.481053  0.752339  1
  Al  Al19  1  0.777695  0.518947  0.247661  1
  Al  Al20  1  0.518747  0.778684  0.749741  1
  Al  Al21  1  0.481253  0.221316  0.250259  1
  Ir  Ir22  1  0.000000  0.500000  0.500000  1
  Ru  Ru23  1  0.000000  0.500000  0.000000  1
  Ru  Ru24  1  0.500000  0.000000  0.000000  1
  Ru  Ru25  1  0.500000  0.000000  0.500000  1
