# generated using pymatgen
data_Tb3YbOsRu7
_symmetry_space_group_name_H-M   'P 1'
_cell_length_a   5.21001325
_cell_length_b   5.37552390
_cell_length_c   8.97972014
_cell_angle_alpha   90.00000258
_cell_angle_beta   90.10585059
_cell_angle_gamma   121.05655117
_symmetry_Int_Tables_number   1
_chemical_formula_structural   Tb3YbOsRu7
_chemical_formula_sum   'Tb3 Yb1 Os1 Ru7'
_cell_volume   215.44140115
_cell_formula_units_Z   1
loop_
 _symmetry_equiv_pos_site_id
 _symmetry_equiv_pos_as_xyz
  1  'x, y, z'
loop_
 _atom_site_type_symbol
 _atom_site_label
 _atom_site_symmetry_multiplicity
 _atom_site_fract_x
 _atom_site_fract_y
 _atom_site_fract_z
 _atom_site_occupancy
  Tb  Tb0  1  0.328487  0.664243  0.428041  1
  Tb  Tb1  1  0.661425  0.330713  0.567207  1
  Tb  Tb2  1  0.659700  0.329850  0.938380  1
  Yb  Yb3  1  0.326887  0.663444  0.064956  1
  Os  Os4  1  0.676405  0.838203  0.751067  1
  Ru  Ru5  1  0.983255  0.991628  0.501197  1
  Ru  Ru6  1  0.980090  0.990045  0.000112  1
  Ru  Ru7  1  0.833244  0.164713  0.249526  1
  Ru  Ru8  1  0.833244  0.668531  0.249526  1
  Ru  Ru9  1  0.354362  0.177181  0.250617  1
  Ru  Ru10  1  0.181450  0.829618  0.749685  1
  Ru  Ru11  1  0.181450  0.351833  0.749685  1
