# generated using pymatgen
data_LaHo2RuO7
_symmetry_space_group_name_H-M   'P 1'
_cell_length_a   6.46070612
_cell_length_b   6.46070548
_cell_length_c   7.53694100
_cell_angle_alpha   90.00000000
_cell_angle_beta   90.00000000
_cell_angle_gamma   109.90557297
_symmetry_Int_Tables_number   1
_chemical_formula_structural   LaHo2RuO7
_chemical_formula_sum   'La2 Ho4 Ru2 O14'
_cell_volume   295.80172622
_cell_formula_units_Z   2
loop_
 _symmetry_equiv_pos_site_id
 _symmetry_equiv_pos_as_xyz
  1  'x, y, z'
loop_
 _atom_site_type_symbol
 _atom_site_label
 _atom_site_symmetry_multiplicity
 _atom_site_fract_x
 _atom_site_fract_y
 _atom_site_fract_z
 _atom_site_occupancy
  La  La0  1  0.000000  0.000000  0.500000  1
  La  La1  1  0.000000  0.000000  0.000000  1
  Ho  Ho2  1  0.482868  0.932302  0.750000  1
  Ho  Ho3  1  0.517132  0.067698  0.250000  1
  Ho  Ho4  1  0.932302  0.482868  0.750000  1
  Ho  Ho5  1  0.067698  0.517132  0.250000  1
  Ru  Ru6  1  0.500000  0.500000  0.500000  1
  Ru  Ru7  1  0.500000  0.500000  0.000000  1
  O  O8  1  0.590425  0.590425  0.750000  1
  O  O9  1  0.409575  0.409575  0.250000  1
  O  O10  1  0.836416  0.119814  0.750000  1
  O  O11  1  0.163584  0.880186  0.250000  1
  O  O12  1  0.119814  0.836416  0.750000  1
  O  O13  1  0.880186  0.163584  0.250000  1
  O  O14  1  0.441889  0.181696  0.963281  1
  O  O15  1  0.558111  0.818304  0.463281  1
  O  O16  1  0.181696  0.441889  0.963281  1
  O  O17  1  0.818304  0.558111  0.463281  1
  O  O18  1  0.441889  0.181696  0.536719  1
  O  O19  1  0.558111  0.818304  0.036719  1
  O  O20  1  0.818304  0.558111  0.036719  1
  O  O21  1  0.181696  0.441889  0.536719  1
