# generated using pymatgen
data_Eu10TiReN10
_symmetry_space_group_name_H-M   'P 1'
_cell_length_a   7.16109723
_cell_length_b   7.16109675
_cell_length_c   9.21982000
_cell_angle_alpha   81.12824678
_cell_angle_beta   81.12824738
_cell_angle_gamma   59.61587667
_symmetry_Int_Tables_number   1
_chemical_formula_structural   Eu10TiReN10
_chemical_formula_sum   'Eu10 Ti1 Re1 N10'
_cell_volume   401.37241147
_cell_formula_units_Z   1
loop_
 _symmetry_equiv_pos_site_id
 _symmetry_equiv_pos_as_xyz
  1  'x, y, z'
loop_
 _atom_site_type_symbol
 _atom_site_label
 _atom_site_symmetry_multiplicity
 _atom_site_fract_x
 _atom_site_fract_y
 _atom_site_fract_z
 _atom_site_occupancy
  Eu  Eu0  1  0.875184  0.357895  0.834559  1
  Eu  Eu1  1  0.871838  0.871838  0.823225  1
  Eu  Eu2  1  0.738653  0.738653  0.526596  1
  Eu  Eu3  1  0.743682  0.250069  0.507950  1
  Eu  Eu4  1  0.627660  0.134909  0.146951  1
  Eu  Eu5  1  0.357895  0.875184  0.834559  1
  Eu  Eu6  1  0.250069  0.743682  0.507950  1
  Eu  Eu7  1  0.241218  0.241218  0.499670  1
  Eu  Eu8  1  0.139937  0.139937  0.161083  1
  Eu  Eu9  1  0.134909  0.627660  0.146951  1
  Ti  Ti10  1  0.368346  0.368346  0.777428  1
  Re  Re11  1  0.634601  0.634601  0.226535  1
  N  N12  1  0.899398  0.475603  0.321174  1
  N  N13  1  0.998047  0.998047  0.011463  1
  N  N14  1  0.689384  0.689384  0.026124  1
  N  N15  1  0.532228  0.532228  0.692328  1
  N  N16  1  0.475603  0.899398  0.321174  1
  N  N17  1  0.532004  0.091749  0.679042  1
  N  N18  1  0.480719  0.480719  0.282755  1
  N  N19  1  0.317709  0.317709  0.989901  1
  N  N20  1  0.061453  0.061453  0.649348  1
  N  N21  1  0.091749  0.532004  0.679042  1
