# generated using pymatgen
data_LaTh3(InNi2)2
_symmetry_space_group_name_H-M   'P 1'
_cell_length_a   7.71809443
_cell_length_b   7.71886432
_cell_length_c   3.68395000
_cell_angle_alpha   90.00000000
_cell_angle_beta   90.00000000
_cell_angle_gamma   90.56666678
_symmetry_Int_Tables_number   1
_chemical_formula_structural   LaTh3(InNi2)2
_chemical_formula_sum   'La1 Th3 In2 Ni4'
_cell_volume   219.46030633
_cell_formula_units_Z   1
loop_
 _symmetry_equiv_pos_site_id
 _symmetry_equiv_pos_as_xyz
  1  'x, y, z'
loop_
 _atom_site_type_symbol
 _atom_site_label
 _atom_site_symmetry_multiplicity
 _atom_site_fract_x
 _atom_site_fract_y
 _atom_site_fract_z
 _atom_site_occupancy
  La  La0  1  0.826579  0.673400  0.500000  1
  Th  Th1  1  0.672813  0.171766  0.500000  1
  Th  Th2  1  0.328263  0.827196  0.500000  1
  Th  Th3  1  0.171343  0.328635  0.500000  1
  In  In4  1  0.499727  0.499009  0.000000  1
  In  In5  1  0.000967  0.000241  0.000000  1
  Ni  Ni6  1  0.136019  0.620024  0.000000  1
  Ni  Ni7  1  0.880061  0.364017  0.000000  1
  Ni  Ni8  1  0.613486  0.886425  0.000000  1
  Ni  Ni9  1  0.370742  0.129288  0.000000  1
