# generated using pymatgen
data_Sr4TlIn(SbPt2)2
_symmetry_space_group_name_H-M   'P 1'
_cell_length_a   4.77139100
_cell_length_b   7.78059070
_cell_length_c   8.16815566
_cell_angle_alpha   89.95280742
_cell_angle_beta   90.00000000
_cell_angle_gamma   90.00000000
_symmetry_Int_Tables_number   1
_chemical_formula_structural   Sr4TlIn(SbPt2)2
_chemical_formula_sum   'Sr4 Tl1 In1 Sb2 Pt4'
_cell_volume   303.23647150
_cell_formula_units_Z   1
loop_
 _symmetry_equiv_pos_site_id
 _symmetry_equiv_pos_as_xyz
  1  'x, y, z'
loop_
 _atom_site_type_symbol
 _atom_site_label
 _atom_site_symmetry_multiplicity
 _atom_site_fract_x
 _atom_site_fract_y
 _atom_site_fract_z
 _atom_site_occupancy
  Sr  Sr0  1  0.750000  0.987672  0.687382  1
  Sr  Sr1  1  0.250000  0.019805  0.312479  1
  Sr  Sr2  1  0.750000  0.478780  0.812668  1
  Sr  Sr3  1  0.250000  0.512667  0.188069  1
  Tl  Tl4  1  0.250000  0.670167  0.581727  1
  In  In5  1  0.750000  0.834966  0.079315  1
  Sb  Sb6  1  0.750000  0.329049  0.421311  1
  Sb  Sb7  1  0.250000  0.170475  0.922019  1
  Pt  Pt8  1  0.250000  0.806554  0.906154  1
  Pt  Pt9  1  0.250000  0.286863  0.599484  1
  Pt  Pt10  1  0.750000  0.696960  0.389798  1
  Pt  Pt11  1  0.750000  0.206040  0.099596  1
