# generated using pymatgen
data_La7Nd5(PtI3)4
_symmetry_space_group_name_H-M   'P 1'
_cell_length_a   10.99444813
_cell_length_b   10.96998229
_cell_length_c   10.98985869
_cell_angle_alpha   109.65987787
_cell_angle_beta   109.37773387
_cell_angle_gamma   109.33837467
_symmetry_Int_Tables_number   1
_chemical_formula_structural   La7Nd5(PtI3)4
_chemical_formula_sum   'La7 Nd5 Pt4 I12'
_cell_volume   1020.81793616
_cell_formula_units_Z   1
loop_
 _symmetry_equiv_pos_site_id
 _symmetry_equiv_pos_as_xyz
  1  'x, y, z'
loop_
 _atom_site_type_symbol
 _atom_site_label
 _atom_site_symmetry_multiplicity
 _atom_site_fract_x
 _atom_site_fract_y
 _atom_site_fract_z
 _atom_site_occupancy
  La  La0  1  0.042734  0.272696  0.021578  1
  La  La1  1  0.018288  0.042509  0.273534  1
  La  La2  1  0.478642  0.747932  0.018973  1
  La  La3  1  0.481400  0.231781  0.462722  1
  La  La4  1  0.014825  0.476702  0.742787  1
  La  La5  1  0.271205  0.019297  0.040760  1
  La  La6  1  0.231891  0.269231  0.750114  1
  Nd  Nd7  1  0.461183  0.480801  0.231854  1
  Nd  Nd8  1  0.751018  0.230126  0.272180  1
  Nd  Nd9  1  0.744351  0.018118  0.475413  1
  Nd  Nd10  1  0.232841  0.462187  0.479236  1
  Nd  Nd11  1  0.270010  0.747227  0.229027  1
  Pt  Pt12  1  0.251922  0.250860  0.251694  1
  Pt  Pt13  1  0.498035  0.999544  0.249616  1
  Pt  Pt14  1  0.001862  0.251717  0.501710  1
  Pt  Pt15  1  0.249890  0.499278  0.998578  1
  I  I16  1  0.249818  0.756616  0.737748  1
  I  I17  1  0.518844  0.512275  0.757667  1
  I  I18  1  0.984013  0.740086  0.995290  1
  I  I19  1  0.739622  0.245465  0.756860  1
  I  I20  1  0.988121  0.982215  0.738248  1
  I  I21  1  0.249130  0.987119  0.506054  1
  I  I22  1  0.757200  0.517672  0.503122  1
  I  I23  1  0.514004  0.254041  0.997793  1
  I  I24  1  0.756242  0.740563  0.253749  1
  I  I25  1  0.740693  0.994932  0.984367  1
  I  I26  1  0.994904  0.510827  0.254652  1
  I  I27  1  0.507314  0.758182  0.514674  1
