# generated using pymatgen
data_TbY2Pa(Al3Rh)6
_symmetry_space_group_name_H-M   'P 1'
_cell_length_a   7.58474100
_cell_length_b   7.57995724
_cell_length_c   9.44766900
_cell_angle_alpha   90.00000000
_cell_angle_beta   90.00000000
_cell_angle_gamma   119.46424229
_symmetry_Int_Tables_number   1
_chemical_formula_structural   TbY2Pa(Al3Rh)6
_chemical_formula_sum   'Tb1 Y2 Pa1 Al18 Rh6'
_cell_volume   472.91402147
_cell_formula_units_Z   1
loop_
 _symmetry_equiv_pos_site_id
 _symmetry_equiv_pos_as_xyz
  1  'x, y, z'
loop_
 _atom_site_type_symbol
 _atom_site_label
 _atom_site_symmetry_multiplicity
 _atom_site_fract_x
 _atom_site_fract_y
 _atom_site_fract_z
 _atom_site_occupancy
  Tb  Tb0  1  0.005561  0.328842  0.750000  1
  Y  Y1  1  0.672810  0.994500  0.250000  1
  Y  Y2  1  0.328662  0.004699  0.750000  1
  Pa  Pa3  1  0.995524  0.671847  0.250000  1
  Al  Al4  1  0.131521  0.129583  0.250000  1
  Al  Al5  1  0.872926  0.874083  0.750000  1
  Al  Al6  1  0.000761  0.333219  0.075268  1
  Al  Al7  1  0.998909  0.664381  0.921624  1
  Al  Al8  1  0.998909  0.664381  0.578376  1
  Al  Al9  1  0.338439  0.003124  0.424503  1
  Al  Al10  1  0.000761  0.333219  0.424732  1
  Al  Al11  1  0.664806  0.000114  0.576222  1
  Al  Al12  1  0.664806  0.000114  0.923778  1
  Al  Al13  1  0.338439  0.003124  0.075497  1
  Al  Al14  1  0.332474  0.332489  0.553295  1
  Al  Al15  1  0.663923  0.666004  0.450647  1
  Al  Al16  1  0.663923  0.666004  0.049353  1
  Al  Al17  1  0.332474  0.332489  0.946705  1
  Al  Al18  1  0.338702  0.548361  0.250000  1
  Al  Al19  1  0.659102  0.448595  0.750000  1
  Al  Al20  1  0.548911  0.342889  0.250000  1
  Al  Al21  1  0.449929  0.660250  0.750000  1
  Rh  Rh22  1  0.673354  0.329440  0.001852  1
  Rh  Rh23  1  0.326264  0.672028  0.001948  1
  Rh  Rh24  1  0.326264  0.672028  0.498052  1
  Rh  Rh25  1  0.673354  0.329440  0.498148  1
  Rh  Rh26  1  0.999246  0.997377  0.002705  1
  Rh  Rh27  1  0.999246  0.997377  0.497295  1
