# generated using pymatgen
data_Ba4ZrSe6
_symmetry_space_group_name_H-M   'P 1'
_cell_length_a   8.97486959
_cell_length_b   8.97486916
_cell_length_c   8.97486979
_cell_angle_alpha   89.43333098
_cell_angle_beta   89.43333573
_cell_angle_gamma   89.43333559
_symmetry_Int_Tables_number   1
_chemical_formula_structural   Ba4ZrSe6
_chemical_formula_sum   'Ba8 Zr2 Se12'
_cell_volume   722.80495464
_cell_formula_units_Z   2
loop_
 _symmetry_equiv_pos_site_id
 _symmetry_equiv_pos_as_xyz
  1  'x, y, z'
loop_
 _atom_site_type_symbol
 _atom_site_label
 _atom_site_symmetry_multiplicity
 _atom_site_fract_x
 _atom_site_fract_y
 _atom_site_fract_z
 _atom_site_occupancy
  Ba  Ba0  1  0.873913  0.626087  0.250000  1
  Ba  Ba1  1  0.250000  0.873913  0.626087  1
  Ba  Ba2  1  0.626087  0.250000  0.873913  1
  Ba  Ba3  1  0.750000  0.126087  0.373913  1
  Ba  Ba4  1  0.373913  0.750000  0.126087  1
  Ba  Ba5  1  0.126087  0.373913  0.750000  1
  Ba  Ba6  1  0.250000  0.250000  0.250000  1
  Ba  Ba7  1  0.750000  0.750000  0.750000  1
  Zr  Zr8  1  0.500000  0.500000  0.500000  1
  Zr  Zr9  1  0.000000  0.000000  0.000000  1
  Se  Se10  1  0.209185  0.560508  0.426109  1
  Se  Se11  1  0.426109  0.209185  0.560508  1
  Se  Se12  1  0.560508  0.426109  0.209185  1
  Se  Se13  1  0.926109  0.060508  0.709185  1
  Se  Se14  1  0.709185  0.926109  0.060508  1
  Se  Se15  1  0.060508  0.709185  0.926109  1
  Se  Se16  1  0.790815  0.439492  0.573891  1
  Se  Se17  1  0.573891  0.790815  0.439492  1
  Se  Se18  1  0.439492  0.573891  0.790815  1
  Se  Se19  1  0.073891  0.939492  0.290815  1
  Se  Se20  1  0.290815  0.073891  0.939492  1
  Se  Se21  1  0.939492  0.290815  0.073891  1
