# generated using pymatgen
data_Ta8V2Ga6C
_symmetry_space_group_name_H-M   'P 1'
_cell_length_a   7.68388000
_cell_length_b   7.68387926
_cell_length_c   5.15698800
_cell_angle_alpha   90.00000000
_cell_angle_beta   90.00000000
_cell_angle_gamma   119.99999458
_symmetry_Int_Tables_number   1
_chemical_formula_structural   Ta8V2Ga6C
_chemical_formula_sum   'Ta8 V2 Ga6 C1'
_cell_volume   263.68649162
_cell_formula_units_Z   1
loop_
 _symmetry_equiv_pos_site_id
 _symmetry_equiv_pos_as_xyz
  1  'x, y, z'
loop_
 _atom_site_type_symbol
 _atom_site_label
 _atom_site_symmetry_multiplicity
 _atom_site_fract_x
 _atom_site_fract_y
 _atom_site_fract_z
 _atom_site_occupancy
  Ta  Ta0  1  0.666667  0.333333  0.000000  1
  Ta  Ta1  1  0.333333  0.666667  0.000000  1
  Ta  Ta2  1  0.000000  0.765554  0.241663  1
  Ta  Ta3  1  0.234446  0.234446  0.241663  1
  Ta  Ta4  1  0.765554  0.000000  0.241663  1
  Ta  Ta5  1  0.000000  0.234446  0.758337  1
  Ta  Ta6  1  0.765554  0.765554  0.758337  1
  Ta  Ta7  1  0.234446  0.000000  0.758337  1
  V  V8  1  0.333333  0.666667  0.500000  1
  V  V9  1  0.666667  0.333333  0.500000  1
  Ga  Ga10  1  0.000000  0.406005  0.265299  1
  Ga  Ga11  1  0.593995  0.593995  0.265299  1
  Ga  Ga12  1  0.406005  0.000000  0.265299  1
  Ga  Ga13  1  0.000000  0.593995  0.734701  1
  Ga  Ga14  1  0.406005  0.406005  0.734701  1
  Ga  Ga15  1  0.593995  0.000000  0.734701  1
  C  C16  1  0.000000  0.000000  0.500000  1
