# generated using pymatgen
data_Ho16MgInAg2Ir3Pd
_symmetry_space_group_name_H-M   'P 1'
_cell_length_a   9.62544989
_cell_length_b   9.64152417
_cell_length_c   9.64152500
_cell_angle_alpha   60.13184061
_cell_angle_beta   60.03132360
_cell_angle_gamma   60.03132098
_symmetry_Int_Tables_number   1
_chemical_formula_structural   Ho16MgInAg2Ir3Pd
_chemical_formula_sum   'Ho16 Mg1 In1 Ag2 Ir3 Pd1'
_cell_volume   633.62773926
_cell_formula_units_Z   1
loop_
 _symmetry_equiv_pos_site_id
 _symmetry_equiv_pos_as_xyz
  1  'x, y, z'
loop_
 _atom_site_type_symbol
 _atom_site_label
 _atom_site_symmetry_multiplicity
 _atom_site_fract_x
 _atom_site_fract_y
 _atom_site_fract_z
 _atom_site_occupancy
  Ho  Ho0  1  0.440974  0.433186  0.058625  1
  Ho  Ho1  1  0.654218  0.647058  0.050895  1
  Ho  Ho2  1  0.183301  0.813775  0.192368  1
  Ho  Ho3  1  0.069052  0.435714  0.057310  1
  Ho  Ho4  1  0.186432  0.808897  0.808897  1
  Ho  Ho5  1  0.065711  0.433999  0.433999  1
  Ho  Ho6  1  0.811467  0.190181  0.190181  1
  Ho  Ho7  1  0.654817  0.645998  0.645998  1
  Ho  Ho8  1  0.810831  0.190866  0.808202  1
  Ho  Ho9  1  0.183301  0.192368  0.813775  1
  Ho  Ho10  1  0.038355  0.652796  0.652796  1
  Ho  Ho11  1  0.441628  0.061567  0.061567  1
  Ho  Ho12  1  0.069052  0.057310  0.435714  1
  Ho  Ho13  1  0.654218  0.050895  0.647058  1
  Ho  Ho14  1  0.810831  0.808202  0.190866  1
  Ho  Ho15  1  0.440974  0.058625  0.433186  1
  Mg  Mg16  1  0.421505  0.430213  0.430213  1
  In  In17  1  0.745915  0.420137  0.420137  1
  Ag  Ag18  1  0.413384  0.414890  0.753351  1
  Ag  Ag19  1  0.413384  0.753351  0.414890  1
  Ir  Ir20  1  0.854682  0.858970  0.858970  1
  Ir  Ir21  1  0.853300  0.425404  0.859710  1
  Ir  Ir22  1  0.853300  0.859710  0.425404  1
  Pd  Pd23  1  0.429376  0.855895  0.855895  1
