# generated using pymatgen
data_Th2Al20Tc3Pt
_symmetry_space_group_name_H-M   'P 1'
_cell_length_a   6.91363478
_cell_length_b   6.93533456
_cell_length_c   9.25110947
_cell_angle_alpha   90.29167282
_cell_angle_beta   90.33740228
_cell_angle_gamma   97.05202740
_symmetry_Int_Tables_number   1
_chemical_formula_structural   Th2Al20Tc3Pt
_chemical_formula_sum   'Th2 Al20 Tc3 Pt1'
_cell_volume   440.20482106
_cell_formula_units_Z   1
loop_
 _symmetry_equiv_pos_site_id
 _symmetry_equiv_pos_as_xyz
  1  'x, y, z'
loop_
 _atom_site_type_symbol
 _atom_site_label
 _atom_site_symmetry_multiplicity
 _atom_site_fract_x
 _atom_site_fract_y
 _atom_site_fract_z
 _atom_site_occupancy
  Th  Th0  1  0.877800  0.134072  0.747537  1
  Th  Th1  1  0.122200  0.865928  0.252463  1
  Al  Al2  1  0.518477  0.778560  0.743106  1
  Al  Al3  1  0.481523  0.221440  0.256894  1
  Al  Al4  1  0.592458  0.857223  0.252373  1
  Al  Al5  1  0.775985  0.771817  0.002073  1
  Al  Al6  1  0.161387  0.841043  0.602256  1
  Al  Al7  1  0.224015  0.228183  0.997927  1
  Al  Al8  1  0.139485  0.406268  0.250875  1
  Al  Al9  1  0.624192  0.384048  0.947977  1
  Al  Al10  1  0.843036  0.161881  0.104053  1
  Al  Al11  1  0.377515  0.621889  0.452764  1
  Al  Al12  1  0.156964  0.838119  0.895947  1
  Al  Al13  1  0.222065  0.485204  0.751981  1
  Al  Al14  1  0.375808  0.615952  0.052023  1
  Al  Al15  1  0.838613  0.158957  0.397744  1
  Al  Al16  1  0.622485  0.378111  0.547236  1
  Al  Al17  1  0.407542  0.142777  0.747627  1
  Al  Al18  1  0.777935  0.514796  0.248019  1
  Al  Al19  1  0.774321  0.773378  0.499465  1
  Al  Al20  1  0.225679  0.226622  0.500535  1
  Al  Al21  1  0.860515  0.593732  0.749125  1
  Tc  Tc22  1  0.000000  0.500000  0.500000  1
  Tc  Tc23  1  0.000000  0.500000  0.000000  1
  Tc  Tc24  1  0.500000  0.000000  0.500000  1
  Pt  Pt25  1  0.500000  0.000000  0.000000  1
