# generated using pymatgen
data_Tm4VOs7
_symmetry_space_group_name_H-M   'P 1'
_cell_length_a   5.43379501
_cell_length_b   5.21572667
_cell_length_c   8.79808600
_cell_angle_alpha   90.00000000
_cell_angle_beta   90.00000000
_cell_angle_gamma   121.38992297
_symmetry_Int_Tables_number   1
_chemical_formula_structural   Tm4VOs7
_chemical_formula_sum   'Tm4 V1 Os7'
_cell_volume   212.85422008
_cell_formula_units_Z   1
loop_
 _symmetry_equiv_pos_site_id
 _symmetry_equiv_pos_as_xyz
  1  'x, y, z'
loop_
 _atom_site_type_symbol
 _atom_site_label
 _atom_site_symmetry_multiplicity
 _atom_site_fract_x
 _atom_site_fract_y
 _atom_site_fract_z
 _atom_site_occupancy
  Tm  Tm0  1  0.669065  0.338529  0.563769  1
  Tm  Tm1  1  0.331434  0.662927  0.434055  1
  Tm  Tm2  1  0.331434  0.662927  0.065945  1
  Tm  Tm3  1  0.669065  0.338529  0.936231  1
  V  V4  1  0.169149  0.338780  0.750000  1
  Os  Os5  1  0.003464  0.005798  0.502579  1
  Os  Os6  1  0.003464  0.005798  0.997421  1
  Os  Os7  1  0.172624  0.823272  0.750000  1
  Os  Os8  1  0.651235  0.823863  0.750000  1
  Os  Os9  1  0.829680  0.659024  0.250000  1
  Os  Os10  1  0.825290  0.170359  0.250000  1
  Os  Os11  1  0.344096  0.170194  0.250000  1
