# generated using pymatgen
data_NdHoNCl3
_symmetry_space_group_name_H-M   'P 1'
_cell_length_a   8.54375680
_cell_length_b   8.54375743
_cell_length_c   10.93019657
_cell_angle_alpha   60.11044211
_cell_angle_beta   60.11044054
_cell_angle_gamma   26.64850713
_symmetry_Int_Tables_number   1
_chemical_formula_structural   NdHoNCl3
_chemical_formula_sum   'Nd2 Ho2 N2 Cl6'
_cell_volume   307.36521781
_cell_formula_units_Z   2
loop_
 _symmetry_equiv_pos_site_id
 _symmetry_equiv_pos_as_xyz
  1  'x, y, z'
loop_
 _atom_site_type_symbol
 _atom_site_label
 _atom_site_symmetry_multiplicity
 _atom_site_fract_x
 _atom_site_fract_y
 _atom_site_fract_z
 _atom_site_occupancy
  Nd  Nd0  1  0.862613  0.862613  0.291457  1
  Nd  Nd1  1  0.137387  0.137387  0.708543  1
  Ho  Ho2  1  0.582258  0.582258  0.044297  1
  Ho  Ho3  1  0.417742  0.417742  0.955703  1
  N  N4  1  0.427130  0.427130  0.151248  1
  N  N5  1  0.572870  0.572870  0.848752  1
  Cl  Cl6  1  0.050491  0.050491  0.240726  1
  Cl  Cl7  1  0.949509  0.949509  0.759274  1
  Cl  Cl8  1  0.664105  0.664105  0.486702  1
  Cl  Cl9  1  0.335895  0.335895  0.513298  1
  Cl  Cl10  1  0.784987  0.784987  0.106179  1
  Cl  Cl11  1  0.215013  0.215013  0.893821  1
