# generated using pymatgen
data_Ho7Hf9(Si4Mo)4
_symmetry_space_group_name_H-M   'P 1'
_cell_length_a   7.13643635
_cell_length_b   7.13153502
_cell_length_c   13.03470000
_cell_angle_alpha   90.12895615
_cell_angle_beta   90.03520553
_cell_angle_gamma   89.97020247
_symmetry_Int_Tables_number   1
_chemical_formula_structural   Ho7Hf9(Si4Mo)4
_chemical_formula_sum   'Ho7 Hf9 Si16 Mo4'
_cell_volume   663.38281294
_cell_formula_units_Z   1
loop_
 _symmetry_equiv_pos_site_id
 _symmetry_equiv_pos_as_xyz
  1  'x, y, z'
loop_
 _atom_site_type_symbol
 _atom_site_label
 _atom_site_symmetry_multiplicity
 _atom_site_fract_x
 _atom_site_fract_y
 _atom_site_fract_z
 _atom_site_occupancy
  Ho  Ho0  1  0.499069  0.154294  0.533610  1
  Ho  Ho1  1  0.501208  0.846431  0.035864  1
  Ho  Ho2  1  0.655477  0.001823  0.283156  1
  Ho  Ho3  1  0.346049  0.998620  0.785314  1
  Ho  Ho4  1  0.845641  0.501302  0.966342  1
  Ho  Ho5  1  0.153420  0.498464  0.465734  1
  Ho  Ho6  1  0.001123  0.654467  0.715228  1
  Hf  Hf7  1  0.005044  0.348209  0.215025  1
  Hf  Hf8  1  0.493695  0.354358  0.124927  1
  Hf  Hf9  1  0.505459  0.645923  0.623137  1
  Hf  Hf10  1  0.854037  0.007257  0.875541  1
  Hf  Hf11  1  0.143015  0.993700  0.371844  1
  Hf  Hf12  1  0.645750  0.503925  0.374154  1
  Hf  Hf13  1  0.353860  0.494445  0.877610  1
  Hf  Hf14  1  0.005495  0.855321  0.127310  1
  Hf  Hf15  1  0.993588  0.146200  0.625234  1
  Si  Si16  1  0.802107  0.145738  0.072040  1
  Si  Si17  1  0.202533  0.859735  0.566312  1
  Si  Si18  1  0.640376  0.702501  0.817076  1
  Si  Si19  1  0.353670  0.299244  0.316181  1
  Si  Si20  1  0.860194  0.204874  0.429854  1
  Si  Si21  1  0.139881  0.796592  0.933908  1
  Si  Si22  1  0.709060  0.636322  0.181208  1
  Si  Si23  1  0.297981  0.359228  0.683230  1
  Si  Si24  1  0.552947  0.205412  0.934645  1
  Si  Si25  1  0.447583  0.794724  0.432706  1
  Si  Si26  1  0.704651  0.948129  0.683852  1
  Si  Si27  1  0.293304  0.055351  0.183399  1
  Si  Si28  1  0.795296  0.448359  0.565460  1
  Si  Si29  1  0.201576  0.549058  0.068424  1
  Si  Si30  1  0.949973  0.698096  0.314932  1
  Si  Si31  1  0.052050  0.295621  0.816320  1
  Mo  Mo32  1  0.676221  0.323490  0.749997  1
  Mo  Mo33  1  0.320552  0.672914  0.249895  1
  Mo  Mo34  1  0.823832  0.822029  0.498602  1
  Mo  Mo35  1  0.174278  0.177840  0.001929  1
