# generated using pymatgen
data_ThRe4SiP
_symmetry_space_group_name_H-M   'P 1'
_cell_length_a   4.11375100
_cell_length_b   7.35432100
_cell_length_c   15.57768000
_cell_angle_alpha   90.00000000
_cell_angle_beta   90.00000000
_cell_angle_gamma   90.00000000
_symmetry_Int_Tables_number   1
_chemical_formula_structural   ThRe4SiP
_chemical_formula_sum   'Th4 Re16 Si4 P4'
_cell_volume   471.28472191
_cell_formula_units_Z   4
loop_
 _symmetry_equiv_pos_site_id
 _symmetry_equiv_pos_as_xyz
  1  'x, y, z'
loop_
 _atom_site_type_symbol
 _atom_site_label
 _atom_site_symmetry_multiplicity
 _atom_site_fract_x
 _atom_site_fract_y
 _atom_site_fract_z
 _atom_site_occupancy
  Th  Th0  1  0.000000  0.582053  0.117668  1
  Th  Th1  1  0.000000  0.417947  0.882332  1
  Th  Th2  1  0.500000  0.082053  0.382332  1
  Th  Th3  1  0.500000  0.917947  0.617668  1
  Re  Re4  1  0.000000  0.142093  0.050848  1
  Re  Re5  1  0.000000  0.857907  0.949152  1
  Re  Re6  1  0.500000  0.642093  0.449152  1
  Re  Re7  1  0.500000  0.357907  0.550848  1
  Re  Re8  1  0.000000  0.731135  0.322051  1
  Re  Re9  1  0.000000  0.268865  0.677949  1
  Re  Re10  1  0.500000  0.231135  0.177949  1
  Re  Re11  1  0.500000  0.768865  0.822051  1
  Re  Re12  1  0.000000  0.418113  0.420044  1
  Re  Re13  1  0.000000  0.581887  0.579956  1
  Re  Re14  1  0.500000  0.918113  0.079956  1
  Re  Re15  1  0.500000  0.081887  0.920044  1
  Re  Re16  1  0.000000  0.995509  0.205639  1
  Re  Re17  1  0.000000  0.004491  0.794361  1
  Re  Re18  1  0.500000  0.495509  0.294361  1
  Re  Re19  1  0.500000  0.504491  0.705639  1
  Si  Si20  1  0.000000  0.299084  0.272428  1
  Si  Si21  1  0.000000  0.700916  0.727572  1
  Si  Si22  1  0.500000  0.799084  0.227572  1
  Si  Si23  1  0.500000  0.200916  0.772428  1
  P  P24  1  0.000000  0.817607  0.470812  1
  P  P25  1  0.000000  0.182393  0.529188  1
  P  P26  1  0.500000  0.317607  0.029188  1
  P  P27  1  0.500000  0.682393  0.970812  1
