# generated using pymatgen
data_Th4FeSi6Pd
_symmetry_space_group_name_H-M   'P 1'
_cell_length_a   8.18607700
_cell_length_b   8.18607793
_cell_length_c   8.45507700
_cell_angle_alpha   90.00000000
_cell_angle_beta   90.00000000
_cell_angle_gamma   119.99999221
_symmetry_Int_Tables_number   1
_chemical_formula_structural   Th4FeSi6Pd
_chemical_formula_sum   'Th8 Fe2 Si12 Pd2'
_cell_volume   490.68178095
_cell_formula_units_Z   2
loop_
 _symmetry_equiv_pos_site_id
 _symmetry_equiv_pos_as_xyz
  1  'x, y, z'
loop_
 _atom_site_type_symbol
 _atom_site_label
 _atom_site_symmetry_multiplicity
 _atom_site_fract_x
 _atom_site_fract_y
 _atom_site_fract_z
 _atom_site_occupancy
  Th  Th0  1  0.499864  0.500136  0.760628  1
  Th  Th1  1  0.500136  0.499864  0.239372  1
  Th  Th2  1  0.000271  0.500136  0.760628  1
  Th  Th3  1  0.999729  0.499864  0.239372  1
  Th  Th4  1  0.499864  0.999729  0.760628  1
  Th  Th5  1  0.500136  0.000271  0.239372  1
  Th  Th6  1  0.000000  0.000000  0.751659  1
  Th  Th7  1  0.000000  0.000000  0.248341  1
  Fe  Fe8  1  0.666667  0.333333  0.000015  1
  Fe  Fe9  1  0.333333  0.666667  0.999985  1
  Si  Si10  1  0.829259  0.170741  0.999768  1
  Si  Si11  1  0.170741  0.829259  0.000232  1
  Si  Si12  1  0.341483  0.170741  0.999768  1
  Si  Si13  1  0.165575  0.834425  0.499812  1
  Si  Si14  1  0.658517  0.829259  0.000232  1
  Si  Si15  1  0.834425  0.165575  0.500188  1
  Si  Si16  1  0.829259  0.658517  0.999768  1
  Si  Si17  1  0.668849  0.834425  0.499812  1
  Si  Si18  1  0.170741  0.341483  0.000232  1
  Si  Si19  1  0.331151  0.165575  0.500188  1
  Si  Si20  1  0.165575  0.331151  0.499812  1
  Si  Si21  1  0.834425  0.668849  0.500188  1
  Pd  Pd22  1  0.333333  0.666667  0.499671  1
  Pd  Pd23  1  0.666667  0.333333  0.500329  1
