# generated using pymatgen
data_K4PrUTe6
_symmetry_space_group_name_H-M   'P 1'
_cell_length_a   8.17030048
_cell_length_b   8.17030083
_cell_length_c   8.63895221
_cell_angle_alpha   80.78476188
_cell_angle_beta   80.78475642
_cell_angle_gamma   120.04802112
_symmetry_Int_Tables_number   1
_chemical_formula_structural   K4PrUTe6
_chemical_formula_sum   'K4 Pr1 U1 Te6'
_cell_volume   472.84437198
_cell_formula_units_Z   1
loop_
 _symmetry_equiv_pos_site_id
 _symmetry_equiv_pos_as_xyz
  1  'x, y, z'
loop_
 _atom_site_type_symbol
 _atom_site_label
 _atom_site_symmetry_multiplicity
 _atom_site_fract_x
 _atom_site_fract_y
 _atom_site_fract_z
 _atom_site_occupancy
  K  K0  1  0.344994  0.655006  0.500000  1
  K  K1  1  0.654867  0.345133  0.500000  1
  K  K2  1  0.999958  0.000042  0.500000  1
  K  K3  1  0.499976  0.500024  0.000000  1
  Pr  Pr4  1  0.167938  0.832062  0.000000  1
  U  U5  1  0.832091  0.167909  0.000000  1
  Te  Te6  1  0.787132  0.805233  0.211828  1
  Te  Te7  1  0.445415  0.066826  0.215517  1
  Te  Te8  1  0.047520  0.407833  0.214720  1
  Te  Te9  1  0.592167  0.952480  0.785280  1
  Te  Te10  1  0.933174  0.554585  0.784483  1
  Te  Te11  1  0.194767  0.212868  0.788172  1
