# generated using pymatgen
data_Dy2Co5P6Rh5
_symmetry_space_group_name_H-M   'P 1'
_cell_length_a   3.76449200
_cell_length_b   10.57534600
_cell_length_c   12.16870900
_cell_angle_alpha   90.00000000
_cell_angle_beta   90.00000000
_cell_angle_gamma   90.00000000
_symmetry_Int_Tables_number   1
_chemical_formula_structural   Dy2Co5P6Rh5
_chemical_formula_sum   'Dy4 Co10 P12 Rh10'
_cell_volume   484.44610614
_cell_formula_units_Z   2
loop_
 _symmetry_equiv_pos_site_id
 _symmetry_equiv_pos_as_xyz
  1  'x, y, z'
loop_
 _atom_site_type_symbol
 _atom_site_label
 _atom_site_symmetry_multiplicity
 _atom_site_fract_x
 _atom_site_fract_y
 _atom_site_fract_z
 _atom_site_occupancy
  Dy  Dy0  1  0.250000  0.586747  0.710876  1
  Dy  Dy1  1  0.250000  0.913253  0.210876  1
  Dy  Dy2  1  0.750000  0.419885  0.291473  1
  Dy  Dy3  1  0.750000  0.080115  0.791473  1
  Co  Co4  1  0.750000  0.777782  0.821201  1
  Co  Co5  1  0.750000  0.722218  0.321201  1
  Co  Co6  1  0.250000  0.879684  0.696786  1
  Co  Co7  1  0.250000  0.620316  0.196786  1
  Co  Co8  1  0.750000  0.112109  0.303094  1
  Co  Co9  1  0.750000  0.387891  0.803094  1
  Co  Co10  1  0.250000  0.464780  0.931260  1
  Co  Co11  1  0.250000  0.035220  0.431260  1
  Co  Co12  1  0.750000  0.538360  0.067199  1
  Co  Co13  1  0.750000  0.961640  0.567199  1
  P  P14  1  0.250000  0.431356  0.110085  1
  P  P15  1  0.250000  0.068644  0.610085  1
  P  P16  1  0.750000  0.578888  0.888799  1
  P  P17  1  0.750000  0.921112  0.388799  1
  P  P18  1  0.250000  0.274150  0.871411  1
  P  P19  1  0.250000  0.225850  0.371411  1
  P  P20  1  0.750000  0.725209  0.137822  1
  P  P21  1  0.750000  0.774791  0.637822  1
  P  P22  1  0.250000  0.607448  0.378567  1
  P  P23  1  0.250000  0.892552  0.878567  1
  P  P24  1  0.750000  0.402618  0.617622  1
  P  P25  1  0.750000  0.097382  0.117622  1
  Rh  Rh26  1  0.250000  0.711430  0.986257  1
  Rh  Rh27  1  0.250000  0.788570  0.486257  1
  Rh  Rh28  1  0.750000  0.283853  0.008268  1
  Rh  Rh29  1  0.750000  0.216147  0.508268  1
  Rh  Rh30  1  0.250000  0.412093  0.479303  1
  Rh  Rh31  1  0.250000  0.087907  0.979303  1
  Rh  Rh32  1  0.750000  0.596956  0.519851  1
  Rh  Rh33  1  0.750000  0.903044  0.019851  1
  Rh  Rh34  1  0.250000  0.224760  0.180125  1
  Rh  Rh35  1  0.250000  0.275240  0.680125  1
