# generated using pymatgen
data_Dy4SiOsRu6
_symmetry_space_group_name_H-M   'P 1'
_cell_length_a   5.44949863
_cell_length_b   5.19155037
_cell_length_c   8.87369200
_cell_angle_alpha   90.00000000
_cell_angle_beta   90.00000000
_cell_angle_gamma   121.65324130
_symmetry_Int_Tables_number   1
_chemical_formula_structural   Dy4SiOsRu6
_chemical_formula_sum   'Dy4 Si1 Os1 Ru6'
_cell_volume   213.70260685
_cell_formula_units_Z   1
loop_
 _symmetry_equiv_pos_site_id
 _symmetry_equiv_pos_as_xyz
  1  'x, y, z'
loop_
 _atom_site_type_symbol
 _atom_site_label
 _atom_site_symmetry_multiplicity
 _atom_site_fract_x
 _atom_site_fract_y
 _atom_site_fract_z
 _atom_site_occupancy
  Dy  Dy0  1  0.670470  0.340701  0.565589  1
  Dy  Dy1  1  0.332660  0.665175  0.432904  1
  Dy  Dy2  1  0.332660  0.665175  0.067096  1
  Dy  Dy3  1  0.670470  0.340701  0.934411  1
  Si  Si4  1  0.835839  0.671921  0.250000  1
  Os  Os5  1  0.154609  0.309125  0.750000  1
  Ru  Ru6  1  0.005235  0.010246  0.498419  1
  Ru  Ru7  1  0.005235  0.010246  0.001581  1
  Ru  Ru8  1  0.173052  0.815214  0.750000  1
  Ru  Ru9  1  0.641962  0.814945  0.750000  1
  Ru  Ru10  1  0.828989  0.178300  0.250000  1
  Ru  Ru11  1  0.348818  0.178254  0.250000  1
