# generated using pymatgen
data_Tm3PaPt4
_symmetry_space_group_name_H-M   'P 1'
_cell_length_a   4.53359300
_cell_length_b   5.55199695
_cell_length_c   6.90631921
_cell_angle_alpha   89.29620577
_cell_angle_beta   90.00000000
_cell_angle_gamma   90.00000000
_symmetry_Int_Tables_number   1
_chemical_formula_structural   Tm3PaPt4
_chemical_formula_sum   'Tm3 Pa1 Pt4'
_cell_volume   173.82235535
_cell_formula_units_Z   1
loop_
 _symmetry_equiv_pos_site_id
 _symmetry_equiv_pos_as_xyz
  1  'x, y, z'
loop_
 _atom_site_type_symbol
 _atom_site_label
 _atom_site_symmetry_multiplicity
 _atom_site_fract_x
 _atom_site_fract_y
 _atom_site_fract_z
 _atom_site_occupancy
  Tm  Tm0  1  0.750000  0.353913  0.814582  1
  Tm  Tm1  1  0.750000  0.145148  0.320825  1
  Tm  Tm2  1  0.250000  0.857535  0.683767  1
  Pa  Pa3  1  0.250000  0.644806  0.182196  1
  Pt  Pt4  1  0.250000  0.161871  0.049842  1
  Pt  Pt5  1  0.750000  0.833007  0.960106  1
  Pt  Pt6  1  0.750000  0.658605  0.449123  1
  Pt  Pt7  1  0.250000  0.345115  0.539558  1
