# generated using pymatgen
data_Pr4Ga10Ir5Pd
_symmetry_space_group_name_H-M   'P 1'
_cell_length_a   8.70563388
_cell_length_b   8.70563415
_cell_length_c   8.70563498
_cell_angle_alpha   140.95146421
_cell_angle_beta   107.78348124
_cell_angle_gamma   85.29454796
_symmetry_Int_Tables_number   1
_chemical_formula_structural   Pr4Ga10Ir5Pd
_chemical_formula_sum   'Pr4 Ga10 Ir5 Pd1'
_cell_volume   382.31983663
_cell_formula_units_Z   1
loop_
 _symmetry_equiv_pos_site_id
 _symmetry_equiv_pos_as_xyz
  1  'x, y, z'
loop_
 _atom_site_type_symbol
 _atom_site_label
 _atom_site_symmetry_multiplicity
 _atom_site_fract_x
 _atom_site_fract_y
 _atom_site_fract_z
 _atom_site_occupancy
  Pr  Pr0  1  0.864288  0.637022  0.228063  1
  Pr  Pr1  1  0.135712  0.363775  0.772734  1
  Pr  Pr2  1  0.408959  0.136225  0.271937  1
  Pr  Pr3  1  0.591041  0.862978  0.727266  1
  Ga  Ga4  1  0.500000  0.750000  0.250000  1
  Ga  Ga5  1  0.500000  0.250000  0.750000  1
  Ga  Ga6  1  0.211212  0.961212  0.750000  1
  Ga  Ga7  1  0.788788  0.538788  0.750000  1
  Ga  Ga8  1  0.791679  0.041679  0.250000  1
  Ga  Ga9  1  0.208321  0.458321  0.250000  1
  Ga  Ga10  1  0.077100  0.911519  0.174585  1
  Ga  Ga11  1  0.922900  0.097485  0.834418  1
  Ga  Ga12  1  0.736933  0.402515  0.325415  1
  Ga  Ga13  1  0.263067  0.588481  0.665582  1
  Ir  Ir14  1  0.000000  0.250000  0.250000  1
  Ir  Ir15  1  0.255873  0.850761  0.400274  1
  Ir  Ir16  1  0.744127  0.144401  0.594888  1
  Ir  Ir17  1  0.450488  0.355599  0.099726  1
  Ir  Ir18  1  0.549512  0.649239  0.905112  1
  Pd  Pd19  1  0.000000  0.750000  0.750000  1
