# generated using pymatgen
data_Ho8ErTmIr6
_symmetry_space_group_name_H-M   'P 1'
_cell_length_a   10.83468600
_cell_length_b   10.83468600
_cell_length_c   6.33746000
_cell_angle_alpha   90.00000000
_cell_angle_beta   90.00000000
_cell_angle_gamma   90.00000000
_symmetry_Int_Tables_number   1
_chemical_formula_structural   Ho8ErTmIr6
_chemical_formula_sum   'Ho16 Er2 Tm2 Ir12'
_cell_volume   743.95709569
_cell_formula_units_Z   2
loop_
 _symmetry_equiv_pos_site_id
 _symmetry_equiv_pos_as_xyz
  1  'x, y, z'
loop_
 _atom_site_type_symbol
 _atom_site_label
 _atom_site_symmetry_multiplicity
 _atom_site_fract_x
 _atom_site_fract_y
 _atom_site_fract_z
 _atom_site_occupancy
  Ho  Ho0  1  0.290914  0.087627  0.377222  1
  Ho  Ho1  1  0.290914  0.912373  0.877222  1
  Ho  Ho2  1  0.709086  0.087627  0.877222  1
  Ho  Ho3  1  0.709086  0.912373  0.377222  1
  Ho  Ho4  1  0.587611  0.790865  0.877231  1
  Ho  Ho5  1  0.587611  0.209135  0.377231  1
  Ho  Ho6  1  0.412389  0.790865  0.377231  1
  Ho  Ho7  1  0.412389  0.209135  0.877231  1
  Ho  Ho8  1  0.209135  0.412389  0.622769  1
  Ho  Ho9  1  0.209135  0.587611  0.122769  1
  Ho  Ho10  1  0.790865  0.412389  0.122769  1
  Ho  Ho11  1  0.790865  0.587611  0.622769  1
  Ho  Ho12  1  0.912373  0.709086  0.122778  1
  Ho  Ho13  1  0.912373  0.290914  0.622778  1
  Ho  Ho14  1  0.087627  0.709086  0.622778  1
  Ho  Ho15  1  0.087627  0.290914  0.122778  1
  Er  Er16  1  0.000000  0.000000  0.500000  1
  Er  Er17  1  0.000000  0.000000  0.000000  1
  Tm  Tm18  1  0.500000  0.500000  0.000000  1
  Tm  Tm19  1  0.500000  0.500000  0.500000  1
  Ir  Ir20  1  0.847245  0.152755  0.250000  1
  Ir  Ir21  1  0.847245  0.847245  0.750000  1
  Ir  Ir22  1  0.152755  0.152755  0.750000  1
  Ir  Ir23  1  0.152755  0.847245  0.250000  1
  Ir  Ir24  1  0.652648  0.347352  0.750000  1
  Ir  Ir25  1  0.652648  0.652648  0.250000  1
  Ir  Ir26  1  0.347352  0.347352  0.250000  1
  Ir  Ir27  1  0.347352  0.652648  0.750000  1
  Ir  Ir28  1  0.500000  0.000000  0.122070  1
  Ir  Ir29  1  0.500000  0.000000  0.622070  1
  Ir  Ir30  1  0.000000  0.500000  0.877930  1
  Ir  Ir31  1  0.000000  0.500000  0.377930  1
