# generated using pymatgen
data_Tb2ErMg3Ge2Au
_symmetry_space_group_name_H-M   'P 1'
_cell_length_a   7.26520392
_cell_length_b   7.26520305
_cell_length_c   4.35268100
_cell_angle_alpha   90.00000000
_cell_angle_beta   90.00000000
_cell_angle_gamma   119.94222645
_symmetry_Int_Tables_number   1
_chemical_formula_structural   Tb2ErMg3Ge2Au
_chemical_formula_sum   'Tb2 Er1 Mg3 Ge2 Au1'
_cell_volume   199.08364038
_cell_formula_units_Z   1
loop_
 _symmetry_equiv_pos_site_id
 _symmetry_equiv_pos_as_xyz
  1  'x, y, z'
loop_
 _atom_site_type_symbol
 _atom_site_label
 _atom_site_symmetry_multiplicity
 _atom_site_fract_x
 _atom_site_fract_y
 _atom_site_fract_z
 _atom_site_occupancy
  Tb  Tb0  1  0.581890  0.999659  0.000000  1
  Tb  Tb1  1  0.999659  0.581890  0.000000  1
  Er  Er2  1  0.417101  0.417101  0.000000  1
  Mg  Mg3  1  0.243385  0.000516  0.500000  1
  Mg  Mg4  1  0.000516  0.243385  0.500000  1
  Mg  Mg5  1  0.756201  0.756201  0.500000  1
  Ge  Ge6  1  0.333992  0.665690  0.500000  1
  Ge  Ge7  1  0.665690  0.333992  0.500000  1
  Au  Au8  1  0.001565  0.001565  0.000000  1
