# generated using pymatgen
data_Y7Er9Cd4OsPd3
_symmetry_space_group_name_H-M   'P 1'
_cell_length_a   9.68924872
_cell_length_b   9.68924780
_cell_length_c   9.69577703
_cell_angle_alpha   59.38874080
_cell_angle_beta   59.38874695
_cell_angle_gamma   59.47168540
_symmetry_Int_Tables_number   1
_chemical_formula_structural   Y7Er9Cd4OsPd3
_chemical_formula_sum   'Y7 Er9 Cd4 Os1 Pd3'
_cell_volume   635.09881503
_cell_formula_units_Z   1
loop_
 _symmetry_equiv_pos_site_id
 _symmetry_equiv_pos_as_xyz
  1  'x, y, z'
loop_
 _atom_site_type_symbol
 _atom_site_label
 _atom_site_symmetry_multiplicity
 _atom_site_fract_x
 _atom_site_fract_y
 _atom_site_fract_z
 _atom_site_occupancy
  Y  Y0  1  0.811069  0.811069  0.187035  1
  Y  Y1  1  0.935399  0.564322  0.565830  1
  Y  Y2  1  0.557011  0.938183  0.937633  1
  Y  Y3  1  0.564322  0.935399  0.565830  1
  Y  Y4  1  0.938183  0.557011  0.937633  1
  Y  Y5  1  0.564592  0.564592  0.935586  1
  Y  Y6  1  0.937806  0.937806  0.557606  1
  Er  Er7  1  0.353690  0.353690  0.354576  1
  Er  Er8  1  0.350013  0.350013  0.945131  1
  Er  Er9  1  0.349266  0.946672  0.350065  1
  Er  Er10  1  0.946672  0.349266  0.350065  1
  Er  Er11  1  0.817120  0.187784  0.187289  1
  Er  Er12  1  0.187564  0.811029  0.811081  1
  Er  Er13  1  0.187784  0.817120  0.187289  1
  Er  Er14  1  0.811029  0.187564  0.811081  1
  Er  Er15  1  0.187078  0.187078  0.817676  1
  Cd  Cd16  1  0.580052  0.580052  0.579761  1
  Cd  Cd17  1  0.581290  0.581290  0.254959  1
  Cd  Cd18  1  0.581173  0.255149  0.581051  1
  Cd  Cd19  1  0.255149  0.581173  0.581051  1
  Os  Os20  1  0.143681  0.143681  0.143995  1
  Pd  Pd21  1  0.144772  0.144772  0.569321  1
  Pd  Pd22  1  0.148245  0.567040  0.144227  1
  Pd  Pd23  1  0.567040  0.148245  0.144227  1
