# generated using pymatgen
data_Ba20InSi10Hg
_symmetry_space_group_name_H-M   'P 1'
_cell_length_a   8.49675800
_cell_length_b   8.49675800
_cell_length_c   17.31053800
_cell_angle_alpha   90.00000000
_cell_angle_beta   90.00000000
_cell_angle_gamma   90.00000000
_symmetry_Int_Tables_number   1
_chemical_formula_structural   Ba20InSi10Hg
_chemical_formula_sum   'Ba20 In1 Si10 Hg1'
_cell_volume   1249.73249945
_cell_formula_units_Z   1
loop_
 _symmetry_equiv_pos_site_id
 _symmetry_equiv_pos_as_xyz
  1  'x, y, z'
loop_
 _atom_site_type_symbol
 _atom_site_label
 _atom_site_symmetry_multiplicity
 _atom_site_fract_x
 _atom_site_fract_y
 _atom_site_fract_z
 _atom_site_occupancy
  Ba  Ba0  1  0.314390  0.669862  0.114799  1
  Ba  Ba1  1  0.169862  0.185610  0.114799  1
  Ba  Ba2  1  0.500000  0.000000  0.723348  1
  Ba  Ba3  1  0.327071  0.689949  0.396750  1
  Ba  Ba4  1  0.667160  0.687300  0.884908  1
  Ba  Ba5  1  0.189949  0.172929  0.396750  1
  Ba  Ba6  1  0.672929  0.310051  0.396750  1
  Ba  Ba7  1  0.172441  0.809634  0.603299  1
  Ba  Ba8  1  0.332840  0.312700  0.884908  1
  Ba  Ba9  1  0.187300  0.832840  0.884908  1
  Ba  Ba10  1  0.500000  0.000000  0.243454  1
  Ba  Ba11  1  0.827559  0.190366  0.603299  1
  Ba  Ba12  1  0.309634  0.327559  0.603299  1
  Ba  Ba13  1  0.810051  0.827071  0.396750  1
  Ba  Ba14  1  0.812700  0.167160  0.884908  1
  Ba  Ba15  1  0.830138  0.814390  0.114799  1
  Ba  Ba16  1  0.000000  0.500000  0.274826  1
  Ba  Ba17  1  0.000000  0.500000  0.759438  1
  Ba  Ba18  1  0.685610  0.330138  0.114799  1
  Ba  Ba19  1  0.690366  0.672441  0.603299  1
  In  In20  1  0.000000  0.500000  0.989288  1
  Si  Si21  1  0.099656  0.101242  0.743966  1
  Si  Si22  1  0.398758  0.599656  0.743966  1
  Si  Si23  1  0.600213  0.600750  0.255834  1
  Si  Si24  1  0.100750  0.899787  0.255834  1
  Si  Si25  1  0.601242  0.400344  0.743966  1
  Si  Si26  1  0.900344  0.898758  0.743966  1
  Si  Si27  1  0.399787  0.399250  0.255834  1
  Si  Si28  1  0.899250  0.100213  0.255834  1
  Si  Si29  1  0.500000  0.000000  0.511866  1
  Si  Si30  1  0.000000  0.500000  0.488356  1
  Hg  Hg31  1  0.500000  0.000000  0.011203  1
