# generated using pymatgen
data_Yb2Pr8Si5Hg
_symmetry_space_group_name_H-M   'P 1'
_cell_length_a   7.78080806
_cell_length_b   7.78080889
_cell_length_c   9.13984767
_cell_angle_alpha   115.19201102
_cell_angle_beta   115.19201791
_cell_angle_gamma   89.99999947
_symmetry_Int_Tables_number   1
_chemical_formula_structural   Yb2Pr8Si5Hg
_chemical_formula_sum   'Yb2 Pr8 Si5 Hg1'
_cell_volume   441.85091412
_cell_formula_units_Z   1
loop_
 _symmetry_equiv_pos_site_id
 _symmetry_equiv_pos_as_xyz
  1  'x, y, z'
loop_
 _atom_site_type_symbol
 _atom_site_label
 _atom_site_symmetry_multiplicity
 _atom_site_fract_x
 _atom_site_fract_y
 _atom_site_fract_z
 _atom_site_occupancy
  Yb  Yb0  1  0.510288  0.510288  0.020575  1
  Yb  Yb1  1  0.989712  0.989712  0.979425  1
  Pr  Pr2  1  0.970449  0.827820  0.283119  1
  Pr  Pr3  1  0.312670  0.455300  0.283119  1
  Pr  Pr4  1  0.827820  0.312670  0.283119  1
  Pr  Pr5  1  0.455300  0.970449  0.283119  1
  Pr  Pr6  1  0.044700  0.187330  0.716881  1
  Pr  Pr7  1  0.672180  0.529551  0.716881  1
  Pr  Pr8  1  0.187330  0.672180  0.716881  1
  Pr  Pr9  1  0.529551  0.044700  0.716881  1
  Si  Si10  1  0.250000  0.250000  0.500000  1
  Si  Si11  1  0.613234  0.886766  0.000000  1
  Si  Si12  1  0.386766  0.113234  0.000000  1
  Si  Si13  1  0.886766  0.386766  0.000000  1
  Si  Si14  1  0.113234  0.613234  0.000000  1
  Hg  Hg15  1  0.750000  0.750000  0.500000  1
