# generated using pymatgen
data_Dy3Ho2Er5(CoBi2)2
_symmetry_space_group_name_H-M   'P 1'
_cell_length_a   7.94996468
_cell_length_b   8.88140400
_cell_length_c   12.36970055
_cell_angle_alpha   90.00000000
_cell_angle_beta   90.07929231
_cell_angle_gamma   90.00000000
_symmetry_Int_Tables_number   1
_chemical_formula_structural   Dy3Ho2Er5(CoBi2)2
_chemical_formula_sum   'Dy6 Ho4 Er10 Co4 Bi8'
_cell_volume   873.38473167
_cell_formula_units_Z   2
loop_
 _symmetry_equiv_pos_site_id
 _symmetry_equiv_pos_as_xyz
  1  'x, y, z'
loop_
 _atom_site_type_symbol
 _atom_site_label
 _atom_site_symmetry_multiplicity
 _atom_site_fract_x
 _atom_site_fract_y
 _atom_site_fract_z
 _atom_site_occupancy
  Dy  Dy0  1  0.847265  0.250000  0.799857  1
  Dy  Dy1  1  0.152735  0.750000  0.200143  1
  Dy  Dy2  1  0.884600  0.750000  0.811140  1
  Dy  Dy3  1  0.115400  0.250000  0.188860  1
  Dy  Dy4  1  0.384121  0.250000  0.688865  1
  Dy  Dy5  1  0.615879  0.750000  0.311135  1
  Ho  Ho6  1  0.053411  0.750000  0.497900  1
  Ho  Ho7  1  0.946589  0.250000  0.502100  1
  Ho  Ho8  1  0.552934  0.250000  0.002288  1
  Ho  Ho9  1  0.447066  0.750000  0.997712  1
  Er  Er10  1  0.347684  0.750000  0.699467  1
  Er  Er11  1  0.652316  0.250000  0.300533  1
  Er  Er12  1  0.674751  0.538174  0.563135  1
  Er  Er13  1  0.325249  0.461826  0.436865  1
  Er  Er14  1  0.175027  0.462113  0.936990  1
  Er  Er15  1  0.325249  0.038174  0.436865  1
  Er  Er16  1  0.824973  0.537887  0.063010  1
  Er  Er17  1  0.674751  0.961826  0.563135  1
  Er  Er18  1  0.824973  0.962113  0.063010  1
  Er  Er19  1  0.175027  0.037887  0.936990  1
  Co  Co20  1  0.065311  0.750000  0.992272  1
  Co  Co21  1  0.934689  0.250000  0.007728  1
  Co  Co22  1  0.565283  0.250000  0.507577  1
  Co  Co23  1  0.434717  0.750000  0.492423  1
  Bi  Bi24  1  0.570682  0.509735  0.826814  1
  Bi  Bi25  1  0.429318  0.490265  0.173186  1
  Bi  Bi26  1  0.072033  0.491085  0.673043  1
  Bi  Bi27  1  0.429318  0.009735  0.173186  1
  Bi  Bi28  1  0.927967  0.508915  0.326957  1
  Bi  Bi29  1  0.570682  0.990265  0.826814  1
  Bi  Bi30  1  0.927967  0.991085  0.326957  1
  Bi  Bi31  1  0.072033  0.008915  0.673043  1
