# generated using pymatgen
data_Nd5PdAuO12
_symmetry_space_group_name_H-M   'P 1'
_cell_length_a   7.11480751
_cell_length_b   7.11480682
_cell_length_c   7.55508700
_cell_angle_alpha   74.56702394
_cell_angle_beta   74.56703383
_cell_angle_gamma   51.02035369
_symmetry_Int_Tables_number   1
_chemical_formula_structural   Nd5PdAuO12
_chemical_formula_sum   'Nd5 Pd1 Au1 O12'
_cell_volume   284.08136703
_cell_formula_units_Z   1
loop_
 _symmetry_equiv_pos_site_id
 _symmetry_equiv_pos_as_xyz
  1  'x, y, z'
loop_
 _atom_site_type_symbol
 _atom_site_label
 _atom_site_symmetry_multiplicity
 _atom_site_fract_x
 _atom_site_fract_y
 _atom_site_fract_z
 _atom_site_occupancy
  Nd  Nd0  1  0.306660  0.294783  0.359591  1
  Nd  Nd1  1  0.705217  0.693340  0.640409  1
  Nd  Nd2  1  0.696047  0.696237  0.164473  1
  Nd  Nd3  1  0.303763  0.303953  0.835527  1
  Nd  Nd4  1  0.003772  0.996228  0.500000  1
  Pd  Pd5  1  0.748875  0.251125  0.000000  1
  Au  Au6  1  0.243443  0.756557  0.000000  1
  O  O7  1  0.101147  0.596595  0.573209  1
  O  O8  1  0.994376  0.004715  0.177810  1
  O  O9  1  0.403405  0.898853  0.426791  1
  O  O10  1  0.496708  0.502933  0.179041  1
  O  O11  1  0.097368  0.573932  0.083187  1
  O  O12  1  0.907371  0.398854  0.424160  1
  O  O13  1  0.995285  0.005624  0.822190  1
  O  O14  1  0.601146  0.092628  0.575840  1
  O  O15  1  0.497067  0.503292  0.820959  1
  O  O16  1  0.571136  0.098852  0.081812  1
  O  O17  1  0.426068  0.902632  0.916813  1
  O  O18  1  0.901148  0.428864  0.918188  1
