# generated using pymatgen
data_DyHo4Er3(P3Ir4)4
_symmetry_space_group_name_H-M   'P 1'
_cell_length_a   12.96285800
_cell_length_b   12.96285858
_cell_length_c   3.99915900
_cell_angle_alpha   90.00000000
_cell_angle_beta   90.00000000
_cell_angle_gamma   119.99999853
_symmetry_Int_Tables_number   1
_chemical_formula_structural   DyHo4Er3(P3Ir4)4
_chemical_formula_sum   'Dy1 Ho4 Er3 P12 Ir16'
_cell_volume   581.97034612
_cell_formula_units_Z   1
loop_
 _symmetry_equiv_pos_site_id
 _symmetry_equiv_pos_as_xyz
  1  'x, y, z'
loop_
 _atom_site_type_symbol
 _atom_site_label
 _atom_site_symmetry_multiplicity
 _atom_site_fract_x
 _atom_site_fract_y
 _atom_site_fract_z
 _atom_site_occupancy
  Dy  Dy0  1  0.666667  0.333333  0.500000  1
  Ho  Ho1  1  0.333333  0.666667  0.500000  1
  Ho  Ho2  1  0.999996  0.814794  0.000000  1
  Ho  Ho3  1  0.185206  0.185202  0.000000  1
  Ho  Ho4  1  0.814798  0.000004  0.000000  1
  Er  Er5  1  0.000038  0.446612  0.500000  1
  Er  Er6  1  0.553388  0.553426  0.500000  1
  Er  Er7  1  0.446574  0.999962  0.500000  1
  P  P8  1  0.999976  0.652959  0.500000  1
  P  P9  1  0.347041  0.347017  0.500000  1
  P  P10  1  0.652983  0.000024  0.500000  1
  P  P11  1  0.516538  0.688246  0.000000  1
  P  P12  1  0.311754  0.828292  0.000000  1
  P  P13  1  0.171708  0.483462  0.000000  1
  P  P14  1  0.483339  0.171601  0.000000  1
  P  P15  1  0.688262  0.516661  0.000000  1
  P  P16  1  0.828399  0.311738  0.000000  1
  P  P17  1  0.999998  0.176508  0.500000  1
  P  P18  1  0.823492  0.823490  0.500000  1
  P  P19  1  0.176510  0.000002  0.500000  1
  Ir  Ir20  1  0.509306  0.865518  0.000000  1
  Ir  Ir21  1  0.134482  0.643789  0.000000  1
  Ir  Ir22  1  0.356211  0.490694  0.000000  1
  Ir  Ir23  1  0.490511  0.356241  0.000000  1
  Ir  Ir24  1  0.865731  0.509489  0.000000  1
  Ir  Ir25  1  0.643759  0.134269  0.000000  1
  Ir  Ir26  1  0.000001  0.274799  0.000000  1
  Ir  Ir27  1  0.725201  0.725202  0.000000  1
  Ir  Ir28  1  0.274798  0.999999  0.000000  1
  Ir  Ir29  1  0.630439  0.809211  0.500000  1
  Ir  Ir30  1  0.190789  0.821229  0.500000  1
  Ir  Ir31  1  0.178771  0.369561  0.500000  1
  Ir  Ir32  1  0.369533  0.178753  0.500000  1
  Ir  Ir33  1  0.809221  0.630467  0.500000  1
  Ir  Ir34  1  0.821247  0.190779  0.500000  1
  Ir  Ir35  1  0.000000  0.000000  0.500000  1
