# generated using pymatgen
data_PrGaCo3C
_symmetry_space_group_name_H-M   'P 1'
_cell_length_a   5.23833643
_cell_length_b   5.24209382
_cell_length_c   6.62477200
_cell_angle_alpha   90.00000000
_cell_angle_beta   90.00000000
_cell_angle_gamma   120.02285854
_symmetry_Int_Tables_number   1
_chemical_formula_structural   PrGaCo3C
_chemical_formula_sum   'Pr2 Ga2 Co6 C2'
_cell_volume   157.50692926
_cell_formula_units_Z   2
loop_
 _symmetry_equiv_pos_site_id
 _symmetry_equiv_pos_as_xyz
  1  'x, y, z'
loop_
 _atom_site_type_symbol
 _atom_site_label
 _atom_site_symmetry_multiplicity
 _atom_site_fract_x
 _atom_site_fract_y
 _atom_site_fract_z
 _atom_site_occupancy
  Pr  Pr0  1  0.000000  0.000000  0.500000  1
  Pr  Pr1  1  0.000000  0.000000  0.000000  1
  Ga  Ga2  1  0.333549  0.666771  0.000000  1
  Ga  Ga3  1  0.666451  0.333229  0.000000  1
  Co  Co4  1  0.500000  0.000000  0.307223  1
  Co  Co5  1  0.500000  0.500000  0.307237  1
  Co  Co6  1  0.000000  0.500000  0.306974  1
  Co  Co7  1  0.500000  0.000000  0.692777  1
  Co  Co8  1  0.500000  0.500000  0.692763  1
  Co  Co9  1  0.000000  0.500000  0.693026  1
  C  C10  1  0.666912  0.333493  0.500000  1
  C  C11  1  0.333088  0.666507  0.500000  1
