# generated using pymatgen
data_Ca2TbMg(ReN3)4
_symmetry_space_group_name_H-M   'P 1'
_cell_length_a   7.30580374
_cell_length_b   7.30580243
_cell_length_c   6.18937346
_cell_angle_alpha   74.39047723
_cell_angle_beta   74.39047889
_cell_angle_gamma   83.95035151
_symmetry_Int_Tables_number   1
_chemical_formula_structural   Ca2TbMg(ReN3)4
_chemical_formula_sum   'Ca2 Tb1 Mg1 Re4 N12'
_cell_volume   306.24338291
_cell_formula_units_Z   1
loop_
 _symmetry_equiv_pos_site_id
 _symmetry_equiv_pos_as_xyz
  1  'x, y, z'
loop_
 _atom_site_type_symbol
 _atom_site_label
 _atom_site_symmetry_multiplicity
 _atom_site_fract_x
 _atom_site_fract_y
 _atom_site_fract_z
 _atom_site_occupancy
  Ca  Ca0  1  0.292995  0.707005  0.750000  1
  Ca  Ca1  1  0.705658  0.294342  0.250000  1
  Tb  Tb2  1  0.918296  0.081704  0.750000  1
  Mg  Mg3  1  0.095000  0.905000  0.250000  1
  Re  Re4  1  0.618914  0.800401  0.263914  1
  Re  Re5  1  0.199599  0.381086  0.236086  1
  Re  Re6  1  0.377202  0.202027  0.741057  1
  Re  Re7  1  0.797973  0.622798  0.758943  1
  N  N8  1  0.345230  0.364558  0.940467  1
  N  N9  1  0.010901  0.213870  0.341640  1
  N  N10  1  0.786130  0.989099  0.158360  1
  N  N11  1  0.213835  0.009574  0.864497  1
  N  N12  1  0.659662  0.644902  0.052200  1
  N  N13  1  0.886156  0.383101  0.814584  1
  N  N14  1  0.114496  0.619912  0.190180  1
  N  N15  1  0.990426  0.786165  0.635503  1
  N  N16  1  0.380088  0.885504  0.309820  1
  N  N17  1  0.635442  0.654770  0.559533  1
  N  N18  1  0.616899  0.113844  0.685416  1
  N  N19  1  0.355098  0.340338  0.447800  1
