# generated using pymatgen
data_HfSiPd3Pt2
_symmetry_space_group_name_H-M   'P 1'
_cell_length_a   3.98869100
_cell_length_b   4.03132800
_cell_length_c   6.97959300
_cell_angle_alpha   90.00000000
_cell_angle_beta   90.00000000
_cell_angle_gamma   90.00000000
_symmetry_Int_Tables_number   1
_chemical_formula_structural   HfSiPd3Pt2
_chemical_formula_sum   'Hf1 Si1 Pd3 Pt2'
_cell_volume   112.22991310
_cell_formula_units_Z   1
loop_
 _symmetry_equiv_pos_site_id
 _symmetry_equiv_pos_as_xyz
  1  'x, y, z'
loop_
 _atom_site_type_symbol
 _atom_site_label
 _atom_site_symmetry_multiplicity
 _atom_site_fract_x
 _atom_site_fract_y
 _atom_site_fract_z
 _atom_site_occupancy
  Hf  Hf0  1  0.500000  0.500000  0.997543  1
  Si  Si1  1  0.000000  0.000000  0.501005  1
  Pd  Pd2  1  0.000000  0.500000  0.708008  1
  Pd  Pd3  1  0.500000  0.000000  0.291559  1
  Pd  Pd4  1  0.000000  0.500000  0.291737  1
  Pt  Pt5  1  0.000000  0.000000  0.001025  1
  Pt  Pt6  1  0.500000  0.000000  0.709123  1
