# generated using pymatgen
data_YbLu6NiI12
_symmetry_space_group_name_H-M   'P 1'
_cell_length_a   9.64230966
_cell_length_b   9.64230839
_cell_length_c   9.64231033
_cell_angle_alpha   106.79603825
_cell_angle_beta   106.79602598
_cell_angle_gamma   106.79603634
_symmetry_Int_Tables_number   1
_chemical_formula_structural   YbLu6NiI12
_chemical_formula_sum   'Yb1 Lu6 Ni1 I12'
_cell_volume   750.71691626
_cell_formula_units_Z   1
loop_
 _symmetry_equiv_pos_site_id
 _symmetry_equiv_pos_as_xyz
  1  'x, y, z'
loop_
 _atom_site_type_symbol
 _atom_site_label
 _atom_site_symmetry_multiplicity
 _atom_site_fract_x
 _atom_site_fract_y
 _atom_site_fract_z
 _atom_site_occupancy
  Yb  Yb0  1  0.500000  0.500000  0.500000  1
  Lu  Lu1  1  0.906767  0.975973  0.712370  1
  Lu  Lu2  1  0.712370  0.906767  0.975973  1
  Lu  Lu3  1  0.975973  0.712370  0.906767  1
  Lu  Lu4  1  0.093233  0.024027  0.287630  1
  Lu  Lu5  1  0.287630  0.093233  0.024027  1
  Lu  Lu6  1  0.024027  0.287630  0.093233  1
  Ni  Ni7  1  0.000000  0.000000  0.000000  1
  I  I8  1  0.927254  0.322456  0.777636  1
  I  I9  1  0.777636  0.927254  0.322456  1
  I  I10  1  0.322456  0.777636  0.927254  1
  I  I11  1  0.072746  0.677544  0.222364  1
  I  I12  1  0.222364  0.072746  0.677544  1
  I  I13  1  0.677544  0.222364  0.072746  1
  I  I14  1  0.543578  0.851580  0.621376  1
  I  I15  1  0.621376  0.543578  0.851580  1
  I  I16  1  0.851580  0.621376  0.543578  1
  I  I17  1  0.456422  0.148420  0.378624  1
  I  I18  1  0.378624  0.456422  0.148420  1
  I  I19  1  0.148420  0.378624  0.456422  1
