# generated using pymatgen
data_Li5Nd4(P4Rh5)3
_symmetry_space_group_name_H-M   'P 1'
_cell_length_a   3.97544200
_cell_length_b   10.84112266
_cell_length_c   12.84668769
_cell_angle_alpha   89.91354820
_cell_angle_beta   90.00000000
_cell_angle_gamma   90.00000000
_symmetry_Int_Tables_number   1
_chemical_formula_structural   Li5Nd4(P4Rh5)3
_chemical_formula_sum   'Li5 Nd4 P12 Rh15'
_cell_volume   553.66918349
_cell_formula_units_Z   1
loop_
 _symmetry_equiv_pos_site_id
 _symmetry_equiv_pos_as_xyz
  1  'x, y, z'
loop_
 _atom_site_type_symbol
 _atom_site_label
 _atom_site_symmetry_multiplicity
 _atom_site_fract_x
 _atom_site_fract_y
 _atom_site_fract_z
 _atom_site_occupancy
  Li  Li0  1  0.250000  0.706674  0.993952  1
  Li  Li1  1  0.250000  0.794118  0.492534  1
  Li  Li2  1  0.750000  0.293681  0.007528  1
  Li  Li3  1  0.750000  0.203301  0.513119  1
  Li  Li4  1  0.250000  0.408593  0.494168  1
  Nd  Nd5  1  0.250000  0.576659  0.705858  1
  Nd  Nd6  1  0.250000  0.926125  0.201662  1
  Nd  Nd7  1  0.750000  0.427460  0.297989  1
  Nd  Nd8  1  0.750000  0.072494  0.796994  1
  P  P9  1  0.250000  0.431050  0.115719  1
  P  P10  1  0.250000  0.073316  0.614877  1
  P  P11  1  0.750000  0.570676  0.885254  1
  P  P12  1  0.750000  0.931437  0.383444  1
  P  P13  1  0.250000  0.261991  0.859091  1
  P  P14  1  0.250000  0.232695  0.345484  1
  P  P15  1  0.750000  0.736689  0.142382  1
  P  P16  1  0.750000  0.764160  0.641767  1
  P  P17  1  0.250000  0.609187  0.390756  1
  P  P18  1  0.250000  0.892214  0.891330  1
  P  P19  1  0.750000  0.394990  0.617177  1
  P  P20  1  0.750000  0.103053  0.102051  1
  Rh  Rh21  1  0.250000  0.091643  0.977419  1
  Rh  Rh22  1  0.750000  0.585173  0.518240  1
  Rh  Rh23  1  0.750000  0.903398  0.020103  1
  Rh  Rh24  1  0.250000  0.229677  0.164745  1
  Rh  Rh25  1  0.250000  0.275199  0.671325  1
  Rh  Rh26  1  0.750000  0.770599  0.826559  1
  Rh  Rh27  1  0.750000  0.730510  0.328689  1
  Rh  Rh28  1  0.250000  0.874858  0.697128  1
  Rh  Rh29  1  0.250000  0.626285  0.201021  1
  Rh  Rh30  1  0.750000  0.126270  0.297727  1
  Rh  Rh31  1  0.750000  0.371996  0.803905  1
  Rh  Rh32  1  0.250000  0.459997  0.935270  1
  Rh  Rh33  1  0.250000  0.042780  0.433123  1
  Rh  Rh34  1  0.750000  0.540313  0.067379  1
  Rh  Rh35  1  0.750000  0.960735  0.564230  1
