# generated using pymatgen
data_YNbPt5Rh
_symmetry_space_group_name_H-M   'P 1'
_cell_length_a   4.00223300
_cell_length_b   4.00223300
_cell_length_c   8.17582400
_cell_angle_alpha   90.00000000
_cell_angle_beta   90.00000000
_cell_angle_gamma   90.00000000
_symmetry_Int_Tables_number   1
_chemical_formula_structural   YNbPt5Rh
_chemical_formula_sum   'Y1 Nb1 Pt5 Rh1'
_cell_volume   130.95927769
_cell_formula_units_Z   1
loop_
 _symmetry_equiv_pos_site_id
 _symmetry_equiv_pos_as_xyz
  1  'x, y, z'
loop_
 _atom_site_type_symbol
 _atom_site_label
 _atom_site_symmetry_multiplicity
 _atom_site_fract_x
 _atom_site_fract_y
 _atom_site_fract_z
 _atom_site_occupancy
  Y  Y0  1  0.000000  0.000000  0.500000  1
  Nb  Nb1  1  0.000000  0.000000  0.000000  1
  Pt  Pt2  1  0.500000  0.500000  0.500000  1
  Pt  Pt3  1  0.500000  0.000000  0.234694  1
  Pt  Pt4  1  0.500000  0.000000  0.765306  1
  Pt  Pt5  1  0.000000  0.500000  0.234694  1
  Pt  Pt6  1  0.000000  0.500000  0.765306  1
  Rh  Rh7  1  0.500000  0.500000  0.000000  1
