# generated using pymatgen
data_Pr12Sn3IrI12
_symmetry_space_group_name_H-M   'P 1'
_cell_length_a   11.12946895
_cell_length_b   11.12946796
_cell_length_c   11.12946838
_cell_angle_alpha   109.40079845
_cell_angle_beta   109.40080152
_cell_angle_gamma   109.40079949
_symmetry_Int_Tables_number   1
_chemical_formula_structural   Pr12Sn3IrI12
_chemical_formula_sum   'Pr12 Sn3 Ir1 I12'
_cell_volume   1063.96795896
_cell_formula_units_Z   1
loop_
 _symmetry_equiv_pos_site_id
 _symmetry_equiv_pos_as_xyz
  1  'x, y, z'
loop_
 _atom_site_type_symbol
 _atom_site_label
 _atom_site_symmetry_multiplicity
 _atom_site_fract_x
 _atom_site_fract_y
 _atom_site_fract_z
 _atom_site_occupancy
  Pr  Pr0  1  0.465981  0.471334  0.243303  1
  Pr  Pr1  1  0.750000  0.240587  0.259413  1
  Pr  Pr2  1  0.750000  0.009430  0.490570  1
  Pr  Pr3  1  0.243303  0.465981  0.471334  1
  Pr  Pr4  1  0.259413  0.750000  0.240587  1
  Pr  Pr5  1  0.034019  0.256697  0.028666  1
  Pr  Pr6  1  0.028666  0.034019  0.256697  1
  Pr  Pr7  1  0.490570  0.750000  0.009430  1
  Pr  Pr8  1  0.471334  0.243303  0.465981  1
  Pr  Pr9  1  0.009430  0.490570  0.750000  1
  Pr  Pr10  1  0.256697  0.028666  0.034019  1
  Pr  Pr11  1  0.240587  0.259413  0.750000  1
  Sn  Sn12  1  0.499684  0.000316  0.250000  1
  Sn  Sn13  1  0.000316  0.250000  0.499684  1
  Sn  Sn14  1  0.250000  0.499684  0.000316  1
  Ir  Ir15  1  0.250000  0.250000  0.250000  1
  I  I16  1  0.250000  0.754023  0.745977  1
  I  I17  1  0.512369  0.507060  0.758165  1
  I  I18  1  0.987631  0.741835  0.992940  1
  I  I19  1  0.745977  0.250000  0.754023  1
  I  I20  1  0.992940  0.987631  0.741835  1
  I  I21  1  0.250000  0.993348  0.506652  1
  I  I22  1  0.758165  0.512369  0.507060  1
  I  I23  1  0.506652  0.250000  0.993348  1
  I  I24  1  0.754023  0.745977  0.250000  1
  I  I25  1  0.741835  0.992940  0.987631  1
  I  I26  1  0.993348  0.506652  0.250000  1
  I  I27  1  0.507060  0.758165  0.512369  1
