# generated using pymatgen
data_V3Si2Tc3
_symmetry_space_group_name_H-M   'P 1'
_cell_length_a   4.73862923
_cell_length_b   4.73862923
_cell_length_c   4.73862923
_cell_angle_alpha   90.16845740
_cell_angle_beta   89.83154260
_cell_angle_gamma   90.16845740
_symmetry_Int_Tables_number   1
_chemical_formula_structural   V3Si2Tc3
_chemical_formula_sum   'V3 Si2 Tc3'
_cell_volume   106.40267969
_cell_formula_units_Z   1
loop_
 _symmetry_equiv_pos_site_id
 _symmetry_equiv_pos_as_xyz
  1  'x, y, z'
loop_
 _atom_site_type_symbol
 _atom_site_label
 _atom_site_symmetry_multiplicity
 _atom_site_fract_x
 _atom_site_fract_y
 _atom_site_fract_z
 _atom_site_occupancy
  V  V0  1  0.001822  0.501822  0.250000  1
  V  V1  1  0.498178  0.750000  0.001822  1
  V  V2  1  0.250000  0.998178  0.498178  1
  Si  Si3  1  0.498589  0.501411  0.498589  1
  Si  Si4  1  0.001411  0.998589  0.001411  1
  Tc  Tc5  1  0.003119  0.503119  0.750000  1
  Tc  Tc6  1  0.496881  0.250000  0.003119  1
  Tc  Tc7  1  0.750000  0.996881  0.496881  1
