# generated using pymatgen
data_CsEr(NbCl3)6
_symmetry_space_group_name_H-M   'P 1'
_cell_length_a   10.29474610
_cell_length_b   10.29474704
_cell_length_c   10.29474617
_cell_angle_alpha   55.43127812
_cell_angle_beta   55.43127725
_cell_angle_gamma   55.43127699
_symmetry_Int_Tables_number   1
_chemical_formula_structural   CsEr(NbCl3)6
_chemical_formula_sum   'Cs1 Er1 Nb6 Cl18'
_cell_volume   689.63076313
_cell_formula_units_Z   1
loop_
 _symmetry_equiv_pos_site_id
 _symmetry_equiv_pos_as_xyz
  1  'x, y, z'
loop_
 _atom_site_type_symbol
 _atom_site_label
 _atom_site_symmetry_multiplicity
 _atom_site_fract_x
 _atom_site_fract_y
 _atom_site_fract_z
 _atom_site_occupancy
  Cs  Cs0  1  0.222613  0.222613  0.222613  1
  Er  Er1  1  0.498386  0.498386  0.498386  1
  Nb  Nb2  1  0.802716  0.148990  0.910645  1
  Nb  Nb3  1  0.910645  0.802716  0.148990  1
  Nb  Nb4  1  0.148990  0.910645  0.802716  1
  Nb  Nb5  1  0.198661  0.851506  0.087917  1
  Nb  Nb6  1  0.087917  0.198661  0.851506  1
  Nb  Nb7  1  0.851506  0.087917  0.198661  1
  Cl  Cl8  1  0.867414  0.410261  0.725553  1
  Cl  Cl9  1  0.725553  0.867414  0.410261  1
  Cl  Cl10  1  0.410261  0.725553  0.867414  1
  Cl  Cl11  1  0.131133  0.590527  0.277227  1
  Cl  Cl12  1  0.277227  0.131133  0.590527  1
  Cl  Cl13  1  0.590527  0.277227  0.131133  1
  Cl  Cl14  1  0.541521  0.341811  0.794458  1
  Cl  Cl15  1  0.794458  0.541521  0.341811  1
  Cl  Cl16  1  0.341811  0.794458  0.541521  1
  Cl  Cl17  1  0.457108  0.660481  0.205967  1
  Cl  Cl18  1  0.205967  0.457108  0.660481  1
  Cl  Cl19  1  0.660481  0.205967  0.457108  1
  Cl  Cl20  1  0.663913  0.941022  0.068413  1
  Cl  Cl21  1  0.068413  0.663913  0.941022  1
  Cl  Cl22  1  0.941022  0.068413  0.663913  1
  Cl  Cl23  1  0.340802  0.057132  0.924962  1
  Cl  Cl24  1  0.924962  0.340802  0.057132  1
  Cl  Cl25  1  0.057132  0.924962  0.340802  1
