# generated using pymatgen
data_Tb3Er2TlBi2
_symmetry_space_group_name_H-M   'P 1'
_cell_length_a   9.08632800
_cell_length_b   9.08632964
_cell_length_c   6.49994100
_cell_angle_alpha   90.00000000
_cell_angle_beta   90.00000000
_cell_angle_gamma   119.70527202
_symmetry_Int_Tables_number   1
_chemical_formula_structural   Tb3Er2TlBi2
_chemical_formula_sum   'Tb6 Er4 Tl2 Bi4'
_cell_volume   466.12146053
_cell_formula_units_Z   2
loop_
 _symmetry_equiv_pos_site_id
 _symmetry_equiv_pos_as_xyz
  1  'x, y, z'
loop_
 _atom_site_type_symbol
 _atom_site_label
 _atom_site_symmetry_multiplicity
 _atom_site_fract_x
 _atom_site_fract_y
 _atom_site_fract_z
 _atom_site_occupancy
  Tb  Tb0  1  0.760699  0.760699  0.750000  1
  Tb  Tb1  1  0.235332  0.997723  0.750000  1
  Tb  Tb2  1  0.997723  0.235332  0.750000  1
  Tb  Tb3  1  0.235977  0.235977  0.250000  1
  Tb  Tb4  1  0.765209  0.008390  0.250000  1
  Tb  Tb5  1  0.008390  0.765209  0.250000  1
  Er  Er6  1  0.668979  0.329169  0.003529  1
  Er  Er7  1  0.329169  0.668979  0.003529  1
  Er  Er8  1  0.329169  0.668979  0.496471  1
  Er  Er9  1  0.668979  0.329169  0.496471  1
  Tl  Tl10  1  0.397169  0.001879  0.250000  1
  Tl  Tl11  1  0.001879  0.397169  0.250000  1
  Bi  Bi12  1  0.394187  0.394187  0.750000  1
  Bi  Bi13  1  0.601973  0.997097  0.750000  1
  Bi  Bi14  1  0.997097  0.601973  0.750000  1
  Bi  Bi15  1  0.608068  0.608068  0.250000  1
