# generated using pymatgen
data_CaY4Zr3(As3Pd4)4
_symmetry_space_group_name_H-M   'P 1'
_cell_length_a   13.57866300
_cell_length_b   13.57866229
_cell_length_c   4.11042800
_cell_angle_alpha   90.00000000
_cell_angle_beta   90.00000000
_cell_angle_gamma   120.00000416
_symmetry_Int_Tables_number   1
_chemical_formula_structural   CaY4Zr3(As3Pd4)4
_chemical_formula_sum   'Ca1 Y4 Zr3 As12 Pd16'
_cell_volume   656.34420645
_cell_formula_units_Z   1
loop_
 _symmetry_equiv_pos_site_id
 _symmetry_equiv_pos_as_xyz
  1  'x, y, z'
loop_
 _atom_site_type_symbol
 _atom_site_label
 _atom_site_symmetry_multiplicity
 _atom_site_fract_x
 _atom_site_fract_y
 _atom_site_fract_z
 _atom_site_occupancy
  Ca  Ca0  1  0.333333  0.666667  0.000000  1
  Y  Y1  1  0.188934  0.188710  0.500000  1
  Y  Y2  1  0.811290  0.000223  0.500000  1
  Y  Y3  1  0.999777  0.811066  0.500000  1
  Y  Y4  1  0.666667  0.333333  0.000000  1
  Zr  Zr5  1  0.557273  0.556159  0.000000  1
  Zr  Zr6  1  0.443841  0.001114  0.000000  1
  Zr  Zr7  1  0.998886  0.442727  0.000000  1
  As  As8  1  0.826042  0.825804  0.000000  1
  As  As9  1  0.174196  0.000238  0.000000  1
  As  As10  1  0.999762  0.173958  0.000000  1
  As  As11  1  0.165659  0.481524  0.500000  1
  As  As12  1  0.518476  0.684135  0.500000  1
  As  As13  1  0.315865  0.834341  0.500000  1
  As  As14  1  0.683058  0.516335  0.500000  1
  As  As15  1  0.833277  0.316942  0.500000  1
  As  As16  1  0.483665  0.166723  0.500000  1
  As  As17  1  0.358201  0.358771  0.000000  1
  As  As18  1  0.641229  0.999430  0.000000  1
  As  As19  1  0.000570  0.641799  0.000000  1
  Pd  Pd20  1  0.722414  0.722413  0.500000  1
  Pd  Pd21  1  0.277587  0.000001  0.500000  1
  Pd  Pd22  1  0.999999  0.277586  0.500000  1
  Pd  Pd23  1  0.181637  0.372533  0.000000  1
  Pd  Pd24  1  0.627467  0.809103  0.000000  1
  Pd  Pd25  1  0.190897  0.818363  0.000000  1
  Pd  Pd26  1  0.810097  0.627929  0.000000  1
  Pd  Pd27  1  0.817832  0.189903  0.000000  1
  Pd  Pd28  1  0.372071  0.182168  0.000000  1
  Pd  Pd29  1  0.357196  0.485660  0.500000  1
  Pd  Pd30  1  0.514340  0.871536  0.500000  1
  Pd  Pd31  1  0.128464  0.642804  0.500000  1
  Pd  Pd32  1  0.870292  0.514899  0.500000  1
  Pd  Pd33  1  0.644607  0.129708  0.500000  1
  Pd  Pd34  1  0.485101  0.355393  0.500000  1
  Pd  Pd35  1  0.000000  0.000000  0.000000  1
