# generated using pymatgen
data_Lu2Mn5V2(FeP2)3
_symmetry_space_group_name_H-M   'P 1'
_cell_length_a   3.59448300
_cell_length_b   10.52290200
_cell_length_c   12.17512800
_cell_angle_alpha   90.00000000
_cell_angle_beta   90.00000000
_cell_angle_gamma   90.00000000
_symmetry_Int_Tables_number   1
_chemical_formula_structural   Lu2Mn5V2(FeP2)3
_chemical_formula_sum   'Lu4 Mn10 V4 Fe6 P12'
_cell_volume   460.51681838
_cell_formula_units_Z   2
loop_
 _symmetry_equiv_pos_site_id
 _symmetry_equiv_pos_as_xyz
  1  'x, y, z'
loop_
 _atom_site_type_symbol
 _atom_site_label
 _atom_site_symmetry_multiplicity
 _atom_site_fract_x
 _atom_site_fract_y
 _atom_site_fract_z
 _atom_site_occupancy
  Lu  Lu0  1  0.250000  0.580005  0.710569  1
  Lu  Lu1  1  0.250000  0.919995  0.210569  1
  Lu  Lu2  1  0.750000  0.416255  0.291301  1
  Lu  Lu3  1  0.750000  0.083745  0.791301  1
  Mn  Mn4  1  0.250000  0.407732  0.491882  1
  Mn  Mn5  1  0.250000  0.092268  0.991882  1
  Mn  Mn6  1  0.750000  0.589049  0.507874  1
  Mn  Mn7  1  0.750000  0.910951  0.007874  1
  Mn  Mn8  1  0.250000  0.217098  0.178142  1
  Mn  Mn9  1  0.250000  0.282902  0.678142  1
  Mn  Mn10  1  0.750000  0.780099  0.822817  1
  Mn  Mn11  1  0.750000  0.719901  0.322817  1
  Mn  Mn12  1  0.250000  0.877496  0.697532  1
  Mn  Mn13  1  0.250000  0.622504  0.197532  1
  V  V14  1  0.250000  0.703655  0.986673  1
  V  V15  1  0.250000  0.796345  0.486673  1
  V  V16  1  0.750000  0.297904  0.011811  1
  V  V17  1  0.750000  0.202096  0.511811  1
  Fe  Fe18  1  0.750000  0.124950  0.300713  1
  Fe  Fe19  1  0.750000  0.375050  0.800713  1
  Fe  Fe20  1  0.250000  0.462796  0.934068  1
  Fe  Fe21  1  0.250000  0.037204  0.434068  1
  Fe  Fe22  1  0.750000  0.537985  0.067687  1
  Fe  Fe23  1  0.750000  0.962015  0.567687  1
  P  P24  1  0.250000  0.422714  0.112920  1
  P  P25  1  0.250000  0.077286  0.612920  1
  P  P26  1  0.750000  0.573043  0.886874  1
  P  P27  1  0.750000  0.926957  0.386874  1
  P  P28  1  0.250000  0.266021  0.869959  1
  P  P29  1  0.250000  0.233979  0.369959  1
  P  P30  1  0.750000  0.739656  0.129015  1
  P  P31  1  0.750000  0.760344  0.629015  1
  P  P32  1  0.250000  0.592318  0.385082  1
  P  P33  1  0.250000  0.907682  0.885082  1
  P  P34  1  0.750000  0.406178  0.615080  1
  P  P35  1  0.750000  0.093822  0.115080  1
