# generated using pymatgen
data_Tb8DyY(SiB4)4
_symmetry_space_group_name_H-M   'P 1'
_cell_length_a   7.25258900
_cell_length_b   7.25258900
_cell_length_c   8.14227200
_cell_angle_alpha   90.00000000
_cell_angle_beta   90.00000000
_cell_angle_gamma   90.00000000
_symmetry_Int_Tables_number   1
_chemical_formula_structural   Tb8DyY(SiB4)4
_chemical_formula_sum   'Tb8 Dy1 Y1 Si4 B16'
_cell_volume   428.28389154
_cell_formula_units_Z   1
loop_
 _symmetry_equiv_pos_site_id
 _symmetry_equiv_pos_as_xyz
  1  'x, y, z'
loop_
 _atom_site_type_symbol
 _atom_site_label
 _atom_site_symmetry_multiplicity
 _atom_site_fract_x
 _atom_site_fract_y
 _atom_site_fract_z
 _atom_site_occupancy
  Tb  Tb0  1  0.680165  0.180284  0.224124  1
  Tb  Tb1  1  0.319835  0.819716  0.775876  1
  Tb  Tb2  1  0.319835  0.819716  0.224124  1
  Tb  Tb3  1  0.819716  0.680165  0.224124  1
  Tb  Tb4  1  0.819716  0.680165  0.775876  1
  Tb  Tb5  1  0.680165  0.180284  0.775876  1
  Tb  Tb6  1  0.180284  0.319835  0.775876  1
  Tb  Tb7  1  0.180284  0.319835  0.224124  1
  Dy  Dy8  1  0.500000  0.500000  0.500000  1
  Y  Y9  1  0.000000  0.000000  0.500000  1
  Si  Si10  1  0.114821  0.614639  0.500000  1
  Si  Si11  1  0.885179  0.385361  0.500000  1
  Si  Si12  1  0.385361  0.114821  0.500000  1
  Si  Si13  1  0.614639  0.885179  0.500000  1
  B  B14  1  0.172522  0.039093  0.000000  1
  B  B15  1  0.827478  0.960907  0.000000  1
  B  B16  1  0.960907  0.172522  0.000000  1
  B  B17  1  0.327532  0.539159  0.000000  1
  B  B18  1  0.039093  0.827478  0.000000  1
  B  B19  1  0.672468  0.460841  0.000000  1
  B  B20  1  0.539159  0.672468  0.000000  1
  B  B21  1  0.460841  0.327532  0.000000  1
  B  B22  1  0.089992  0.589984  0.000000  1
  B  B23  1  0.910008  0.410016  0.000000  1
  B  B24  1  0.410016  0.089992  0.000000  1
  B  B25  1  0.589984  0.910008  0.000000  1
  B  B26  1  0.000000  0.000000  0.161026  1
  B  B27  1  0.000000  0.000000  0.838974  1
  B  B28  1  0.500000  0.500000  0.838830  1
  B  B29  1  0.500000  0.500000  0.161170  1
