# generated using pymatgen
data_Rb2NpI5
_symmetry_space_group_name_H-M   'P 1'
_cell_length_a   9.31391700
_cell_length_b   9.98101600
_cell_length_c   15.18827600
_cell_angle_alpha   90.00000000
_cell_angle_beta   90.00000000
_cell_angle_gamma   90.00000000
_symmetry_Int_Tables_number   1
_chemical_formula_structural   Rb2NpI5
_chemical_formula_sum   'Rb8 Np4 I20'
_cell_volume   1411.93789927
_cell_formula_units_Z   4
loop_
 _symmetry_equiv_pos_site_id
 _symmetry_equiv_pos_as_xyz
  1  'x, y, z'
loop_
 _atom_site_type_symbol
 _atom_site_label
 _atom_site_symmetry_multiplicity
 _atom_site_fract_x
 _atom_site_fract_y
 _atom_site_fract_z
 _atom_site_occupancy
  Rb  Rb0  1  0.945034  0.003853  0.827293  1
  Rb  Rb1  1  0.054966  0.996147  0.172707  1
  Rb  Rb2  1  0.445034  0.996147  0.672707  1
  Rb  Rb3  1  0.054966  0.503853  0.172707  1
  Rb  Rb4  1  0.554966  0.003853  0.327293  1
  Rb  Rb5  1  0.945034  0.496147  0.827293  1
  Rb  Rb6  1  0.554966  0.496147  0.327293  1
  Rb  Rb7  1  0.445034  0.503853  0.672707  1
  Np  Np8  1  0.924404  0.750000  0.504451  1
  Np  Np9  1  0.075596  0.250000  0.495549  1
  Np  Np10  1  0.424404  0.250000  0.995549  1
  Np  Np11  1  0.575596  0.750000  0.004451  1
  I  I12  1  0.121418  0.750000  0.675774  1
  I  I13  1  0.878582  0.250000  0.324226  1
  I  I14  1  0.621418  0.250000  0.824226  1
  I  I15  1  0.378582  0.750000  0.175774  1
  I  I16  1  0.836132  0.044757  0.574910  1
  I  I17  1  0.163868  0.955243  0.425090  1
  I  I18  1  0.336132  0.955243  0.925090  1
  I  I19  1  0.163868  0.544757  0.425090  1
  I  I20  1  0.663868  0.044757  0.074910  1
  I  I21  1  0.836132  0.455243  0.574910  1
  I  I22  1  0.663868  0.455243  0.074910  1
  I  I23  1  0.336132  0.544757  0.925090  1
  I  I24  1  0.578703  0.750000  0.509155  1
  I  I25  1  0.421297  0.250000  0.490845  1
  I  I26  1  0.078703  0.250000  0.990845  1
  I  I27  1  0.921297  0.750000  0.009155  1
  I  I28  1  0.659591  0.750000  0.800578  1
  I  I29  1  0.340409  0.250000  0.199422  1
  I  I30  1  0.159591  0.250000  0.699422  1
  I  I31  1  0.840409  0.750000  0.300578  1
