# generated using pymatgen
data_Gd3(YB4)5
_symmetry_space_group_name_H-M   'P 1'
_cell_length_a   7.12893169
_cell_length_b   7.12611001
_cell_length_c   7.15685362
_cell_angle_alpha   77.01106896
_cell_angle_beta   89.92555747
_cell_angle_gamma   90.04805180
_symmetry_Int_Tables_number   1
_chemical_formula_structural   Gd3(YB4)5
_chemical_formula_sum   'Gd3 Y5 B20'
_cell_volume   354.27601090
_cell_formula_units_Z   1
loop_
 _symmetry_equiv_pos_site_id
 _symmetry_equiv_pos_as_xyz
  1  'x, y, z'
loop_
 _atom_site_type_symbol
 _atom_site_label
 _atom_site_symmetry_multiplicity
 _atom_site_fract_x
 _atom_site_fract_y
 _atom_site_fract_z
 _atom_site_occupancy
  Gd  Gd0  1  0.191616  0.231622  0.872055  1
  Gd  Gd1  1  0.308245  0.231157  0.372069  1
  Gd  Gd2  1  0.808343  0.768951  0.128107  1
  Y  Y3  1  0.315342  0.757313  0.254092  1
  Y  Y4  1  0.815078  0.242980  0.245929  1
  Y  Y5  1  0.684752  0.242679  0.745616  1
  Y  Y6  1  0.184828  0.757177  0.754089  1
  Y  Y7  1  0.692599  0.766152  0.629120  1
  B  B8  1  0.502105  0.314708  0.039626  1
  B  B9  1  0.001925  0.685451  0.460375  1
  B  B10  1  0.498187  0.685551  0.959871  1
  B  B11  1  0.997773  0.314521  0.539943  1
  B  B12  1  0.490926  0.924647  0.926454  1
  B  B13  1  0.989933  0.074928  0.573630  1
  B  B14  1  0.509304  0.075416  0.072529  1
  B  B15  1  0.008587  0.924614  0.427106  1
  B  B16  1  0.326443  0.496920  0.039514  1
  B  B17  1  0.826239  0.503207  0.460393  1
  B  B18  1  0.673843  0.503389  0.960278  1
  B  B19  1  0.173609  0.496839  0.539664  1
  B  B20  1  0.910738  0.499196  0.910702  1
  B  B21  1  0.410756  0.501396  0.589260  1
  B  B22  1  0.089318  0.501260  0.089217  1
  B  B23  1  0.589454  0.499361  0.410602  1
  B  B24  1  0.961535  0.496727  0.674218  1
  B  B25  1  0.461784  0.503377  0.825696  1
  B  B26  1  0.038246  0.503510  0.325882  1
  B  B27  1  0.538494  0.496949  0.173963  1
