# generated using pymatgen
data_Sc4Ga2AgIr
_symmetry_space_group_name_H-M   'P 1'
_cell_length_a   6.72978000
_cell_length_b   6.67836300
_cell_length_c   6.73187300
_cell_angle_alpha   90.00000000
_cell_angle_beta   89.99962583
_cell_angle_gamma   90.00000000
_symmetry_Int_Tables_number   1
_chemical_formula_structural   Sc4Ga2AgIr
_chemical_formula_sum   'Sc8 Ga4 Ag2 Ir2'
_cell_volume   302.55671962
_cell_formula_units_Z   2
loop_
 _symmetry_equiv_pos_site_id
 _symmetry_equiv_pos_as_xyz
  1  'x, y, z'
loop_
 _atom_site_type_symbol
 _atom_site_label
 _atom_site_symmetry_multiplicity
 _atom_site_fract_x
 _atom_site_fract_y
 _atom_site_fract_z
 _atom_site_occupancy
  Sc  Sc0  1  0.261564  0.500337  0.238408  1
  Sc  Sc1  1  0.261564  0.999663  0.238408  1
  Sc  Sc2  1  0.738429  0.000270  0.238410  1
  Sc  Sc3  1  0.738429  0.499730  0.238410  1
  Sc  Sc4  1  0.261571  0.500323  0.761587  1
  Sc  Sc5  1  0.261571  0.999677  0.761587  1
  Sc  Sc6  1  0.738436  0.000285  0.761593  1
  Sc  Sc7  1  0.738436  0.499715  0.761593  1
  Ga  Ga8  1  0.000612  0.250000  0.000010  1
  Ga  Ga9  1  0.999391  0.750000  0.999996  1
  Ga  Ga10  1  0.500461  0.750000  0.500000  1
  Ga  Ga11  1  0.499538  0.250000  0.499997  1
  Ag  Ag12  1  0.000627  0.250000  0.499950  1
  Ag  Ag13  1  0.999373  0.750000  0.500050  1
  Ir  Ir14  1  0.499091  0.250000  0.000004  1
  Ir  Ir15  1  0.500908  0.750000  0.000000  1
