# generated using pymatgen
data_HoEr9Al3Ru
_symmetry_space_group_name_H-M   'P 1'
_cell_length_a   9.44309600
_cell_length_b   9.44309612
_cell_length_c   9.53567400
_cell_angle_alpha   90.00000000
_cell_angle_beta   90.00000000
_cell_angle_gamma   119.96363745
_symmetry_Int_Tables_number   1
_chemical_formula_structural   HoEr9Al3Ru
_chemical_formula_sum   'Ho2 Er18 Al6 Ru2'
_cell_volume   736.66469560
_cell_formula_units_Z   2
loop_
 _symmetry_equiv_pos_site_id
 _symmetry_equiv_pos_as_xyz
  1  'x, y, z'
loop_
 _atom_site_type_symbol
 _atom_site_label
 _atom_site_symmetry_multiplicity
 _atom_site_fract_x
 _atom_site_fract_y
 _atom_site_fract_z
 _atom_site_occupancy
  Ho  Ho0  1  0.460380  0.920204  0.750000  1
  Ho  Ho1  1  0.079796  0.539620  0.750000  1
  Er  Er2  1  0.999930  0.000070  0.499914  1
  Er  Er3  1  0.999930  0.000070  0.000086  1
  Er  Er4  1  0.206727  0.793273  0.439152  1
  Er  Er5  1  0.207109  0.413760  0.439628  1
  Er  Er6  1  0.586240  0.792891  0.439628  1
  Er  Er7  1  0.792872  0.207128  0.559398  1
  Er  Er8  1  0.792472  0.585665  0.559636  1
  Er  Er9  1  0.414335  0.207528  0.559636  1
  Er  Er10  1  0.792872  0.207128  0.940602  1
  Er  Er11  1  0.792472  0.585665  0.940364  1
  Er  Er12  1  0.414335  0.207528  0.940364  1
  Er  Er13  1  0.206727  0.793273  0.060848  1
  Er  Er14  1  0.207109  0.413760  0.060372  1
  Er  Er15  1  0.586240  0.792891  0.060372  1
  Er  Er16  1  0.540040  0.459960  0.250000  1
  Er  Er17  1  0.540126  0.080076  0.250000  1
  Er  Er18  1  0.919924  0.459874  0.250000  1
  Er  Er19  1  0.460544  0.539456  0.750000  1
  Al  Al20  1  0.888706  0.111294  0.250000  1
  Al  Al21  1  0.888541  0.777249  0.250000  1
  Al  Al22  1  0.222751  0.111459  0.250000  1
  Al  Al23  1  0.110810  0.889190  0.750000  1
  Al  Al24  1  0.111704  0.222354  0.750000  1
  Al  Al25  1  0.777646  0.888296  0.750000  1
  Ru  Ru26  1  0.333439  0.666561  0.250000  1
  Ru  Ru27  1  0.666219  0.333781  0.750000  1
