# generated using pymatgen
data_TbSc2Fe8Os
_symmetry_space_group_name_H-M   'P 1'
_cell_length_a   8.64268647
_cell_length_b   8.64268665
_cell_length_c   8.64268809
_cell_angle_alpha   33.61356138
_cell_angle_beta   33.61355722
_cell_angle_gamma   33.61356428
_symmetry_Int_Tables_number   1
_chemical_formula_structural   TbSc2Fe8Os
_chemical_formula_sum   'Tb1 Sc2 Fe8 Os1'
_cell_volume   176.23975975
_cell_formula_units_Z   1
loop_
 _symmetry_equiv_pos_site_id
 _symmetry_equiv_pos_as_xyz
  1  'x, y, z'
loop_
 _atom_site_type_symbol
 _atom_site_label
 _atom_site_symmetry_multiplicity
 _atom_site_fract_x
 _atom_site_fract_y
 _atom_site_fract_z
 _atom_site_occupancy
  Tb  Tb0  1  0.000000  0.000000  0.000000  1
  Sc  Sc1  1  0.143242  0.143242  0.143242  1
  Sc  Sc2  1  0.856758  0.856758  0.856758  1
  Fe  Fe3  1  0.332985  0.332985  0.332985  1
  Fe  Fe4  1  0.667015  0.667015  0.667015  1
  Fe  Fe5  1  0.077807  0.585161  0.585161  1
  Fe  Fe6  1  0.585161  0.585161  0.077807  1
  Fe  Fe7  1  0.585161  0.077807  0.585161  1
  Fe  Fe8  1  0.414839  0.922193  0.414839  1
  Fe  Fe9  1  0.922193  0.414839  0.414839  1
  Fe  Fe10  1  0.414839  0.414839  0.922193  1
  Os  Os11  1  0.500000  0.500000  0.500000  1
