# generated using pymatgen
data_Lu3Hf(Al3Ir)6
_symmetry_space_group_name_H-M   'P 1'
_cell_length_a   7.51522004
_cell_length_b   7.50873272
_cell_length_c   9.36853500
_cell_angle_alpha   90.00000000
_cell_angle_beta   90.00000000
_cell_angle_gamma   119.62485328
_symmetry_Int_Tables_number   1
_chemical_formula_structural   Lu3Hf(Al3Ir)6
_chemical_formula_sum   'Lu3 Hf1 Al18 Ir6'
_cell_volume   459.55766345
_cell_formula_units_Z   1
loop_
 _symmetry_equiv_pos_site_id
 _symmetry_equiv_pos_as_xyz
  1  'x, y, z'
loop_
 _atom_site_type_symbol
 _atom_site_label
 _atom_site_symmetry_multiplicity
 _atom_site_fract_x
 _atom_site_fract_y
 _atom_site_fract_z
 _atom_site_occupancy
  Lu  Lu0  1  0.005807  0.328034  0.750000  1
  Lu  Lu1  1  0.671572  0.996166  0.250000  1
  Lu  Lu2  1  0.329169  0.006298  0.750000  1
  Hf  Hf3  1  0.997036  0.671796  0.250000  1
  Al  Al4  1  0.125956  0.123554  0.250000  1
  Al  Al5  1  0.871598  0.870731  0.750000  1
  Al  Al6  1  0.999694  0.337087  0.079405  1
  Al  Al7  1  0.999840  0.664970  0.926994  1
  Al  Al8  1  0.999840  0.664970  0.573006  1
  Al  Al9  1  0.333104  0.998240  0.420469  1
  Al  Al10  1  0.999694  0.337087  0.420595  1
  Al  Al11  1  0.664683  0.999193  0.575591  1
  Al  Al12  1  0.664683  0.999193  0.924409  1
  Al  Al13  1  0.333104  0.998240  0.079531  1
  Al  Al14  1  0.333040  0.333121  0.554296  1
  Al  Al15  1  0.668659  0.667102  0.441665  1
  Al  Al16  1  0.668659  0.667102  0.058335  1
  Al  Al17  1  0.333040  0.333121  0.945704  1
  Al  Al18  1  0.336284  0.549529  0.250000  1
  Al  Al19  1  0.660956  0.451700  0.750000  1
  Al  Al20  1  0.554532  0.343788  0.250000  1
  Al  Al21  1  0.450566  0.660112  0.750000  1
  Ir  Ir22  1  0.672405  0.327597  0.000844  1
  Ir  Ir23  1  0.327529  0.672489  0.001580  1
  Ir  Ir24  1  0.327529  0.672489  0.498420  1
  Ir  Ir25  1  0.672405  0.327597  0.499156  1
  Ir  Ir26  1  0.999309  0.999348  0.000947  1
  Ir  Ir27  1  0.999309  0.999348  0.499053  1
