# generated using pymatgen
data_LiAuSe4
_symmetry_space_group_name_H-M   'P 1'
_cell_length_a   7.69648700
_cell_length_b   4.58508099
_cell_length_c   8.63360827
_cell_angle_alpha   82.96159967
_cell_angle_beta   90.00000000
_cell_angle_gamma   90.00000000
_symmetry_Int_Tables_number   1
_chemical_formula_structural   LiAuSe4
_chemical_formula_sum   'Li2 Au2 Se8'
_cell_volume   302.37561352
_cell_formula_units_Z   2
loop_
 _symmetry_equiv_pos_site_id
 _symmetry_equiv_pos_as_xyz
  1  'x, y, z'
loop_
 _atom_site_type_symbol
 _atom_site_label
 _atom_site_symmetry_multiplicity
 _atom_site_fract_x
 _atom_site_fract_y
 _atom_site_fract_z
 _atom_site_occupancy
  Li  Li0  1  0.250000  0.984584  0.664345  1
  Li  Li1  1  0.750000  0.015416  0.335655  1
  Au  Au2  1  0.500000  0.500000  0.000000  1
  Au  Au3  1  0.000000  0.500000  0.000000  1
  Se  Se4  1  0.995357  0.589354  0.706723  1
  Se  Se5  1  0.495357  0.410646  0.293277  1
  Se  Se6  1  0.004643  0.410646  0.293277  1
  Se  Se7  1  0.504643  0.589354  0.706723  1
  Se  Se8  1  0.750000  0.908497  0.649361  1
  Se  Se9  1  0.250000  0.091503  0.350639  1
  Se  Se10  1  0.750000  0.815919  0.063849  1
  Se  Se11  1  0.250000  0.184081  0.936151  1
