# generated using pymatgen
data_Sc12ReSi12IrRh2
_symmetry_space_group_name_H-M   'P 1'
_cell_length_a   4.03572900
_cell_length_b   10.27987502
_cell_length_c   11.70091008
_cell_angle_alpha   90.11956513
_cell_angle_beta   90.00000000
_cell_angle_gamma   90.00000000
_symmetry_Int_Tables_number   1
_chemical_formula_structural   Sc12ReSi12IrRh2
_chemical_formula_sum   'Sc12 Re1 Si12 Ir1 Rh2'
_cell_volume   485.43213901
_cell_formula_units_Z   1
loop_
 _symmetry_equiv_pos_site_id
 _symmetry_equiv_pos_as_xyz
  1  'x, y, z'
loop_
 _atom_site_type_symbol
 _atom_site_label
 _atom_site_symmetry_multiplicity
 _atom_site_fract_x
 _atom_site_fract_y
 _atom_site_fract_z
 _atom_site_occupancy
  Sc  Sc0  1  0.250000  0.876262  0.019780  1
  Sc  Sc1  1  0.250000  0.622335  0.521272  1
  Sc  Sc2  1  0.750000  0.121892  0.981246  1
  Sc  Sc3  1  0.750000  0.376296  0.482437  1
  Sc  Sc4  1  0.250000  0.920670  0.601175  1
  Sc  Sc5  1  0.250000  0.580366  0.102970  1
  Sc  Sc6  1  0.750000  0.078914  0.396584  1
  Sc  Sc7  1  0.750000  0.419926  0.895544  1
  Sc  Sc8  1  0.250000  0.661490  0.797972  1
  Sc  Sc9  1  0.250000  0.842205  0.299270  1
  Sc  Sc10  1  0.750000  0.342215  0.200828  1
  Sc  Sc11  1  0.750000  0.156908  0.701121  1
  Re  Re12  1  0.250000  0.390715  0.676080  1
  Si  Si13  1  0.250000  0.013656  0.822362  1
  Si  Si14  1  0.250000  0.485307  0.322576  1
  Si  Si15  1  0.750000  0.985297  0.178012  1
  Si  Si16  1  0.750000  0.517368  0.679111  1
  Si  Si17  1  0.250000  0.248852  0.843053  1
  Si  Si18  1  0.250000  0.249613  0.341754  1
  Si  Si19  1  0.750000  0.750166  0.157956  1
  Si  Si20  1  0.750000  0.753415  0.657033  1
  Si  Si21  1  0.250000  0.192171  0.544425  1
  Si  Si22  1  0.250000  0.305529  0.045662  1
  Si  Si23  1  0.750000  0.806414  0.454271  1
  Si  Si24  1  0.750000  0.692255  0.954960  1
  Ir  Ir25  1  0.250000  0.110051  0.176085  1
  Rh  Rh26  1  0.750000  0.610658  0.322453  1
  Rh  Rh27  1  0.750000  0.889053  0.824008  1
