# generated using pymatgen
data_SmTh3(ZnRu)4
_symmetry_space_group_name_H-M   'P 1'
_cell_length_a   4.02157200
_cell_length_b   7.04458930
_cell_length_c   8.44859824
_cell_angle_alpha   90.49175616
_cell_angle_beta   90.00000000
_cell_angle_gamma   90.00000000
_symmetry_Int_Tables_number   1
_chemical_formula_structural   SmTh3(ZnRu)4
_chemical_formula_sum   'Sm1 Th3 Zn4 Ru4'
_cell_volume   239.34270198
_cell_formula_units_Z   1
loop_
 _symmetry_equiv_pos_site_id
 _symmetry_equiv_pos_as_xyz
  1  'x, y, z'
loop_
 _atom_site_type_symbol
 _atom_site_label
 _atom_site_symmetry_multiplicity
 _atom_site_fract_x
 _atom_site_fract_y
 _atom_site_fract_z
 _atom_site_occupancy
  Sm  Sm0  1  0.750000  0.959421  0.685667  1
  Th  Th1  1  0.250000  0.536333  0.184053  1
  Th  Th2  1  0.750000  0.458048  0.813249  1
  Th  Th3  1  0.250000  0.042210  0.319224  1
  Zn  Zn4  1  0.250000  0.119085  0.938916  1
  Zn  Zn5  1  0.750000  0.872043  0.051470  1
  Zn  Zn6  1  0.250000  0.638417  0.554239  1
  Zn  Zn7  1  0.750000  0.375644  0.445534  1
  Ru  Ru8  1  0.750000  0.760489  0.362139  1
  Ru  Ru9  1  0.250000  0.260411  0.634280  1
  Ru  Ru10  1  0.750000  0.251593  0.134644  1
  Ru  Ru11  1  0.250000  0.726306  0.876587  1
