# generated using pymatgen
data_U4Tc7Sb6
_symmetry_space_group_name_H-M   'P 1'
_cell_length_a   7.55361106
_cell_length_b   7.55361033
_cell_length_c   7.55361030
_cell_angle_alpha   109.49031925
_cell_angle_beta   109.43302792
_cell_angle_gamma   109.49032336
_symmetry_Int_Tables_number   1
_chemical_formula_structural   U4Tc7Sb6
_chemical_formula_sum   'U4 Tc7 Sb6'
_cell_volume   331.77352397
_cell_formula_units_Z   1
loop_
 _symmetry_equiv_pos_site_id
 _symmetry_equiv_pos_as_xyz
  1  'x, y, z'
loop_
 _atom_site_type_symbol
 _atom_site_label
 _atom_site_symmetry_multiplicity
 _atom_site_fract_x
 _atom_site_fract_y
 _atom_site_fract_z
 _atom_site_occupancy
  U  U0  1  0.499139  0.499678  0.499139  1
  U  U1  1  0.999461  0.500322  0.999461  1
  U  U2  1  0.499139  0.000000  0.999461  1
  U  U3  1  0.999461  0.000000  0.499139  1
  Tc  Tc4  1  0.500590  0.749982  0.250572  1
  Tc  Tc5  1  0.750608  0.250018  0.500590  1
  Tc  Tc6  1  0.250572  0.749982  0.500590  1
  Tc  Tc7  1  0.249656  0.500000  0.749656  1
  Tc  Tc8  1  0.001330  0.000000  0.001330  1
  Tc  Tc9  1  0.500590  0.250018  0.750608  1
  Tc  Tc10  1  0.749656  0.500000  0.249656  1
  Sb  Sb11  1  0.308461  0.000000  0.308461  1
  Sb  Sb12  1  0.693634  0.000000  0.693634  1
  Sb  Sb13  1  0.691939  0.692513  0.999426  1
  Sb  Sb14  1  0.306912  0.307487  0.999426  1
  Sb  Sb15  1  0.999426  0.692513  0.691939  1
  Sb  Sb16  1  0.999426  0.307487  0.306912  1
