# generated using pymatgen
data_ErSc3MnI4
_symmetry_space_group_name_H-M   'P 1'
_cell_length_a   11.17521916
_cell_length_b   10.95266273
_cell_length_c   5.72535200
_cell_angle_alpha   90.27239061
_cell_angle_beta   89.36785408
_cell_angle_gamma   89.54175520
_symmetry_Int_Tables_number   1
_chemical_formula_structural   ErSc3MnI4
_chemical_formula_sum   'Er2 Sc6 Mn2 I8'
_cell_volume   700.70068120
_cell_formula_units_Z   2
loop_
 _symmetry_equiv_pos_site_id
 _symmetry_equiv_pos_as_xyz
  1  'x, y, z'
loop_
 _atom_site_type_symbol
 _atom_site_label
 _atom_site_symmetry_multiplicity
 _atom_site_fract_x
 _atom_site_fract_y
 _atom_site_fract_z
 _atom_site_occupancy
  Er  Er0  1  0.081225  0.204259  0.999894  1
  Er  Er1  1  0.918775  0.795741  0.000106  1
  Sc  Sc2  1  0.187307  0.921386  0.994061  1
  Sc  Sc3  1  0.812693  0.078614  0.005939  1
  Sc  Sc4  1  0.077761  0.815798  0.496023  1
  Sc  Sc5  1  0.922239  0.184202  0.503977  1
  Sc  Sc6  1  0.818366  0.925364  0.504482  1
  Sc  Sc7  1  0.181634  0.074636  0.495518  1
  Mn  Mn8  1  0.999771  0.000101  0.238459  1
  Mn  Mn9  1  0.000229  0.999899  0.761541  1
  I  I10  1  0.343729  0.854338  0.501048  1
  I  I11  1  0.656271  0.145662  0.498952  1
  I  I12  1  0.155180  0.648052  0.002118  1
  I  I13  1  0.844820  0.351948  0.997882  1
  I  I14  1  0.349926  0.140195  0.004665  1
  I  I15  1  0.650074  0.859805  0.995335  1
  I  I16  1  0.858366  0.648897  0.501264  1
  I  I17  1  0.141634  0.351103  0.498736  1
