# generated using pymatgen
data_Eu4H9
_symmetry_space_group_name_H-M   'P 1'
_cell_length_a   6.80540890
_cell_length_b   6.80540960
_cell_length_c   6.80542382
_cell_angle_alpha   131.52685186
_cell_angle_beta   131.55005715
_cell_angle_gamma   70.95879833
_symmetry_Int_Tables_number   1
_chemical_formula_structural   Eu4H9
_chemical_formula_sum   'Eu4 H9'
_cell_volume   172.92705003
_cell_formula_units_Z   1
loop_
 _symmetry_equiv_pos_site_id
 _symmetry_equiv_pos_as_xyz
  1  'x, y, z'
loop_
 _atom_site_type_symbol
 _atom_site_label
 _atom_site_symmetry_multiplicity
 _atom_site_fract_x
 _atom_site_fract_y
 _atom_site_fract_z
 _atom_site_occupancy
  Eu  Eu0  1  0.767933  0.767933  0.000000  1
  Eu  Eu1  1  0.232067  0.232067  0.000000  1
  Eu  Eu2  1  0.500000  0.000000  0.500000  1
  Eu  Eu3  1  0.000000  0.500000  0.500000  1
  H  H4  1  0.133940  0.133944  0.527193  1
  H  H5  1  0.606751  0.606747  0.472807  1
  H  H6  1  0.133940  0.606747  0.999995  1
  H  H7  1  0.606752  0.133945  0.000005  1
  H  H8  1  0.866060  0.866056  0.472807  1
  H  H9  1  0.393249  0.393253  0.527193  1
  H  H10  1  0.866060  0.393253  0.000005  1
  H  H11  1  0.393248  0.866055  0.999995  1
  H  H12  1  0.000000  0.000000  0.000000  1
