# generated using pymatgen
data_Tb4Dy2Ho6TlCo5
_symmetry_space_group_name_H-M   'P 1'
_cell_length_a   8.29641131
_cell_length_b   8.29640924
_cell_length_c   8.29445810
_cell_angle_alpha   107.15695679
_cell_angle_beta   110.67689566
_cell_angle_gamma   110.61364334
_symmetry_Int_Tables_number   1
_chemical_formula_structural   Tb4Dy2Ho6TlCo5
_chemical_formula_sum   'Tb4 Dy2 Ho6 Tl1 Co5'
_cell_volume   438.90067265
_cell_formula_units_Z   1
loop_
 _symmetry_equiv_pos_site_id
 _symmetry_equiv_pos_as_xyz
  1  'x, y, z'
loop_
 _atom_site_type_symbol
 _atom_site_label
 _atom_site_symmetry_multiplicity
 _atom_site_fract_x
 _atom_site_fract_y
 _atom_site_fract_z
 _atom_site_occupancy
  Tb  Tb0  1  0.478247  0.292211  0.186496  1
  Tb  Tb1  1  0.105715  0.291751  0.813504  1
  Tb  Tb2  1  0.894285  0.708249  0.186496  1
  Tb  Tb3  1  0.521753  0.707789  0.813504  1
  Dy  Dy4  1  0.191556  0.791823  0.983378  1
  Dy  Dy5  1  0.808444  0.208177  0.016622  1
  Ho  Ho6  1  0.306883  0.621091  0.315030  1
  Ho  Ho7  1  0.306060  0.991854  0.684970  1
  Ho  Ho8  1  0.693117  0.378909  0.684970  1
  Ho  Ho9  1  0.693940  0.008146  0.315030  1
  Ho  Ho10  1  0.191899  0.208247  0.400146  1
  Ho  Ho11  1  0.808101  0.791753  0.599854  1
  Tl  Tl12  1  0.000000  0.500000  0.500000  1
  Co  Co13  1  0.500513  0.612572  0.113084  1
  Co  Co14  1  0.499487  0.387428  0.886916  1
  Co  Co15  1  0.379392  0.000215  0.379607  1
  Co  Co16  1  0.620608  0.999785  0.620393  1
  Co  Co17  1  0.000000  0.000000  0.000000  1
