# generated using pymatgen
data_Zr20Pb13
_symmetry_space_group_name_H-M   'P 1'
_cell_length_a   5.93689985
_cell_length_b   8.77309526
_cell_length_c   15.22484400
_cell_angle_alpha   90.00000000
_cell_angle_beta   90.00000000
_cell_angle_gamma   89.95553546
_symmetry_Int_Tables_number   1
_chemical_formula_structural   Zr20Pb13
_chemical_formula_sum   'Zr20 Pb13'
_cell_volume   792.98557648
_cell_formula_units_Z   1
loop_
 _symmetry_equiv_pos_site_id
 _symmetry_equiv_pos_as_xyz
  1  'x, y, z'
loop_
 _atom_site_type_symbol
 _atom_site_label
 _atom_site_symmetry_multiplicity
 _atom_site_fract_x
 _atom_site_fract_y
 _atom_site_fract_z
 _atom_site_occupancy
  Zr  Zr0  1  0.500000  0.000000  0.333997  1
  Zr  Zr1  1  0.500001  0.500000  0.833034  1
  Zr  Zr2  1  0.500001  0.500000  0.166966  1
  Zr  Zr3  1  0.500000  0.000000  0.666003  1
  Zr  Zr4  1  0.000002  0.500001  0.166568  1
  Zr  Zr5  1  0.999998  0.999999  0.665601  1
  Zr  Zr6  1  0.999998  0.999999  0.334399  1
  Zr  Zr7  1  0.000002  0.500001  0.833432  1
  Zr  Zr8  1  0.772187  0.269882  0.000000  1
  Zr  Zr9  1  0.751912  0.747802  0.500000  1
  Zr  Zr10  1  0.748143  0.376683  0.380109  1
  Zr  Zr11  1  0.770897  0.865571  0.862345  1
  Zr  Zr12  1  0.770897  0.865571  0.137655  1
  Zr  Zr13  1  0.748143  0.376683  0.619891  1
  Zr  Zr14  1  0.227816  0.730124  0.000000  1
  Zr  Zr15  1  0.248072  0.252195  0.500000  1
  Zr  Zr16  1  0.229106  0.134427  0.137653  1
  Zr  Zr17  1  0.251857  0.623313  0.619891  1
  Zr  Zr18  1  0.251857  0.623313  0.380109  1
  Zr  Zr19  1  0.229106  0.134427  0.862347  1
  Pb  Pb20  1  0.740908  0.617431  0.000000  1
  Pb  Pb21  1  0.747922  0.108584  0.500000  1
  Pb  Pb22  1  0.740046  0.196356  0.197416  1
  Pb  Pb23  1  0.752660  0.690375  0.690709  1
  Pb  Pb24  1  0.752660  0.690375  0.309291  1
  Pb  Pb25  1  0.740046  0.196356  0.802584  1
  Pb  Pb26  1  0.259090  0.382572  0.000000  1
  Pb  Pb27  1  0.252081  0.891413  0.500000  1
  Pb  Pb28  1  0.247341  0.309624  0.309290  1
  Pb  Pb29  1  0.259952  0.803646  0.802584  1
  Pb  Pb30  1  0.259952  0.803646  0.197416  1
  Pb  Pb31  1  0.247341  0.309624  0.690710  1
  Pb  Pb32  1  0.500002  0.000002  0.000000  1
