# generated using pymatgen
data_Ga20IrRh11
_symmetry_space_group_name_H-M   'P 1'
_cell_length_a   5.86364700
_cell_length_b   5.86364700
_cell_length_c   14.46209800
_cell_angle_alpha   90.00000000
_cell_angle_beta   90.00000000
_cell_angle_gamma   90.00000000
_symmetry_Int_Tables_number   1
_chemical_formula_structural   Ga20IrRh11
_chemical_formula_sum   'Ga20 Ir1 Rh11'
_cell_volume   497.24100398
_cell_formula_units_Z   1
loop_
 _symmetry_equiv_pos_site_id
 _symmetry_equiv_pos_as_xyz
  1  'x, y, z'
loop_
 _atom_site_type_symbol
 _atom_site_label
 _atom_site_symmetry_multiplicity
 _atom_site_fract_x
 _atom_site_fract_y
 _atom_site_fract_z
 _atom_site_occupancy
  Ga  Ga0  1  0.231046  0.348655  0.051522  1
  Ga  Ga1  1  0.768954  0.651345  0.051522  1
  Ga  Ga2  1  0.348655  0.768954  0.948478  1
  Ga  Ga3  1  0.731105  0.151621  0.551923  1
  Ga  Ga4  1  0.651345  0.231046  0.948478  1
  Ga  Ga5  1  0.268895  0.848379  0.551923  1
  Ga  Ga6  1  0.848379  0.731105  0.448077  1
  Ga  Ga7  1  0.151621  0.268895  0.448077  1
  Ga  Ga8  1  0.341922  0.303433  0.651774  1
  Ga  Ga9  1  0.658078  0.696567  0.651774  1
  Ga  Ga10  1  0.303433  0.658078  0.348226  1
  Ga  Ga11  1  0.841646  0.197744  0.151599  1
  Ga  Ga12  1  0.696567  0.341922  0.348226  1
  Ga  Ga13  1  0.158354  0.802256  0.151599  1
  Ga  Ga14  1  0.802256  0.841646  0.848401  1
  Ga  Ga15  1  0.197744  0.158354  0.848401  1
  Ga  Ga16  1  0.326553  0.172387  0.249859  1
  Ga  Ga17  1  0.673447  0.827613  0.249859  1
  Ga  Ga18  1  0.172387  0.673447  0.750141  1
  Ga  Ga19  1  0.827613  0.326553  0.750141  1
  Ir  Ir20  1  0.500000  0.500000  0.500000  1
  Rh  Rh21  1  0.000000  0.000000  0.328922  1
  Rh  Rh22  1  0.000000  0.000000  0.671078  1
  Rh  Rh23  1  0.500000  0.500000  0.828590  1
  Rh  Rh24  1  0.500000  0.500000  0.171410  1
  Rh  Rh25  1  0.000000  0.500000  0.586325  1
  Rh  Rh26  1  0.500000  0.000000  0.413675  1
  Rh  Rh27  1  0.500000  0.000000  0.086556  1
  Rh  Rh28  1  0.000000  0.500000  0.913444  1
  Rh  Rh29  1  0.000000  0.500000  0.249846  1
  Rh  Rh30  1  0.500000  0.000000  0.750154  1
  Rh  Rh31  1  0.000000  0.000000  0.000000  1
