# generated using pymatgen
data_Y6Al23VOs8
_symmetry_space_group_name_H-M   'P 1'
_cell_length_a   8.85411000
_cell_length_b   8.85411020
_cell_length_c   9.54985600
_cell_angle_alpha   90.00000000
_cell_angle_beta   90.00000000
_cell_angle_gamma   119.99999177
_symmetry_Int_Tables_number   1
_chemical_formula_structural   Y6Al23VOs8
_chemical_formula_sum   'Y6 Al23 V1 Os8'
_cell_volume   648.36166232
_cell_formula_units_Z   1
loop_
 _symmetry_equiv_pos_site_id
 _symmetry_equiv_pos_as_xyz
  1  'x, y, z'
loop_
 _atom_site_type_symbol
 _atom_site_label
 _atom_site_symmetry_multiplicity
 _atom_site_fract_x
 _atom_site_fract_y
 _atom_site_fract_z
 _atom_site_occupancy
  Y  Y0  1  0.195114  0.390228  0.247091  1
  Y  Y1  1  0.807439  0.614878  0.750566  1
  Y  Y2  1  0.609772  0.804886  0.247091  1
  Y  Y3  1  0.385122  0.192561  0.750566  1
  Y  Y4  1  0.195114  0.804886  0.247091  1
  Y  Y5  1  0.807439  0.192561  0.750566  1
  Al  Al6  1  0.666667  0.333333  0.978002  1
  Al  Al7  1  0.666667  0.333333  0.518852  1
  Al  Al8  1  0.333333  0.666667  0.483681  1
  Al  Al9  1  0.162252  0.324505  0.575347  1
  Al  Al10  1  0.836991  0.673983  0.425289  1
  Al  Al11  1  0.675495  0.837748  0.575347  1
  Al  Al12  1  0.835550  0.671099  0.075956  1
  Al  Al13  1  0.326017  0.163009  0.425289  1
  Al  Al14  1  0.160581  0.321161  0.926080  1
  Al  Al15  1  0.162252  0.837748  0.575347  1
  Al  Al16  1  0.328901  0.164450  0.075956  1
  Al  Al17  1  0.836991  0.163009  0.425289  1
  Al  Al18  1  0.678839  0.839419  0.926080  1
  Al  Al19  1  0.835550  0.164450  0.075956  1
  Al  Al20  1  0.160581  0.839419  0.926080  1
  Al  Al21  1  0.562037  0.124075  0.253020  1
  Al  Al22  1  0.441528  0.883056  0.750871  1
  Al  Al23  1  0.875925  0.437963  0.253020  1
  Al  Al24  1  0.116944  0.558472  0.750871  1
  Al  Al25  1  0.562037  0.437963  0.253020  1
  Al  Al26  1  0.441528  0.558472  0.750871  1
  Al  Al27  1  0.000000  0.000000  0.250232  1
  Al  Al28  1  0.000000  0.000000  0.749490  1
  V  V29  1  0.333333  0.666667  0.982718  1
  Os  Os30  1  0.495327  0.990654  0.004862  1
  Os  Os31  1  0.009346  0.504673  0.004862  1
  Os  Os32  1  0.499294  0.998588  0.503257  1
  Os  Os33  1  0.495327  0.504673  0.004862  1
  Os  Os34  1  0.001412  0.500706  0.503257  1
  Os  Os35  1  0.499294  0.500706  0.503257  1
  Os  Os36  1  0.000000  0.000000  0.000698  1
  Os  Os37  1  0.000000  0.000000  0.499307  1
