# generated using pymatgen
data_Tm4Pa2Tc5Os
_symmetry_space_group_name_H-M   'P 1'
_cell_length_a   5.76656939
_cell_length_b   5.76656879
_cell_length_c   8.30984100
_cell_angle_alpha   90.00000000
_cell_angle_beta   90.00000000
_cell_angle_gamma   120.43416238
_symmetry_Int_Tables_number   1
_chemical_formula_structural   Tm4Pa2Tc5Os
_chemical_formula_sum   'Tm4 Pa2 Tc5 Os1'
_cell_volume   238.25480778
_cell_formula_units_Z   1
loop_
 _symmetry_equiv_pos_site_id
 _symmetry_equiv_pos_as_xyz
  1  'x, y, z'
loop_
 _atom_site_type_symbol
 _atom_site_label
 _atom_site_symmetry_multiplicity
 _atom_site_fract_x
 _atom_site_fract_y
 _atom_site_fract_z
 _atom_site_occupancy
  Tm  Tm0  1  0.333633  0.666367  0.436203  1
  Tm  Tm1  1  0.668900  0.331100  0.560661  1
  Tm  Tm2  1  0.668900  0.331100  0.939339  1
  Tm  Tm3  1  0.333633  0.666367  0.063797  1
  Pa  Pa4  1  0.001918  0.998082  0.502028  1
  Pa  Pa5  1  0.001918  0.998082  0.997972  1
  Tc  Tc6  1  0.831163  0.666561  0.250000  1
  Tc  Tc7  1  0.333439  0.168837  0.250000  1
  Tc  Tc8  1  0.169197  0.830803  0.750000  1
  Tc  Tc9  1  0.176477  0.343156  0.750000  1
  Tc  Tc10  1  0.656844  0.823523  0.750000  1
  Os  Os11  1  0.823979  0.176021  0.250000  1
