# generated using pymatgen
data_SrYb3(NO3)8
_symmetry_space_group_name_H-M   'P 1'
_cell_length_a   7.62193677
_cell_length_b   7.62193677
_cell_length_c   7.62193677
_cell_angle_alpha   90.31776132
_cell_angle_beta   90.31776132
_cell_angle_gamma   90.31776132
_symmetry_Int_Tables_number   1
_chemical_formula_structural   SrYb3(NO3)8
_chemical_formula_sum   'Sr1 Yb3 N8 O24'
_cell_volume   442.76768167
_cell_formula_units_Z   1
loop_
 _symmetry_equiv_pos_site_id
 _symmetry_equiv_pos_as_xyz
  1  'x, y, z'
loop_
 _atom_site_type_symbol
 _atom_site_label
 _atom_site_symmetry_multiplicity
 _atom_site_fract_x
 _atom_site_fract_y
 _atom_site_fract_z
 _atom_site_occupancy
  Sr  Sr0  1  0.000000  0.000000  0.000000  1
  Yb  Yb1  1  0.000000  0.500000  0.500000  1
  Yb  Yb2  1  0.500000  0.500000  0.000000  1
  Yb  Yb3  1  0.500000  0.000000  0.500000  1
  N  N4  1  0.341080  0.341080  0.341080  1
  N  N5  1  0.354332  0.166072  0.836630  1
  N  N6  1  0.166072  0.836630  0.354332  1
  N  N7  1  0.836630  0.354332  0.166072  1
  N  N8  1  0.658920  0.658920  0.658920  1
  N  N9  1  0.163370  0.645668  0.833928  1
  N  N10  1  0.833928  0.163370  0.645668  1
  N  N11  1  0.645668  0.833928  0.163370  1
  O  O12  1  0.759921  0.295125  0.030079  1
  O  O13  1  0.224620  0.973620  0.280735  1
  O  O14  1  0.245147  0.776132  0.486396  1
  O  O15  1  0.280735  0.224620  0.973620  1
  O  O16  1  0.258078  0.289520  0.474638  1
  O  O17  1  0.474638  0.258078  0.289520  1
  O  O18  1  0.289520  0.474638  0.258078  1
  O  O19  1  0.223868  0.513604  0.754853  1
  O  O20  1  0.969921  0.240079  0.704875  1
  O  O21  1  0.704875  0.969921  0.240079  1
  O  O22  1  0.026380  0.719265  0.775380  1
  O  O23  1  0.513604  0.754853  0.223868  1
  O  O24  1  0.775380  0.026380  0.719265  1
  O  O25  1  0.754853  0.223868  0.513604  1
  O  O26  1  0.719265  0.775380  0.026380  1
  O  O27  1  0.240079  0.704875  0.969921  1
  O  O28  1  0.741922  0.710480  0.525362  1
  O  O29  1  0.525362  0.741922  0.710480  1
  O  O30  1  0.710480  0.525362  0.741922  1
  O  O31  1  0.776132  0.486396  0.245147  1
  O  O32  1  0.030079  0.759921  0.295125  1
  O  O33  1  0.295125  0.030079  0.759921  1
  O  O34  1  0.973620  0.280735  0.224620  1
  O  O35  1  0.486396  0.245147  0.776132  1
