# generated using pymatgen
data_Tb5Tm4Lu7(CdPt)4
_symmetry_space_group_name_H-M   'P 1'
_cell_length_a   9.56695116
_cell_length_b   9.56882928
_cell_length_c   9.56883034
_cell_angle_alpha   60.06767602
_cell_angle_beta   60.00648590
_cell_angle_gamma   60.00649018
_symmetry_Int_Tables_number   1
_chemical_formula_structural   Tb5Tm4Lu7(CdPt)4
_chemical_formula_sum   'Tb5 Tm4 Lu7 Cd4 Pt4'
_cell_volume   619.78416903
_cell_formula_units_Z   1
loop_
 _symmetry_equiv_pos_site_id
 _symmetry_equiv_pos_as_xyz
  1  'x, y, z'
loop_
 _atom_site_type_symbol
 _atom_site_label
 _atom_site_symmetry_multiplicity
 _atom_site_fract_x
 _atom_site_fract_y
 _atom_site_fract_z
 _atom_site_occupancy
  Tb  Tb0  1  0.560755  0.939245  0.939245  1
  Tb  Tb1  1  0.565037  0.935042  0.563369  1
  Tb  Tb2  1  0.936552  0.563369  0.935042  1
  Tb  Tb3  1  0.565037  0.563369  0.935042  1
  Tb  Tb4  1  0.936552  0.935042  0.563369  1
  Tm  Tm5  1  0.350434  0.352291  0.352291  1
  Tm  Tm6  1  0.352011  0.355666  0.940311  1
  Tm  Tm7  1  0.352011  0.940311  0.355666  1
  Tm  Tm8  1  0.944984  0.352291  0.352291  1
  Lu  Lu9  1  0.810957  0.189043  0.189043  1
  Lu  Lu10  1  0.187106  0.812894  0.812894  1
  Lu  Lu11  1  0.187211  0.811913  0.189143  1
  Lu  Lu12  1  0.811733  0.189143  0.811913  1
  Lu  Lu13  1  0.187211  0.189143  0.811913  1
  Lu  Lu14  1  0.811733  0.811913  0.189143  1
  Lu  Lu15  1  0.937336  0.562664  0.562664  1
  Cd  Cd16  1  0.584276  0.580337  0.580337  1
  Cd  Cd17  1  0.581643  0.580644  0.256069  1
  Cd  Cd18  1  0.581643  0.256069  0.580644  1
  Cd  Cd19  1  0.255050  0.580337  0.580337  1
  Pt  Pt20  1  0.144743  0.142037  0.142037  1
  Pt  Pt21  1  0.142400  0.142587  0.572615  1
  Pt  Pt22  1  0.142400  0.572615  0.142587  1
  Pt  Pt23  1  0.571182  0.142037  0.142037  1
