# generated using pymatgen
data_La2CrReH18
_symmetry_space_group_name_H-M   'P 1'
_cell_length_a   4.83133800
_cell_length_b   4.83133898
_cell_length_c   8.92754100
_cell_angle_alpha   90.00000000
_cell_angle_beta   90.00000000
_cell_angle_gamma   120.00000696
_symmetry_Int_Tables_number   1
_chemical_formula_structural   La2CrReH18
_chemical_formula_sum   'La2 Cr1 Re1 H18'
_cell_volume   180.46682863
_cell_formula_units_Z   1
loop_
 _symmetry_equiv_pos_site_id
 _symmetry_equiv_pos_as_xyz
  1  'x, y, z'
loop_
 _atom_site_type_symbol
 _atom_site_label
 _atom_site_symmetry_multiplicity
 _atom_site_fract_x
 _atom_site_fract_y
 _atom_site_fract_z
 _atom_site_occupancy
  La  La0  1  0.000000  0.000000  0.027840  1
  La  La1  1  0.000000  0.000000  0.472160  1
  Cr  Cr2  1  0.333333  0.666667  0.250000  1
  Re  Re3  1  0.666667  0.333333  0.750000  1
  H  H4  1  0.473278  0.526722  0.381744  1
  H  H5  1  0.473278  0.946557  0.381744  1
  H  H6  1  0.053443  0.526722  0.381744  1
  H  H7  1  0.954839  0.477420  0.887191  1
  H  H8  1  0.137324  0.274648  0.250000  1
  H  H9  1  0.866282  0.133718  0.750000  1
  H  H10  1  0.267437  0.133718  0.750000  1
  H  H11  1  0.725352  0.862676  0.250000  1
  H  H12  1  0.137324  0.862676  0.250000  1
  H  H13  1  0.866282  0.732563  0.750000  1
  H  H14  1  0.473278  0.946557  0.118256  1
  H  H15  1  0.522580  0.477420  0.612809  1
  H  H16  1  0.954839  0.477420  0.612809  1
  H  H17  1  0.053443  0.526722  0.118256  1
  H  H18  1  0.473278  0.526722  0.118256  1
  H  H19  1  0.522580  0.045161  0.887191  1
  H  H20  1  0.522580  0.477420  0.887191  1
  H  H21  1  0.522580  0.045161  0.612809  1
