# generated using pymatgen
data_Dy3RhAu3
_symmetry_space_group_name_H-M   'P 1'
_cell_length_a   8.01086949
_cell_length_b   8.01086907
_cell_length_c   8.01086851
_cell_angle_alpha   114.09403157
_cell_angle_beta   114.09402867
_cell_angle_gamma   114.09403144
_symmetry_Int_Tables_number   1
_chemical_formula_structural   Dy3RhAu3
_chemical_formula_sum   'Dy6 Rh2 Au6'
_cell_volume   310.14646327
_cell_formula_units_Z   2
loop_
 _symmetry_equiv_pos_site_id
 _symmetry_equiv_pos_as_xyz
  1  'x, y, z'
loop_
 _atom_site_type_symbol
 _atom_site_label
 _atom_site_symmetry_multiplicity
 _atom_site_fract_x
 _atom_site_fract_y
 _atom_site_fract_z
 _atom_site_occupancy
  Dy  Dy0  1  0.393544  0.038338  0.276358  1
  Dy  Dy1  1  0.038338  0.276358  0.393544  1
  Dy  Dy2  1  0.276358  0.393544  0.038338  1
  Dy  Dy3  1  0.606456  0.961662  0.723642  1
  Dy  Dy4  1  0.961662  0.723642  0.606456  1
  Dy  Dy5  1  0.723642  0.606456  0.961662  1
  Rh  Rh6  1  0.000000  0.000000  0.000000  1
  Rh  Rh7  1  0.500000  0.500000  0.500000  1
  Au  Au8  1  0.228157  0.061131  0.554904  1
  Au  Au9  1  0.061131  0.554904  0.228157  1
  Au  Au10  1  0.554904  0.228157  0.061131  1
  Au  Au11  1  0.771843  0.938869  0.445096  1
  Au  Au12  1  0.938869  0.445096  0.771843  1
  Au  Au13  1  0.445096  0.771843  0.938869  1
