# generated using pymatgen
data_Dy12Co4SnOs
_symmetry_space_group_name_H-M   'P 1'
_cell_length_a   8.30016269
_cell_length_b   8.30016208
_cell_length_c   8.30016246
_cell_angle_alpha   106.52638902
_cell_angle_beta   110.35648327
_cell_angle_gamma   111.57279079
_symmetry_Int_Tables_number   1
_chemical_formula_structural   Dy12Co4SnOs
_chemical_formula_sum   'Dy12 Co4 Sn1 Os1'
_cell_volume   439.26894002
_cell_formula_units_Z   1
loop_
 _symmetry_equiv_pos_site_id
 _symmetry_equiv_pos_as_xyz
  1  'x, y, z'
loop_
 _atom_site_type_symbol
 _atom_site_label
 _atom_site_symmetry_multiplicity
 _atom_site_fract_x
 _atom_site_fract_y
 _atom_site_fract_z
 _atom_site_occupancy
  Dy  Dy0  1  0.468575  0.285781  0.182793  1
  Dy  Dy1  1  0.102988  0.285781  0.817207  1
  Dy  Dy2  1  0.897012  0.714219  0.182793  1
  Dy  Dy3  1  0.531425  0.714219  0.817207  1
  Dy  Dy4  1  0.305696  0.619222  0.313526  1
  Dy  Dy5  1  0.305696  0.992171  0.686474  1
  Dy  Dy6  1  0.694304  0.380778  0.686474  1
  Dy  Dy7  1  0.694304  0.007829  0.313526  1
  Dy  Dy8  1  0.194285  0.214444  0.408729  1
  Dy  Dy9  1  0.805715  0.785556  0.591271  1
  Dy  Dy10  1  0.194285  0.785556  0.979840  1
  Dy  Dy11  1  0.805715  0.214444  0.020160  1
  Co  Co12  1  0.500000  0.611331  0.111331  1
  Co  Co13  1  0.500000  0.388669  0.888669  1
  Co  Co14  1  0.378751  0.000000  0.378751  1
  Co  Co15  1  0.621249  0.000000  0.621249  1
  Sn  Sn16  1  0.000000  0.500000  0.500000  1
  Os  Os17  1  0.000000  0.000000  0.000000  1
