# generated using pymatgen
data_Nd6Sm2SbPd24
_symmetry_space_group_name_H-M   'P 1'
_cell_length_a   8.52820021
_cell_length_b   8.52815100
_cell_length_c   8.52820021
_cell_angle_alpha   90.00000000
_cell_angle_beta   89.88615014
_cell_angle_gamma   90.00000000
_symmetry_Int_Tables_number   1
_chemical_formula_structural   Nd6Sm2SbPd24
_chemical_formula_sum   'Nd6 Sm2 Sb1 Pd24'
_cell_volume   620.25289318
_cell_formula_units_Z   1
loop_
 _symmetry_equiv_pos_site_id
 _symmetry_equiv_pos_as_xyz
  1  'x, y, z'
loop_
 _atom_site_type_symbol
 _atom_site_label
 _atom_site_symmetry_multiplicity
 _atom_site_fract_x
 _atom_site_fract_y
 _atom_site_fract_z
 _atom_site_occupancy
  Nd  Nd0  1  0.747755  0.747816  0.252254  1
  Nd  Nd1  1  0.747821  0.252237  0.747821  1
  Nd  Nd2  1  0.252254  0.747816  0.747755  1
  Nd  Nd3  1  0.747821  0.747763  0.747821  1
  Nd  Nd4  1  0.747755  0.252184  0.252254  1
  Nd  Nd5  1  0.252254  0.252184  0.747755  1
  Sm  Sm6  1  0.252395  0.747544  0.252395  1
  Sm  Sm7  1  0.252395  0.252456  0.252395  1
  Sb  Sb8  1  0.000024  0.000000  0.000024  1
  Pd  Pd9  1  0.001088  0.000000  0.309591  1
  Pd  Pd10  1  0.734243  0.000000  0.499911  1
  Pd  Pd11  1  0.734236  0.500000  0.999953  1
  Pd  Pd12  1  0.499911  0.000000  0.734243  1
  Pd  Pd13  1  0.000590  0.734246  0.499486  1
  Pd  Pd14  1  0.499067  0.000000  0.265756  1
  Pd  Pd15  1  0.000590  0.265754  0.499486  1
  Pd  Pd16  1  0.499486  0.734246  0.000590  1
  Pd  Pd17  1  0.254689  0.500000  0.498777  1
  Pd  Pd18  1  0.499989  0.500000  0.745307  1
  Pd  Pd19  1  0.498777  0.500000  0.254689  1
  Pd  Pd20  1  0.499384  0.254696  0.499384  1
  Pd  Pd21  1  0.499384  0.745304  0.499384  1
  Pd  Pd22  1  0.745307  0.500000  0.499989  1
  Pd  Pd23  1  0.309591  0.000000  0.001088  1
  Pd  Pd24  1  0.999949  0.000000  0.690027  1
  Pd  Pd25  1  0.001225  0.500000  0.265759  1
  Pd  Pd26  1  0.000520  0.309793  0.000520  1
  Pd  Pd27  1  0.000520  0.690207  0.000520  1
  Pd  Pd28  1  0.690027  0.000000  0.999949  1
  Pd  Pd29  1  0.265759  0.500000  0.001225  1
  Pd  Pd30  1  0.265756  0.000000  0.499067  1
  Pd  Pd31  1  0.999953  0.500000  0.734236  1
  Pd  Pd32  1  0.499486  0.265754  0.000590  1
