# generated using pymatgen
data_Ho2Er10CdCo5
_symmetry_space_group_name_H-M   'P 1'
_cell_length_a   8.19129720
_cell_length_b   8.19129653
_cell_length_c   8.19067613
_cell_angle_alpha   110.73378746
_cell_angle_beta   110.50362455
_cell_angle_gamma   107.20312503
_symmetry_Int_Tables_number   1
_chemical_formula_structural   Ho2Er10CdCo5
_chemical_formula_sum   'Ho2 Er10 Cd1 Co5'
_cell_volume   422.54731190
_cell_formula_units_Z   1
loop_
 _symmetry_equiv_pos_site_id
 _symmetry_equiv_pos_as_xyz
  1  'x, y, z'
loop_
 _atom_site_type_symbol
 _atom_site_label
 _atom_site_symmetry_multiplicity
 _atom_site_fract_x
 _atom_site_fract_y
 _atom_site_fract_z
 _atom_site_occupancy
  Ho  Ho0  1  0.287438  0.183818  0.471256  1
  Ho  Ho1  1  0.712562  0.816182  0.528744  1
  Er  Er2  1  0.287190  0.816219  0.103409  1
  Er  Er3  1  0.712810  0.183781  0.896591  1
  Er  Er4  1  0.619809  0.314675  0.304638  1
  Er  Er5  1  0.380191  0.685325  0.695362  1
  Er  Er6  1  0.010039  0.315172  0.695362  1
  Er  Er7  1  0.989961  0.684828  0.304638  1
  Er  Er8  1  0.212062  0.405465  0.192845  1
  Er  Er9  1  0.787938  0.594535  0.807155  1
  Er  Er10  1  0.212620  0.019217  0.807155  1
  Er  Er11  1  0.787380  0.980783  0.192845  1
  Cd  Cd12  1  0.500000  0.500000  0.000000  1
  Co  Co13  1  0.999774  0.376600  0.376374  1
  Co  Co14  1  0.000226  0.623400  0.623626  1
  Co  Co15  1  0.386839  0.886839  0.500000  1
  Co  Co16  1  0.613161  0.113161  0.500000  1
  Co  Co17  1  0.000000  0.000000  0.000000  1
