# generated using pymatgen
data_Sc6Nb3Al13Ir2Ru5
_symmetry_space_group_name_H-M   'P 1'
_cell_length_a   8.87111826
_cell_length_b   8.87111659
_cell_length_c   8.85728229
_cell_angle_alpha   59.87955007
_cell_angle_beta   59.87955701
_cell_angle_gamma   59.88022374
_symmetry_Int_Tables_number   1
_chemical_formula_structural   Sc6Nb3Al13Ir2Ru5
_chemical_formula_sum   'Sc6 Nb3 Al13 Ir2 Ru5'
_cell_volume   491.53659012
_cell_formula_units_Z   1
loop_
 _symmetry_equiv_pos_site_id
 _symmetry_equiv_pos_as_xyz
  1  'x, y, z'
loop_
 _atom_site_type_symbol
 _atom_site_label
 _atom_site_symmetry_multiplicity
 _atom_site_fract_x
 _atom_site_fract_y
 _atom_site_fract_z
 _atom_site_occupancy
  Sc  Sc0  1  0.710683  0.710683  0.280926  1
  Sc  Sc1  1  0.293758  0.706579  0.291740  1
  Sc  Sc2  1  0.706579  0.293758  0.291740  1
  Sc  Sc3  1  0.292789  0.292789  0.707113  1
  Sc  Sc4  1  0.710708  0.281077  0.712165  1
  Sc  Sc5  1  0.281077  0.710708  0.712165  1
  Nb  Nb6  1  0.876422  0.876422  0.363670  1
  Nb  Nb7  1  0.877064  0.363437  0.877140  1
  Nb  Nb8  1  0.363437  0.877064  0.877140  1
  Al  Al9  1  0.879742  0.879742  0.881570  1
  Al  Al10  1  0.122125  0.122125  0.635736  1
  Al  Al11  1  0.121749  0.635884  0.121325  1
  Al  Al12  1  0.635884  0.121749  0.121325  1
  Al  Al13  1  0.122410  0.122410  0.121154  1
  Al  Al14  1  0.667113  0.667113  0.005881  1
  Al  Al15  1  0.665544  0.007219  0.667213  1
  Al  Al16  1  0.007219  0.665544  0.667213  1
  Al  Al17  1  0.661398  0.661398  0.661643  1
  Al  Al18  1  0.335439  0.335439  0.996094  1
  Al  Al19  1  0.337351  0.994804  0.335113  1
  Al  Al20  1  0.994804  0.337351  0.335113  1
  Al  Al21  1  0.335257  0.335257  0.335050  1
  Ir  Ir22  1  0.000981  0.000981  0.001601  1
  Ir  Ir23  1  0.999794  0.999794  0.499431  1
  Ru  Ru24  1  0.503197  0.996549  0.502876  1
  Ru  Ru25  1  0.996549  0.503197  0.502876  1
  Ru  Ru26  1  0.503064  0.503064  0.996791  1
  Ru  Ru27  1  0.999392  0.498473  0.999098  1
  Ru  Ru28  1  0.498473  0.999392  0.999098  1
