# generated using pymatgen
data_Gd7Er3(Sn3Br)2
_symmetry_space_group_name_H-M   'P 1'
_cell_length_a   9.41373200
_cell_length_b   9.41373282
_cell_length_c   6.74042600
_cell_angle_alpha   90.00000000
_cell_angle_beta   90.00000000
_cell_angle_gamma   119.99999713
_symmetry_Int_Tables_number   1
_chemical_formula_structural   Gd7Er3(Sn3Br)2
_chemical_formula_sum   'Gd7 Er3 Sn6 Br2'
_cell_volume   517.29905792
_cell_formula_units_Z   1
loop_
 _symmetry_equiv_pos_site_id
 _symmetry_equiv_pos_as_xyz
  1  'x, y, z'
loop_
 _atom_site_type_symbol
 _atom_site_label
 _atom_site_symmetry_multiplicity
 _atom_site_fract_x
 _atom_site_fract_y
 _atom_site_fract_z
 _atom_site_occupancy
  Gd  Gd0  1  0.269749  0.269694  0.749561  1
  Gd  Gd1  1  0.999945  0.730251  0.749561  1
  Gd  Gd2  1  0.730306  0.000055  0.749561  1
  Gd  Gd3  1  0.999945  0.269694  0.250439  1
  Gd  Gd4  1  0.730306  0.730251  0.250439  1
  Gd  Gd5  1  0.269749  0.000055  0.250439  1
  Gd  Gd6  1  0.666667  0.333333  0.000000  1
  Er  Er7  1  0.333333  0.666667  0.500000  1
  Er  Er8  1  0.666667  0.333333  0.500000  1
  Er  Er9  1  0.333333  0.666667  0.000000  1
  Sn  Sn10  1  0.608855  0.997493  0.251818  1
  Sn  Sn11  1  0.002507  0.391145  0.748182  1
  Sn  Sn12  1  0.388639  0.997493  0.748182  1
  Sn  Sn13  1  0.608855  0.611361  0.748182  1
  Sn  Sn14  1  0.002507  0.611361  0.251818  1
  Sn  Sn15  1  0.388639  0.391145  0.251818  1
  Br  Br16  1  0.000000  0.000000  0.000000  1
  Br  Br17  1  0.000000  0.000000  0.500000  1
