# generated using pymatgen
data_Dy18Ho2(Ir3Rh)3
_symmetry_space_group_name_H-M   'P 1'
_cell_length_a   10.87289100
_cell_length_b   10.87255800
_cell_length_c   6.38265800
_cell_angle_alpha   90.00000000
_cell_angle_beta   90.00000000
_cell_angle_gamma   89.99796590
_symmetry_Int_Tables_number   1
_chemical_formula_structural   Dy18Ho2(Ir3Rh)3
_chemical_formula_sum   'Dy18 Ho2 Ir9 Rh3'
_cell_volume   754.53317886
_cell_formula_units_Z   1
loop_
 _symmetry_equiv_pos_site_id
 _symmetry_equiv_pos_as_xyz
  1  'x, y, z'
loop_
 _atom_site_type_symbol
 _atom_site_label
 _atom_site_symmetry_multiplicity
 _atom_site_fract_x
 _atom_site_fract_y
 _atom_site_fract_z
 _atom_site_occupancy
  Dy  Dy0  1  0.290436  0.088478  0.378848  1
  Dy  Dy1  1  0.290345  0.911245  0.878747  1
  Dy  Dy2  1  0.709655  0.088755  0.878747  1
  Dy  Dy3  1  0.709564  0.911522  0.378848  1
  Dy  Dy4  1  0.588722  0.790212  0.878755  1
  Dy  Dy5  1  0.588444  0.209702  0.378863  1
  Dy  Dy6  1  0.411556  0.790298  0.378863  1
  Dy  Dy7  1  0.411278  0.209788  0.878755  1
  Dy  Dy8  1  0.209061  0.411579  0.620257  1
  Dy  Dy9  1  0.209362  0.588637  0.122459  1
  Dy  Dy10  1  0.790638  0.411363  0.122459  1
  Dy  Dy11  1  0.790939  0.588421  0.620257  1
  Dy  Dy12  1  0.911332  0.709226  0.122463  1
  Dy  Dy13  1  0.911544  0.291071  0.620261  1
  Dy  Dy14  1  0.088456  0.708929  0.620261  1
  Dy  Dy15  1  0.088668  0.290774  0.122463  1
  Dy  Dy16  1  0.000000  0.000000  0.500236  1
  Dy  Dy17  1  0.000000  0.000000  0.000075  1
  Ho  Ho18  1  0.500000  0.500000  0.000088  1
  Ho  Ho19  1  0.500000  0.500000  0.500233  1
  Ir  Ir20  1  0.845585  0.153421  0.249753  1
  Ir  Ir21  1  0.845733  0.846312  0.749869  1
  Ir  Ir22  1  0.154267  0.153688  0.749869  1
  Ir  Ir23  1  0.154415  0.846579  0.249753  1
  Ir  Ir24  1  0.653387  0.346031  0.749873  1
  Ir  Ir25  1  0.653122  0.654117  0.249748  1
  Ir  Ir26  1  0.346878  0.345883  0.249748  1
  Ir  Ir27  1  0.346613  0.653969  0.749873  1
  Ir  Ir28  1  0.000000  0.500000  0.377449  1
  Rh  Rh29  1  0.500000  0.000000  0.121784  1
  Rh  Rh30  1  0.500000  0.000000  0.621915  1
  Rh  Rh31  1  0.000000  0.500000  0.878433  1
