# generated using pymatgen
data_Li2Ni7(P2Ru)3
_symmetry_space_group_name_H-M   'P 1'
_cell_length_a   3.61230600
_cell_length_b   10.52439700
_cell_length_c   11.81405300
_cell_angle_alpha   90.00000000
_cell_angle_beta   90.00000000
_cell_angle_gamma   90.00000000
_symmetry_Int_Tables_number   1
_chemical_formula_structural   Li2Ni7(P2Ru)3
_chemical_formula_sum   'Li4 Ni14 P12 Ru6'
_cell_volume   449.13889838
_cell_formula_units_Z   2
loop_
 _symmetry_equiv_pos_site_id
 _symmetry_equiv_pos_as_xyz
  1  'x, y, z'
loop_
 _atom_site_type_symbol
 _atom_site_label
 _atom_site_symmetry_multiplicity
 _atom_site_fract_x
 _atom_site_fract_y
 _atom_site_fract_z
 _atom_site_occupancy
  Li  Li0  1  0.250000  0.586477  0.705079  1
  Li  Li1  1  0.250000  0.913523  0.205079  1
  Li  Li2  1  0.750000  0.415902  0.291300  1
  Li  Li3  1  0.750000  0.084098  0.791300  1
  Ni  Ni4  1  0.750000  0.595709  0.514760  1
  Ni  Ni5  1  0.750000  0.904291  0.014760  1
  Ni  Ni6  1  0.250000  0.225595  0.183353  1
  Ni  Ni7  1  0.250000  0.274405  0.683353  1
  Ni  Ni8  1  0.750000  0.777515  0.819024  1
  Ni  Ni9  1  0.750000  0.722485  0.319024  1
  Ni  Ni10  1  0.250000  0.885499  0.702608  1
  Ni  Ni11  1  0.250000  0.614501  0.202608  1
  Ni  Ni12  1  0.750000  0.112436  0.295773  1
  Ni  Ni13  1  0.750000  0.387564  0.795773  1
  Ni  Ni14  1  0.250000  0.465737  0.928207  1
  Ni  Ni15  1  0.250000  0.034263  0.428207  1
  Ni  Ni16  1  0.750000  0.536485  0.070894  1
  Ni  Ni17  1  0.750000  0.963515  0.570894  1
  P  P18  1  0.250000  0.419115  0.116159  1
  P  P19  1  0.250000  0.080885  0.616159  1
  P  P20  1  0.750000  0.582767  0.883106  1
  P  P21  1  0.750000  0.917233  0.383106  1
  P  P22  1  0.250000  0.264006  0.870973  1
  P  P23  1  0.250000  0.235994  0.370973  1
  P  P24  1  0.750000  0.736015  0.130520  1
  P  P25  1  0.750000  0.763985  0.630520  1
  P  P26  1  0.250000  0.598051  0.386337  1
  P  P27  1  0.250000  0.901949  0.886337  1
  P  P28  1  0.750000  0.404551  0.611645  1
  P  P29  1  0.750000  0.095449  0.111645  1
  Ru  Ru30  1  0.250000  0.715143  0.991178  1
  Ru  Ru31  1  0.250000  0.784857  0.491178  1
  Ru  Ru32  1  0.750000  0.289548  0.010472  1
  Ru  Ru33  1  0.750000  0.210452  0.510472  1
  Ru  Ru34  1  0.250000  0.413302  0.488611  1
  Ru  Ru35  1  0.250000  0.086698  0.988611  1
