# generated using pymatgen
data_MnV3GaS8
_symmetry_space_group_name_H-M   'P 1'
_cell_length_a   6.76759573
_cell_length_b   6.76759508
_cell_length_c   6.76759624
_cell_angle_alpha   60.94158330
_cell_angle_beta   60.94158789
_cell_angle_gamma   60.94159111
_symmetry_Int_Tables_number   1
_chemical_formula_structural   MnV3GaS8
_chemical_formula_sum   'Mn1 V3 Ga1 S8'
_cell_volume   223.82390519
_cell_formula_units_Z   1
loop_
 _symmetry_equiv_pos_site_id
 _symmetry_equiv_pos_as_xyz
  1  'x, y, z'
loop_
 _atom_site_type_symbol
 _atom_site_label
 _atom_site_symmetry_multiplicity
 _atom_site_fract_x
 _atom_site_fract_y
 _atom_site_fract_z
 _atom_site_occupancy
  Mn  Mn0  1  0.601859  0.601859  0.601859  1
  V  V1  1  0.608586  0.183796  0.608586  1
  V  V2  1  0.183796  0.608586  0.608586  1
  V  V3  1  0.608586  0.608586  0.183796  1
  Ga  Ga4  1  0.001572  0.001572  0.001572  1
  S  S5  1  0.372042  0.372042  0.372042  1
  S  S6  1  0.373503  0.885868  0.373503  1
  S  S7  1  0.885868  0.373503  0.373503  1
  S  S8  1  0.373503  0.373503  0.885868  1
  S  S9  1  0.863544  0.863544  0.863544  1
  S  S10  1  0.856627  0.413888  0.856627  1
  S  S11  1  0.413888  0.856627  0.856627  1
  S  S12  1  0.856627  0.856627  0.413888  1
