# generated using pymatgen
data_Na2Si4SnO11
_symmetry_space_group_name_H-M   'P 1'
_cell_length_a   7.48410095
_cell_length_b   7.48410160
_cell_length_c   8.62657437
_cell_angle_alpha   82.56156695
_cell_angle_beta   82.56156981
_cell_angle_gamma   84.23225482
_symmetry_Int_Tables_number   1
_chemical_formula_structural   Na2Si4SnO11
_chemical_formula_sum   'Na4 Si8 Sn2 O22'
_cell_volume   473.36540502
_cell_formula_units_Z   2
loop_
 _symmetry_equiv_pos_site_id
 _symmetry_equiv_pos_as_xyz
  1  'x, y, z'
loop_
 _atom_site_type_symbol
 _atom_site_label
 _atom_site_symmetry_multiplicity
 _atom_site_fract_x
 _atom_site_fract_y
 _atom_site_fract_z
 _atom_site_occupancy
  Na  Na0  1  0.922786  0.077214  0.250000  1
  Na  Na1  1  0.077214  0.922786  0.750000  1
  Na  Na2  1  0.603564  0.396436  0.250000  1
  Na  Na3  1  0.396436  0.603564  0.750000  1
  Si  Si4  1  0.806614  0.668989  0.644283  1
  Si  Si5  1  0.193386  0.331011  0.355717  1
  Si  Si6  1  0.668989  0.806614  0.144283  1
  Si  Si7  1  0.268150  0.829388  0.072934  1
  Si  Si8  1  0.170612  0.731850  0.427066  1
  Si  Si9  1  0.731850  0.170612  0.927066  1
  Si  Si10  1  0.829388  0.268150  0.572934  1
  Si  Si11  1  0.331011  0.193386  0.855717  1
  Sn  Sn12  1  0.500000  0.000000  0.500000  1
  Sn  Sn13  1  0.000000  0.500000  0.000000  1
  O  O14  1  0.376178  0.194745  0.347059  1
  O  O15  1  0.805255  0.623822  0.152941  1
  O  O16  1  0.623822  0.805255  0.652941  1
  O  O17  1  0.194745  0.376178  0.847059  1
  O  O18  1  0.361339  0.110315  0.690242  1
  O  O19  1  0.889685  0.638661  0.809758  1
  O  O20  1  0.638661  0.889685  0.309758  1
  O  O21  1  0.110315  0.361339  0.190242  1
  O  O22  1  0.293359  0.820584  0.533123  1
  O  O23  1  0.179416  0.706641  0.966877  1
  O  O24  1  0.706641  0.179416  0.466877  1
  O  O25  1  0.820584  0.293359  0.033123  1
  O  O26  1  0.478074  0.751508  0.090236  1
  O  O27  1  0.248492  0.521926  0.409764  1
  O  O28  1  0.841594  0.158406  0.750000  1
  O  O29  1  0.158406  0.841594  0.250000  1
  O  O30  1  0.038156  0.245481  0.490462  1
  O  O31  1  0.754519  0.961844  0.009538  1
  O  O32  1  0.961844  0.754519  0.509538  1
  O  O33  1  0.245481  0.038156  0.990462  1
  O  O34  1  0.751508  0.478074  0.590236  1
  O  O35  1  0.521926  0.248492  0.909764  1
