# generated using pymatgen
data_Lu12Ga2Fe3
_symmetry_space_group_name_H-M   'P 1'
_cell_length_a   8.05809369
_cell_length_b   8.05809305
_cell_length_c   8.05809317
_cell_angle_alpha   108.95226595
_cell_angle_beta   108.95226565
_cell_angle_gamma   110.51419238
_symmetry_Int_Tables_number   1
_chemical_formula_structural   Lu12Ga2Fe3
_chemical_formula_sum   'Lu12 Ga2 Fe3'
_cell_volume   402.68626005
_cell_formula_units_Z   1
loop_
 _symmetry_equiv_pos_site_id
 _symmetry_equiv_pos_as_xyz
  1  'x, y, z'
loop_
 _atom_site_type_symbol
 _atom_site_label
 _atom_site_symmetry_multiplicity
 _atom_site_fract_x
 _atom_site_fract_y
 _atom_site_fract_z
 _atom_site_occupancy
  Lu  Lu0  1  0.307347  0.307347  0.614694  1
  Lu  Lu1  1  0.692653  0.692653  0.385306  1
  Lu  Lu2  1  0.692653  0.307347  0.000000  1
  Lu  Lu3  1  0.307347  0.692653  0.000000  1
  Lu  Lu4  1  0.188537  0.430231  0.241694  1
  Lu  Lu5  1  0.811463  0.569769  0.758306  1
  Lu  Lu6  1  0.188537  0.946842  0.758306  1
  Lu  Lu7  1  0.946842  0.188537  0.758306  1
  Lu  Lu8  1  0.811463  0.053158  0.241694  1
  Lu  Lu9  1  0.053158  0.811463  0.241694  1
  Lu  Lu10  1  0.430231  0.188537  0.241694  1
  Lu  Lu11  1  0.569769  0.811463  0.758306  1
  Ga  Ga12  1  0.000000  0.500000  0.500000  1
  Ga  Ga13  1  0.500000  0.000000  0.500000  1
  Fe  Fe14  1  0.383969  0.383969  0.000000  1
  Fe  Fe15  1  0.616031  0.616031  0.000000  1
  Fe  Fe16  1  0.000000  0.000000  0.000000  1
