# generated using pymatgen
data_HoU7(B6Mo)4
_symmetry_space_group_name_H-M   'P 1'
_cell_length_a   3.69320900
_cell_length_b   9.27293415
_cell_length_c   11.36828218
_cell_angle_alpha   89.97937968
_cell_angle_beta   90.00000000
_cell_angle_gamma   90.00000000
_symmetry_Int_Tables_number   1
_chemical_formula_structural   HoU7(B6Mo)4
_chemical_formula_sum   'Ho1 U7 B24 Mo4'
_cell_volume   389.32821443
_cell_formula_units_Z   1
loop_
 _symmetry_equiv_pos_site_id
 _symmetry_equiv_pos_as_xyz
  1  'x, y, z'
loop_
 _atom_site_type_symbol
 _atom_site_label
 _atom_site_symmetry_multiplicity
 _atom_site_fract_x
 _atom_site_fract_y
 _atom_site_fract_z
 _atom_site_occupancy
  Ho  Ho0  1  0.000000  0.335358  0.408020  1
  U  U1  1  0.000000  0.664288  0.592142  1
  U  U2  1  0.000000  0.834719  0.092579  1
  U  U3  1  0.000000  0.165114  0.907595  1
  U  U4  1  0.000000  0.956509  0.394493  1
  U  U5  1  0.000000  0.044692  0.604974  1
  U  U6  1  0.000000  0.456081  0.105457  1
  U  U7  1  0.000000  0.543719  0.894720  1
  B  B8  1  0.500000  0.552454  0.433374  1
  B  B9  1  0.500000  0.451171  0.568828  1
  B  B10  1  0.500000  0.049483  0.066503  1
  B  B11  1  0.500000  0.950012  0.932908  1
  B  B12  1  0.500000  0.742966  0.424628  1
  B  B13  1  0.500000  0.255775  0.576769  1
  B  B14  1  0.500000  0.243492  0.075845  1
  B  B15  1  0.500000  0.756675  0.924248  1
  B  B16  1  0.500000  0.803738  0.272762  1
  B  B17  1  0.500000  0.196343  0.727600  1
  B  B18  1  0.500000  0.302774  0.225351  1
  B  B19  1  0.500000  0.696299  0.772460  1
  B  B20  1  0.500000  0.644323  0.187662  1
  B  B21  1  0.500000  0.355267  0.812809  1
  B  B22  1  0.500000  0.143117  0.311714  1
  B  B23  1  0.500000  0.855246  0.687561  1
  B  B24  1  0.500000  0.985674  0.217989  1
  B  B25  1  0.500000  0.014335  0.781426  1
  B  B26  1  0.500000  0.487361  0.280400  1
  B  B27  1  0.500000  0.515160  0.718244  1
  B  B28  1  0.500000  0.642506  0.039489  1
  B  B29  1  0.500000  0.357999  0.960839  1
  B  B30  1  0.500000  0.138563  0.461341  1
  B  B31  1  0.500000  0.857518  0.539697  1
  Mo  Mo32  1  0.000000  0.647984  0.319250  1
  Mo  Mo33  1  0.000000  0.355132  0.682607  1
  Mo  Mo34  1  0.000000  0.143142  0.177373  1
  Mo  Mo35  1  0.000000  0.855011  0.820348  1
