# generated using pymatgen
data_K2TiWN4
_symmetry_space_group_name_H-M   'P 1'
_cell_length_a   5.92848674
_cell_length_b   5.92848711
_cell_length_c   5.92848687
_cell_angle_alpha   121.46358145
_cell_angle_beta   121.46359753
_cell_angle_gamma   87.48313791
_symmetry_Int_Tables_number   1
_chemical_formula_structural   K2TiWN4
_chemical_formula_sum   'K2 Ti1 W1 N4'
_cell_volume   143.92828099
_cell_formula_units_Z   1
loop_
 _symmetry_equiv_pos_site_id
 _symmetry_equiv_pos_as_xyz
  1  'x, y, z'
loop_
 _atom_site_type_symbol
 _atom_site_label
 _atom_site_symmetry_multiplicity
 _atom_site_fract_x
 _atom_site_fract_y
 _atom_site_fract_z
 _atom_site_occupancy
  K  K0  1  0.250000  0.750000  0.500000  1
  K  K1  1  0.500000  0.500000  0.000000  1
  Ti  Ti2  1  0.000000  0.000000  0.000000  1
  W  W3  1  0.750000  0.250000  0.500000  1
  N  N4  1  0.770574  0.128447  0.150284  1
  N  N5  1  0.978164  0.620291  0.849716  1
  N  N6  1  0.379709  0.229426  0.357873  1
  N  N7  1  0.871553  0.021836  0.642127  1
