# generated using pymatgen
data_Y2HoZrSn2Ir3
_symmetry_space_group_name_H-M   'P 1'
_cell_length_a   7.37751934
_cell_length_b   7.38582348
_cell_length_c   4.19677800
_cell_angle_alpha   90.00000000
_cell_angle_beta   90.00000000
_cell_angle_gamma   120.97560818
_symmetry_Int_Tables_number   1
_chemical_formula_structural   Y2HoZrSn2Ir3
_chemical_formula_sum   'Y2 Ho1 Zr1 Sn2 Ir3'
_cell_volume   196.06582901
_cell_formula_units_Z   1
loop_
 _symmetry_equiv_pos_site_id
 _symmetry_equiv_pos_as_xyz
  1  'x, y, z'
loop_
 _atom_site_type_symbol
 _atom_site_label
 _atom_site_symmetry_multiplicity
 _atom_site_fract_x
 _atom_site_fract_y
 _atom_site_fract_z
 _atom_site_occupancy
  Y  Y0  1  0.394548  0.394656  0.500000  1
  Y  Y1  1  0.590193  0.006575  0.500000  1
  Ho  Ho2  1  0.006090  0.590257  0.500000  1
  Zr  Zr3  1  0.750141  0.749824  0.000000  1
  Sn  Sn4  1  0.253562  0.998050  0.000000  1
  Sn  Sn5  1  0.998163  0.253809  0.000000  1
  Ir  Ir6  1  0.673489  0.349678  0.000000  1
  Ir  Ir7  1  0.347893  0.672048  0.000000  1
  Ir  Ir8  1  0.985921  0.985104  0.500000  1
