# generated using pymatgen
data_YbZn2Cu2Ag
_symmetry_space_group_name_H-M   'P 1'
_cell_length_a   5.10757193
_cell_length_b   5.14631943
_cell_length_c   5.10757116
_cell_angle_alpha   59.74873672
_cell_angle_beta   60.32125574
_cell_angle_gamma   59.74872451
_symmetry_Int_Tables_number   1
_chemical_formula_structural   YbZn2Cu2Ag
_chemical_formula_sum   'Yb1 Zn2 Cu2 Ag1'
_cell_volume   94.79511238
_cell_formula_units_Z   1
loop_
 _symmetry_equiv_pos_site_id
 _symmetry_equiv_pos_as_xyz
  1  'x, y, z'
loop_
 _atom_site_type_symbol
 _atom_site_label
 _atom_site_symmetry_multiplicity
 _atom_site_fract_x
 _atom_site_fract_y
 _atom_site_fract_z
 _atom_site_occupancy
  Yb  Yb0  1  0.754640  0.745360  0.754640  1
  Zn  Zn1  1  0.372668  0.881907  0.372668  1
  Zn  Zn2  1  0.372668  0.372756  0.372668  1
  Cu  Cu3  1  0.875717  0.374871  0.374540  1
  Cu  Cu4  1  0.374540  0.374871  0.875717  1
  Ag  Ag5  1  0.999767  0.000233  0.999767  1
