# generated using pymatgen
data_Pr4Nd6Ir3Os
_symmetry_space_group_name_H-M   'P 1'
_cell_length_a   9.01335946
_cell_length_b   8.99370492
_cell_length_c   7.37575564
_cell_angle_alpha   83.63151266
_cell_angle_beta   83.60995953
_cell_angle_gamma   43.69108326
_symmetry_Int_Tables_number   1
_chemical_formula_structural   Pr4Nd6Ir3Os
_chemical_formula_sum   'Pr4 Nd6 Ir3 Os1'
_cell_volume   410.04460510
_cell_formula_units_Z   1
loop_
 _symmetry_equiv_pos_site_id
 _symmetry_equiv_pos_as_xyz
  1  'x, y, z'
loop_
 _atom_site_type_symbol
 _atom_site_label
 _atom_site_symmetry_multiplicity
 _atom_site_fract_x
 _atom_site_fract_y
 _atom_site_fract_z
 _atom_site_occupancy
  Pr  Pr0  1  0.019891  0.794076  0.917542  1
  Pr  Pr1  1  0.203698  0.979763  0.581208  1
  Pr  Pr2  1  0.981338  0.204085  0.080849  1
  Pr  Pr3  1  0.797426  0.016645  0.420126  1
  Nd  Nd4  1  0.349905  0.216479  0.815907  1
  Nd  Nd5  1  0.789889  0.647326  0.682800  1
  Nd  Nd6  1  0.647915  0.786853  0.183515  1
  Nd  Nd7  1  0.213794  0.352614  0.317614  1
  Nd  Nd8  1  0.566301  0.433007  0.749736  1
  Nd  Nd9  1  0.431440  0.567127  0.251688  1
  Ir  Ir10  1  0.403573  0.819977  0.926952  1
  Ir  Ir11  1  0.819584  0.404005  0.425219  1
  Ir  Ir12  1  0.596193  0.179868  0.073857  1
  Os  Os13  1  0.179055  0.598173  0.572987  1
