# generated using pymatgen
data_NbTeF9
_symmetry_space_group_name_H-M   'P 1'
_cell_length_a   5.58245187
_cell_length_b   7.79394767
_cell_length_c   9.77341429
_cell_angle_alpha   103.75846375
_cell_angle_beta   107.12592751
_cell_angle_gamma   88.34129990
_symmetry_Int_Tables_number   1
_chemical_formula_structural   NbTeF9
_chemical_formula_sum   'Nb2 Te2 F18'
_cell_volume   394.33264007
_cell_formula_units_Z   2
loop_
 _symmetry_equiv_pos_site_id
 _symmetry_equiv_pos_as_xyz
  1  'x, y, z'
loop_
 _atom_site_type_symbol
 _atom_site_label
 _atom_site_symmetry_multiplicity
 _atom_site_fract_x
 _atom_site_fract_y
 _atom_site_fract_z
 _atom_site_occupancy
  Nb  Nb0  1  0.432598  0.743725  0.301085  1
  Nb  Nb1  1  0.567402  0.256275  0.698915  1
  Te  Te2  1  0.851023  0.340548  0.161881  1
  Te  Te3  1  0.148977  0.659452  0.838119  1
  F  F4  1  0.110886  0.594718  0.186898  1
  F  F5  1  0.414692  0.495539  0.703806  1
  F  F6  1  0.359290  0.742237  0.476792  1
  F  F7  1  0.758042  0.847469  0.387859  1
  F  F8  1  0.932658  0.643290  0.647243  1
  F  F9  1  0.067342  0.356710  0.352757  1
  F  F10  1  0.470376  0.705071  0.098679  1
  F  F11  1  0.585308  0.504461  0.296194  1
  F  F12  1  0.084020  0.210210  0.076081  1
  F  F13  1  0.300295  0.869342  0.832236  1
  F  F14  1  0.915980  0.789790  0.923919  1
  F  F15  1  0.267674  0.952656  0.276172  1
  F  F16  1  0.529624  0.294929  0.901321  1
  F  F17  1  0.699705  0.130658  0.167764  1
  F  F18  1  0.889114  0.405282  0.813102  1
  F  F19  1  0.732326  0.047344  0.723828  1
  F  F20  1  0.640710  0.257763  0.523208  1
  F  F21  1  0.241958  0.152531  0.612141  1
