# generated using pymatgen
data_Ce2SiP(Rh2Au)2
_symmetry_space_group_name_H-M   'P 1'
_cell_length_a   3.99249000
_cell_length_b   3.99249000
_cell_length_c   11.34790800
_cell_angle_alpha   90.00000000
_cell_angle_beta   90.00000000
_cell_angle_gamma   90.00000000
_symmetry_Int_Tables_number   1
_chemical_formula_structural   Ce2SiP(Rh2Au)2
_chemical_formula_sum   'Ce2 Si1 P1 Rh4 Au2'
_cell_volume   180.88538571
_cell_formula_units_Z   1
loop_
 _symmetry_equiv_pos_site_id
 _symmetry_equiv_pos_as_xyz
  1  'x, y, z'
loop_
 _atom_site_type_symbol
 _atom_site_label
 _atom_site_symmetry_multiplicity
 _atom_site_fract_x
 _atom_site_fract_y
 _atom_site_fract_z
 _atom_site_occupancy
  Ce  Ce0  1  0.500000  0.000000  0.750452  1
  Ce  Ce1  1  0.000000  0.500000  0.252901  1
  Si  Si2  1  0.500000  0.000000  0.115057  1
  P  P3  1  0.000000  0.500000  0.884677  1
  Rh  Rh4  1  0.000000  0.500000  0.683847  1
  Rh  Rh5  1  0.500000  0.000000  0.319116  1
  Rh  Rh6  1  0.000000  0.000000  0.995442  1
  Rh  Rh7  1  0.500000  0.500000  0.995442  1
  Au  Au8  1  0.500000  0.500000  0.501533  1
  Au  Au9  1  0.000000  0.000000  0.501533  1
