# generated using pymatgen
data_Lu2Mn4V2P7Ir6
_symmetry_space_group_name_H-M   'P 1'
_cell_length_a   9.41537057
_cell_length_b   9.42804288
_cell_length_c   3.78825500
_cell_angle_alpha   90.00000000
_cell_angle_beta   90.00000000
_cell_angle_gamma   120.05613044
_symmetry_Int_Tables_number   1
_chemical_formula_structural   Lu2Mn4V2P7Ir6
_chemical_formula_sum   'Lu2 Mn4 V2 P7 Ir6'
_cell_volume   291.06024156
_cell_formula_units_Z   1
loop_
 _symmetry_equiv_pos_site_id
 _symmetry_equiv_pos_as_xyz
  1  'x, y, z'
loop_
 _atom_site_type_symbol
 _atom_site_label
 _atom_site_symmetry_multiplicity
 _atom_site_fract_x
 _atom_site_fract_y
 _atom_site_fract_z
 _atom_site_occupancy
  Lu  Lu0  1  0.667120  0.334332  0.000000  1
  Lu  Lu1  1  0.000004  0.999363  0.500000  1
  Mn  Mn2  1  0.492682  0.940742  0.000000  1
  Mn  Mn3  1  0.063674  0.552854  0.000000  1
  Mn  Mn4  1  0.446501  0.508887  0.000000  1
  Mn  Mn5  1  0.217738  0.457250  0.500000  1
  V  V6  1  0.537819  0.759581  0.500000  1
  V  V7  1  0.236906  0.776963  0.500000  1
  P  P8  1  0.450849  0.062906  0.500000  1
  P  P9  1  0.939049  0.390136  0.500000  1
  P  P10  1  0.611512  0.549399  0.500000  1
  P  P11  1  0.741609  0.962663  0.000000  1
  P  P12  1  0.037499  0.777422  0.000000  1
  P  P13  1  0.222526  0.258214  0.000000  1
  P  P14  1  0.332710  0.666086  0.000000  1
  Ir  Ir15  1  0.765999  0.734943  0.000000  1
  Ir  Ir16  1  0.264666  0.030727  0.000000  1
  Ir  Ir17  1  0.971167  0.236667  0.000000  1
  Ir  Ir18  1  0.720007  0.113032  0.500000  1
  Ir  Ir19  1  0.887697  0.605558  0.500000  1
  Ir  Ir20  1  0.392264  0.282274  0.500000  1
