# generated using pymatgen
data_Dy5Y5Si6H
_symmetry_space_group_name_H-M   'P 1'
_cell_length_a   8.45592004
_cell_length_b   8.45442714
_cell_length_c   6.30734100
_cell_angle_alpha   90.00268493
_cell_angle_beta   89.99865710
_cell_angle_gamma   119.99414804
_symmetry_Int_Tables_number   1
_chemical_formula_structural   Dy5Y5Si6H
_chemical_formula_sum   'Dy5 Y5 Si6 H1'
_cell_volume   390.52388637
_cell_formula_units_Z   1
loop_
 _symmetry_equiv_pos_site_id
 _symmetry_equiv_pos_as_xyz
  1  'x, y, z'
loop_
 _atom_site_type_symbol
 _atom_site_label
 _atom_site_symmetry_multiplicity
 _atom_site_fract_x
 _atom_site_fract_y
 _atom_site_fract_z
 _atom_site_occupancy
  Dy  Dy0  1  0.333313  0.666665  0.499997  1
  Dy  Dy1  1  0.666687  0.333351  0.499997  1
  Dy  Dy2  1  0.666678  0.333349  0.000005  1
  Dy  Dy3  1  0.333322  0.666672  0.000005  1
  Dy  Dy4  1  0.000000  0.752753  0.248049  1
  Y  Y5  1  0.247219  0.247200  0.248020  1
  Y  Y6  1  0.752781  0.999981  0.248020  1
  Y  Y7  1  0.000000  0.247241  0.751968  1
  Y  Y8  1  0.752786  0.752737  0.751979  1
  Y  Y9  1  0.247214  0.999952  0.751979  1
  Si  Si10  1  0.000000  0.391320  0.250419  1
  Si  Si11  1  0.608791  0.608767  0.250435  1
  Si  Si12  1  0.391209  0.999976  0.250435  1
  Si  Si13  1  0.000000  0.608795  0.749583  1
  Si  Si14  1  0.391238  0.391260  0.749569  1
  Si  Si15  1  0.608762  0.000023  0.749569  1
  H  H16  1  0.000000  0.999959  0.499974  1
