# generated using pymatgen
data_PbF10
_symmetry_space_group_name_H-M   'P 1'
_cell_length_a   4.37325047
_cell_length_b   4.37836701
_cell_length_c   11.37751958
_cell_angle_alpha   91.50928479
_cell_angle_beta   81.43745283
_cell_angle_gamma   89.95227335
_symmetry_Int_Tables_number   1
_chemical_formula_structural   PbF10
_chemical_formula_sum   'Pb1 F10'
_cell_volume   215.34784243
_cell_formula_units_Z   1
loop_
 _symmetry_equiv_pos_site_id
 _symmetry_equiv_pos_as_xyz
  1  'x, y, z'
loop_
 _atom_site_type_symbol
 _atom_site_label
 _atom_site_symmetry_multiplicity
 _atom_site_fract_x
 _atom_site_fract_y
 _atom_site_fract_z
 _atom_site_occupancy
  Pb  Pb0  1  0.645637  0.694107  0.283025  1
  F  F1  1  0.318333  0.127081  0.990683  1
  F  F2  1  0.078820  0.168535  0.920116  1
  F  F3  1  0.696805  0.617874  0.820688  1
  F  F4  1  0.066179  0.198011  0.618611  1
  F  F5  1  0.538306  0.689434  0.724013  1
  F  F6  1  0.056590  0.210507  0.494404  1
  F  F7  1  0.573796  0.707207  0.459377  1
  F  F8  1  0.650063  0.193669  0.281419  1
  F  F9  1  0.146070  0.691046  0.281773  1
  F  F10  1  0.715973  0.681427  0.106419  1
