# generated using pymatgen
data_Tb3YAl18(NiIr2)2
_symmetry_space_group_name_H-M   'P 1'
_cell_length_a   7.54517457
_cell_length_b   7.54600725
_cell_length_c   9.43061900
_cell_angle_alpha   90.00000000
_cell_angle_beta   90.00000000
_cell_angle_gamma   119.90940507
_symmetry_Int_Tables_number   1
_chemical_formula_structural   Tb3YAl18(NiIr2)2
_chemical_formula_sum   'Tb3 Y1 Al18 Ni2 Ir4'
_cell_volume   465.42861829
_cell_formula_units_Z   1
loop_
 _symmetry_equiv_pos_site_id
 _symmetry_equiv_pos_as_xyz
  1  'x, y, z'
loop_
 _atom_site_type_symbol
 _atom_site_label
 _atom_site_symmetry_multiplicity
 _atom_site_fract_x
 _atom_site_fract_y
 _atom_site_fract_z
 _atom_site_occupancy
  Tb  Tb0  1  0.994458  0.666554  0.250000  1
  Tb  Tb1  1  0.005587  0.333499  0.750000  1
  Tb  Tb2  1  0.666517  0.994423  0.250000  1
  Y  Y3  1  0.333486  0.005567  0.750000  1
  Al  Al4  1  0.120237  0.120212  0.250000  1
  Al  Al5  1  0.879897  0.879859  0.750000  1
  Al  Al6  1  0.000062  0.331112  0.074692  1
  Al  Al7  1  0.999998  0.668967  0.925417  1
  Al  Al8  1  0.999998  0.668967  0.574583  1
  Al  Al9  1  0.331116  0.000038  0.425342  1
  Al  Al10  1  0.000062  0.331112  0.425308  1
  Al  Al11  1  0.668833  0.999933  0.574588  1
  Al  Al12  1  0.668833  0.999933  0.925412  1
  Al  Al13  1  0.331116  0.000038  0.074658  1
  Al  Al14  1  0.330647  0.330593  0.550560  1
  Al  Al15  1  0.669342  0.669331  0.449357  1
  Al  Al16  1  0.669342  0.669331  0.050643  1
  Al  Al17  1  0.330647  0.330593  0.949440  1
  Al  Al18  1  0.338223  0.545280  0.250000  1
  Al  Al19  1  0.661842  0.454616  0.750000  1
  Al  Al20  1  0.545281  0.338230  0.250000  1
  Al  Al21  1  0.454649  0.661855  0.750000  1
  Ni  Ni22  1  0.999969  0.000006  0.999943  1
  Ni  Ni23  1  0.999969  0.000006  0.500057  1
  Ir  Ir24  1  0.671893  0.328054  0.999876  1
  Ir  Ir25  1  0.328050  0.671920  0.999885  1
  Ir  Ir26  1  0.328050  0.671920  0.500115  1
  Ir  Ir27  1  0.671893  0.328054  0.500124  1
