# generated using pymatgen
data_La2DyTa2Bi3O14
_symmetry_space_group_name_H-M   'P 1'
_cell_length_a   6.68538615
_cell_length_b   6.73729775
_cell_length_c   7.69460200
_cell_angle_alpha   90.00000000
_cell_angle_beta   90.00000000
_cell_angle_gamma   110.95545383
_symmetry_Int_Tables_number   1
_chemical_formula_structural   La2DyTa2Bi3O14
_chemical_formula_sum   'La2 Dy1 Ta2 Bi3 O14'
_cell_volume   323.65297234
_cell_formula_units_Z   1
loop_
 _symmetry_equiv_pos_site_id
 _symmetry_equiv_pos_as_xyz
  1  'x, y, z'
loop_
 _atom_site_type_symbol
 _atom_site_label
 _atom_site_symmetry_multiplicity
 _atom_site_fract_x
 _atom_site_fract_y
 _atom_site_fract_z
 _atom_site_occupancy
  La  La0  1  0.002169  0.986931  0.002655  1
  La  La1  1  0.002169  0.986931  0.497345  1
  Dy  Dy2  1  0.049670  0.503950  0.250000  1
  Ta  Ta3  1  0.501465  0.503348  0.001373  1
  Ta  Ta4  1  0.501465  0.503348  0.498627  1
  Bi  Bi5  1  0.490565  0.965414  0.750000  1
  Bi  Bi6  1  0.525014  0.033769  0.250000  1
  Bi  Bi7  1  0.969813  0.474438  0.750000  1
  O  O8  1  0.862490  0.102003  0.750000  1
  O  O9  1  0.167294  0.862977  0.250000  1
  O  O10  1  0.117870  0.834338  0.750000  1
  O  O11  1  0.907849  0.148277  0.250000  1
  O  O12  1  0.428120  0.195187  0.960492  1
  O  O13  1  0.569959  0.825564  0.464590  1
  O  O14  1  0.175880  0.448501  0.528526  1
  O  O15  1  0.801777  0.559415  0.050105  1
  O  O16  1  0.406862  0.460590  0.250000  1
  O  O17  1  0.543832  0.576356  0.750000  1
  O  O18  1  0.175880  0.448501  0.971474  1
  O  O19  1  0.801777  0.559415  0.449895  1
  O  O20  1  0.428120  0.195187  0.539508  1
  O  O21  1  0.569959  0.825564  0.035410  1
