# generated using pymatgen
data_Li3Eu2Er2AlPt4
_symmetry_space_group_name_H-M   'P 1'
_cell_length_a   4.10490700
_cell_length_b   7.09242498
_cell_length_c   8.45125078
_cell_angle_alpha   90.53293872
_cell_angle_beta   90.00000000
_cell_angle_gamma   90.00000000
_symmetry_Int_Tables_number   1
_chemical_formula_structural   Li3Eu2Er2AlPt4
_chemical_formula_sum   'Li3 Eu2 Er2 Al1 Pt4'
_cell_volume   246.03691595
_cell_formula_units_Z   1
loop_
 _symmetry_equiv_pos_site_id
 _symmetry_equiv_pos_as_xyz
  1  'x, y, z'
loop_
 _atom_site_type_symbol
 _atom_site_label
 _atom_site_symmetry_multiplicity
 _atom_site_fract_x
 _atom_site_fract_y
 _atom_site_fract_z
 _atom_site_occupancy
  Li  Li0  1  0.250000  0.872535  0.937897  1
  Li  Li1  1  0.750000  0.129774  0.052507  1
  Li  Li2  1  0.750000  0.633808  0.444332  1
  Eu  Eu3  1  0.250000  0.458553  0.179614  1
  Eu  Eu4  1  0.250000  0.958679  0.319184  1
  Er  Er5  1  0.750000  0.541027  0.817274  1
  Er  Er6  1  0.750000  0.036400  0.685146  1
  Al  Al7  1  0.250000  0.371144  0.563774  1
  Pt  Pt8  1  0.250000  0.731474  0.631057  1
  Pt  Pt9  1  0.750000  0.264618  0.408814  1
  Pt  Pt10  1  0.750000  0.754300  0.106436  1
  Pt  Pt11  1  0.250000  0.247686  0.853965  1
