# generated using pymatgen
data_YbMnSiO4
_symmetry_space_group_name_H-M   'P 1'
_cell_length_a   4.97088400
_cell_length_b   6.53686500
_cell_length_c   11.09121400
_cell_angle_alpha   90.00000000
_cell_angle_beta   90.00000000
_cell_angle_gamma   90.00000000
_symmetry_Int_Tables_number   1
_chemical_formula_structural   YbMnSiO4
_chemical_formula_sum   'Yb4 Mn4 Si4 O16'
_cell_volume   360.39788153
_cell_formula_units_Z   4
loop_
 _symmetry_equiv_pos_site_id
 _symmetry_equiv_pos_as_xyz
  1  'x, y, z'
loop_
 _atom_site_type_symbol
 _atom_site_label
 _atom_site_symmetry_multiplicity
 _atom_site_fract_x
 _atom_site_fract_y
 _atom_site_fract_z
 _atom_site_occupancy
  Yb  Yb0  1  0.019325  0.750000  0.723158  1
  Yb  Yb1  1  0.980675  0.250000  0.276842  1
  Yb  Yb2  1  0.519325  0.250000  0.776842  1
  Yb  Yb3  1  0.480675  0.750000  0.223158  1
  Mn  Mn4  1  0.500000  0.500000  0.500000  1
  Mn  Mn5  1  0.000000  0.500000  0.000000  1
  Mn  Mn6  1  0.500000  0.000000  0.500000  1
  Mn  Mn7  1  0.000000  0.000000  0.000000  1
  Si  Si8  1  0.582954  0.750000  0.911043  1
  Si  Si9  1  0.417046  0.250000  0.088957  1
  Si  Si10  1  0.082954  0.250000  0.588957  1
  Si  Si11  1  0.917046  0.750000  0.411043  1
  O  O12  1  0.717586  0.548608  0.843171  1
  O  O13  1  0.282414  0.451392  0.156829  1
  O  O14  1  0.217586  0.451392  0.656829  1
  O  O15  1  0.282414  0.048608  0.156829  1
  O  O16  1  0.782414  0.548608  0.343171  1
  O  O17  1  0.717586  0.951392  0.843171  1
  O  O18  1  0.782414  0.951392  0.343171  1
  O  O19  1  0.217586  0.048608  0.656829  1
  O  O20  1  0.774990  0.750000  0.547982  1
  O  O21  1  0.225010  0.250000  0.452018  1
  O  O22  1  0.274990  0.250000  0.952018  1
  O  O23  1  0.725010  0.750000  0.047982  1
  O  O24  1  0.253147  0.750000  0.913673  1
  O  O25  1  0.746853  0.250000  0.086327  1
  O  O26  1  0.753147  0.250000  0.586327  1
  O  O27  1  0.246853  0.750000  0.413673  1
