# generated using pymatgen
data_Tm2PaCoSn3Ir2
_symmetry_space_group_name_H-M   'P 1'
_cell_length_a   7.46482445
_cell_length_b   7.53722245
_cell_length_c   3.80772000
_cell_angle_alpha   90.00000000
_cell_angle_beta   90.00000000
_cell_angle_gamma   120.32135905
_symmetry_Int_Tables_number   1
_chemical_formula_structural   Tm2PaCoSn3Ir2
_chemical_formula_sum   'Tm2 Pa1 Co1 Sn3 Ir2'
_cell_volume   184.93158707
_cell_formula_units_Z   1
loop_
 _symmetry_equiv_pos_site_id
 _symmetry_equiv_pos_as_xyz
  1  'x, y, z'
loop_
 _atom_site_type_symbol
 _atom_site_label
 _atom_site_symmetry_multiplicity
 _atom_site_fract_x
 _atom_site_fract_y
 _atom_site_fract_z
 _atom_site_occupancy
  Tm  Tm0  1  0.595898  0.594704  0.500000  1
  Tm  Tm1  1  0.404102  0.998807  0.500000  1
  Pa  Pa2  1  0.000000  0.411145  0.500000  1
  Co  Co3  1  0.000000  0.014952  0.500000  1
  Sn  Sn4  1  0.000000  0.762576  0.000000  1
  Sn  Sn5  1  0.263195  0.250227  0.000000  1
  Sn  Sn6  1  0.736805  0.987032  0.000000  1
  Ir  Ir7  1  0.309179  0.644869  0.000000  1
  Ir  Ir8  1  0.690821  0.335690  0.000000  1
