# generated using pymatgen
data_Tb16Ni3Hg4Ru
_symmetry_space_group_name_H-M   'P 1'
_cell_length_a   9.59140744
_cell_length_b   9.59140884
_cell_length_c   9.59140802
_cell_angle_alpha   59.77290935
_cell_angle_beta   59.77290957
_cell_angle_gamma   59.77291025
_symmetry_Int_Tables_number   1
_chemical_formula_structural   Tb16Ni3Hg4Ru
_chemical_formula_sum   'Tb16 Ni3 Hg4 Ru1'
_cell_volume   620.70764326
_cell_formula_units_Z   1
loop_
 _symmetry_equiv_pos_site_id
 _symmetry_equiv_pos_as_xyz
  1  'x, y, z'
loop_
 _atom_site_type_symbol
 _atom_site_label
 _atom_site_symmetry_multiplicity
 _atom_site_fract_x
 _atom_site_fract_y
 _atom_site_fract_z
 _atom_site_occupancy
  Tb  Tb0  1  0.348430  0.348430  0.348430  1
  Tb  Tb1  1  0.352291  0.352291  0.948898  1
  Tb  Tb2  1  0.352291  0.948898  0.352291  1
  Tb  Tb3  1  0.948898  0.352291  0.352291  1
  Tb  Tb4  1  0.810797  0.188676  0.188676  1
  Tb  Tb5  1  0.187852  0.810652  0.810652  1
  Tb  Tb6  1  0.188676  0.810797  0.188676  1
  Tb  Tb7  1  0.810652  0.187852  0.810652  1
  Tb  Tb8  1  0.188676  0.188676  0.810797  1
  Tb  Tb9  1  0.810652  0.810652  0.187852  1
  Tb  Tb10  1  0.937007  0.564932  0.564932  1
  Tb  Tb11  1  0.558601  0.938341  0.938341  1
  Tb  Tb12  1  0.564932  0.937007  0.564932  1
  Tb  Tb13  1  0.938341  0.558601  0.938341  1
  Tb  Tb14  1  0.564932  0.564932  0.937007  1
  Tb  Tb15  1  0.938341  0.938341  0.558601  1
  Ni  Ni16  1  0.142436  0.142436  0.573995  1
  Ni  Ni17  1  0.142436  0.573995  0.142436  1
  Ni  Ni18  1  0.573995  0.142436  0.142436  1
  Hg  Hg19  1  0.584071  0.584071  0.584071  1
  Hg  Hg20  1  0.583950  0.583950  0.244463  1
  Hg  Hg21  1  0.583950  0.244463  0.583950  1
  Hg  Hg22  1  0.244463  0.583950  0.583950  1
  Ru  Ru23  1  0.143328  0.143328  0.143328  1
