# generated using pymatgen
data_Yb3SmNi2(OsO6)2
_symmetry_space_group_name_H-M   'P 1'
_cell_length_a   5.33949255
_cell_length_b   5.64266409
_cell_length_c   7.65754254
_cell_angle_alpha   89.99311651
_cell_angle_beta   90.51833493
_cell_angle_gamma   90.17430990
_symmetry_Int_Tables_number   1
_chemical_formula_structural   Yb3SmNi2(OsO6)2
_chemical_formula_sum   'Yb3 Sm1 Ni2 Os2 O12'
_cell_volume   230.70330538
_cell_formula_units_Z   1
loop_
 _symmetry_equiv_pos_site_id
 _symmetry_equiv_pos_as_xyz
  1  'x, y, z'
loop_
 _atom_site_type_symbol
 _atom_site_label
 _atom_site_symmetry_multiplicity
 _atom_site_fract_x
 _atom_site_fract_y
 _atom_site_fract_z
 _atom_site_occupancy
  Yb  Yb0  1  0.521429  0.568010  0.248536  1
  Yb  Yb1  1  0.019176  0.931455  0.748221  1
  Yb  Yb2  1  0.478859  0.430815  0.752157  1
  Sm  Sm3  1  0.981540  0.068356  0.251397  1
  Ni  Ni4  1  0.497749  0.999817  0.996364  1
  Ni  Ni5  1  0.000923  0.503910  0.503280  1
  Os  Os6  1  0.498960  0.998285  0.504978  1
  Os  Os7  1  0.000897  0.502329  0.995806  1
  O  O8  1  0.686835  0.289305  0.443496  1
  O  O9  1  0.814078  0.793865  0.052792  1
  O  O10  1  0.317560  0.706877  0.556712  1
  O  O11  1  0.181011  0.205369  0.947058  1
  O  O12  1  0.199033  0.188709  0.549615  1
  O  O13  1  0.297435  0.690648  0.946694  1
  O  O14  1  0.799165  0.807771  0.450092  1
  O  O15  1  0.704382  0.308183  0.053060  1
  O  O16  1  0.104533  0.471023  0.243689  1
  O  O17  1  0.398677  0.964981  0.255736  1
  O  O18  1  0.604948  0.035801  0.744305  1
  O  O19  1  0.892803  0.534490  0.756010  1
