# generated using pymatgen
data_Pa2Co2Bi
_symmetry_space_group_name_H-M   'P 1'
_cell_length_a   7.49012200
_cell_length_b   7.49012200
_cell_length_c   3.53486100
_cell_angle_alpha   90.00000000
_cell_angle_beta   90.00000000
_cell_angle_gamma   90.00000000
_symmetry_Int_Tables_number   1
_chemical_formula_structural   Pa2Co2Bi
_chemical_formula_sum   'Pa4 Co4 Bi2'
_cell_volume   198.31251581
_cell_formula_units_Z   2
loop_
 _symmetry_equiv_pos_site_id
 _symmetry_equiv_pos_as_xyz
  1  'x, y, z'
loop_
 _atom_site_type_symbol
 _atom_site_label
 _atom_site_symmetry_multiplicity
 _atom_site_fract_x
 _atom_site_fract_y
 _atom_site_fract_z
 _atom_site_occupancy
  Pa  Pa0  1  0.334710  0.834710  0.500000  1
  Pa  Pa1  1  0.665290  0.165290  0.500000  1
  Pa  Pa2  1  0.165290  0.334710  0.500000  1
  Pa  Pa3  1  0.834710  0.665290  0.500000  1
  Co  Co4  1  0.872075  0.372075  0.000000  1
  Co  Co5  1  0.627925  0.872075  0.000000  1
  Co  Co6  1  0.372075  0.127925  0.000000  1
  Co  Co7  1  0.127925  0.627925  0.000000  1
  Bi  Bi8  1  0.500000  0.500000  0.000000  1
  Bi  Bi9  1  0.000000  0.000000  0.000000  1
