# generated using pymatgen
data_Yb20Pt5Au11
_symmetry_space_group_name_H-M   'P 1'
_cell_length_a   7.67538342
_cell_length_b   7.75592365
_cell_length_c   14.91006300
_cell_angle_alpha   90.00000000
_cell_angle_beta   90.00000000
_cell_angle_gamma   89.77004294
_symmetry_Int_Tables_number   1
_chemical_formula_structural   Yb20Pt5Au11
_chemical_formula_sum   'Yb20 Pt5 Au11'
_cell_volume   887.58424677
_cell_formula_units_Z   1
loop_
 _symmetry_equiv_pos_site_id
 _symmetry_equiv_pos_as_xyz
  1  'x, y, z'
loop_
 _atom_site_type_symbol
 _atom_site_label
 _atom_site_symmetry_multiplicity
 _atom_site_fract_x
 _atom_site_fract_y
 _atom_site_fract_z
 _atom_site_occupancy
  Yb  Yb0  1  0.028248  0.180411  0.394886  1
  Yb  Yb1  1  0.867675  0.657222  0.377234  1
  Yb  Yb2  1  0.528637  0.319979  0.105829  1
  Yb  Yb3  1  0.139628  0.344022  0.625867  1
  Yb  Yb4  1  0.368671  0.842775  0.377463  1
  Yb  Yb5  1  0.139628  0.344022  0.874133  1
  Yb  Yb6  1  0.368671  0.842775  0.122537  1
  Yb  Yb7  1  0.200335  0.486184  0.250000  1
  Yb  Yb8  1  0.528637  0.319979  0.394171  1
  Yb  Yb9  1  0.793480  0.510112  0.750000  1
  Yb  Yb10  1  0.970839  0.820132  0.892402  1
  Yb  Yb11  1  0.970839  0.820132  0.607598  1
  Yb  Yb12  1  0.469575  0.672415  0.610273  1
  Yb  Yb13  1  0.625697  0.162946  0.625298  1
  Yb  Yb14  1  0.301445  0.991617  0.750000  1
  Yb  Yb15  1  0.625697  0.162946  0.874702  1
  Yb  Yb16  1  0.700596  0.013336  0.250000  1
  Yb  Yb17  1  0.867675  0.657222  0.122766  1
  Yb  Yb18  1  0.469575  0.672415  0.889727  1
  Yb  Yb19  1  0.028248  0.180411  0.105114  1
  Pt  Pt20  1  0.834909  0.361106  0.250000  1
  Pt  Pt21  1  0.431573  0.380313  0.750000  1
  Pt  Pt22  1  0.666380  0.861569  0.750000  1
  Pt  Pt23  1  0.166578  0.641097  0.750000  1
  Pt  Pt24  1  0.334563  0.138041  0.250000  1
  Au  Au25  1  0.797316  0.471259  0.545369  1
  Au  Au26  1  0.705583  0.974228  0.045160  1
  Au  Au27  1  0.797316  0.471259  0.954631  1
  Au  Au28  1  0.205638  0.527597  0.454398  1
  Au  Au29  1  0.205638  0.527597  0.045602  1
  Au  Au30  1  0.568336  0.618403  0.250000  1
  Au  Au31  1  0.068333  0.881629  0.250000  1
  Au  Au32  1  0.293609  0.026102  0.954583  1
  Au  Au33  1  0.931246  0.118415  0.750000  1
  Au  Au34  1  0.705583  0.974228  0.454840  1
  Au  Au35  1  0.293609  0.026102  0.545417  1
