# generated using pymatgen
data_Tb8CeNi2Hg
_symmetry_space_group_name_H-M   'P 1'
_cell_length_a   9.66429488
_cell_length_b   9.66429585
_cell_length_c   9.74900900
_cell_angle_alpha   59.70961431
_cell_angle_beta   59.70961094
_cell_angle_gamma   59.27916664
_symmetry_Int_Tables_number   1
_chemical_formula_structural   Tb8CeNi2Hg
_chemical_formula_sum   'Tb16 Ce2 Ni4 Hg2'
_cell_volume   637.47693098
_cell_formula_units_Z   2
loop_
 _symmetry_equiv_pos_site_id
 _symmetry_equiv_pos_as_xyz
  1  'x, y, z'
loop_
 _atom_site_type_symbol
 _atom_site_label
 _atom_site_symmetry_multiplicity
 _atom_site_fract_x
 _atom_site_fract_y
 _atom_site_fract_z
 _atom_site_occupancy
  Tb  Tb0  1  0.344800  0.344800  0.353120  1
  Tb  Tb1  1  0.344800  0.344800  0.957278  1
  Tb  Tb2  1  0.341432  0.971028  0.343770  1
  Tb  Tb3  1  0.971028  0.341432  0.343770  1
  Tb  Tb4  1  0.815299  0.186095  0.184480  1
  Tb  Tb5  1  0.186095  0.815299  0.814125  1
  Tb  Tb6  1  0.186095  0.815299  0.184480  1
  Tb  Tb7  1  0.815299  0.186095  0.814125  1
  Tb  Tb8  1  0.194858  0.194858  0.805142  1
  Tb  Tb9  1  0.817068  0.817068  0.182932  1
  Tb  Tb10  1  0.934405  0.563410  0.563783  1
  Tb  Tb11  1  0.563410  0.934405  0.938402  1
  Tb  Tb12  1  0.563410  0.934405  0.563783  1
  Tb  Tb13  1  0.934405  0.563410  0.938402  1
  Tb  Tb14  1  0.562371  0.562371  0.937629  1
  Tb  Tb15  1  0.935403  0.935403  0.564597  1
  Ce  Ce16  1  0.582219  0.582219  0.568429  1
  Ce  Ce17  1  0.582219  0.582219  0.267133  1
  Ni  Ni18  1  0.142082  0.142082  0.138233  1
  Ni  Ni19  1  0.142082  0.142082  0.577605  1
  Ni  Ni20  1  0.147363  0.570989  0.140824  1
  Ni  Ni21  1  0.570989  0.147363  0.140824  1
  Hg  Hg22  1  0.586892  0.235976  0.588566  1
  Hg  Hg23  1  0.235976  0.586892  0.588566  1
