# generated using pymatgen
data_InNi5P
_symmetry_space_group_name_H-M   'P 1'
_cell_length_a   3.69405500
_cell_length_b   3.69405500
_cell_length_c   6.41649400
_cell_angle_alpha   90.00000000
_cell_angle_beta   90.00000000
_cell_angle_gamma   90.00000000
_symmetry_Int_Tables_number   1
_chemical_formula_structural   InNi5P
_chemical_formula_sum   'In1 Ni5 P1'
_cell_volume   87.55974882
_cell_formula_units_Z   1
loop_
 _symmetry_equiv_pos_site_id
 _symmetry_equiv_pos_as_xyz
  1  'x, y, z'
loop_
 _atom_site_type_symbol
 _atom_site_label
 _atom_site_symmetry_multiplicity
 _atom_site_fract_x
 _atom_site_fract_y
 _atom_site_fract_z
 _atom_site_occupancy
  In  In0  1  0.500000  0.500000  0.000000  1
  Ni  Ni1  1  0.000000  0.500000  0.301791  1
  Ni  Ni2  1  0.000000  0.500000  0.698209  1
  Ni  Ni3  1  0.500000  0.000000  0.301791  1
  Ni  Ni4  1  0.500000  0.000000  0.698209  1
  Ni  Ni5  1  0.000000  0.000000  0.000000  1
  P  P6  1  0.000000  0.000000  0.500000  1
