# generated using pymatgen
data_TbTh3Al3(Ga5Ir2)3
_symmetry_space_group_name_H-M   'P 1'
_cell_length_a   7.68589737
_cell_length_b   7.69265410
_cell_length_c   9.50818604
_cell_angle_alpha   89.96834770
_cell_angle_beta   89.95662034
_cell_angle_gamma   119.72537041
_symmetry_Int_Tables_number   1
_chemical_formula_structural   TbTh3Al3(Ga5Ir2)3
_chemical_formula_sum   'Tb1 Th3 Al3 Ga15 Ir6'
_cell_volume   488.19566827
_cell_formula_units_Z   1
loop_
 _symmetry_equiv_pos_site_id
 _symmetry_equiv_pos_as_xyz
  1  'x, y, z'
loop_
 _atom_site_type_symbol
 _atom_site_label
 _atom_site_symmetry_multiplicity
 _atom_site_fract_x
 _atom_site_fract_y
 _atom_site_fract_z
 _atom_site_occupancy
  Tb  Tb0  1  0.329159  0.002885  0.749104  1
  Th  Th1  1  0.997904  0.670317  0.249899  1
  Th  Th2  1  0.001328  0.330291  0.748943  1
  Th  Th3  1  0.669836  0.997351  0.249877  1
  Al  Al4  1  0.661722  0.661698  0.450775  1
  Al  Al5  1  0.664755  0.664621  0.049720  1
  Al  Al6  1  0.335055  0.331622  0.946291  1
  Ga  Ga7  1  0.135620  0.132832  0.249687  1
  Ga  Ga8  1  0.871397  0.869501  0.749745  1
  Ga  Ga9  1  0.004357  0.335195  0.078521  1
  Ga  Ga10  1  0.001740  0.670182  0.918667  1
  Ga  Ga11  1  0.001271  0.670444  0.581456  1
  Ga  Ga12  1  0.335231  0.003986  0.425246  1
  Ga  Ga13  1  0.005325  0.335417  0.419519  1
  Ga  Ga14  1  0.659439  0.996127  0.581502  1
  Ga  Ga15  1  0.659620  0.996756  0.918682  1
  Ga  Ga16  1  0.335145  0.003018  0.072835  1
  Ga  Ga17  1  0.333477  0.329205  0.564549  1
  Ga  Ga18  1  0.349036  0.546244  0.250016  1
  Ga  Ga19  1  0.652270  0.449083  0.750097  1
  Ga  Ga20  1  0.546044  0.345976  0.250025  1
  Ga  Ga21  1  0.453379  0.658854  0.750028  1
  Ir  Ir22  1  0.672099  0.331764  0.000123  1
  Ir  Ir23  1  0.329137  0.667481  0.000178  1
  Ir  Ir24  1  0.328900  0.670696  0.498615  1
  Ir  Ir25  1  0.675686  0.331799  0.498616  1
  Ir  Ir26  1  0.998035  0.000508  0.000399  1
  Ir  Ir27  1  0.993032  0.996148  0.496888  1
