# generated using pymatgen
data_ErThCoNi7B2
_symmetry_space_group_name_H-M   'P 1'
_cell_length_a   4.95196800
_cell_length_b   4.97254761
_cell_length_c   6.97860300
_cell_angle_alpha   90.00000000
_cell_angle_beta   90.00000000
_cell_angle_gamma   119.86318892
_symmetry_Int_Tables_number   1
_chemical_formula_structural   ErThCoNi7B2
_chemical_formula_sum   'Er1 Th1 Co1 Ni7 B2'
_cell_volume   149.02288693
_cell_formula_units_Z   1
loop_
 _symmetry_equiv_pos_site_id
 _symmetry_equiv_pos_as_xyz
  1  'x, y, z'
loop_
 _atom_site_type_symbol
 _atom_site_label
 _atom_site_symmetry_multiplicity
 _atom_site_fract_x
 _atom_site_fract_y
 _atom_site_fract_z
 _atom_site_occupancy
  Er  Er0  1  0.000000  0.000000  0.498509  1
  Th  Th1  1  0.000000  0.000000  0.003379  1
  Co  Co2  1  0.500000  0.000000  0.297531  1
  Ni  Ni3  1  0.334539  0.669078  0.000068  1
  Ni  Ni4  1  0.665461  0.330922  0.000068  1
  Ni  Ni5  1  0.500000  0.500000  0.294099  1
  Ni  Ni6  1  0.000000  0.500000  0.294099  1
  Ni  Ni7  1  0.500000  0.000000  0.705548  1
  Ni  Ni8  1  0.500000  0.500000  0.705082  1
  Ni  Ni9  1  0.000000  0.500000  0.705082  1
  B  B10  1  0.664344  0.328687  0.498267  1
  B  B11  1  0.335656  0.671313  0.498267  1
