# generated using pymatgen
data_Tb3DyGa4Ir3Pt
_symmetry_space_group_name_H-M   'P 1'
_cell_length_a   4.38786700
_cell_length_b   6.85414495
_cell_length_c   7.77897387
_cell_angle_alpha   89.91268563
_cell_angle_beta   90.00000000
_cell_angle_gamma   90.00000000
_symmetry_Int_Tables_number   1
_chemical_formula_structural   Tb3DyGa4Ir3Pt
_chemical_formula_sum   'Tb3 Dy1 Ga4 Ir3 Pt1'
_cell_volume   233.95296213
_cell_formula_units_Z   1
loop_
 _symmetry_equiv_pos_site_id
 _symmetry_equiv_pos_as_xyz
  1  'x, y, z'
loop_
 _atom_site_type_symbol
 _atom_site_label
 _atom_site_symmetry_multiplicity
 _atom_site_fract_x
 _atom_site_fract_y
 _atom_site_fract_z
 _atom_site_occupancy
  Tb  Tb0  1  0.250000  0.973989  0.308351  1
  Tb  Tb1  1  0.250000  0.479242  0.188056  1
  Tb  Tb2  1  0.750000  0.019349  0.695346  1
  Dy  Dy3  1  0.750000  0.521721  0.809042  1
  Ga  Ga4  1  0.250000  0.343061  0.573456  1
  Ga  Ga5  1  0.250000  0.839921  0.928202  1
  Ga  Ga6  1  0.750000  0.663682  0.428945  1
  Ga  Ga7  1  0.750000  0.158483  0.068441  1
  Ir  Ir8  1  0.250000  0.230488  0.893149  1
  Ir  Ir9  1  0.250000  0.729124  0.606634  1
  Ir  Ir10  1  0.750000  0.769789  0.106337  1
  Pt  Pt11  1  0.750000  0.271151  0.394039  1
