# generated using pymatgen
data_Sr2Nd2Si10NiPt5
_symmetry_space_group_name_H-M   'P 1'
_cell_length_a   8.31319084
_cell_length_b   8.32541547
_cell_length_c   8.32541600
_cell_angle_alpha   137.63054031
_cell_angle_beta   105.02635204
_cell_angle_gamma   90.13213337
_symmetry_Int_Tables_number   1
_chemical_formula_structural   Sr2Nd2Si10NiPt5
_chemical_formula_sum   'Sr2 Nd2 Si10 Ni1 Pt5'
_cell_volume   358.01358589
_cell_formula_units_Z   1
loop_
 _symmetry_equiv_pos_site_id
 _symmetry_equiv_pos_as_xyz
  1  'x, y, z'
loop_
 _atom_site_type_symbol
 _atom_site_label
 _atom_site_symmetry_multiplicity
 _atom_site_fract_x
 _atom_site_fract_y
 _atom_site_fract_z
 _atom_site_occupancy
  Sr  Sr0  1  0.634929  0.867205  0.761430  1
  Sr  Sr1  1  0.365071  0.126500  0.232276  1
  Nd  Nd2  1  0.106585  0.373753  0.735675  1
  Nd  Nd3  1  0.893415  0.629090  0.267169  1
  Si  Si4  1  0.272237  0.023570  0.750869  1
  Si  Si5  1  0.727974  0.976444  0.249385  1
  Si  Si6  1  0.727763  0.478632  0.751333  1
  Si  Si7  1  0.272026  0.521410  0.248469  1
  Si  Si8  1  0.461055  0.597688  0.842707  1
  Si  Si9  1  0.538945  0.381652  0.136632  1
  Si  Si10  1  0.753548  0.120308  0.655538  1
  Si  Si11  1  0.246452  0.901990  0.366759  1
  Si  Si12  1  0.000000  0.751773  0.751773  1
  Si  Si13  1  0.000000  0.247163  0.247163  1
  Ni  Ni14  1  0.500000  0.256433  0.756433  1
  Pt  Pt15  1  0.245258  0.633792  0.608545  1
  Pt  Pt16  1  0.754742  0.363287  0.388534  1
  Pt  Pt17  1  0.022592  0.137907  0.886114  1
  Pt  Pt18  1  0.977408  0.863521  0.115315  1
  Pt  Pt19  1  0.500000  0.747882  0.247882  1
