# generated using pymatgen
data_LuCo3TcSn6
_symmetry_space_group_name_H-M   'P 1'
_cell_length_a   6.67937623
_cell_length_b   6.73517874
_cell_length_c   6.81028225
_cell_angle_alpha   120.34361303
_cell_angle_beta   120.03511790
_cell_angle_gamma   88.86994326
_symmetry_Int_Tables_number   1
_chemical_formula_structural   LuCo3TcSn6
_chemical_formula_sum   'Lu1 Co3 Tc1 Sn6'
_cell_volume   217.46904486
_cell_formula_units_Z   1
loop_
 _symmetry_equiv_pos_site_id
 _symmetry_equiv_pos_as_xyz
  1  'x, y, z'
loop_
 _atom_site_type_symbol
 _atom_site_label
 _atom_site_symmetry_multiplicity
 _atom_site_fract_x
 _atom_site_fract_y
 _atom_site_fract_z
 _atom_site_occupancy
  Lu  Lu0  1  0.994240  0.014053  0.999839  1
  Co  Co1  1  0.265188  0.590220  0.000102  1
  Co  Co2  1  0.753519  0.752080  0.359256  1
  Co  Co3  1  0.394293  0.392794  0.640925  1
  Tc  Tc4  1  0.595608  0.259313  0.000123  1
  Sn  Sn5  1  0.887238  0.542171  0.000286  1
  Sn  Sn6  1  0.537907  0.870257  0.999850  1
  Sn  Sn7  1  0.465339  0.468770  0.355996  1
  Sn  Sn8  1  0.492484  0.992185  0.487121  1
  Sn  Sn9  1  0.005399  0.505257  0.512609  1
  Sn  Sn10  1  0.108785  0.112902  0.643895  1
