# generated using pymatgen
data_Ac6As5S
_symmetry_space_group_name_H-M   'P 1'
_cell_length_a   4.52034491
_cell_length_b   11.05278327
_cell_length_c   9.04056486
_cell_angle_alpha   90.01773040
_cell_angle_beta   59.90185543
_cell_angle_gamma   90.00895644
_symmetry_Int_Tables_number   1
_chemical_formula_structural   Ac6As5S
_chemical_formula_sum   'Ac6 As5 S1'
_cell_volume   390.78604829
_cell_formula_units_Z   1
loop_
 _symmetry_equiv_pos_site_id
 _symmetry_equiv_pos_as_xyz
  1  'x, y, z'
loop_
 _atom_site_type_symbol
 _atom_site_label
 _atom_site_symmetry_multiplicity
 _atom_site_fract_x
 _atom_site_fract_y
 _atom_site_fract_z
 _atom_site_occupancy
  Ac  Ac0  1  0.937222  0.897839  0.656545  1
  Ac  Ac1  1  0.273220  0.232079  0.321734  1
  Ac  Ac2  1  0.605654  0.564972  0.988988  1
  Ac  Ac3  1  0.273996  0.233046  0.820840  1
  Ac  Ac4  1  0.605595  0.564981  0.488968  1
  Ac  Ac5  1  0.936484  0.896956  0.157407  1
  As  As6  1  0.272268  0.734635  0.321501  1
  As  As7  1  0.938463  0.395335  0.656573  1
  As  As8  1  0.604845  0.064979  0.489282  1
  As  As9  1  0.941093  0.395377  0.153945  1
  As  As10  1  0.269717  0.734553  0.824142  1
  S  S11  1  0.604951  0.064978  0.989167  1
