# generated using pymatgen
data_TbNd2Ga4Pd7
_symmetry_space_group_name_H-M   'P 1'
_cell_length_a   8.18184790
_cell_length_b   8.18184840
_cell_length_c   9.72799271
_cell_angle_alpha   56.18353662
_cell_angle_beta   56.18353621
_cell_angle_gamma   29.43820578
_symmetry_Int_Tables_number   1
_chemical_formula_structural   TbNd2Ga4Pd7
_chemical_formula_sum   'Tb1 Nd2 Ga4 Pd7'
_cell_volume   261.76690086
_cell_formula_units_Z   1
loop_
 _symmetry_equiv_pos_site_id
 _symmetry_equiv_pos_as_xyz
  1  'x, y, z'
loop_
 _atom_site_type_symbol
 _atom_site_label
 _atom_site_symmetry_multiplicity
 _atom_site_fract_x
 _atom_site_fract_y
 _atom_site_fract_z
 _atom_site_occupancy
  Tb  Tb0  1  0.327563  0.327563  0.666294  1
  Nd  Nd1  1  0.673178  0.673178  0.332268  1
  Nd  Nd2  1  0.000311  0.000311  0.998277  1
  Ga  Ga3  1  0.337744  0.337744  0.270748  1
  Ga  Ga4  1  0.663944  0.663944  0.728656  1
  Ga  Ga5  1  0.885978  0.885978  0.834363  1
  Ga  Ga6  1  0.113158  0.113158  0.163231  1
  Pd  Pd7  1  0.308641  0.308641  0.035294  1
  Pd  Pd8  1  0.691968  0.691968  0.961908  1
  Pd  Pd9  1  0.505844  0.505844  0.714303  1
  Pd  Pd10  1  0.837389  0.837389  0.427247  1
  Pd  Pd11  1  0.492840  0.492840  0.288195  1
  Pd  Pd12  1  0.164034  0.164034  0.576694  1
  Pd  Pd13  1  0.997407  0.997407  0.502521  1
