# generated using pymatgen
data_HoTm3(B4Mo)4
_symmetry_space_group_name_H-M   'P 1'
_cell_length_a   3.60303300
_cell_length_b   6.00244417
_cell_length_c   11.60029033
_cell_angle_alpha   90.02719974
_cell_angle_beta   90.00000000
_cell_angle_gamma   90.00000000
_symmetry_Int_Tables_number   1
_chemical_formula_structural   HoTm3(B4Mo)4
_chemical_formula_sum   'Ho1 Tm3 B16 Mo4'
_cell_volume   250.87950192
_cell_formula_units_Z   1
loop_
 _symmetry_equiv_pos_site_id
 _symmetry_equiv_pos_as_xyz
  1  'x, y, z'
loop_
 _atom_site_type_symbol
 _atom_site_label
 _atom_site_symmetry_multiplicity
 _atom_site_fract_x
 _atom_site_fract_y
 _atom_site_fract_z
 _atom_site_occupancy
  Ho  Ho0  1  0.000000  0.872965  0.850219  1
  Tm  Tm1  1  0.000000  0.627068  0.350402  1
  Tm  Tm2  1  0.000000  0.372858  0.649574  1
  Tm  Tm3  1  0.000000  0.127165  0.149726  1
  B  B4  1  0.500000  0.787773  0.186857  1
  B  B5  1  0.500000  0.213040  0.813225  1
  B  B6  1  0.500000  0.287654  0.313334  1
  B  B7  1  0.500000  0.712067  0.686389  1
  B  B8  1  0.500000  0.867677  0.032199  1
  B  B9  1  0.500000  0.132700  0.968375  1
  B  B10  1  0.500000  0.367673  0.468062  1
  B  B11  1  0.500000  0.632154  0.531773  1
  B  B12  1  0.500000  0.885116  0.451973  1
  B  B13  1  0.500000  0.115145  0.547773  1
  B  B14  1  0.500000  0.384841  0.048045  1
  B  B15  1  0.500000  0.614213  0.952385  1
  B  B16  1  0.500000  0.976064  0.305833  1
  B  B17  1  0.500000  0.024482  0.693763  1
  B  B18  1  0.500000  0.475911  0.194297  1
  B  B19  1  0.500000  0.523520  0.805841  1
  Mo  Mo20  1  0.000000  0.630186  0.084495  1
  Mo  Mo21  1  0.000000  0.369593  0.915901  1
  Mo  Mo22  1  0.000000  0.130499  0.415681  1
  Mo  Mo23  1  0.000000  0.869637  0.583878  1
