# generated using pymatgen
data_Er8Si16RuW11
_symmetry_space_group_name_H-M   'P 1'
_cell_length_a   6.85263024
_cell_length_b   6.83949938
_cell_length_c   12.73386867
_cell_angle_alpha   89.92363102
_cell_angle_beta   89.81950865
_cell_angle_gamma   89.96635031
_symmetry_Int_Tables_number   1
_chemical_formula_structural   Er8Si16RuW11
_chemical_formula_sum   'Er8 Si16 Ru1 W11'
_cell_volume   596.81449829
_cell_formula_units_Z   1
loop_
 _symmetry_equiv_pos_site_id
 _symmetry_equiv_pos_as_xyz
  1  'x, y, z'
loop_
 _atom_site_type_symbol
 _atom_site_label
 _atom_site_symmetry_multiplicity
 _atom_site_fract_x
 _atom_site_fract_y
 _atom_site_fract_z
 _atom_site_occupancy
  Er  Er0  1  0.341306  0.998447  0.469372  1
  Er  Er1  1  0.506123  0.838660  0.718942  1
  Er  Er2  1  0.495578  0.164956  0.219564  1
  Er  Er3  1  0.836018  0.505146  0.281490  1
  Er  Er4  1  0.162769  0.496524  0.780143  1
  Er  Er5  1  0.663291  0.003302  0.968232  1
  Er  Er6  1  0.996500  0.335821  0.530788  1
  Er  Er7  1  0.001510  0.664814  0.030074  1
  Si  Si8  1  0.196553  0.118934  0.683071  1
  Si  Si9  1  0.373477  0.702499  0.932449  1
  Si  Si10  1  0.624463  0.298140  0.432508  1
  Si  Si11  1  0.701436  0.374434  0.066516  1
  Si  Si12  1  0.302653  0.623668  0.566468  1
  Si  Si13  1  0.794752  0.875106  0.181522  1
  Si  Si14  1  0.123440  0.203786  0.317434  1
  Si  Si15  1  0.876089  0.801797  0.815343  1
  Si  Si16  1  0.290518  0.964131  0.065170  1
  Si  Si17  1  0.533787  0.789379  0.313906  1
  Si  Si18  1  0.463705  0.212559  0.812700  1
  Si  Si19  1  0.785875  0.533651  0.684029  1
  Si  Si20  1  0.207913  0.465219  0.185662  1
  Si  Si21  1  0.725968  0.026965  0.565041  1
  Si  Si22  1  0.963628  0.293015  0.935963  1
  Si  Si23  1  0.029610  0.715719  0.441911  1
  Ru  Ru24  1  0.024389  0.818321  0.631489  1
  W  W25  1  0.332922  0.334901  0.998995  1
  W  W26  1  0.162600  0.833160  0.252617  1
  W  W27  1  0.832526  0.169348  0.751124  1
  W  W28  1  0.666189  0.667871  0.499066  1
  W  W29  1  0.164530  0.002766  0.876415  1
  W  W30  1  0.499784  0.664967  0.123688  1
  W  W31  1  0.492396  0.328835  0.621116  1
  W  W32  1  0.667365  0.504444  0.876398  1
  W  W33  1  0.328931  0.501988  0.375810  1
  W  W34  1  0.831384  0.001201  0.369647  1
  W  W35  1  0.000024  0.165526  0.125334  1
