# generated using pymatgen
data_Dy12Tc3Ni
_symmetry_space_group_name_H-M   'P 1'
_cell_length_a   7.32560083
_cell_length_b   9.21786400
_cell_length_c   6.28775693
_cell_angle_alpha   90.00000000
_cell_angle_beta   89.78544995
_cell_angle_gamma   90.00000000
_symmetry_Int_Tables_number   1
_chemical_formula_structural   Dy12Tc3Ni
_chemical_formula_sum   'Dy12 Tc3 Ni1'
_cell_volume   424.58656308
_cell_formula_units_Z   1
loop_
 _symmetry_equiv_pos_site_id
 _symmetry_equiv_pos_as_xyz
  1  'x, y, z'
loop_
 _atom_site_type_symbol
 _atom_site_label
 _atom_site_symmetry_multiplicity
 _atom_site_fract_x
 _atom_site_fract_y
 _atom_site_fract_z
 _atom_site_occupancy
  Dy  Dy0  1  0.456793  0.749999  0.127911  1
  Dy  Dy1  1  0.177391  0.067321  0.172115  1
  Dy  Dy2  1  0.177391  0.432679  0.172115  1
  Dy  Dy3  1  0.676986  0.062931  0.336106  1
  Dy  Dy4  1  0.676986  0.437069  0.336106  1
  Dy  Dy5  1  0.956291  0.749999  0.359483  1
  Dy  Dy6  1  0.041755  0.249999  0.629102  1
  Dy  Dy7  1  0.323336  0.561812  0.666182  1
  Dy  Dy8  1  0.323336  0.938188  0.666182  1
  Dy  Dy9  1  0.823572  0.562936  0.832369  1
  Dy  Dy10  1  0.823572  0.937064  0.832369  1
  Dy  Dy11  1  0.541310  0.249999  0.874860  1
  Tc  Tc12  1  0.889229  0.249999  0.040236  1
  Tc  Tc13  1  0.386893  0.249999  0.461212  1
  Tc  Tc14  1  0.611749  0.749999  0.541627  1
  Ni  Ni15  1  0.113412  0.749999  0.952025  1
