# generated using pymatgen
data_Hf3Mg(Pd5Pt)2
_symmetry_space_group_name_H-M   'P 1'
_cell_length_a   5.67790300
_cell_length_b   5.67947235
_cell_length_c   9.24084800
_cell_angle_alpha   90.00000000
_cell_angle_beta   90.00000000
_cell_angle_gamma   119.99086564
_symmetry_Int_Tables_number   1
_chemical_formula_structural   Hf3Mg(Pd5Pt)2
_chemical_formula_sum   'Hf3 Mg1 Pd10 Pt2'
_cell_volume   258.09428256
_cell_formula_units_Z   1
loop_
 _symmetry_equiv_pos_site_id
 _symmetry_equiv_pos_as_xyz
  1  'x, y, z'
loop_
 _atom_site_type_symbol
 _atom_site_label
 _atom_site_symmetry_multiplicity
 _atom_site_fract_x
 _atom_site_fract_y
 _atom_site_fract_z
 _atom_site_occupancy
  Hf  Hf0  1  0.000665  0.001330  0.500787  1
  Hf  Hf1  1  0.332599  0.665199  0.250000  1
  Hf  Hf2  1  0.000665  0.001330  0.999213  1
  Mg  Mg3  1  0.666608  0.333215  0.750000  1
  Pd  Pd4  1  0.168336  0.336672  0.750000  1
  Pd  Pd5  1  0.001613  0.501301  0.000182  1
  Pd  Pd6  1  0.831302  0.662607  0.250000  1
  Pd  Pd7  1  0.499687  0.501301  0.000182  1
  Pd  Pd8  1  0.499687  0.501301  0.499818  1
  Pd  Pd9  1  0.499333  0.998667  0.499707  1
  Pd  Pd10  1  0.169015  0.830798  0.750000  1
  Pd  Pd11  1  0.661783  0.830798  0.750000  1
  Pd  Pd12  1  0.499333  0.998667  0.000293  1
  Pd  Pd13  1  0.001613  0.501301  0.499818  1
  Pt  Pt14  1  0.336744  0.167758  0.250000  1
  Pt  Pt15  1  0.831012  0.167758  0.250000  1
