# generated using pymatgen
data_Sr6Li16In7
_symmetry_space_group_name_H-M   'P 1'
_cell_length_a   10.11240400
_cell_length_b   10.11240439
_cell_length_c   10.11240400
_cell_angle_alpha   119.99999871
_cell_angle_beta   90.00000000
_cell_angle_gamma   119.99999871
_symmetry_Int_Tables_number   1
_chemical_formula_structural   Sr6Li16In7
_chemical_formula_sum   'Sr6 Li16 In7'
_cell_volume   731.22035321
_cell_formula_units_Z   1
loop_
 _symmetry_equiv_pos_site_id
 _symmetry_equiv_pos_as_xyz
  1  'x, y, z'
loop_
 _atom_site_type_symbol
 _atom_site_label
 _atom_site_symmetry_multiplicity
 _atom_site_fract_x
 _atom_site_fract_y
 _atom_site_fract_z
 _atom_site_occupancy
  Sr  Sr0  1  0.781285  0.000000  0.218714  1
  Sr  Sr1  1  0.218715  0.437431  0.218715  1
  Sr  Sr2  1  0.218715  0.000000  0.218715  1
  Sr  Sr3  1  0.781285  0.000000  0.781285  1
  Sr  Sr4  1  0.218714  0.000000  0.781285  1
  Sr  Sr5  1  0.781285  0.562570  0.781285  1
  Li  Li6  1  0.378083  0.756165  0.134249  1
  Li  Li7  1  0.825811  0.651620  0.174190  1
  Li  Li8  1  0.522569  0.348381  0.174190  1
  Li  Li9  1  0.825811  0.348381  0.174190  1
  Li  Li10  1  0.134249  0.756165  0.378083  1
  Li  Li11  1  0.621917  0.756165  0.378083  1
  Li  Li12  1  0.621917  0.243834  0.378083  1
  Li  Li13  1  0.825811  0.651620  0.477431  1
  Li  Li14  1  0.174190  0.348381  0.522569  1
  Li  Li15  1  0.378083  0.756165  0.621917  1
  Li  Li16  1  0.378083  0.243834  0.621917  1
  Li  Li17  1  0.865751  0.243834  0.621917  1
  Li  Li18  1  0.174190  0.651620  0.825811  1
  Li  Li19  1  0.477431  0.651620  0.825811  1
  Li  Li20  1  0.174190  0.348381  0.825811  1
  Li  Li21  1  0.621917  0.243834  0.865751  1
  In  In22  1  0.500000  0.000000  0.000000  1
  In  In23  1  0.000000  0.500000  0.000000  1
  In  In24  1  0.500000  0.500000  0.000000  1
  In  In25  1  0.500000  0.000000  0.500000  1
  In  In26  1  0.000000  0.000000  0.500000  1
  In  In27  1  0.000000  0.500000  0.500000  1
  In  In28  1  0.500000  0.500000  0.500000  1
