# generated using pymatgen
data_Na3B5Pt8Rh
_symmetry_space_group_name_H-M   'P 1'
_cell_length_a   6.39346803
_cell_length_b   6.39346771
_cell_length_c   15.22021400
_cell_angle_alpha   90.00000000
_cell_angle_beta   90.00000000
_cell_angle_gamma   128.03946456
_symmetry_Int_Tables_number   1
_chemical_formula_structural   Na3B5Pt8Rh
_chemical_formula_sum   'Na6 B10 Pt16 Rh2'
_cell_volume   489.99539699
_cell_formula_units_Z   2
loop_
 _symmetry_equiv_pos_site_id
 _symmetry_equiv_pos_as_xyz
  1  'x, y, z'
loop_
 _atom_site_type_symbol
 _atom_site_label
 _atom_site_symmetry_multiplicity
 _atom_site_fract_x
 _atom_site_fract_y
 _atom_site_fract_z
 _atom_site_occupancy
  Na  Na0  1  0.314134  0.685866  0.750000  1
  Na  Na1  1  0.685866  0.314134  0.250000  1
  Na  Na2  1  0.558719  0.441281  0.085484  1
  Na  Na3  1  0.441281  0.558719  0.914516  1
  Na  Na4  1  0.441281  0.558719  0.585484  1
  Na  Na5  1  0.558719  0.441281  0.414516  1
  B  B6  1  0.944245  0.055755  0.143988  1
  B  B7  1  0.055755  0.944245  0.856012  1
  B  B8  1  0.055755  0.944245  0.643988  1
  B  B9  1  0.944245  0.055755  0.356012  1
  B  B10  1  0.185099  0.814901  0.027253  1
  B  B11  1  0.814901  0.185099  0.972747  1
  B  B12  1  0.814901  0.185099  0.527253  1
  B  B13  1  0.185099  0.814901  0.472747  1
  B  B14  1  0.725457  0.274543  0.750000  1
  B  B15  1  0.274543  0.725457  0.250000  1
  Pt  Pt16  1  0.661999  0.831707  0.250000  1
  Pt  Pt17  1  0.831707  0.661999  0.750000  1
  Pt  Pt18  1  0.338001  0.168293  0.750000  1
  Pt  Pt19  1  0.168293  0.338001  0.250000  1
  Pt  Pt20  1  0.126872  0.873128  0.157626  1
  Pt  Pt21  1  0.873128  0.126872  0.842374  1
  Pt  Pt22  1  0.873128  0.126872  0.657626  1
  Pt  Pt23  1  0.126872  0.873128  0.342374  1
  Pt  Pt24  1  0.566999  0.936785  0.079545  1
  Pt  Pt25  1  0.936785  0.566999  0.920455  1
  Pt  Pt26  1  0.433001  0.063215  0.579545  1
  Pt  Pt27  1  0.063215  0.433001  0.420455  1
  Pt  Pt28  1  0.433001  0.063215  0.920455  1
  Pt  Pt29  1  0.063215  0.433001  0.079545  1
  Pt  Pt30  1  0.566999  0.936785  0.420455  1
  Pt  Pt31  1  0.936785  0.566999  0.579545  1
  Rh  Rh32  1  0.000000  0.000000  0.000000  1
  Rh  Rh33  1  0.000000  0.000000  0.500000  1
