# generated using pymatgen
data_Tb2Al4Si2Ni
_symmetry_space_group_name_H-M   'P 1'
_cell_length_a   4.11674259
_cell_length_b   4.11674799
_cell_length_c   10.08603199
_cell_angle_alpha   101.71295148
_cell_angle_beta   101.71302123
_cell_angle_gamma   90.01083074
_symmetry_Int_Tables_number   1
_chemical_formula_structural   Tb2Al4Si2Ni
_chemical_formula_sum   'Tb2 Al4 Si2 Ni1'
_cell_volume   163.73642655
_cell_formula_units_Z   1
loop_
 _symmetry_equiv_pos_site_id
 _symmetry_equiv_pos_as_xyz
  1  'x, y, z'
loop_
 _atom_site_type_symbol
 _atom_site_label
 _atom_site_symmetry_multiplicity
 _atom_site_fract_x
 _atom_site_fract_y
 _atom_site_fract_z
 _atom_site_occupancy
  Tb  Tb0  1  0.187332  0.187332  0.374249  1
  Tb  Tb1  1  0.812669  0.812669  0.625752  1
  Al  Al2  1  0.568236  0.068381  0.136673  1
  Al  Al3  1  0.068381  0.568236  0.136673  1
  Al  Al4  1  0.931620  0.431765  0.863327  1
  Al  Al5  1  0.431765  0.931620  0.863327  1
  Si  Si6  1  0.660711  0.660712  0.321388  1
  Si  Si7  1  0.339290  0.339290  0.678612  1
  Ni  Ni8  1  0.000001  0.999999  0.000000  1
