# generated using pymatgen
data_Pr5Nd3Zn2(Si6Rh)2
_symmetry_space_group_name_H-M   'P 1'
_cell_length_a   8.25689300
_cell_length_b   8.25680937
_cell_length_c   8.56194700
_cell_angle_alpha   90.00000000
_cell_angle_beta   90.00000000
_cell_angle_gamma   120.00002316
_symmetry_Int_Tables_number   1
_chemical_formula_structural   Pr5Nd3Zn2(Si6Rh)2
_chemical_formula_sum   'Pr5 Nd3 Zn2 Si12 Rh2'
_cell_volume   505.51259432
_cell_formula_units_Z   1
loop_
 _symmetry_equiv_pos_site_id
 _symmetry_equiv_pos_as_xyz
  1  'x, y, z'
loop_
 _atom_site_type_symbol
 _atom_site_label
 _atom_site_symmetry_multiplicity
 _atom_site_fract_x
 _atom_site_fract_y
 _atom_site_fract_z
 _atom_site_occupancy
  Pr  Pr0  1  0.000000  0.999999  0.750000  1
  Pr  Pr1  1  0.000000  0.000000  0.250000  1
  Pr  Pr2  1  0.496925  0.503077  0.750000  1
  Pr  Pr3  1  0.496922  0.993850  0.750000  1
  Pr  Pr4  1  0.006154  0.503078  0.750000  1
  Nd  Nd5  1  0.497145  0.502851  0.250000  1
  Nd  Nd6  1  0.005712  0.502857  0.250000  1
  Nd  Nd7  1  0.497145  0.994289  0.250000  1
  Zn  Zn8  1  0.666668  0.333334  0.002278  1
  Zn  Zn9  1  0.666668  0.333334  0.497722  1
  Si  Si10  1  0.836442  0.163556  0.001141  1
  Si  Si11  1  0.836443  0.672888  0.001141  1
  Si  Si12  1  0.327117  0.163559  0.001137  1
  Si  Si13  1  0.836442  0.163556  0.498859  1
  Si  Si14  1  0.836443  0.672888  0.498859  1
  Si  Si15  1  0.327117  0.163559  0.498863  1
  Si  Si16  1  0.169513  0.830489  0.498999  1
  Si  Si17  1  0.660979  0.830490  0.498998  1
  Si  Si18  1  0.169513  0.339026  0.498999  1
  Si  Si19  1  0.169513  0.830489  0.001001  1
  Si  Si20  1  0.660979  0.830490  0.001002  1
  Si  Si21  1  0.169513  0.339026  0.001001  1
  Rh  Rh22  1  0.333322  0.666658  0.496526  1
  Rh  Rh23  1  0.333322  0.666658  0.003474  1
