# generated using pymatgen
data_Dy5MgMoP12Ir17
_symmetry_space_group_name_H-M   'P 1'
_cell_length_a   12.63041508
_cell_length_b   12.79140422
_cell_length_c   3.98001300
_cell_angle_alpha   90.00000000
_cell_angle_beta   90.00000000
_cell_angle_gamma   119.67650931
_symmetry_Int_Tables_number   1
_chemical_formula_structural   Dy5MgMoP12Ir17
_chemical_formula_sum   'Dy5 Mg1 Mo1 P12 Ir17'
_cell_volume   558.67267733
_cell_formula_units_Z   1
loop_
 _symmetry_equiv_pos_site_id
 _symmetry_equiv_pos_as_xyz
  1  'x, y, z'
loop_
 _atom_site_type_symbol
 _atom_site_label
 _atom_site_symmetry_multiplicity
 _atom_site_fract_x
 _atom_site_fract_y
 _atom_site_fract_z
 _atom_site_occupancy
  Dy  Dy0  1  0.330386  0.662652  0.500000  1
  Dy  Dy1  1  0.669433  0.337543  0.500000  1
  Dy  Dy2  1  0.002529  0.813726  0.000000  1
  Dy  Dy3  1  0.187015  0.187131  0.000000  1
  Dy  Dy4  1  0.814296  0.003379  0.000000  1
  Mg  Mg5  1  0.552568  0.555315  0.500000  1
  Mo  Mo6  1  0.999059  0.450819  0.500000  1
  P  P7  1  0.001914  0.636891  0.500000  1
  P  P8  1  0.357446  0.354969  0.500000  1
  P  P9  1  0.644207  0.001430  0.500000  1
  P  P10  1  0.514476  0.687173  0.000000  1
  P  P11  1  0.309091  0.824147  0.000000  1
  P  P12  1  0.164527  0.480057  0.000000  1
  P  P13  1  0.483581  0.175769  0.000000  1
  P  P14  1  0.686012  0.517399  0.000000  1
  P  P15  1  0.831436  0.317152  0.000000  1
  P  P16  1  0.999319  0.173908  0.500000  1
  P  P17  1  0.823041  0.822784  0.500000  1
  P  P18  1  0.178789  0.999081  0.500000  1
  Ir  Ir19  1  0.506420  0.867592  0.000000  1
  Ir  Ir20  1  0.127747  0.638222  0.000000  1
  Ir  Ir21  1  0.355567  0.494741  0.000000  1
  Ir  Ir22  1  0.486105  0.359875  0.000000  1
  Ir  Ir23  1  0.867111  0.508656  0.000000  1
  Ir  Ir24  1  0.641182  0.136881  0.000000  1
  Ir  Ir25  1  0.463836  0.000990  0.500000  1
  Ir  Ir26  1  0.996497  0.284474  0.000000  1
  Ir  Ir27  1  0.716513  0.718511  0.000000  1
  Ir  Ir28  1  0.286448  0.997727  0.000000  1
  Ir  Ir29  1  0.624512  0.808604  0.500000  1
  Ir  Ir30  1  0.199613  0.820802  0.500000  1
  Ir  Ir31  1  0.174963  0.366318  0.500000  1
  Ir  Ir32  1  0.376637  0.174367  0.500000  1
  Ir  Ir33  1  0.808992  0.629039  0.500000  1
  Ir  Ir34  1  0.818575  0.194362  0.500000  1
  Ir  Ir35  1  0.000159  0.997518  0.500000  1
