# generated using pymatgen
data_Tb2DyLu9Os4
_symmetry_space_group_name_H-M   'P 1'
_cell_length_a   7.38747901
_cell_length_b   8.83177900
_cell_length_c   6.21207700
_cell_angle_alpha   90.00000000
_cell_angle_beta   89.64473574
_cell_angle_gamma   90.00000000
_symmetry_Int_Tables_number   1
_chemical_formula_structural   Tb2DyLu9Os4
_chemical_formula_sum   'Tb2 Dy1 Lu9 Os4'
_cell_volume   405.29657592
_cell_formula_units_Z   1
loop_
 _symmetry_equiv_pos_site_id
 _symmetry_equiv_pos_as_xyz
  1  'x, y, z'
loop_
 _atom_site_type_symbol
 _atom_site_label
 _atom_site_symmetry_multiplicity
 _atom_site_fract_x
 _atom_site_fract_y
 _atom_site_fract_z
 _atom_site_occupancy
  Tb  Tb0  1  0.538801  0.250000  0.873402  1
  Tb  Tb1  1  0.039733  0.250000  0.627533  1
  Dy  Dy2  1  0.461379  0.750000  0.126749  1
  Lu  Lu3  1  0.675805  0.061881  0.338044  1
  Lu  Lu4  1  0.171653  0.438660  0.164015  1
  Lu  Lu5  1  0.324710  0.563320  0.661406  1
  Lu  Lu6  1  0.826870  0.936494  0.834931  1
  Lu  Lu7  1  0.324710  0.936680  0.661406  1
  Lu  Lu8  1  0.826870  0.563506  0.834931  1
  Lu  Lu9  1  0.675805  0.438119  0.338044  1
  Lu  Lu10  1  0.171653  0.061340  0.164015  1
  Lu  Lu11  1  0.960461  0.750000  0.372346  1
  Os  Os12  1  0.882580  0.250000  0.045094  1
  Os  Os13  1  0.382579  0.250000  0.453955  1
  Os  Os14  1  0.115866  0.750000  0.959956  1
  Os  Os15  1  0.620528  0.750000  0.544172  1
