# generated using pymatgen
data_LaTb5Ho10(CdNi)4
_symmetry_space_group_name_H-M   'P 1'
_cell_length_a   9.55810293
_cell_length_b   9.55137389
_cell_length_c   9.55137465
_cell_angle_alpha   60.13381645
_cell_angle_beta   60.12442081
_cell_angle_gamma   60.12441788
_symmetry_Int_Tables_number   1
_chemical_formula_structural   LaTb5Ho10(CdNi)4
_chemical_formula_sum   'La1 Tb5 Ho10 Cd4 Ni4'
_cell_volume   618.36022108
_cell_formula_units_Z   1
loop_
 _symmetry_equiv_pos_site_id
 _symmetry_equiv_pos_as_xyz
  1  'x, y, z'
loop_
 _atom_site_type_symbol
 _atom_site_label
 _atom_site_symmetry_multiplicity
 _atom_site_fract_x
 _atom_site_fract_y
 _atom_site_fract_z
 _atom_site_occupancy
  La  La0  1  0.344833  0.344564  0.344564  1
  Tb  Tb1  1  0.562008  0.937821  0.937821  1
  Tb  Tb2  1  0.565053  0.936402  0.564225  1
  Tb  Tb3  1  0.937661  0.562111  0.936950  1
  Tb  Tb4  1  0.565053  0.564225  0.936402  1
  Tb  Tb5  1  0.937661  0.936950  0.562111  1
  Ho  Ho6  1  0.349173  0.349775  0.949355  1
  Ho  Ho7  1  0.349173  0.949355  0.349775  1
  Ho  Ho8  1  0.949126  0.349790  0.349790  1
  Ho  Ho9  1  0.815142  0.188109  0.188109  1
  Ho  Ho10  1  0.189538  0.813052  0.813052  1
  Ho  Ho11  1  0.187756  0.814986  0.188388  1
  Ho  Ho12  1  0.813303  0.189501  0.812828  1
  Ho  Ho13  1  0.187756  0.188388  0.814986  1
  Ho  Ho14  1  0.813303  0.812828  0.189501  1
  Ho  Ho15  1  0.937485  0.563957  0.563957  1
  Cd  Cd16  1  0.581123  0.580485  0.580485  1
  Cd  Cd17  1  0.582486  0.582831  0.256524  1
  Cd  Cd18  1  0.582486  0.256524  0.582831  1
  Cd  Cd19  1  0.255438  0.582703  0.582703  1
  Ni  Ni20  1  0.143409  0.143542  0.143542  1
  Ni  Ni21  1  0.137908  0.138774  0.575184  1
  Ni  Ni22  1  0.137908  0.575184  0.138774  1
  Ni  Ni23  1  0.575213  0.138140  0.138140  1
