# generated using pymatgen
data_Tm4As6Ir6Ru
_symmetry_space_group_name_H-M   'P 1'
_cell_length_a   7.23867489
_cell_length_b   7.23867555
_cell_length_c   7.23867500
_cell_angle_alpha   109.47122188
_cell_angle_beta   109.47122375
_cell_angle_gamma   109.47121564
_symmetry_Int_Tables_number   1
_chemical_formula_structural   Tm4As6Ir6Ru
_chemical_formula_sum   'Tm4 As6 Ir6 Ru1'
_cell_volume   291.98152579
_cell_formula_units_Z   1
loop_
 _symmetry_equiv_pos_site_id
 _symmetry_equiv_pos_as_xyz
  1  'x, y, z'
loop_
 _atom_site_type_symbol
 _atom_site_label
 _atom_site_symmetry_multiplicity
 _atom_site_fract_x
 _atom_site_fract_y
 _atom_site_fract_z
 _atom_site_occupancy
  Tm  Tm0  1  0.000000  0.000000  0.500000  1
  Tm  Tm1  1  0.500000  0.000000  0.000000  1
  Tm  Tm2  1  0.000000  0.500000  0.000000  1
  Tm  Tm3  1  0.500000  0.500000  0.500000  1
  As  As4  1  0.685055  0.685055  0.000000  1
  As  As5  1  0.314945  0.314945  0.000000  1
  As  As6  1  0.000000  0.685055  0.685055  1
  As  As7  1  0.000000  0.314945  0.314945  1
  As  As8  1  0.685055  0.000000  0.685055  1
  As  As9  1  0.314945  0.000000  0.314945  1
  Ir  Ir10  1  0.250000  0.500000  0.750000  1
  Ir  Ir11  1  0.750000  0.250000  0.500000  1
  Ir  Ir12  1  0.500000  0.250000  0.750000  1
  Ir  Ir13  1  0.500000  0.750000  0.250000  1
  Ir  Ir14  1  0.750000  0.500000  0.250000  1
  Ir  Ir15  1  0.250000  0.750000  0.500000  1
  Ru  Ru16  1  0.000000  0.000000  0.000000  1
