# generated using pymatgen
data_HfScTiRe3
_symmetry_space_group_name_H-M   'P 1'
_cell_length_a   5.29279300
_cell_length_b   5.29279208
_cell_length_c   8.72792600
_cell_angle_alpha   90.00000000
_cell_angle_beta   90.00000000
_cell_angle_gamma   119.99998699
_symmetry_Int_Tables_number   1
_chemical_formula_structural   HfScTiRe3
_chemical_formula_sum   'Hf2 Sc2 Ti2 Re6'
_cell_volume   211.74418234
_cell_formula_units_Z   2
loop_
 _symmetry_equiv_pos_site_id
 _symmetry_equiv_pos_as_xyz
  1  'x, y, z'
loop_
 _atom_site_type_symbol
 _atom_site_label
 _atom_site_symmetry_multiplicity
 _atom_site_fract_x
 _atom_site_fract_y
 _atom_site_fract_z
 _atom_site_occupancy
  Hf  Hf0  1  0.666667  0.333333  0.935942  1
  Hf  Hf1  1  0.333333  0.666667  0.435942  1
  Sc  Sc2  1  0.333333  0.666667  0.063556  1
  Sc  Sc3  1  0.666667  0.333333  0.563556  1
  Ti  Ti4  1  0.000000  0.000000  0.000490  1
  Ti  Ti5  1  0.000000  0.000000  0.500490  1
  Re  Re6  1  0.830312  0.660623  0.250004  1
  Re  Re7  1  0.169688  0.830312  0.750004  1
  Re  Re8  1  0.660623  0.830312  0.750004  1
  Re  Re9  1  0.339377  0.169688  0.250004  1
  Re  Re10  1  0.830312  0.169688  0.250004  1
  Re  Re11  1  0.169688  0.339377  0.750004  1
