# generated using pymatgen
data_Er2Sc4NiTe2
_symmetry_space_group_name_H-M   'P 1'
_cell_length_a   7.93203848
_cell_length_b   7.97800252
_cell_length_c   3.84906100
_cell_angle_alpha   90.00000000
_cell_angle_beta   90.00000000
_cell_angle_gamma   120.19187169
_symmetry_Int_Tables_number   1
_chemical_formula_structural   Er2Sc4NiTe2
_chemical_formula_sum   'Er2 Sc4 Ni1 Te2'
_cell_volume   210.53363033
_cell_formula_units_Z   1
loop_
 _symmetry_equiv_pos_site_id
 _symmetry_equiv_pos_as_xyz
  1  'x, y, z'
loop_
 _atom_site_type_symbol
 _atom_site_label
 _atom_site_symmetry_multiplicity
 _atom_site_fract_x
 _atom_site_fract_y
 _atom_site_fract_z
 _atom_site_occupancy
  Er  Er0  1  0.606702  0.000182  0.000000  1
  Er  Er1  1  0.393298  0.393480  0.000000  1
  Sc  Sc2  1  0.230619  0.996101  0.500000  1
  Sc  Sc3  1  0.769381  0.765481  0.500000  1
  Sc  Sc4  1  0.000000  0.234455  0.500000  1
  Sc  Sc5  1  0.000000  0.609672  0.000000  1
  Ni  Ni6  1  0.000000  0.995712  0.000000  1
  Te  Te7  1  0.324592  0.664755  0.500000  1
  Te  Te8  1  0.675408  0.340162  0.500000  1
