# generated using pymatgen
data_Y6CoNi15(P6W)2
_symmetry_space_group_name_H-M   'P 1'
_cell_length_a   3.75612300
_cell_length_b   10.63141100
_cell_length_c   12.32417300
_cell_angle_alpha   90.00000000
_cell_angle_beta   90.00000000
_cell_angle_gamma   90.00000000
_symmetry_Int_Tables_number   1
_chemical_formula_structural   Y6CoNi15(P6W)2
_chemical_formula_sum   'Y6 Co1 Ni15 P12 W2'
_cell_volume   492.13981246
_cell_formula_units_Z   1
loop_
 _symmetry_equiv_pos_site_id
 _symmetry_equiv_pos_as_xyz
  1  'x, y, z'
loop_
 _atom_site_type_symbol
 _atom_site_label
 _atom_site_symmetry_multiplicity
 _atom_site_fract_x
 _atom_site_fract_y
 _atom_site_fract_z
 _atom_site_occupancy
  Y  Y0  1  0.000000  0.500000  0.524454  1
  Y  Y1  1  0.500000  0.000000  0.475452  1
  Y  Y2  1  0.500000  0.819034  0.206534  1
  Y  Y3  1  0.500000  0.180966  0.206534  1
  Y  Y4  1  0.000000  0.681378  0.792578  1
  Y  Y5  1  0.000000  0.318622  0.792578  1
  Co  Co6  1  0.500000  0.000000  0.013833  1
  Ni  Ni7  1  0.500000  0.500000  0.701080  1
  Ni  Ni8  1  0.000000  0.000000  0.297854  1
  Ni  Ni9  1  0.000000  0.500000  0.985241  1
  Ni  Ni10  1  0.500000  0.332103  0.987862  1
  Ni  Ni11  1  0.500000  0.667897  0.987862  1
  Ni  Ni12  1  0.000000  0.165845  0.011933  1
  Ni  Ni13  1  0.000000  0.834155  0.011933  1
  Ni  Ni14  1  0.500000  0.301970  0.427968  1
  Ni  Ni15  1  0.500000  0.698030  0.427968  1
  Ni  Ni16  1  0.000000  0.197602  0.572333  1
  Ni  Ni17  1  0.000000  0.802398  0.572333  1
  Ni  Ni18  1  0.500000  0.879769  0.710746  1
  Ni  Ni19  1  0.500000  0.120231  0.710746  1
  Ni  Ni20  1  0.000000  0.620273  0.290218  1
  Ni  Ni21  1  0.000000  0.379727  0.290218  1
  P  P22  1  0.500000  0.500000  0.878574  1
  P  P23  1  0.000000  0.000000  0.120209  1
  P  P24  1  0.500000  0.500000  0.349027  1
  P  P25  1  0.000000  0.000000  0.651258  1
  P  P26  1  0.500000  0.313851  0.614131  1
  P  P27  1  0.500000  0.686149  0.614131  1
  P  P28  1  0.000000  0.185875  0.385939  1
  P  P29  1  0.000000  0.814125  0.385939  1
  P  P30  1  0.500000  0.845585  0.893569  1
  P  P31  1  0.500000  0.154415  0.893569  1
  P  P32  1  0.000000  0.655147  0.107572  1
  P  P33  1  0.000000  0.344853  0.107572  1
  W  W34  1  0.500000  0.500000  0.153133  1
  W  W35  1  0.000000  0.000000  0.847118  1
