# generated using pymatgen
data_K8TiV3P2(O4F9)2
_symmetry_space_group_name_H-M   'P 1'
_cell_length_a   11.16271500
_cell_length_b   5.93705218
_cell_length_c   20.49010500
_cell_angle_alpha   74.14203170
_cell_angle_beta   90.00000000
_cell_angle_gamma   90.00000000
_symmetry_Int_Tables_number   1
_chemical_formula_structural   K8TiV3P2(O4F9)2
_chemical_formula_sum   'K16 Ti2 V6 P4 O16 F36'
_cell_volume   1306.27250363
_cell_formula_units_Z   2
loop_
 _symmetry_equiv_pos_site_id
 _symmetry_equiv_pos_as_xyz
  1  'x, y, z'
loop_
 _atom_site_type_symbol
 _atom_site_label
 _atom_site_symmetry_multiplicity
 _atom_site_fract_x
 _atom_site_fract_y
 _atom_site_fract_z
 _atom_site_occupancy
  K  K0  1  0.046622  0.658381  0.833107  1
  K  K1  1  0.452827  0.656669  0.333138  1
  K  K2  1  0.268042  0.456488  0.515570  1
  K  K3  1  0.731902  0.543341  0.484625  1
  K  K4  1  0.755058  0.128295  0.859535  1
  K  K5  1  0.767805  0.546024  0.983647  1
  K  K6  1  0.455762  0.641366  0.848963  1
  K  K7  1  0.045154  0.639699  0.348755  1
  K  K8  1  0.244866  0.871613  0.140502  1
  K  K9  1  0.954709  0.363173  0.650906  1
  K  K10  1  0.544271  0.359008  0.151673  1
  K  K11  1  0.547286  0.341676  0.666687  1
  K  K12  1  0.255629  0.869759  0.640112  1
  K  K13  1  0.232150  0.454941  0.016001  1
  K  K14  1  0.744306  0.128050  0.359622  1
  K  K15  1  0.953983  0.336209  0.167656  1
  Ti  Ti16  1  0.499628  0.000308  0.999728  1
  Ti  Ti17  1  0.753690  0.719920  0.254671  1
  V  V18  1  0.999940  0.000254  0.500050  1
  V  V19  1  0.746997  0.721775  0.754041  1
  V  V20  1  0.253123  0.278246  0.245898  1
  V  V21  1  0.246671  0.278425  0.745585  1
  V  V22  1  0.000316  0.000090  0.999789  1
  V  V23  1  0.500012  0.000050  0.499974  1
  P  P24  1  0.752248  0.953943  0.591255  1
  P  P25  1  0.250506  0.045758  0.908046  1
  P  P26  1  0.749049  0.956469  0.090682  1
  P  P27  1  0.247722  0.046058  0.408737  1
  O  O28  1  0.161168  0.084801  0.963284  1
  O  O29  1  0.376109  0.117226  0.930642  1
  O  O30  1  0.751656  0.201873  0.098579  1
  O  O31  1  0.623797  0.882699  0.068758  1
  O  O32  1  0.838923  0.915266  0.036169  1
  O  O33  1  0.249818  0.800976  0.400370  1
  O  O34  1  0.338323  0.083616  0.463699  1
  O  O35  1  0.218561  0.241422  0.841213  1
  O  O36  1  0.719193  0.759469  0.658382  1
  O  O37  1  0.280713  0.240705  0.341568  1
  O  O38  1  0.122882  0.124482  0.430542  1
  O  O39  1  0.247700  0.800590  0.899874  1
  O  O40  1  0.661694  0.916521  0.536289  1
  O  O41  1  0.750159  0.198920  0.599642  1
  O  O42  1  0.877143  0.875446  0.569528  1
  O  O43  1  0.780277  0.766512  0.158828  1
  F  F44  1  0.959193  0.853800  0.931043  1
  F  F45  1  0.442058  0.719041  0.556517  1
  F  F46  1  0.770785  0.664761  0.850517  1
  F  F47  1  0.130067  0.055250  0.258697  1
  F  F48  1  0.126770  0.516601  0.725351  1
  F  F49  1  0.138152  0.511953  0.241077  1
  F  F50  1  0.041240  0.146073  0.068630  1
  F  F51  1  0.370408  0.056295  0.758751  1
  F  F52  1  0.901678  0.257791  0.454932  1
  F  F53  1  0.941641  0.280946  0.943409  1
  F  F54  1  0.458822  0.146508  0.568699  1
  F  F55  1  0.870476  0.944238  0.741225  1
  F  F56  1  0.372855  0.517175  0.225433  1
  F  F57  1  0.361487  0.512351  0.741016  1
  F  F58  1  0.930567  0.830521  0.445038  1
  F  F59  1  0.868576  0.944931  0.262562  1
  F  F60  1  0.729499  0.664487  0.351166  1
  F  F61  1  0.098357  0.742201  0.545145  1
  F  F62  1  0.069292  0.168992  0.555106  1
  F  F63  1  0.402605  0.741677  0.044345  1
  F  F64  1  0.541099  0.853262  0.431307  1
  F  F65  1  0.557962  0.281209  0.443516  1
  F  F66  1  0.631235  0.944413  0.242104  1
  F  F67  1  0.270268  0.334529  0.649140  1
  F  F68  1  0.428507  0.172714  0.055980  1
  F  F69  1  0.861547  0.487456  0.758896  1
  F  F70  1  0.132004  0.059773  0.738924  1
  F  F71  1  0.058276  0.719491  0.056439  1
  F  F72  1  0.229206  0.335034  0.149439  1
  F  F73  1  0.873108  0.481161  0.275564  1
  F  F74  1  0.632254  0.940403  0.760863  1
  F  F75  1  0.638311  0.478928  0.260160  1
  F  F76  1  0.597127  0.258680  0.955436  1
  F  F77  1  0.368104  0.060003  0.239096  1
  F  F78  1  0.571304  0.827314  0.943754  1
  F  F79  1  0.626773  0.483528  0.774400  1
