# generated using pymatgen
data_YLuRh2F14
_symmetry_space_group_name_H-M   'P 1'
_cell_length_a   5.48276243
_cell_length_b   8.81700801
_cell_length_c   11.85758317
_cell_angle_alpha   62.57027800
_cell_angle_beta   90.18199923
_cell_angle_gamma   90.03886062
_symmetry_Int_Tables_number   1
_chemical_formula_structural   YLuRh2F14
_chemical_formula_sum   'Y2 Lu2 Rh4 F28'
_cell_volume   508.76859529
_cell_formula_units_Z   2
loop_
 _symmetry_equiv_pos_site_id
 _symmetry_equiv_pos_as_xyz
  1  'x, y, z'
loop_
 _atom_site_type_symbol
 _atom_site_label
 _atom_site_symmetry_multiplicity
 _atom_site_fract_x
 _atom_site_fract_y
 _atom_site_fract_z
 _atom_site_occupancy
  Y  Y0  1  0.761328  0.183052  0.235632  1
  Y  Y1  1  0.238672  0.816948  0.764368  1
  Lu  Lu2  1  0.261924  0.812803  0.264445  1
  Lu  Lu3  1  0.738076  0.187197  0.735555  1
  Rh  Rh4  1  0.758061  0.727817  0.044664  1
  Rh  Rh5  1  0.241939  0.272183  0.955336  1
  Rh  Rh6  1  0.258445  0.275929  0.457542  1
  Rh  Rh7  1  0.741555  0.724071  0.542458  1
  F  F8  1  0.940267  0.706493  0.413330  1
  F  F9  1  0.059733  0.293507  0.586670  1
  F  F10  1  0.437970  0.293165  0.084418  1
  F  F11  1  0.562030  0.706835  0.915582  1
  F  F12  1  0.463957  0.730361  0.137022  1
  F  F13  1  0.536043  0.269639  0.862978  1
  F  F14  1  0.965163  0.273039  0.365330  1
  F  F15  1  0.034837  0.726961  0.634670  1
  F  F16  1  0.955233  0.745958  0.176084  1
  F  F17  1  0.044767  0.254042  0.823916  1
  F  F18  1  0.450199  0.258602  0.325351  1
  F  F19  1  0.549801  0.741398  0.674649  1
  F  F20  1  0.769025  0.481707  0.140985  1
  F  F21  1  0.230975  0.518293  0.859015  1
  F  F22  1  0.269457  0.523075  0.359942  1
  F  F23  1  0.730543  0.476925  0.640058  1
  F  F24  1  0.942769  0.280612  0.041975  1
  F  F25  1  0.057231  0.719388  0.958025  1
  F  F26  1  0.439745  0.719942  0.453855  1
  F  F27  1  0.560255  0.280058  0.546145  1
  F  F28  1  0.740483  0.970603  0.450535  1
  F  F29  1  0.259517  0.029397  0.549465  1
  F  F30  1  0.239334  0.026137  0.050762  1
  F  F31  1  0.760666  0.973863  0.949238  1
  F  F32  1  0.583884  0.964017  0.230674  1
  F  F33  1  0.416116  0.035983  0.769326  1
  F  F34  1  0.093867  0.025168  0.269709  1
  F  F35  1  0.906133  0.974832  0.730291  1
