# generated using pymatgen
data_Y3Er2P12Ru18Pt
_symmetry_space_group_name_H-M   'P 1'
_cell_length_a   12.57900407
_cell_length_b   12.57900499
_cell_length_c   3.98704200
_cell_angle_alpha   90.00000000
_cell_angle_beta   90.00000000
_cell_angle_gamma   120.55434331
_symmetry_Int_Tables_number   1
_chemical_formula_structural   Y3Er2P12Ru18Pt
_chemical_formula_sum   'Y3 Er2 P12 Ru18 Pt1'
_cell_volume   543.27640843
_cell_formula_units_Z   1
loop_
 _symmetry_equiv_pos_site_id
 _symmetry_equiv_pos_as_xyz
  1  'x, y, z'
loop_
 _atom_site_type_symbol
 _atom_site_label
 _atom_site_symmetry_multiplicity
 _atom_site_fract_x
 _atom_site_fract_y
 _atom_site_fract_z
 _atom_site_occupancy
  Y  Y0  1  0.182630  0.182630  0.500000  1
  Y  Y1  1  0.815638  0.998263  0.500000  1
  Y  Y2  1  0.998263  0.815638  0.500000  1
  Er  Er3  1  0.329628  0.668624  0.000000  1
  Er  Er4  1  0.668624  0.329628  0.000000  1
  P  P5  1  0.811705  0.811705  0.000000  1
  P  P6  1  0.184113  0.001948  0.000000  1
  P  P7  1  0.001948  0.184113  0.000000  1
  P  P8  1  0.173179  0.480255  0.500000  1
  P  P9  1  0.518614  0.701089  0.500000  1
  P  P10  1  0.305915  0.832074  0.500000  1
  P  P11  1  0.701089  0.518614  0.500000  1
  P  P12  1  0.832074  0.305915  0.500000  1
  P  P13  1  0.480255  0.173179  0.500000  1
  P  P14  1  0.364303  0.364303  0.000000  1
  P  P15  1  0.626775  0.000204  0.000000  1
  P  P16  1  0.000204  0.626775  0.000000  1
  Ru  Ru17  1  0.446360  0.002451  0.000000  1
  Ru  Ru18  1  0.002451  0.446360  0.000000  1
  Ru  Ru19  1  0.709590  0.709590  0.500000  1
  Ru  Ru20  1  0.283425  0.002695  0.500000  1
  Ru  Ru21  1  0.002695  0.283425  0.500000  1
  Ru  Ru22  1  0.186789  0.379569  0.000000  1
  Ru  Ru23  1  0.619973  0.805831  0.000000  1
  Ru  Ru24  1  0.190289  0.816874  0.000000  1
  Ru  Ru25  1  0.805831  0.619973  0.000000  1
  Ru  Ru26  1  0.816874  0.190289  0.000000  1
  Ru  Ru27  1  0.379569  0.186789  0.000000  1
  Ru  Ru28  1  0.367591  0.495681  0.500000  1
  Ru  Ru29  1  0.507514  0.877897  0.500000  1
  Ru  Ru30  1  0.129029  0.636392  0.500000  1
  Ru  Ru31  1  0.877897  0.507514  0.500000  1
  Ru  Ru32  1  0.636392  0.129029  0.500000  1
  Ru  Ru33  1  0.495681  0.367591  0.500000  1
  Ru  Ru34  1  0.997189  0.997189  0.000000  1
  Pt  Pt35  1  0.549905  0.549905  0.000000  1
