# generated using pymatgen
data_Ho7TmSc12(GaSi3)4
_symmetry_space_group_name_H-M   'P 1'
_cell_length_a   7.11304523
_cell_length_b   7.39600796
_cell_length_c   14.11100511
_cell_angle_alpha   89.98319633
_cell_angle_beta   89.85713104
_cell_angle_gamma   90.14923007
_symmetry_Int_Tables_number   1
_chemical_formula_structural   Ho7TmSc12(GaSi3)4
_chemical_formula_sum   'Ho7 Tm1 Sc12 Ga4 Si12'
_cell_volume   742.34886117
_cell_formula_units_Z   1
loop_
 _symmetry_equiv_pos_site_id
 _symmetry_equiv_pos_as_xyz
  1  'x, y, z'
loop_
 _atom_site_type_symbol
 _atom_site_label
 _atom_site_symmetry_multiplicity
 _atom_site_fract_x
 _atom_site_fract_y
 _atom_site_fract_z
 _atom_site_occupancy
  Ho  Ho0  1  0.013419  0.175277  0.097008  1
  Ho  Ho1  1  0.988189  0.824476  0.901917  1
  Ho  Ho2  1  0.487151  0.677322  0.901764  1
  Ho  Ho3  1  0.987959  0.826953  0.600093  1
  Ho  Ho4  1  0.510702  0.321070  0.097144  1
  Ho  Ho5  1  0.009636  0.175112  0.400764  1
  Ho  Ho6  1  0.510884  0.324192  0.400724  1
  Tm  Tm7  1  0.490474  0.676407  0.600550  1
  Sc  Sc8  1  0.162778  0.501373  0.751415  1
  Sc  Sc9  1  0.836752  0.498002  0.249996  1
  Sc  Sc10  1  0.336326  0.002463  0.248316  1
  Sc  Sc11  1  0.663263  0.997744  0.749953  1
  Sc  Sc12  1  0.333657  0.174534  0.627875  1
  Sc  Sc13  1  0.669025  0.826380  0.373659  1
  Sc  Sc14  1  0.170070  0.673557  0.372964  1
  Sc  Sc15  1  0.668602  0.826259  0.125552  1
  Sc  Sc16  1  0.828971  0.324912  0.626772  1
  Sc  Sc17  1  0.330636  0.175575  0.874568  1
  Sc  Sc18  1  0.829235  0.323437  0.874215  1
  Sc  Sc19  1  0.173151  0.675346  0.124466  1
  Ga  Ga20  1  0.162809  0.461795  0.539792  1
  Ga  Ga21  1  0.838421  0.537891  0.461465  1
  Ga  Ga22  1  0.338793  0.961805  0.461589  1
  Ga  Ga23  1  0.839038  0.537987  0.038641  1
  Si  Si24  1  0.032882  0.115108  0.751135  1
  Si  Si25  1  0.967232  0.884982  0.249232  1
  Si  Si26  1  0.467595  0.613553  0.248520  1
  Si  Si27  1  0.532833  0.386722  0.751038  1
  Si  Si28  1  0.286084  0.870455  0.750908  1
  Si  Si29  1  0.714895  0.128907  0.248690  1
  Si  Si30  1  0.214017  0.370965  0.248784  1
  Si  Si31  1  0.786246  0.629843  0.751265  1
  Si  Si32  1  0.658625  0.035651  0.539319  1
  Si  Si33  1  0.158727  0.463827  0.960850  1
  Si  Si34  1  0.657445  0.035698  0.961303  1
  Si  Si35  1  0.343479  0.964419  0.037762  1
