# generated using pymatgen
data_Lu6InGaTc
_symmetry_space_group_name_H-M   'P 1'
_cell_length_a   8.49682053
_cell_length_b   8.49682152
_cell_length_c   8.49682100
_cell_angle_alpha   113.73165173
_cell_angle_beta   111.09497480
_cell_angle_gamma   103.74678383
_symmetry_Int_Tables_number   1
_chemical_formula_structural   Lu6InGaTc
_chemical_formula_sum   'Lu12 In2 Ga2 Tc2'
_cell_volume   468.45899630
_cell_formula_units_Z   2
loop_
 _symmetry_equiv_pos_site_id
 _symmetry_equiv_pos_as_xyz
  1  'x, y, z'
loop_
 _atom_site_type_symbol
 _atom_site_label
 _atom_site_symmetry_multiplicity
 _atom_site_fract_x
 _atom_site_fract_y
 _atom_site_fract_z
 _atom_site_occupancy
  Lu  Lu0  1  0.659450  0.843953  0.184503  1
  Lu  Lu1  1  0.340550  0.525054  0.184503  1
  Lu  Lu2  1  0.808428  0.775866  0.584293  1
  Lu  Lu3  1  0.191572  0.775866  0.967438  1
  Lu  Lu4  1  0.808428  0.224134  0.032562  1
  Lu  Lu5  1  0.191572  0.224134  0.415707  1
  Lu  Lu6  1  0.659450  0.474946  0.815497  1
  Lu  Lu7  1  0.340550  0.156047  0.815497  1
  Lu  Lu8  1  0.559353  0.260789  0.298563  1
  Lu  Lu9  1  0.440647  0.739211  0.701437  1
  Lu  Lu10  1  0.037775  0.739211  0.298563  1
  Lu  Lu11  1  0.962225  0.260789  0.701437  1
  In  In12  1  0.000000  0.500000  0.500000  1
  In  In13  1  0.500000  0.000000  0.500000  1
  Ga  Ga14  1  0.881319  0.881319  0.000000  1
  Ga  Ga15  1  0.118681  0.118681  0.000000  1
  Tc  Tc16  1  0.324993  0.500000  0.824993  1
  Tc  Tc17  1  0.675007  0.500000  0.175007  1
