# generated using pymatgen
data_Y4Er6In8IrPd3
_symmetry_space_group_name_H-M   'P 1'
_cell_length_a   3.62013900
_cell_length_b   8.12682179
_cell_length_c   18.21365333
_cell_angle_alpha   89.85471204
_cell_angle_beta   90.00000000
_cell_angle_gamma   90.00000000
_symmetry_Int_Tables_number   1
_chemical_formula_structural   Y4Er6In8IrPd3
_chemical_formula_sum   'Y4 Er6 In8 Ir1 Pd3'
_cell_volume   535.84804722
_cell_formula_units_Z   1
loop_
 _symmetry_equiv_pos_site_id
 _symmetry_equiv_pos_as_xyz
  1  'x, y, z'
loop_
 _atom_site_type_symbol
 _atom_site_label
 _atom_site_symmetry_multiplicity
 _atom_site_fract_x
 _atom_site_fract_y
 _atom_site_fract_z
 _atom_site_occupancy
  Y  Y0  1  0.000000  0.500402  0.499740  1
  Y  Y1  1  0.000000  0.000709  0.000828  1
  Y  Y2  1  0.000000  0.729924  0.278065  1
  Y  Y3  1  0.000000  0.259785  0.719022  1
  Er  Er4  1  0.000000  0.758798  0.779839  1
  Er  Er5  1  0.000000  0.254389  0.220274  1
  Er  Er6  1  0.000000  0.615091  0.087278  1
  Er  Er7  1  0.000000  0.383083  0.916043  1
  Er  Er8  1  0.000000  0.882423  0.583530  1
  Er  Er9  1  0.000000  0.117139  0.414917  1
  In  In10  1  0.500000  0.707768  0.932604  1
  In  In11  1  0.500000  0.293624  0.068225  1
  In  In12  1  0.500000  0.793934  0.432249  1
  In  In13  1  0.500000  0.205712  0.566617  1
  In  In14  1  0.500000  0.580154  0.649746  1
  In  In15  1  0.500000  0.421186  0.351200  1
  In  In16  1  0.500000  0.924402  0.150426  1
  In  In17  1  0.500000  0.077650  0.850194  1
  Ir  Ir18  1  0.500000  0.518288  0.194766  1
  Pd  Pd19  1  0.500000  0.478444  0.804950  1
  Pd  Pd20  1  0.500000  0.972886  0.695361  1
  Pd  Pd21  1  0.500000  0.024208  0.304126  1
