# generated using pymatgen
data_Er4Tm4Re3B24Os
_symmetry_space_group_name_H-M   'P 1'
_cell_length_a   3.64222800
_cell_length_b   9.10576836
_cell_length_c   11.48076902
_cell_angle_alpha   90.06971262
_cell_angle_beta   90.00000000
_cell_angle_gamma   90.00000000
_symmetry_Int_Tables_number   1
_chemical_formula_structural   Er4Tm4Re3B24Os
_chemical_formula_sum   'Er4 Tm4 Re3 B24 Os1'
_cell_volume   380.76268872
_cell_formula_units_Z   1
loop_
 _symmetry_equiv_pos_site_id
 _symmetry_equiv_pos_as_xyz
  1  'x, y, z'
loop_
 _atom_site_type_symbol
 _atom_site_label
 _atom_site_symmetry_multiplicity
 _atom_site_fract_x
 _atom_site_fract_y
 _atom_site_fract_z
 _atom_site_occupancy
  Er  Er0  1  0.000000  0.321230  0.414187  1
  Er  Er1  1  0.000000  0.677974  0.587571  1
  Er  Er2  1  0.000000  0.823966  0.084367  1
  Er  Er3  1  0.000000  0.177309  0.913511  1
  Tm  Tm4  1  0.000000  0.942383  0.370276  1
  Tm  Tm5  1  0.000000  0.056676  0.629144  1
  Tm  Tm6  1  0.000000  0.442641  0.129626  1
  Tm  Tm7  1  0.000000  0.557170  0.871055  1
  Re  Re8  1  0.000000  0.362366  0.678329  1
  Re  Re9  1  0.000000  0.138179  0.179834  1
  Re  Re10  1  0.000000  0.861937  0.820671  1
  B  B11  1  0.500000  0.553515  0.433102  1
  B  B12  1  0.500000  0.447289  0.566483  1
  B  B13  1  0.500000  0.052942  0.066596  1
  B  B14  1  0.500000  0.947309  0.933172  1
  B  B15  1  0.500000  0.749050  0.418824  1
  B  B16  1  0.500000  0.250044  0.580829  1
  B  B17  1  0.500000  0.249730  0.080972  1
  B  B18  1  0.500000  0.750752  0.919164  1
  B  B19  1  0.500000  0.791178  0.265281  1
  B  B20  1  0.500000  0.207877  0.734540  1
  B  B21  1  0.500000  0.292052  0.235179  1
  B  B22  1  0.500000  0.707764  0.765543  1
  B  B23  1  0.500000  0.630652  0.185337  1
  B  B24  1  0.500000  0.370029  0.814642  1
  B  B25  1  0.500000  0.130320  0.315412  1
  B  B26  1  0.500000  0.869470  0.685031  1
  B  B27  1  0.500000  0.981213  0.212098  1
  B  B28  1  0.500000  0.018832  0.787540  1
  B  B29  1  0.500000  0.482190  0.288017  1
  B  B30  1  0.500000  0.519170  0.712184  1
  B  B31  1  0.500000  0.601020  0.028630  1
  B  B32  1  0.500000  0.399376  0.972200  1
  B  B33  1  0.500000  0.099886  0.471779  1
  B  B34  1  0.500000  0.898474  0.527910  1
  Os  Os35  1  0.000000  0.638037  0.320961  1
