# generated using pymatgen
data_DyYTh2(Sn5Rh3)2
_symmetry_space_group_name_H-M   'P 1'
_cell_length_a   13.56789932
_cell_length_b   13.56789955
_cell_length_c   7.30573333
_cell_angle_alpha   90.28810918
_cell_angle_beta   89.71189105
_cell_angle_gamma   160.97464505
_symmetry_Int_Tables_number   1
_chemical_formula_structural   DyYTh2(Sn5Rh3)2
_chemical_formula_sum   'Dy1 Y1 Th2 Sn10 Rh6'
_cell_volume   438.41264537
_cell_formula_units_Z   1
loop_
 _symmetry_equiv_pos_site_id
 _symmetry_equiv_pos_as_xyz
  1  'x, y, z'
loop_
 _atom_site_type_symbol
 _atom_site_label
 _atom_site_symmetry_multiplicity
 _atom_site_fract_x
 _atom_site_fract_y
 _atom_site_fract_z
 _atom_site_occupancy
  Dy  Dy0  1  0.524858  0.475142  0.736521  1
  Y  Y1  1  0.828145  0.171855  0.754661  1
  Th  Th2  1  0.474880  0.525120  0.236675  1
  Th  Th3  1  0.172018  0.827982  0.258799  1
  Sn  Sn4  1  0.705106  0.294894  0.554094  1
  Sn  Sn5  1  0.596432  0.403568  0.106128  1
  Sn  Sn6  1  0.048672  0.951328  0.404330  1
  Sn  Sn7  1  0.952720  0.047280  0.891995  1
  Sn  Sn8  1  0.710412  0.289588  0.974639  1
  Sn  Sn9  1  0.290806  0.709194  0.479637  1
  Sn  Sn10  1  0.295889  0.704111  0.047895  1
  Sn  Sn11  1  0.877491  0.122509  0.230995  1
  Sn  Sn12  1  0.120363  0.879637  0.735603  1
  Sn  Sn13  1  0.402599  0.597401  0.616218  1
  Rh  Rh14  1  0.395910  0.604090  0.987529  1
  Rh  Rh15  1  0.775758  0.224242  0.268032  1
  Rh  Rh16  1  0.223293  0.776707  0.767254  1
  Rh  Rh17  1  0.049844  0.950156  0.018735  1
  Rh  Rh18  1  0.606091  0.393909  0.480750  1
  Rh  Rh19  1  0.948710  0.051290  0.513310  1
