# generated using pymatgen
data_Y12Si8PtRh11
_symmetry_space_group_name_H-M   'P 1'
_cell_length_a   5.55500315
_cell_length_b   7.55582021
_cell_length_c   14.87988600
_cell_angle_alpha   90.00000000
_cell_angle_beta   90.00000000
_cell_angle_gamma   90.02671003
_symmetry_Int_Tables_number   1
_chemical_formula_structural   Y12Si8PtRh11
_chemical_formula_sum   'Y12 Si8 Pt1 Rh11'
_cell_volume   624.54751037
_cell_formula_units_Z   1
loop_
 _symmetry_equiv_pos_site_id
 _symmetry_equiv_pos_as_xyz
  1  'x, y, z'
loop_
 _atom_site_type_symbol
 _atom_site_label
 _atom_site_symmetry_multiplicity
 _atom_site_fract_x
 _atom_site_fract_y
 _atom_site_fract_z
 _atom_site_occupancy
  Y  Y0  1  0.894351  0.832302  0.750000  1
  Y  Y1  1  0.867692  0.526277  0.391841  1
  Y  Y2  1  0.366385  0.974869  0.606879  1
  Y  Y3  1  0.131310  0.473364  0.892505  1
  Y  Y4  1  0.632825  0.026243  0.108319  1
  Y  Y5  1  0.111246  0.168502  0.250000  1
  Y  Y6  1  0.131310  0.473364  0.607495  1
  Y  Y7  1  0.632825  0.026243  0.391681  1
  Y  Y8  1  0.388757  0.668757  0.250000  1
  Y  Y9  1  0.366385  0.974869  0.893121  1
  Y  Y10  1  0.613419  0.327663  0.750000  1
  Y  Y11  1  0.867692  0.526277  0.108159  1
  Si  Si12  1  0.628449  0.623385  0.898611  1
  Si  Si13  1  0.874767  0.124255  0.602528  1
  Si  Si14  1  0.124976  0.875686  0.103033  1
  Si  Si15  1  0.124976  0.875686  0.396967  1
  Si  Si16  1  0.628449  0.623385  0.601389  1
  Si  Si17  1  0.874767  0.124255  0.897472  1
  Si  Si18  1  0.374595  0.375791  0.103007  1
  Si  Si19  1  0.374595  0.375791  0.396993  1
  Pt  Pt20  1  0.404529  0.682733  0.750000  1
  Rh  Rh21  1  0.597682  0.331324  0.961574  1
  Rh  Rh22  1  0.099311  0.168262  0.461978  1
  Rh  Rh23  1  0.099311  0.168262  0.038022  1
  Rh  Rh24  1  0.901126  0.832178  0.961915  1
  Rh  Rh25  1  0.590251  0.319524  0.250000  1
  Rh  Rh26  1  0.901126  0.832178  0.538085  1
  Rh  Rh27  1  0.908241  0.819229  0.250000  1
  Rh  Rh28  1  0.597682  0.331324  0.538426  1
  Rh  Rh29  1  0.400521  0.668479  0.462092  1
  Rh  Rh30  1  0.089924  0.181068  0.750000  1
  Rh  Rh31  1  0.400521  0.668479  0.037908  1
