# generated using pymatgen
data_Ac4CrCuN6
_symmetry_space_group_name_H-M   'P 1'
_cell_length_a   6.43082911
_cell_length_b   6.43082789
_cell_length_c   12.41220800
_cell_angle_alpha   90.05637964
_cell_angle_beta   89.94362037
_cell_angle_gamma   128.12888530
_symmetry_Int_Tables_number   1
_chemical_formula_structural   Ac4CrCuN6
_chemical_formula_sum   'Ac8 Cr2 Cu2 N12'
_cell_volume   403.78459804
_cell_formula_units_Z   2
loop_
 _symmetry_equiv_pos_site_id
 _symmetry_equiv_pos_as_xyz
  1  'x, y, z'
loop_
 _atom_site_type_symbol
 _atom_site_label
 _atom_site_symmetry_multiplicity
 _atom_site_fract_x
 _atom_site_fract_y
 _atom_site_fract_z
 _atom_site_occupancy
  Ac  Ac0  1  0.568366  0.431634  0.655243  1
  Ac  Ac1  1  0.431634  0.568366  0.344757  1
  Ac  Ac2  1  0.949982  0.050018  0.140949  1
  Ac  Ac3  1  0.050018  0.949982  0.859051  1
  Ac  Ac4  1  0.860879  0.139121  0.574908  1
  Ac  Ac5  1  0.139121  0.860879  0.425092  1
  Ac  Ac6  1  0.648831  0.351169  0.071662  1
  Ac  Ac7  1  0.351169  0.648831  0.928338  1
  Cr  Cr8  1  0.760021  0.239979  0.340160  1
  Cr  Cr9  1  0.239979  0.760021  0.659840  1
  Cu  Cu10  1  0.741434  0.258566  0.846538  1
  Cu  Cu11  1  0.258566  0.741434  0.153462  1
  N  N12  1  0.857814  0.142186  0.967322  1
  N  N13  1  0.142186  0.857814  0.032678  1
  N  N14  1  0.662425  0.337575  0.461021  1
  N  N15  1  0.337575  0.662425  0.538979  1
  N  N16  1  0.557924  0.442076  0.868095  1
  N  N17  1  0.442076  0.557924  0.131905  1
  N  N18  1  0.920851  0.079149  0.370232  1
  N  N19  1  0.079149  0.920851  0.629768  1
  N  N20  1  0.513424  0.984814  0.734483  1
  N  N21  1  0.984814  0.513424  0.265517  1
  N  N22  1  0.486576  0.015186  0.265517  1
  N  N23  1  0.015186  0.486576  0.734483  1
