# generated using pymatgen
data_Er10Cd4InHg3Pd4
_symmetry_space_group_name_H-M   'P 1'
_cell_length_a   3.61479300
_cell_length_b   7.92827984
_cell_length_c   18.25772884
_cell_angle_alpha   89.85262701
_cell_angle_beta   90.00000000
_cell_angle_gamma   90.00000000
_symmetry_Int_Tables_number   1
_chemical_formula_structural   Er10Cd4InHg3Pd4
_chemical_formula_sum   'Er10 Cd4 In1 Hg3 Pd4'
_cell_volume   523.24817206
_cell_formula_units_Z   1
loop_
 _symmetry_equiv_pos_site_id
 _symmetry_equiv_pos_as_xyz
  1  'x, y, z'
loop_
 _atom_site_type_symbol
 _atom_site_label
 _atom_site_symmetry_multiplicity
 _atom_site_fract_x
 _atom_site_fract_y
 _atom_site_fract_z
 _atom_site_occupancy
  Er  Er0  1  0.000000  0.500883  0.497648  1
  Er  Er1  1  0.000000  0.002265  0.000090  1
  Er  Er2  1  0.000000  0.742013  0.284098  1
  Er  Er3  1  0.000000  0.256692  0.717960  1
  Er  Er4  1  0.000000  0.755625  0.783310  1
  Er  Er5  1  0.000000  0.244350  0.215594  1
  Er  Er6  1  0.000000  0.611959  0.083782  1
  Er  Er7  1  0.000000  0.390563  0.917128  1
  Er  Er8  1  0.000000  0.884417  0.583553  1
  Er  Er9  1  0.000000  0.111374  0.415684  1
  Cd  Cd10  1  0.500000  0.214336  0.567511  1
  Cd  Cd11  1  0.500000  0.574246  0.648185  1
  Cd  Cd12  1  0.500000  0.420340  0.350287  1
  Cd  Cd13  1  0.500000  0.921493  0.149244  1
  In  In14  1  0.500000  0.077913  0.850685  1
  Hg  Hg15  1  0.500000  0.716254  0.935054  1
  Hg  Hg16  1  0.500000  0.286071  0.065732  1
  Hg  Hg17  1  0.500000  0.786277  0.434604  1
  Pd  Pd18  1  0.500000  0.533038  0.196786  1
  Pd  Pd19  1  0.500000  0.468516  0.804005  1
  Pd  Pd20  1  0.500000  0.968762  0.696369  1
  Pd  Pd21  1  0.500000  0.032616  0.302693  1
