# generated using pymatgen
data_Nd5Hf3(Co4P3)4
_symmetry_space_group_name_H-M   'P 1'
_cell_length_a   12.39764900
_cell_length_b   12.39764840
_cell_length_c   3.75632900
_cell_angle_alpha   90.00000000
_cell_angle_beta   90.00000000
_cell_angle_gamma   120.00000427
_symmetry_Int_Tables_number   1
_chemical_formula_structural   Nd5Hf3(Co4P3)4
_chemical_formula_sum   'Nd5 Hf3 Co16 P12'
_cell_volume   500.00332020
_cell_formula_units_Z   1
loop_
 _symmetry_equiv_pos_site_id
 _symmetry_equiv_pos_as_xyz
  1  'x, y, z'
loop_
 _atom_site_type_symbol
 _atom_site_label
 _atom_site_symmetry_multiplicity
 _atom_site_fract_x
 _atom_site_fract_y
 _atom_site_fract_z
 _atom_site_occupancy
  Nd  Nd0  1  0.184168  0.184168  0.500000  1
  Nd  Nd1  1  0.815832  0.000000  0.500000  1
  Nd  Nd2  1  0.000000  0.815832  0.500000  1
  Nd  Nd3  1  0.333333  0.666667  0.000000  1
  Nd  Nd4  1  0.666667  0.333333  0.000000  1
  Hf  Hf5  1  0.562270  0.562270  0.000000  1
  Hf  Hf6  1  0.437730  0.000000  0.000000  1
  Hf  Hf7  1  0.000000  0.437730  0.000000  1
  Co  Co8  1  0.720493  0.720493  0.500000  1
  Co  Co9  1  0.279507  0.000000  0.500000  1
  Co  Co10  1  0.000000  0.279507  0.500000  1
  Co  Co11  1  0.178625  0.374855  0.000000  1
  Co  Co12  1  0.625145  0.803770  0.000000  1
  Co  Co13  1  0.196230  0.821375  0.000000  1
  Co  Co14  1  0.803770  0.625145  0.000000  1
  Co  Co15  1  0.821375  0.196230  0.000000  1
  Co  Co16  1  0.374855  0.178625  0.000000  1
  Co  Co17  1  0.357240  0.479787  0.500000  1
  Co  Co18  1  0.520213  0.877455  0.500000  1
  Co  Co19  1  0.122545  0.642760  0.500000  1
  Co  Co20  1  0.877455  0.520213  0.500000  1
  Co  Co21  1  0.642760  0.122545  0.500000  1
  Co  Co22  1  0.479787  0.357240  0.500000  1
  Co  Co23  1  0.000000  0.000000  0.000000  1
  P  P24  1  0.819517  0.819517  0.000000  1
  P  P25  1  0.180483  0.000000  0.000000  1
  P  P26  1  0.000000  0.180483  0.000000  1
  P  P27  1  0.170017  0.475127  0.500000  1
  P  P28  1  0.524873  0.694890  0.500000  1
  P  P29  1  0.305110  0.829983  0.500000  1
  P  P30  1  0.694890  0.524873  0.500000  1
  P  P31  1  0.829983  0.305110  0.500000  1
  P  P32  1  0.475127  0.170017  0.500000  1
  P  P33  1  0.357460  0.357460  0.000000  1
  P  P34  1  0.642540  0.000000  0.000000  1
  P  P35  1  0.000000  0.642540  0.000000  1
