# generated using pymatgen
data_Yb3Lu5Si16(Mo3W)3
_symmetry_space_group_name_H-M   'P 1'
_cell_length_a   6.70008423
_cell_length_b   6.90914428
_cell_length_c   12.89471414
_cell_angle_alpha   89.91474124
_cell_angle_beta   90.05700413
_cell_angle_gamma   89.87093962
_symmetry_Int_Tables_number   1
_chemical_formula_structural   Yb3Lu5Si16(Mo3W)3
_chemical_formula_sum   'Yb3 Lu5 Si16 Mo9 W3'
_cell_volume   596.91768326
_cell_formula_units_Z   1
loop_
 _symmetry_equiv_pos_site_id
 _symmetry_equiv_pos_as_xyz
  1  'x, y, z'
loop_
 _atom_site_type_symbol
 _atom_site_label
 _atom_site_symmetry_multiplicity
 _atom_site_fract_x
 _atom_site_fract_y
 _atom_site_fract_z
 _atom_site_occupancy
  Yb  Yb0  1  0.497777  0.332077  0.091159  1
  Yb  Yb1  1  0.997735  0.167564  0.408912  1
  Yb  Yb2  1  0.502767  0.666918  0.591173  1
  Lu  Lu3  1  0.003386  0.830851  0.906022  1
  Lu  Lu4  1  0.503146  0.669071  0.906418  1
  Lu  Lu5  1  0.002939  0.830950  0.593624  1
  Lu  Lu6  1  0.498231  0.329766  0.406374  1
  Lu  Lu7  1  0.998468  0.170345  0.094280  1
  Si  Si8  1  0.661248  0.041338  0.546298  1
  Si  Si9  1  0.161697  0.458783  0.954382  1
  Si  Si10  1  0.336987  0.958509  0.044892  1
  Si  Si11  1  0.838953  0.541405  0.454405  1
  Si  Si12  1  0.339460  0.958797  0.454576  1
  Si  Si13  1  0.838662  0.541519  0.044813  1
  Si  Si14  1  0.663060  0.040715  0.954534  1
  Si  Si15  1  0.160705  0.459384  0.546394  1
  Si  Si16  1  0.532740  0.371921  0.750902  1
  Si  Si17  1  0.033103  0.127829  0.749612  1
  Si  Si18  1  0.466858  0.627467  0.250190  1
  Si  Si19  1  0.965847  0.872917  0.249999  1
  Si  Si20  1  0.800498  0.634861  0.749359  1
  Si  Si21  1  0.302703  0.864118  0.749519  1
  Si  Si22  1  0.198651  0.367273  0.249939  1
  Si  Si23  1  0.698197  0.134011  0.249996  1
  Mo  Mo24  1  0.830522  0.335569  0.626581  1
  Mo  Mo25  1  0.328255  0.161277  0.874827  1
  Mo  Mo26  1  0.167718  0.667532  0.124854  1
  Mo  Mo27  1  0.669764  0.835437  0.374167  1
  Mo  Mo28  1  0.167878  0.666670  0.373934  1
  Mo  Mo29  1  0.669401  0.835157  0.125369  1
  Mo  Mo30  1  0.831170  0.336324  0.874922  1
  Mo  Mo31  1  0.330759  0.164020  0.626207  1
  Mo  Mo32  1  0.836373  0.502764  0.249429  1
  W  W33  1  0.664191  0.001891  0.751286  1
  W  W34  1  0.163129  0.498835  0.750864  1
  W  W35  1  0.337021  0.996138  0.249789  1
