# generated using pymatgen
data_NaFe2Br7
_symmetry_space_group_name_H-M   'P 1'
_cell_length_a   9.85780260
_cell_length_b   9.25307364
_cell_length_c   7.25245772
_cell_angle_alpha   75.81500569
_cell_angle_beta   47.55073942
_cell_angle_gamma   66.09905640
_symmetry_Int_Tables_number   1
_chemical_formula_structural   NaFe2Br7
_chemical_formula_sum   'Na1 Fe2 Br7'
_cell_volume   445.87463440
_cell_formula_units_Z   1
loop_
 _symmetry_equiv_pos_site_id
 _symmetry_equiv_pos_as_xyz
  1  'x, y, z'
loop_
 _atom_site_type_symbol
 _atom_site_label
 _atom_site_symmetry_multiplicity
 _atom_site_fract_x
 _atom_site_fract_y
 _atom_site_fract_z
 _atom_site_occupancy
  Na  Na0  1  0.743681  0.801312  0.709778  1
  Fe  Fe1  1  0.269582  0.544368  0.398597  1
  Fe  Fe2  1  0.511310  0.074220  0.441010  1
  Br  Br3  1  0.513507  0.062892  0.122038  1
  Br  Br4  1  0.091535  0.520168  0.310861  1
  Br  Br5  1  0.276008  0.331213  0.680267  1
  Br  Br6  1  0.813184  0.048399  0.303167  1
  Br  Br7  1  0.589799  0.528908  0.047283  1
  Br  Br8  1  0.397759  0.886669  0.742980  1
  Br  Br9  1  0.086337  0.773989  0.651163  1
