# generated using pymatgen
data_Tb2Dy2Ga3GeRu4
_symmetry_space_group_name_H-M   'P 1'
_cell_length_a   4.51013500
_cell_length_b   7.16292998
_cell_length_c   7.16921901
_cell_angle_alpha   89.60764725
_cell_angle_beta   90.00000000
_cell_angle_gamma   90.00000000
_symmetry_Int_Tables_number   1
_chemical_formula_structural   Tb2Dy2Ga3GeRu4
_chemical_formula_sum   'Tb2 Dy2 Ga3 Ge1 Ru4'
_cell_volume   231.60179037
_cell_formula_units_Z   1
loop_
 _symmetry_equiv_pos_site_id
 _symmetry_equiv_pos_as_xyz
  1  'x, y, z'
loop_
 _atom_site_type_symbol
 _atom_site_label
 _atom_site_symmetry_multiplicity
 _atom_site_fract_x
 _atom_site_fract_y
 _atom_site_fract_z
 _atom_site_occupancy
  Tb  Tb0  1  0.750000  0.019266  0.195453  1
  Tb  Tb1  1  0.750000  0.518440  0.303864  1
  Dy  Dy2  1  0.250000  0.981398  0.805995  1
  Dy  Dy3  1  0.250000  0.478206  0.695652  1
  Ga  Ga4  1  0.250000  0.302420  0.106669  1
  Ga  Ga5  1  0.750000  0.696238  0.893009  1
  Ga  Ga6  1  0.250000  0.800498  0.395902  1
  Ge  Ge7  1  0.750000  0.199952  0.602895  1
  Ru  Ru8  1  0.750000  0.848387  0.564402  1
  Ru  Ru9  1  0.250000  0.158366  0.441449  1
  Ru  Ru10  1  0.750000  0.337530  0.930610  1
  Ru  Ru11  1  0.250000  0.659301  0.064100  1
