# generated using pymatgen
data_V12ReMo5Os6
_symmetry_space_group_name_H-M   'P 1'
_cell_length_a   4.29238900
_cell_length_b   6.08857500
_cell_length_c   12.94294900
_cell_angle_alpha   90.00000000
_cell_angle_beta   90.00007989
_cell_angle_gamma   90.00000000
_symmetry_Int_Tables_number   1
_chemical_formula_structural   V12ReMo5Os6
_chemical_formula_sum   'V12 Re1 Mo5 Os6'
_cell_volume   338.25791942
_cell_formula_units_Z   1
loop_
 _symmetry_equiv_pos_site_id
 _symmetry_equiv_pos_as_xyz
  1  'x, y, z'
loop_
 _atom_site_type_symbol
 _atom_site_label
 _atom_site_symmetry_multiplicity
 _atom_site_fract_x
 _atom_site_fract_y
 _atom_site_fract_z
 _atom_site_occupancy
  V  V0  1  0.499999  0.249227  0.000023  1
  V  V1  1  0.499999  0.750773  0.000023  1
  V  V2  1  0.000155  0.250241  0.166540  1
  V  V3  1  0.000155  0.749759  0.166540  1
  V  V4  1  0.500154  0.249521  0.333351  1
  V  V5  1  0.500154  0.750479  0.333351  1
  V  V6  1  0.000000  0.250222  0.500130  1
  V  V7  1  0.000000  0.749779  0.500130  1
  V  V8  1  0.499844  0.249216  0.666617  1
  V  V9  1  0.499844  0.750784  0.666617  1
  V  V10  1  0.999844  0.249634  0.833330  1
  V  V11  1  0.999844  0.750366  0.833330  1
  Re  Re12  1  0.499875  0.500001  0.833346  1
  Mo  Mo13  1  0.999998  0.000000  0.999703  1
  Mo  Mo14  1  0.500111  0.500001  0.166225  1
  Mo  Mo15  1  0.000115  0.000000  0.333397  1
  Mo  Mo16  1  0.499999  0.500001  0.500451  1
  Mo  Mo17  1  0.999887  0.000000  0.666901  1
  Os  Os18  1  0.000005  0.500001  0.999152  1
  Os  Os19  1  0.500111  0.000000  0.166669  1
  Os  Os20  1  0.000113  0.500001  0.333376  1
  Os  Os21  1  0.500001  0.000000  0.500008  1
  Os  Os22  1  0.999894  0.500001  0.667474  1
  Os  Os23  1  0.499891  0.000000  0.833315  1
