# generated using pymatgen
data_Zr2Ti(NbSi2)2
_symmetry_space_group_name_H-M   'P 1'
_cell_length_a   6.87453900
_cell_length_b   6.87453900
_cell_length_c   12.69889600
_cell_angle_alpha   90.00000000
_cell_angle_beta   90.00000000
_cell_angle_gamma   90.00000000
_symmetry_Int_Tables_number   1
_chemical_formula_structural   Zr2Ti(NbSi2)2
_chemical_formula_sum   'Zr8 Ti4 Nb8 Si16'
_cell_volume   600.14076382
_cell_formula_units_Z   4
loop_
 _symmetry_equiv_pos_site_id
 _symmetry_equiv_pos_as_xyz
  1  'x, y, z'
loop_
 _atom_site_type_symbol
 _atom_site_label
 _atom_site_symmetry_multiplicity
 _atom_site_fract_x
 _atom_site_fract_y
 _atom_site_fract_z
 _atom_site_occupancy
  Zr  Zr0  1  0.344378  0.001637  0.467727  1
  Zr  Zr1  1  0.498364  0.844378  0.717727  1
  Zr  Zr2  1  0.501636  0.155622  0.217727  1
  Zr  Zr3  1  0.844378  0.498364  0.282273  1
  Zr  Zr4  1  0.155622  0.501636  0.782273  1
  Zr  Zr5  1  0.655622  0.998364  0.967727  1
  Zr  Zr6  1  0.001637  0.344378  0.532273  1
  Zr  Zr7  1  0.998364  0.655622  0.032273  1
  Ti  Ti8  1  0.328986  0.328986  0.000000  1
  Ti  Ti9  1  0.171014  0.828986  0.250000  1
  Ti  Ti10  1  0.828986  0.171014  0.750000  1
  Ti  Ti11  1  0.671014  0.671014  0.500000  1
  Nb  Nb12  1  0.151457  0.003797  0.874158  1
  Nb  Nb13  1  0.496203  0.651457  0.124158  1
  Nb  Nb14  1  0.503797  0.348543  0.624158  1
  Nb  Nb15  1  0.651457  0.496203  0.875842  1
  Nb  Nb16  1  0.348543  0.503797  0.375842  1
  Nb  Nb17  1  0.848543  0.996203  0.374158  1
  Nb  Nb18  1  0.003797  0.151457  0.125842  1
  Nb  Nb19  1  0.996203  0.848543  0.625842  1
  Si  Si20  1  0.204566  0.137992  0.679174  1
  Si  Si21  1  0.362008  0.704566  0.929174  1
  Si  Si22  1  0.637992  0.295434  0.429174  1
  Si  Si23  1  0.704566  0.362008  0.070826  1
  Si  Si24  1  0.295434  0.637992  0.570826  1
  Si  Si25  1  0.795434  0.862008  0.179174  1
  Si  Si26  1  0.137992  0.204566  0.320826  1
  Si  Si27  1  0.862008  0.795434  0.820826  1
  Si  Si28  1  0.296602  0.954168  0.064144  1
  Si  Si29  1  0.545832  0.796602  0.314144  1
  Si  Si30  1  0.454168  0.203398  0.814144  1
  Si  Si31  1  0.796602  0.545832  0.685856  1
  Si  Si32  1  0.203398  0.454168  0.185856  1
  Si  Si33  1  0.703398  0.045832  0.564144  1
  Si  Si34  1  0.954168  0.296602  0.935856  1
  Si  Si35  1  0.045832  0.703398  0.435856  1
