# generated using pymatgen
data_DyHo7(Sc3Ga4)4
_symmetry_space_group_name_H-M   'P 1'
_cell_length_a   7.25316704
_cell_length_b   7.55604017
_cell_length_c   14.44432931
_cell_angle_alpha   90.00698067
_cell_angle_beta   90.00695276
_cell_angle_gamma   90.00164180
_symmetry_Int_Tables_number   1
_chemical_formula_structural   DyHo7(Sc3Ga4)4
_chemical_formula_sum   'Dy1 Ho7 Sc12 Ga16'
_cell_volume   791.62465556
_cell_formula_units_Z   1
loop_
 _symmetry_equiv_pos_site_id
 _symmetry_equiv_pos_as_xyz
  1  'x, y, z'
loop_
 _atom_site_type_symbol
 _atom_site_label
 _atom_site_symmetry_multiplicity
 _atom_site_fract_x
 _atom_site_fract_y
 _atom_site_fract_z
 _atom_site_occupancy
  Dy  Dy0  1  0.010844  0.178997  0.094644  1
  Ho  Ho1  1  0.989378  0.820562  0.904955  1
  Ho  Ho2  1  0.489368  0.679409  0.905105  1
  Ho  Ho3  1  0.989258  0.820726  0.594804  1
  Ho  Ho4  1  0.510785  0.320785  0.094811  1
  Ho  Ho5  1  0.010641  0.179309  0.405144  1
  Ho  Ho6  1  0.510720  0.320710  0.405324  1
  Ho  Ho7  1  0.489244  0.679250  0.594804  1
  Sc  Sc8  1  0.162710  0.503290  0.749909  1
  Sc  Sc9  1  0.837292  0.497097  0.250143  1
  Sc  Sc10  1  0.337452  0.002974  0.250218  1
  Sc  Sc11  1  0.662603  0.996793  0.749876  1
  Sc  Sc12  1  0.330382  0.173425  0.624525  1
  Sc  Sc13  1  0.669514  0.826564  0.375661  1
  Sc  Sc14  1  0.169649  0.673378  0.375704  1
  Sc  Sc15  1  0.669202  0.826639  0.124533  1
  Sc  Sc16  1  0.830431  0.326507  0.624499  1
  Sc  Sc17  1  0.330545  0.173314  0.875504  1
  Sc  Sc18  1  0.830291  0.326777  0.875393  1
  Sc  Sc19  1  0.169654  0.673271  0.124414  1
  Ga  Ga20  1  0.031241  0.117275  0.750157  1
  Ga  Ga21  1  0.968643  0.882642  0.250020  1
  Ga  Ga22  1  0.468541  0.617120  0.250012  1
  Ga  Ga23  1  0.531289  0.382806  0.750142  1
  Ga  Ga24  1  0.283618  0.871080  0.749982  1
  Ga  Ga25  1  0.716210  0.128963  0.250119  1
  Ga  Ga26  1  0.216598  0.371056  0.250073  1
  Ga  Ga27  1  0.783638  0.629093  0.750014  1
  Ga  Ga28  1  0.162413  0.465606  0.540396  1
  Ga  Ga29  1  0.837537  0.534079  0.459776  1
  Ga  Ga30  1  0.337496  0.965833  0.459749  1
  Ga  Ga31  1  0.837246  0.534624  0.040066  1
  Ga  Ga32  1  0.662359  0.034300  0.540429  1
  Ga  Ga33  1  0.162636  0.465940  0.959445  1
  Ga  Ga34  1  0.662572  0.034362  0.959551  1
  Ga  Ga35  1  0.338000  0.965445  0.040098  1
