# generated using pymatgen
data_Y2Sc2B12IrRh
_symmetry_space_group_name_H-M   'P 1'
_cell_length_a   3.55533200
_cell_length_b   9.01600375
_cell_length_c   11.38599594
_cell_angle_alpha   89.95334223
_cell_angle_beta   90.00000000
_cell_angle_gamma   90.00000000
_symmetry_Int_Tables_number   1
_chemical_formula_structural   Y2Sc2B12IrRh
_chemical_formula_sum   'Y4 Sc4 B24 Ir2 Rh2'
_cell_volume   364.97668819
_cell_formula_units_Z   2
loop_
 _symmetry_equiv_pos_site_id
 _symmetry_equiv_pos_as_xyz
  1  'x, y, z'
loop_
 _atom_site_type_symbol
 _atom_site_label
 _atom_site_symmetry_multiplicity
 _atom_site_fract_x
 _atom_site_fract_y
 _atom_site_fract_z
 _atom_site_occupancy
  Y  Y0  1  0.500000  0.319397  0.413476  1
  Y  Y1  1  0.500000  0.680603  0.586524  1
  Y  Y2  1  0.500000  0.179270  0.914509  1
  Y  Y3  1  0.500000  0.820730  0.085491  1
  Sc  Sc4  1  0.500000  0.444451  0.124505  1
  Sc  Sc5  1  0.500000  0.555549  0.875495  1
  Sc  Sc6  1  0.500000  0.054691  0.624819  1
  Sc  Sc7  1  0.500000  0.945309  0.375181  1
  B  B8  1  0.000000  0.099824  0.473024  1
  B  B9  1  0.000000  0.900176  0.526976  1
  B  B10  1  0.000000  0.399971  0.973002  1
  B  B11  1  0.000000  0.600029  0.026998  1
  B  B12  1  0.000000  0.130108  0.318366  1
  B  B13  1  0.000000  0.869892  0.681634  1
  B  B14  1  0.000000  0.370390  0.818344  1
  B  B15  1  0.000000  0.629610  0.181656  1
  B  B16  1  0.000000  0.054687  0.065785  1
  B  B17  1  0.000000  0.945313  0.934215  1
  B  B18  1  0.000000  0.445094  0.566077  1
  B  B19  1  0.000000  0.554906  0.433923  1
  B  B20  1  0.000000  0.481614  0.284935  1
  B  B21  1  0.000000  0.518386  0.715065  1
  B  B22  1  0.000000  0.017927  0.785137  1
  B  B23  1  0.000000  0.982073  0.214863  1
  B  B24  1  0.000000  0.253831  0.080637  1
  B  B25  1  0.000000  0.746169  0.919363  1
  B  B26  1  0.000000  0.245634  0.580519  1
  B  B27  1  0.000000  0.754366  0.419481  1
  B  B28  1  0.000000  0.295699  0.235497  1
  B  B29  1  0.000000  0.704301  0.764503  1
  B  B30  1  0.000000  0.204085  0.735261  1
  B  B31  1  0.000000  0.795915  0.264739  1
  Ir  Ir32  1  0.500000  0.358635  0.681271  1
  Ir  Ir33  1  0.500000  0.641365  0.318729  1
  Rh  Rh34  1  0.500000  0.141711  0.182050  1
  Rh  Rh35  1  0.500000  0.858289  0.817950  1
