# generated using pymatgen
data_K7Rb5(SnSe3)4
_symmetry_space_group_name_H-M   'P 1'
_cell_length_a   9.31177201
_cell_length_b   13.27122260
_cell_length_c   9.14902936
_cell_angle_alpha   90.11483616
_cell_angle_beta   115.50059623
_cell_angle_gamma   90.13727544
_symmetry_Int_Tables_number   1
_chemical_formula_structural   K7Rb5(SnSe3)4
_chemical_formula_sum   'K7 Rb5 Sn4 Se12'
_cell_volume   1020.47102806
_cell_formula_units_Z   1
loop_
 _symmetry_equiv_pos_site_id
 _symmetry_equiv_pos_as_xyz
  1  'x, y, z'
loop_
 _atom_site_type_symbol
 _atom_site_label
 _atom_site_symmetry_multiplicity
 _atom_site_fract_x
 _atom_site_fract_y
 _atom_site_fract_z
 _atom_site_occupancy
  K  K0  1  0.997406  0.663448  0.487105  1
  K  K1  1  0.997518  0.836088  0.987147  1
  K  K2  1  0.002560  0.336791  0.512832  1
  K  K3  1  0.777734  0.068629  0.292267  1
  K  K4  1  0.221972  0.569010  0.208227  1
  K  K5  1  0.222176  0.930920  0.708114  1
  K  K6  1  0.777837  0.431578  0.791462  1
  Rb  Rb7  1  0.001620  0.162105  0.013072  1
  Rb  Rb8  1  0.439081  0.288059  0.311139  1
  Rb  Rb9  1  0.560924  0.787462  0.188513  1
  Rb  Rb10  1  0.560518  0.712558  0.688132  1
  Rb  Rb11  1  0.439298  0.212590  0.811813  1
  Sn  Sn12  1  0.658872  0.008090  0.628532  1
  Sn  Sn13  1  0.340883  0.509033  0.870188  1
  Sn  Sn14  1  0.341133  0.991415  0.371494  1
  Sn  Sn15  1  0.658932  0.492583  0.129575  1
  Se  Se16  1  0.831944  0.875368  0.575733  1
  Se  Se17  1  0.168866  0.376003  0.924434  1
  Se  Se18  1  0.171315  0.123644  0.431008  1
  Se  Se19  1  0.832030  0.625046  0.075135  1
  Se  Se20  1  0.653349  0.970609  0.900897  1
  Se  Se21  1  0.346089  0.470743  0.597909  1
  Se  Se22  1  0.351607  0.027139  0.100896  1
  Se  Se23  1  0.653981  0.529667  0.402261  1
  Se  Se24  1  0.757737  0.187568  0.618146  1
  Se  Se25  1  0.237017  0.687448  0.873744  1
  Se  Se26  1  0.236639  0.812620  0.373587  1
  Se  Se27  1  0.760965  0.313783  0.126631  1
