# generated using pymatgen
data_Ce2TmAl2Ge3
_symmetry_space_group_name_H-M   'P 1'
_cell_length_a   7.92356106
_cell_length_b   7.92303329
_cell_length_c   7.92356065
_cell_angle_alpha   120.17446495
_cell_angle_beta   120.18486663
_cell_angle_gamma   89.69099590
_symmetry_Int_Tables_number   1
_chemical_formula_structural   Ce2TmAl2Ge3
_chemical_formula_sum   'Ce4 Tm2 Al4 Ge6'
_cell_volume   350.76977775
_cell_formula_units_Z   2
loop_
 _symmetry_equiv_pos_site_id
 _symmetry_equiv_pos_as_xyz
  1  'x, y, z'
loop_
 _atom_site_type_symbol
 _atom_site_label
 _atom_site_symmetry_multiplicity
 _atom_site_fract_x
 _atom_site_fract_y
 _atom_site_fract_z
 _atom_site_occupancy
  Ce  Ce0  1  0.664412  0.164442  0.820898  1
  Ce  Ce1  1  0.343497  0.843569  0.178772  1
  Ce  Ce2  1  0.843544  0.664442  0.500030  1
  Ce  Ce3  1  0.164797  0.343569  0.500072  1
  Tm  Tm4  1  0.734149  0.734238  0.000068  1
  Tm  Tm5  1  0.234170  0.234238  0.000089  1
  Al  Al6  1  0.948576  0.448338  0.766391  1
  Al  Al7  1  0.682112  0.181861  0.233894  1
  Al  Al8  1  0.181947  0.948338  0.499762  1
  Al  Al9  1  0.447967  0.681861  0.499749  1
  Ge  Ge10  1  0.479931  0.480617  0.999626  1
  Ge  Ge11  1  0.980991  0.980617  0.000685  1
  Ge  Ge12  1  0.042907  0.542755  0.188428  1
  Ge  Ge13  1  0.354329  0.854182  0.811834  1
  Ge  Ge14  1  0.854327  0.042755  0.499848  1
  Ge  Ge15  1  0.542348  0.354182  0.499853  1
