# generated using pymatgen
data_Nd6Cr5P12Rh13
_symmetry_space_group_name_H-M   'P 1'
_cell_length_a   3.92924800
_cell_length_b   11.28032240
_cell_length_c   12.91865288
_cell_angle_alpha   90.08890261
_cell_angle_beta   90.00000000
_cell_angle_gamma   90.00000000
_symmetry_Int_Tables_number   1
_chemical_formula_structural   Nd6Cr5P12Rh13
_chemical_formula_sum   'Nd6 Cr5 P12 Rh13'
_cell_volume   572.59514239
_cell_formula_units_Z   1
loop_
 _symmetry_equiv_pos_site_id
 _symmetry_equiv_pos_as_xyz
  1  'x, y, z'
loop_
 _atom_site_type_symbol
 _atom_site_label
 _atom_site_symmetry_multiplicity
 _atom_site_fract_x
 _atom_site_fract_y
 _atom_site_fract_z
 _atom_site_occupancy
  Nd  Nd0  1  0.000000  0.501346  0.518387  1
  Nd  Nd1  1  0.500000  0.998990  0.480903  1
  Nd  Nd2  1  0.500000  0.817604  0.201094  1
  Nd  Nd3  1  0.500000  0.181490  0.203786  1
  Nd  Nd4  1  0.000000  0.680745  0.797947  1
  Nd  Nd5  1  0.000000  0.320002  0.795222  1
  Cr  Cr6  1  0.500000  0.493873  0.160488  1
  Cr  Cr7  1  0.000000  0.002086  0.840478  1
  Cr  Cr8  1  0.000000  0.498074  0.989431  1
  Cr  Cr9  1  0.500000  0.001684  0.010156  1
  Cr  Cr10  1  0.500000  0.334025  0.997806  1
  P  P11  1  0.500000  0.495066  0.885381  1
  P  P12  1  0.000000  0.001498  0.114981  1
  P  P13  1  0.500000  0.501090  0.341000  1
  P  P14  1  0.000000  0.999495  0.658016  1
  P  P15  1  0.500000  0.310659  0.616845  1
  P  P16  1  0.500000  0.688894  0.617301  1
  P  P17  1  0.000000  0.189511  0.382939  1
  P  P18  1  0.000000  0.811866  0.382157  1
  P  P19  1  0.500000  0.850826  0.894994  1
  P  P20  1  0.500000  0.153637  0.893493  1
  P  P21  1  0.000000  0.646983  0.105295  1
  P  P22  1  0.000000  0.351304  0.107518  1
  Rh  Rh23  1  0.500000  0.500071  0.699460  1
  Rh  Rh24  1  0.000000  0.000578  0.299518  1
  Rh  Rh25  1  0.500000  0.663290  0.996249  1
  Rh  Rh26  1  0.000000  0.169440  0.004465  1
  Rh  Rh27  1  0.000000  0.835760  0.003718  1
  Rh  Rh28  1  0.500000  0.292642  0.430603  1
  Rh  Rh29  1  0.500000  0.708016  0.430248  1
  Rh  Rh30  1  0.000000  0.207038  0.569449  1
  Rh  Rh31  1  0.000000  0.792607  0.569938  1
  Rh  Rh32  1  0.500000  0.876187  0.712557  1
  Rh  Rh33  1  0.500000  0.122526  0.710529  1
  Rh  Rh34  1  0.000000  0.623752  0.287517  1
  Rh  Rh35  1  0.000000  0.377343  0.290131  1
