# generated using pymatgen
data_Dy4Al18IrRuPt4
_symmetry_space_group_name_H-M   'P 1'
_cell_length_a   7.59122715
_cell_length_b   7.59123126
_cell_length_c   9.43327748
_cell_angle_alpha   89.95042699
_cell_angle_beta   89.95042451
_cell_angle_gamma   119.54699678
_symmetry_Int_Tables_number   1
_chemical_formula_structural   Dy4Al18IrRuPt4
_chemical_formula_sum   'Dy4 Al18 Ir1 Ru1 Pt4'
_cell_volume   472.91295930
_cell_formula_units_Z   1
loop_
 _symmetry_equiv_pos_site_id
 _symmetry_equiv_pos_as_xyz
  1  'x, y, z'
loop_
 _atom_site_type_symbol
 _atom_site_label
 _atom_site_symmetry_multiplicity
 _atom_site_fract_x
 _atom_site_fract_y
 _atom_site_fract_z
 _atom_site_occupancy
  Dy  Dy0  1  0.994940  0.670096  0.749757  1
  Dy  Dy1  1  0.005060  0.329904  0.250243  1
  Dy  Dy2  1  0.670096  0.994940  0.749757  1
  Dy  Dy3  1  0.329904  0.005060  0.250243  1
  Al  Al4  1  0.125512  0.125512  0.748211  1
  Al  Al5  1  0.874488  0.874488  0.251789  1
  Al  Al6  1  0.999874  0.329171  0.575476  1
  Al  Al7  1  0.000126  0.670829  0.424524  1
  Al  Al8  1  0.999810  0.668365  0.076396  1
  Al  Al9  1  0.331635  0.000190  0.923604  1
  Al  Al10  1  0.000190  0.331635  0.923604  1
  Al  Al11  1  0.668365  0.999810  0.076396  1
  Al  Al12  1  0.670829  0.000126  0.424524  1
  Al  Al13  1  0.329171  0.999874  0.575476  1
  Al  Al14  1  0.329937  0.329937  0.055662  1
  Al  Al15  1  0.670063  0.670063  0.944338  1
  Al  Al16  1  0.672112  0.672112  0.555047  1
  Al  Al17  1  0.327888  0.327888  0.444953  1
  Al  Al18  1  0.340291  0.546034  0.749809  1
  Al  Al19  1  0.659709  0.453966  0.250191  1
  Al  Al20  1  0.546034  0.340291  0.749809  1
  Al  Al21  1  0.453966  0.659709  0.250191  1
  Ir  Ir22  1  0.000000  0.000000  0.000000  1
  Ru  Ru23  1  0.000000  0.000000  0.500000  1
  Pt  Pt24  1  0.672363  0.327636  0.500000  1
  Pt  Pt25  1  0.327637  0.672364  0.500000  1
  Pt  Pt26  1  0.327738  0.672262  0.000000  1
  Pt  Pt27  1  0.672262  0.327738  0.000000  1
