# generated using pymatgen
data_Th10AgBi5Pb2
_symmetry_space_group_name_H-M   'P 1'
_cell_length_a   9.75941808
_cell_length_b   9.75941877
_cell_length_c   6.66314195
_cell_angle_alpha   90.03050230
_cell_angle_beta   90.03050521
_cell_angle_gamma   120.04443089
_symmetry_Int_Tables_number   1
_chemical_formula_structural   Th10AgBi5Pb2
_chemical_formula_sum   'Th10 Ag1 Bi5 Pb2'
_cell_volume   549.36718264
_cell_formula_units_Z   1
loop_
 _symmetry_equiv_pos_site_id
 _symmetry_equiv_pos_as_xyz
  1  'x, y, z'
loop_
 _atom_site_type_symbol
 _atom_site_label
 _atom_site_symmetry_multiplicity
 _atom_site_fract_x
 _atom_site_fract_y
 _atom_site_fract_z
 _atom_site_occupancy
  Th  Th0  1  0.667363  0.333349  0.500631  1
  Th  Th1  1  0.333349  0.667363  0.500631  1
  Th  Th2  1  0.331761  0.666249  0.998761  1
  Th  Th3  1  0.666249  0.331761  0.998761  1
  Th  Th4  1  0.720401  0.720401  0.260539  1
  Th  Th5  1  0.280294  0.999908  0.259569  1
  Th  Th6  1  0.999908  0.280294  0.259569  1
  Th  Th7  1  0.280633  0.280633  0.740411  1
  Th  Th8  1  0.719932  0.001759  0.740187  1
  Th  Th9  1  0.001759  0.719932  0.740187  1
  Ag  Ag10  1  0.000289  0.000289  0.502125  1
  Bi  Bi11  1  0.999753  0.999753  0.999642  1
  Bi  Bi12  1  0.378278  0.378278  0.248540  1
  Bi  Bi13  1  0.621156  0.000440  0.248403  1
  Bi  Bi14  1  0.000440  0.621156  0.248403  1
  Bi  Bi15  1  0.621182  0.621182  0.751601  1
  Pb  Pb16  1  0.377161  0.000093  0.751020  1
  Pb  Pb17  1  0.000093  0.377161  0.751020  1
