# generated using pymatgen
data_Dy8Er9Sc3Si13Ir3
_symmetry_space_group_name_H-M   'P 1'
_cell_length_a   7.18556068
_cell_length_b   7.74367863
_cell_length_c   14.34579700
_cell_angle_alpha   90.00000000
_cell_angle_beta   90.00000000
_cell_angle_gamma   90.10404283
_symmetry_Int_Tables_number   1
_chemical_formula_structural   Dy8Er9Sc3Si13Ir3
_chemical_formula_sum   'Dy8 Er9 Sc3 Si13 Ir3'
_cell_volume   798.23717154
_cell_formula_units_Z   1
loop_
 _symmetry_equiv_pos_site_id
 _symmetry_equiv_pos_as_xyz
  1  'x, y, z'
loop_
 _atom_site_type_symbol
 _atom_site_label
 _atom_site_symmetry_multiplicity
 _atom_site_fract_x
 _atom_site_fract_y
 _atom_site_fract_z
 _atom_site_occupancy
  Dy  Dy0  1  0.010123  0.176648  0.094685  1
  Dy  Dy1  1  0.988549  0.823497  0.905859  1
  Dy  Dy2  1  0.486931  0.684215  0.905766  1
  Dy  Dy3  1  0.988549  0.823497  0.594141  1
  Dy  Dy4  1  0.509168  0.320249  0.095764  1
  Dy  Dy5  1  0.010123  0.176648  0.405315  1
  Dy  Dy6  1  0.509168  0.320249  0.404236  1
  Dy  Dy7  1  0.486931  0.684215  0.594234  1
  Er  Er8  1  0.831914  0.486940  0.250000  1
  Er  Er9  1  0.315570  0.175394  0.628882  1
  Er  Er10  1  0.681580  0.827947  0.371931  1
  Er  Er11  1  0.184225  0.676771  0.371128  1
  Er  Er12  1  0.681580  0.827947  0.128069  1
  Er  Er13  1  0.831376  0.316454  0.628864  1
  Er  Er14  1  0.315570  0.175394  0.871118  1
  Er  Er15  1  0.831376  0.316454  0.871136  1
  Er  Er16  1  0.184225  0.676771  0.128872  1
  Sc  Sc17  1  0.156992  0.522630  0.750000  1
  Sc  Sc18  1  0.328682  0.013512  0.250000  1
  Sc  Sc19  1  0.669460  0.981669  0.750000  1
  Si  Si20  1  0.523228  0.408436  0.750000  1
  Si  Si21  1  0.285291  0.859447  0.750000  1
  Si  Si22  1  0.716047  0.132865  0.250000  1
  Si  Si23  1  0.223976  0.360298  0.250000  1
  Si  Si24  1  0.775259  0.629730  0.750000  1
  Si  Si25  1  0.155394  0.474159  0.541631  1
  Si  Si26  1  0.846788  0.529881  0.464371  1
  Si  Si27  1  0.345435  0.973383  0.462088  1
  Si  Si28  1  0.846788  0.529881  0.035629  1
  Si  Si29  1  0.649743  0.030032  0.541506  1
  Si  Si30  1  0.155394  0.474159  0.958369  1
  Si  Si31  1  0.649743  0.030032  0.958494  1
  Si  Si32  1  0.345435  0.973383  0.037912  1
  Ir  Ir33  1  0.018075  0.083154  0.750000  1
  Ir  Ir34  1  0.982376  0.912531  0.250000  1
  Ir  Ir35  1  0.478934  0.591526  0.250000  1
