# generated using pymatgen
data_Yb(UH4)3
_symmetry_space_group_name_H-M   'P 1'
_cell_length_a   6.60942400
_cell_length_b   6.61202500
_cell_length_c   6.61202500
_cell_angle_alpha   90.00000000
_cell_angle_beta   90.00000000
_cell_angle_gamma   90.00000000
_symmetry_Int_Tables_number   1
_chemical_formula_structural   Yb(UH4)3
_chemical_formula_sum   'Yb2 U6 H24'
_cell_volume   288.95657904
_cell_formula_units_Z   2
loop_
 _symmetry_equiv_pos_site_id
 _symmetry_equiv_pos_as_xyz
  1  'x, y, z'
loop_
 _atom_site_type_symbol
 _atom_site_label
 _atom_site_symmetry_multiplicity
 _atom_site_fract_x
 _atom_site_fract_y
 _atom_site_fract_z
 _atom_site_occupancy
  Yb  Yb0  1  0.250000  0.000000  0.500000  1
  Yb  Yb1  1  0.750000  0.000000  0.500000  1
  U  U2  1  0.000000  0.000000  0.000000  1
  U  U3  1  0.500000  0.500000  0.500000  1
  U  U4  1  0.000000  0.500000  0.252832  1
  U  U5  1  0.000000  0.500000  0.747168  1
  U  U6  1  0.500000  0.752832  0.000000  1
  U  U7  1  0.500000  0.247168  0.000000  1
  H  H8  1  0.000000  0.160064  0.292473  1
  H  H9  1  0.500000  0.207527  0.660064  1
  H  H10  1  0.500000  0.792473  0.339936  1
  H  H11  1  0.808500  0.648554  0.500000  1
  H  H12  1  0.191500  0.648554  0.500000  1
  H  H13  1  0.344764  0.500000  0.804082  1
  H  H14  1  0.655236  0.500000  0.804082  1
  H  H15  1  0.308500  0.000000  0.148554  1
  H  H16  1  0.155236  0.304082  0.000000  1
  H  H17  1  0.844764  0.695918  0.000000  1
  H  H18  1  0.308500  0.000000  0.851446  1
  H  H19  1  0.844764  0.304082  0.000000  1
  H  H20  1  0.691500  0.000000  0.148554  1
  H  H21  1  0.691500  0.000000  0.851446  1
  H  H22  1  0.155236  0.695918  0.000000  1
  H  H23  1  0.000000  0.839936  0.707527  1
  H  H24  1  0.000000  0.160064  0.707527  1
  H  H25  1  0.000000  0.839936  0.292473  1
  H  H26  1  0.655236  0.500000  0.195918  1
  H  H27  1  0.344764  0.500000  0.195918  1
  H  H28  1  0.808500  0.351446  0.500000  1
  H  H29  1  0.191500  0.351446  0.500000  1
  H  H30  1  0.500000  0.792473  0.660064  1
  H  H31  1  0.500000  0.207527  0.339936  1
