# generated using pymatgen
data_Pr2YIr7Rh2
_symmetry_space_group_name_H-M   'P 1'
_cell_length_a   5.37152400
_cell_length_b   5.37152466
_cell_length_c   17.59047800
_cell_angle_alpha   90.00000000
_cell_angle_beta   90.00000000
_cell_angle_gamma   119.99999595
_symmetry_Int_Tables_number   1
_chemical_formula_structural   Pr2YIr7Rh2
_chemical_formula_sum   'Pr4 Y2 Ir14 Rh4'
_cell_volume   439.54504095
_cell_formula_units_Z   2
loop_
 _symmetry_equiv_pos_site_id
 _symmetry_equiv_pos_as_xyz
  1  'x, y, z'
loop_
 _atom_site_type_symbol
 _atom_site_label
 _atom_site_symmetry_multiplicity
 _atom_site_fract_x
 _atom_site_fract_y
 _atom_site_fract_z
 _atom_site_occupancy
  Pr  Pr0  1  0.333333  0.666667  0.958113  1
  Pr  Pr1  1  0.666667  0.333333  0.041887  1
  Pr  Pr2  1  0.333333  0.666667  0.747130  1
  Pr  Pr3  1  0.666667  0.333333  0.252870  1
  Y  Y4  1  0.666667  0.333333  0.459903  1
  Y  Y5  1  0.333333  0.666667  0.540097  1
  Ir  Ir6  1  0.167733  0.832267  0.376373  1
  Ir  Ir7  1  0.167733  0.335465  0.376373  1
  Ir  Ir8  1  0.664535  0.832267  0.376373  1
  Ir  Ir9  1  0.832267  0.167733  0.623627  1
  Ir  Ir10  1  0.832267  0.664535  0.623627  1
  Ir  Ir11  1  0.335465  0.167733  0.623627  1
  Ir  Ir12  1  0.833530  0.166470  0.870280  1
  Ir  Ir13  1  0.833530  0.667061  0.870280  1
  Ir  Ir14  1  0.332939  0.166470  0.870280  1
  Ir  Ir15  1  0.166470  0.833530  0.129720  1
  Ir  Ir16  1  0.166470  0.332939  0.129720  1
  Ir  Ir17  1  0.667061  0.833530  0.129720  1
  Ir  Ir18  1  0.000000  0.000000  0.500000  1
  Ir  Ir19  1  0.000000  0.000000  0.000000  1
  Rh  Rh20  1  0.333333  0.666667  0.252130  1
  Rh  Rh21  1  0.666667  0.333333  0.747870  1
  Rh  Rh22  1  0.000000  0.000000  0.253057  1
  Rh  Rh23  1  0.000000  0.000000  0.746943  1
