# generated using pymatgen
data_HoEr2Sn3GeIr2
_symmetry_space_group_name_H-M   'P 1'
_cell_length_a   7.37541533
_cell_length_b   7.37873835
_cell_length_c   4.16575100
_cell_angle_alpha   90.00000000
_cell_angle_beta   90.00000000
_cell_angle_gamma   120.01952669
_symmetry_Int_Tables_number   1
_chemical_formula_structural   HoEr2Sn3GeIr2
_chemical_formula_sum   'Ho1 Er2 Sn3 Ge1 Ir2'
_cell_volume   196.29400877
_cell_formula_units_Z   1
loop_
 _symmetry_equiv_pos_site_id
 _symmetry_equiv_pos_as_xyz
  1  'x, y, z'
loop_
 _atom_site_type_symbol
 _atom_site_label
 _atom_site_symmetry_multiplicity
 _atom_site_fract_x
 _atom_site_fract_y
 _atom_site_fract_z
 _atom_site_occupancy
  Ho  Ho0  1  0.399287  0.413182  0.500000  1
  Er  Er1  1  0.586812  0.985727  0.500000  1
  Er  Er2  1  0.014342  0.601176  0.500000  1
  Sn  Sn3  1  0.741474  0.754168  0.000000  1
  Sn  Sn4  1  0.246025  0.987300  0.000000  1
  Sn  Sn5  1  0.012384  0.258590  0.000000  1
  Ge  Ge6  1  0.666861  0.333233  0.000000  1
  Ir  Ir7  1  0.333197  0.667002  0.000000  1
  Ir  Ir8  1  0.999618  0.999621  0.500000  1
