# generated using pymatgen
data_Ca5Yb(PN)2
_symmetry_space_group_name_H-M   'P 1'
_cell_length_a   6.54012500
_cell_length_b   6.53820900
_cell_length_c   9.25250100
_cell_angle_alpha   90.00000000
_cell_angle_beta   90.00000000
_cell_angle_gamma   90.00000000
_symmetry_Int_Tables_number   1
_chemical_formula_structural   Ca5Yb(PN)2
_chemical_formula_sum   'Ca10 Yb2 P4 N4'
_cell_volume   395.64345778
_cell_formula_units_Z   2
loop_
 _symmetry_equiv_pos_site_id
 _symmetry_equiv_pos_as_xyz
  1  'x, y, z'
loop_
 _atom_site_type_symbol
 _atom_site_label
 _atom_site_symmetry_multiplicity
 _atom_site_fract_x
 _atom_site_fract_y
 _atom_site_fract_z
 _atom_site_occupancy
  Ca  Ca0  1  0.790313  0.789477  0.035009  1
  Ca  Ca1  1  0.709687  0.289477  0.464991  1
  Ca  Ca2  1  0.208304  0.209190  0.536759  1
  Ca  Ca3  1  0.291696  0.709190  0.963241  1
  Ca  Ca4  1  0.208304  0.209190  0.963241  1
  Ca  Ca5  1  0.291696  0.709190  0.536759  1
  Ca  Ca6  1  0.790313  0.789477  0.464991  1
  Ca  Ca7  1  0.709687  0.289477  0.035009  1
  Ca  Ca8  1  0.431118  0.983617  0.250000  1
  Ca  Ca9  1  0.068882  0.483617  0.250000  1
  Yb  Yb10  1  0.570524  0.020259  0.750000  1
  Yb  Yb11  1  0.929476  0.520259  0.750000  1
  P  P12  1  0.507723  0.534804  0.250000  1
  P  P13  1  0.992277  0.034804  0.250000  1
  P  P14  1  0.495834  0.464012  0.750000  1
  P  P15  1  0.004166  0.964012  0.750000  1
  N  N16  1  0.000753  0.499988  0.998708  1
  N  N17  1  0.499247  0.999988  0.501292  1
  N  N18  1  0.000753  0.499988  0.501292  1
  N  N19  1  0.499247  0.999988  0.998708  1
