# generated using pymatgen
data_Tm12In2Tc3
_symmetry_space_group_name_H-M   'P 1'
_cell_length_a   8.36047679
_cell_length_b   8.36047707
_cell_length_c   8.36047669
_cell_angle_alpha   108.80937830
_cell_angle_beta   108.80938301
_cell_angle_gamma   110.80317084
_symmetry_Int_Tables_number   1
_chemical_formula_structural   Tm12In2Tc3
_chemical_formula_sum   'Tm12 In2 Tc3'
_cell_volume   449.67082428
_cell_formula_units_Z   1
loop_
 _symmetry_equiv_pos_site_id
 _symmetry_equiv_pos_as_xyz
  1  'x, y, z'
loop_
 _atom_site_type_symbol
 _atom_site_label
 _atom_site_symmetry_multiplicity
 _atom_site_fract_x
 _atom_site_fract_y
 _atom_site_fract_z
 _atom_site_occupancy
  Tm  Tm0  1  0.189619  0.428924  0.239305  1
  Tm  Tm1  1  0.810381  0.571076  0.760695  1
  Tm  Tm2  1  0.189619  0.950315  0.760695  1
  Tm  Tm3  1  0.950315  0.189619  0.760695  1
  Tm  Tm4  1  0.810381  0.049685  0.239305  1
  Tm  Tm5  1  0.049685  0.810381  0.239305  1
  Tm  Tm6  1  0.428924  0.189619  0.239305  1
  Tm  Tm7  1  0.571076  0.810381  0.760695  1
  Tm  Tm8  1  0.305413  0.305413  0.610827  1
  Tm  Tm9  1  0.694587  0.694587  0.389173  1
  Tm  Tm10  1  0.694587  0.305413  0.000000  1
  Tm  Tm11  1  0.305413  0.694587  0.000000  1
  In  In12  1  0.000000  0.500000  0.500000  1
  In  In13  1  0.500000  0.000000  0.500000  1
  Tc  Tc14  1  0.371323  0.371323  0.000000  1
  Tc  Tc15  1  0.628677  0.628677  0.000000  1
  Tc  Tc16  1  0.000000  0.000000  0.000000  1
