# generated using pymatgen
data_Tb7Y(TmBi)12
_symmetry_space_group_name_H-M   'P 1'
_cell_length_a   8.22411210
_cell_length_b   9.43325400
_cell_length_c   12.03932815
_cell_angle_alpha   90.00000000
_cell_angle_beta   89.98190316
_cell_angle_gamma   90.00000000
_symmetry_Int_Tables_number   1
_chemical_formula_structural   Tb7Y(TmBi)12
_chemical_formula_sum   'Tb7 Y1 Tm12 Bi12'
_cell_volume   934.01269740
_cell_formula_units_Z   1
loop_
 _symmetry_equiv_pos_site_id
 _symmetry_equiv_pos_as_xyz
  1  'x, y, z'
loop_
 _atom_site_type_symbol
 _atom_site_label
 _atom_site_symmetry_multiplicity
 _atom_site_fract_x
 _atom_site_fract_y
 _atom_site_fract_z
 _atom_site_occupancy
  Tb  Tb0  1  0.186492  0.750000  0.718692  1
  Tb  Tb1  1  0.686401  0.750000  0.781270  1
  Tb  Tb2  1  0.813520  0.250000  0.281285  1
  Tb  Tb3  1  0.313505  0.250000  0.218679  1
  Tb  Tb4  1  0.353708  0.750000  0.216140  1
  Tb  Tb5  1  0.853789  0.750000  0.283789  1
  Tb  Tb6  1  0.646132  0.250000  0.783820  1
  Y  Y7  1  0.146287  0.250000  0.716029  1
  Tm  Tm8  1  0.025088  0.750000  0.988906  1
  Tm  Tm9  1  0.524964  0.750000  0.511134  1
  Tm  Tm10  1  0.975045  0.250000  0.011028  1
  Tm  Tm11  1  0.474888  0.250000  0.488905  1
  Tm  Tm12  1  0.306909  0.434349  0.940507  1
  Tm  Tm13  1  0.806827  0.065643  0.559517  1
  Tm  Tm14  1  0.693136  0.934335  0.059502  1
  Tm  Tm15  1  0.193154  0.565709  0.440530  1
  Tm  Tm16  1  0.693136  0.565665  0.059502  1
  Tm  Tm17  1  0.193154  0.934291  0.440530  1
  Tm  Tm18  1  0.306909  0.065651  0.940507  1
  Tm  Tm19  1  0.806827  0.434357  0.559517  1
  Bi  Bi20  1  0.433916  0.003981  0.672427  1
  Bi  Bi21  1  0.933950  0.495962  0.827551  1
  Bi  Bi22  1  0.566097  0.503976  0.327585  1
  Bi  Bi23  1  0.066093  0.996053  0.172432  1
  Bi  Bi24  1  0.566097  0.996024  0.327585  1
  Bi  Bi25  1  0.066093  0.503947  0.172432  1
  Bi  Bi26  1  0.433916  0.496019  0.672427  1
  Bi  Bi27  1  0.933950  0.004038  0.827551  1
  Bi  Bi28  1  0.406777  0.750000  0.957705  1
  Bi  Bi29  1  0.906725  0.750000  0.542258  1
  Bi  Bi30  1  0.593259  0.250000  0.042278  1
  Bi  Bi31  1  0.093254  0.250000  0.457980  1
