# generated using pymatgen
data_Ho2Mn3Fe2(CoP)7
_symmetry_space_group_name_H-M   'P 1'
_cell_length_a   9.04863718
_cell_length_b   9.03284305
_cell_length_c   3.60155000
_cell_angle_alpha   90.00000000
_cell_angle_beta   90.00000000
_cell_angle_gamma   119.99938601
_symmetry_Int_Tables_number   1
_chemical_formula_structural   Ho2Mn3Fe2(CoP)7
_chemical_formula_sum   'Ho2 Mn3 Fe2 Co7 P7'
_cell_volume   254.93555301
_cell_formula_units_Z   1
loop_
 _symmetry_equiv_pos_site_id
 _symmetry_equiv_pos_as_xyz
  1  'x, y, z'
loop_
 _atom_site_type_symbol
 _atom_site_label
 _atom_site_symmetry_multiplicity
 _atom_site_fract_x
 _atom_site_fract_y
 _atom_site_fract_z
 _atom_site_occupancy
  Ho  Ho0  1  0.666695  0.333649  0.000000  1
  Ho  Ho1  1  0.333412  0.666922  0.500000  1
  Mn  Mn2  1  0.101538  0.222509  0.500000  1
  Mn  Mn3  1  0.777984  0.879995  0.500000  1
  Mn  Mn4  1  0.123968  0.898011  0.500000  1
  Fe  Fe5  1  0.434752  0.385324  0.500000  1
  Fe  Fe6  1  0.613108  0.049588  0.500000  1
  Co  Co7  1  0.063329  0.432116  0.000000  1
  Co  Co8  1  0.570062  0.632782  0.000000  1
  Co  Co9  1  0.367923  0.938479  0.000000  1
  Co  Co10  1  0.274448  0.155827  0.000000  1
  Co  Co11  1  0.843083  0.118744  0.000000  1
  Co  Co12  1  0.882055  0.723401  0.000000  1
  Co  Co13  1  0.948961  0.562287  0.500000  1
  P  P14  1  0.301958  0.412285  0.000000  1
  P  P15  1  0.588062  0.890255  0.000000  1
  P  P16  1  0.111162  0.699819  0.000000  1
  P  P17  1  0.406626  0.118165  0.500000  1
  P  P18  1  0.882632  0.287411  0.500000  1
  P  P19  1  0.708491  0.593184  0.500000  1
  P  P20  1  0.999750  0.999249  0.000000  1
