# generated using pymatgen
data_Ho3Tm(GaRu)4
_symmetry_space_group_name_H-M   'P 1'
_cell_length_a   4.50571700
_cell_length_b   7.08557211
_cell_length_c   7.16860875
_cell_angle_alpha   89.96475246
_cell_angle_beta   90.00000000
_cell_angle_gamma   90.00000000
_symmetry_Int_Tables_number   1
_chemical_formula_structural   Ho3Tm(GaRu)4
_chemical_formula_sum   'Ho3 Tm1 Ga4 Ru4'
_cell_volume   228.86196802
_cell_formula_units_Z   1
loop_
 _symmetry_equiv_pos_site_id
 _symmetry_equiv_pos_as_xyz
  1  'x, y, z'
loop_
 _atom_site_type_symbol
 _atom_site_label
 _atom_site_symmetry_multiplicity
 _atom_site_fract_x
 _atom_site_fract_y
 _atom_site_fract_z
 _atom_site_occupancy
  Ho  Ho0  1  0.250000  0.196632  0.020567  1
  Ho  Ho1  1  0.750000  0.695622  0.480091  1
  Ho  Ho2  1  0.750000  0.803601  0.979453  1
  Tm  Tm3  1  0.250000  0.302236  0.520818  1
  Ga  Ga4  1  0.250000  0.894096  0.697356  1
  Ga  Ga5  1  0.250000  0.606041  0.197934  1
  Ga  Ga6  1  0.750000  0.106831  0.303255  1
  Ga  Ga7  1  0.750000  0.393854  0.801665  1
  Ru  Ru8  1  0.250000  0.938091  0.341631  1
  Ru  Ru9  1  0.250000  0.561915  0.840621  1
  Ru  Ru10  1  0.750000  0.063484  0.658262  1
  Ru  Ru11  1  0.750000  0.437597  0.158348  1
