# generated using pymatgen
data_Ta(PdPt)4
_symmetry_space_group_name_H-M   'P 1'
_cell_length_a   6.30971356
_cell_length_b   6.30971265
_cell_length_c   6.27181126
_cell_angle_alpha   96.05302368
_cell_angle_beta   95.29424843
_cell_angle_gamma   143.46259031
_symmetry_Int_Tables_number   1
_chemical_formula_structural   Ta(PdPt)4
_chemical_formula_sum   'Ta1 Pd4 Pt4'
_cell_volume   141.06631778
_cell_formula_units_Z   1
loop_
 _symmetry_equiv_pos_site_id
 _symmetry_equiv_pos_as_xyz
  1  'x, y, z'
loop_
 _atom_site_type_symbol
 _atom_site_label
 _atom_site_symmetry_multiplicity
 _atom_site_fract_x
 _atom_site_fract_y
 _atom_site_fract_z
 _atom_site_occupancy
  Ta  Ta0  1  0.002492  0.001630  0.004122  1
  Pd  Pd1  1  0.999891  0.331248  0.331139  1
  Pd  Pd2  1  0.670622  0.000084  0.670707  1
  Pd  Pd3  1  0.000028  0.670017  0.670046  1
  Pd  Pd4  1  0.336255  0.336109  0.672363  1
  Pt  Pt5  1  0.661022  0.336452  0.997475  1
  Pt  Pt6  1  0.337885  0.660940  0.998826  1
  Pt  Pt7  1  0.662826  0.663503  0.326331  1
  Pt  Pt8  1  0.328978  0.000016  0.328994  1
