# generated using pymatgen
data_DyTmCo9P6Os
_symmetry_space_group_name_H-M   'P 1'
_cell_length_a   3.68225300
_cell_length_b   10.34173800
_cell_length_c   11.74272400
_cell_angle_alpha   90.00000000
_cell_angle_beta   90.00000000
_cell_angle_gamma   90.00000000
_symmetry_Int_Tables_number   1
_chemical_formula_structural   DyTmCo9P6Os
_chemical_formula_sum   'Dy2 Tm2 Co18 P12 Os2'
_cell_volume   447.17344877
_cell_formula_units_Z   2
loop_
 _symmetry_equiv_pos_site_id
 _symmetry_equiv_pos_as_xyz
  1  'x, y, z'
loop_
 _atom_site_type_symbol
 _atom_site_label
 _atom_site_symmetry_multiplicity
 _atom_site_fract_x
 _atom_site_fract_y
 _atom_site_fract_z
 _atom_site_occupancy
  Dy  Dy0  1  0.250000  0.582488  0.701920  1
  Dy  Dy1  1  0.250000  0.917512  0.201920  1
  Tm  Tm2  1  0.750000  0.413304  0.295422  1
  Tm  Tm3  1  0.750000  0.086696  0.795422  1
  Co  Co4  1  0.750000  0.283497  0.008680  1
  Co  Co5  1  0.750000  0.216503  0.508680  1
  Co  Co6  1  0.250000  0.405624  0.486988  1
  Co  Co7  1  0.250000  0.094376  0.986988  1
  Co  Co8  1  0.750000  0.591066  0.509315  1
  Co  Co9  1  0.750000  0.908934  0.009315  1
  Co  Co10  1  0.250000  0.220602  0.177073  1
  Co  Co11  1  0.250000  0.279398  0.677073  1
  Co  Co12  1  0.750000  0.777868  0.822666  1
  Co  Co13  1  0.750000  0.722132  0.322666  1
  Co  Co14  1  0.250000  0.888482  0.702241  1
  Co  Co15  1  0.250000  0.611518  0.202241  1
  Co  Co16  1  0.750000  0.116323  0.301194  1
  Co  Co17  1  0.750000  0.383677  0.801194  1
  Co  Co18  1  0.250000  0.464631  0.933292  1
  Co  Co19  1  0.250000  0.035369  0.433292  1
  Co  Co20  1  0.750000  0.532879  0.069534  1
  Co  Co21  1  0.750000  0.967121  0.569534  1
  P  P22  1  0.250000  0.416111  0.113205  1
  P  P23  1  0.250000  0.083889  0.613205  1
  P  P24  1  0.750000  0.578462  0.887069  1
  P  P25  1  0.750000  0.921538  0.387069  1
  P  P26  1  0.250000  0.269906  0.869149  1
  P  P27  1  0.250000  0.230094  0.369149  1
  P  P28  1  0.750000  0.728905  0.132163  1
  P  P29  1  0.750000  0.771095  0.632163  1
  P  P30  1  0.250000  0.592843  0.389833  1
  P  P31  1  0.250000  0.907157  0.889833  1
  P  P32  1  0.750000  0.396931  0.608499  1
  P  P33  1  0.750000  0.103069  0.108499  1
  Os  Os34  1  0.250000  0.715758  0.991756  1
  Os  Os35  1  0.250000  0.784242  0.491756  1
