# generated using pymatgen
data_La3Er2Be3P9Ir19
_symmetry_space_group_name_H-M   'P 1'
_cell_length_a   12.71482800
_cell_length_b   12.73046977
_cell_length_c   3.98035200
_cell_angle_alpha   90.00000000
_cell_angle_beta   90.00000000
_cell_angle_gamma   119.89500742
_symmetry_Int_Tables_number   1
_chemical_formula_structural   La3Er2Be3P9Ir19
_chemical_formula_sum   'La3 Er2 Be3 P9 Ir19'
_cell_volume   558.55447134
_cell_formula_units_Z   1
loop_
 _symmetry_equiv_pos_site_id
 _symmetry_equiv_pos_as_xyz
  1  'x, y, z'
loop_
 _atom_site_type_symbol
 _atom_site_label
 _atom_site_symmetry_multiplicity
 _atom_site_fract_x
 _atom_site_fract_y
 _atom_site_fract_z
 _atom_site_occupancy
  La  La0  1  0.665967  0.333095  0.000000  1
  La  La1  1  0.814460  0.809999  0.500000  1
  La  La2  1  0.189564  0.005110  0.500000  1
  Er  Er3  1  0.334333  0.666426  0.000000  1
  Er  Er4  1  0.993641  0.186084  0.500000  1
  Be  Be5  1  0.684609  0.160220  0.500000  1
  Be  Be6  1  0.841150  0.522865  0.500000  1
  Be  Be7  1  0.473141  0.316227  0.500000  1
  P  P8  1  0.182730  0.698806  0.500000  1
  P  P9  1  0.518549  0.820084  0.500000  1
  P  P10  1  0.302385  0.483165  0.500000  1
  P  P11  1  0.636274  0.622357  0.000000  1
  P  P12  1  0.377335  0.014064  0.000000  1
  P  P13  1  0.987158  0.359934  0.000000  1
  P  P14  1  0.177925  0.185894  0.000000  1
  P  P15  1  0.817800  0.999328  0.000000  1
  P  P16  1  0.003685  0.817669  0.000000  1
  Ir  Ir17  1  0.803583  0.175144  0.000000  1
  Ir  Ir18  1  0.824946  0.623713  0.000000  1
  Ir  Ir19  1  0.374198  0.200890  0.000000  1
  Ir  Ir20  1  0.190425  0.806164  0.000000  1
  Ir  Ir21  1  0.616754  0.811512  0.000000  1
  Ir  Ir22  1  0.184755  0.378224  0.000000  1
  Ir  Ir23  1  0.453234  0.446027  0.000000  1
  Ir  Ir24  1  0.555731  0.009850  0.000000  1
  Ir  Ir25  1  0.992098  0.543510  0.000000  1
  Ir  Ir26  1  0.278985  0.290753  0.500000  1
  Ir  Ir27  1  0.711378  0.994395  0.500000  1
  Ir  Ir28  1  0.007673  0.714906  0.500000  1
  Ir  Ir29  1  0.876313  0.354079  0.500000  1
  Ir  Ir30  1  0.644328  0.517390  0.500000  1
  Ir  Ir31  1  0.481466  0.127240  0.500000  1
  Ir  Ir32  1  0.372536  0.870898  0.500000  1
  Ir  Ir33  1  0.499347  0.629406  0.500000  1
  Ir  Ir34  1  0.131525  0.502261  0.500000  1
  Ir  Ir35  1  0.000022  0.002312  0.000000  1
