# generated using pymatgen
data_Na3Tb5Te8
_symmetry_space_group_name_H-M   'P 1'
_cell_length_a   8.92544576
_cell_length_b   8.92544750
_cell_length_c   8.92544600
_cell_angle_alpha   59.46199627
_cell_angle_beta   59.46199712
_cell_angle_gamma   59.46199789
_symmetry_Int_Tables_number   1
_chemical_formula_structural   Na3Tb5Te8
_chemical_formula_sum   'Na3 Tb5 Te8'
_cell_volume   496.62315175
_cell_formula_units_Z   1
loop_
 _symmetry_equiv_pos_site_id
 _symmetry_equiv_pos_as_xyz
  1  'x, y, z'
loop_
 _atom_site_type_symbol
 _atom_site_label
 _atom_site_symmetry_multiplicity
 _atom_site_fract_x
 _atom_site_fract_y
 _atom_site_fract_z
 _atom_site_occupancy
  Na  Na0  1  0.125000  0.625000  0.125000  1
  Na  Na1  1  0.125000  0.125000  0.625000  1
  Na  Na2  1  0.625000  0.125000  0.125000  1
  Tb  Tb3  1  0.125000  0.125000  0.125000  1
  Tb  Tb4  1  0.625000  0.125000  0.625000  1
  Tb  Tb5  1  0.625000  0.625000  0.625000  1
  Tb  Tb6  1  0.125000  0.625000  0.625000  1
  Tb  Tb7  1  0.625000  0.625000  0.125000  1
  Te  Te8  1  0.375061  0.870894  0.375061  1
  Te  Te9  1  0.874939  0.379106  0.874939  1
  Te  Te10  1  0.874939  0.874939  0.379106  1
  Te  Te11  1  0.871137  0.871137  0.871137  1
  Te  Te12  1  0.870894  0.375061  0.375061  1
  Te  Te13  1  0.375061  0.375061  0.870894  1
  Te  Te14  1  0.378863  0.378863  0.378863  1
  Te  Te15  1  0.379106  0.874939  0.874939  1
