# generated using pymatgen
data_Li3Pr4AgAs8
_symmetry_space_group_name_H-M   'P 1'
_cell_length_a   4.00811700
_cell_length_b   4.04875600
_cell_length_c   21.52924701
_cell_angle_alpha   90.00260056
_cell_angle_beta   90.00000000
_cell_angle_gamma   90.00000000
_symmetry_Int_Tables_number   1
_chemical_formula_structural   Li3Pr4AgAs8
_chemical_formula_sum   'Li3 Pr4 Ag1 As8'
_cell_volume   349.37420354
_cell_formula_units_Z   1
loop_
 _symmetry_equiv_pos_site_id
 _symmetry_equiv_pos_as_xyz
  1  'x, y, z'
loop_
 _atom_site_type_symbol
 _atom_site_label
 _atom_site_symmetry_multiplicity
 _atom_site_fract_x
 _atom_site_fract_y
 _atom_site_fract_z
 _atom_site_occupancy
  Li  Li0  1  0.250000  0.224203  0.250035  1
  Li  Li1  1  0.750000  0.724213  0.249978  1
  Li  Li2  1  0.750000  0.775614  0.749995  1
  Pr  Pr3  1  0.250000  0.772518  0.616229  1
  Pr  Pr4  1  0.750000  0.227706  0.383293  1
  Pr  Pr5  1  0.750000  0.273737  0.883716  1
  Pr  Pr6  1  0.250000  0.727883  0.116680  1
  Ag  Ag7  1  0.250000  0.275850  0.750310  1
  As  As8  1  0.250000  0.775671  0.833026  1
  As  As9  1  0.750000  0.224359  0.171391  1
  As  As10  1  0.750000  0.274749  0.666861  1
  As  As11  1  0.250000  0.724485  0.328612  1
  As  As12  1  0.250000  0.293363  0.501825  1
  As  As13  1  0.250000  0.205800  0.001339  1
  As  As14  1  0.750000  0.793503  0.998057  1
  As  As15  1  0.750000  0.706345  0.498654  1
