# generated using pymatgen
data_Mn19Cr2(TcC3)2
_symmetry_space_group_name_H-M   'P 1'
_cell_length_a   7.38774443
_cell_length_b   7.38774391
_cell_length_c   7.38332306
_cell_angle_alpha   60.10493534
_cell_angle_beta   60.10494291
_cell_angle_gamma   59.96369539
_symmetry_Int_Tables_number   1
_chemical_formula_structural   Mn19Cr2(TcC3)2
_chemical_formula_sum   'Mn19 Cr2 Tc2 C6'
_cell_volume   285.31718700
_cell_formula_units_Z   1
loop_
 _symmetry_equiv_pos_site_id
 _symmetry_equiv_pos_as_xyz
  1  'x, y, z'
loop_
 _atom_site_type_symbol
 _atom_site_label
 _atom_site_symmetry_multiplicity
 _atom_site_fract_x
 _atom_site_fract_y
 _atom_site_fract_z
 _atom_site_occupancy
  Mn  Mn0  1  0.000300  0.000300  0.999856  1
  Mn  Mn1  1  0.615480  0.615480  0.151152  1
  Mn  Mn2  1  0.616697  0.150610  0.616253  1
  Mn  Mn3  1  0.150610  0.616697  0.616253  1
  Mn  Mn4  1  0.615715  0.615715  0.617620  1
  Mn  Mn5  1  0.383293  0.383293  0.849908  1
  Mn  Mn6  1  0.383108  0.849641  0.382940  1
  Mn  Mn7  1  0.849641  0.383108  0.382940  1
  Mn  Mn8  1  0.383394  0.383394  0.383171  1
  Mn  Mn9  1  0.000653  0.000653  0.337280  1
  Mn  Mn10  1  0.661974  0.999211  0.339225  1
  Mn  Mn11  1  0.999211  0.661974  0.339225  1
  Mn  Mn12  1  0.662038  0.338787  0.998833  1
  Mn  Mn13  1  0.000464  0.338099  0.000111  1
  Mn  Mn14  1  0.000229  0.338203  0.662645  1
  Mn  Mn15  1  0.338787  0.662038  0.998833  1
  Mn  Mn16  1  0.338203  0.000229  0.662645  1
  Mn  Mn17  1  0.338099  0.000464  0.000111  1
  Mn  Mn18  1  0.001426  0.001426  0.659066  1
  Cr  Cr19  1  0.999496  0.660352  0.001098  1
  Cr  Cr20  1  0.660352  0.999496  0.001098  1
  Tc  Tc21  1  0.750585  0.750585  0.749558  1
  Tc  Tc22  1  0.249846  0.249846  0.251186  1
  C  C23  1  0.722574  0.722574  0.280049  1
  C  C24  1  0.274143  0.725840  0.274055  1
  C  C25  1  0.725840  0.274143  0.274055  1
  C  C26  1  0.274881  0.274881  0.725426  1
  C  C27  1  0.726001  0.276962  0.722705  1
  C  C28  1  0.276962  0.726001  0.722705  1
