# generated using pymatgen
data_Er4ScTc3(P3Ir4)4
_symmetry_space_group_name_H-M   'P 1'
_cell_length_a   12.62636367
_cell_length_b   12.62636337
_cell_length_c   3.96560600
_cell_angle_alpha   90.00000000
_cell_angle_beta   90.00000000
_cell_angle_gamma   120.03726302
_symmetry_Int_Tables_number   1
_chemical_formula_structural   Er4ScTc3(P3Ir4)4
_chemical_formula_sum   'Er4 Sc1 Tc3 P12 Ir16'
_cell_volume   547.31024494
_cell_formula_units_Z   1
loop_
 _symmetry_equiv_pos_site_id
 _symmetry_equiv_pos_as_xyz
  1  'x, y, z'
loop_
 _atom_site_type_symbol
 _atom_site_label
 _atom_site_symmetry_multiplicity
 _atom_site_fract_x
 _atom_site_fract_y
 _atom_site_fract_z
 _atom_site_occupancy
  Er  Er0  1  0.333252  0.666669  0.000000  1
  Er  Er1  1  0.666669  0.333252  0.000000  1
  Er  Er2  1  0.819738  0.000206  0.500000  1
  Er  Er3  1  0.000206  0.819738  0.500000  1
  Sc  Sc4  1  0.179629  0.179629  0.500000  1
  Tc  Tc5  1  0.455464  0.000095  0.000000  1
  Tc  Tc6  1  0.000095  0.455464  0.000000  1
  Tc  Tc7  1  0.544263  0.544263  0.000000  1
  P  P8  1  0.176251  0.001398  0.000000  1
  P  P9  1  0.001398  0.176251  0.000000  1
  P  P10  1  0.825418  0.825418  0.000000  1
  P  P11  1  0.169227  0.484535  0.500000  1
  P  P12  1  0.515110  0.684335  0.500000  1
  P  P13  1  0.315406  0.831057  0.500000  1
  P  P14  1  0.684335  0.515110  0.500000  1
  P  P15  1  0.831057  0.315406  0.500000  1
  P  P16  1  0.484535  0.169227  0.500000  1
  P  P17  1  0.639753  0.999950  0.000000  1
  P  P18  1  0.999950  0.639753  0.000000  1
  P  P19  1  0.358880  0.358880  0.000000  1
  Ir  Ir20  1  0.357135  0.489564  0.500000  1
  Ir  Ir21  1  0.509969  0.867406  0.500000  1
  Ir  Ir22  1  0.132516  0.642543  0.500000  1
  Ir  Ir23  1  0.867406  0.509969  0.500000  1
  Ir  Ir24  1  0.642543  0.132516  0.500000  1
  Ir  Ir25  1  0.489564  0.357135  0.500000  1
  Ir  Ir26  1  0.179142  0.369708  0.000000  1
  Ir  Ir27  1  0.628783  0.807443  0.000000  1
  Ir  Ir28  1  0.192591  0.821312  0.000000  1
  Ir  Ir29  1  0.807443  0.628783  0.000000  1
  Ir  Ir30  1  0.821312  0.192591  0.000000  1
  Ir  Ir31  1  0.369708  0.179142  0.000000  1
  Ir  Ir32  1  0.290613  0.000308  0.500000  1
  Ir  Ir33  1  0.000308  0.290613  0.500000  1
  Ir  Ir34  1  0.708747  0.708747  0.500000  1
  Ir  Ir35  1  0.001586  0.001586  0.000000  1
