# generated using pymatgen
data_Ti10Be2SnSb5
_symmetry_space_group_name_H-M   'P 1'
_cell_length_a   8.09728100
_cell_length_b   8.10663385
_cell_length_c   5.46337900
_cell_angle_alpha   90.00000000
_cell_angle_beta   90.00000000
_cell_angle_gamma   119.96183824
_symmetry_Int_Tables_number   1
_chemical_formula_structural   Ti10Be2SnSb5
_chemical_formula_sum   'Ti10 Be2 Sn1 Sb5'
_cell_volume   310.69810604
_cell_formula_units_Z   1
loop_
 _symmetry_equiv_pos_site_id
 _symmetry_equiv_pos_as_xyz
  1  'x, y, z'
loop_
 _atom_site_type_symbol
 _atom_site_label
 _atom_site_symmetry_multiplicity
 _atom_site_fract_x
 _atom_site_fract_y
 _atom_site_fract_z
 _atom_site_occupancy
  Ti  Ti0  1  0.252073  0.000000  0.750000  1
  Ti  Ti1  1  0.748576  0.000000  0.250000  1
  Ti  Ti2  1  0.000525  0.253430  0.750000  1
  Ti  Ti3  1  0.000042  0.747182  0.250000  1
  Ti  Ti4  1  0.747095  0.746570  0.750000  1
  Ti  Ti5  1  0.252860  0.252818  0.250000  1
  Ti  Ti6  1  0.332393  0.665468  0.500090  1
  Ti  Ti7  1  0.666926  0.334532  0.500090  1
  Ti  Ti8  1  0.666926  0.334532  0.999910  1
  Ti  Ti9  1  0.332393  0.665468  0.999910  1
  Be  Be10  1  0.999332  0.000000  0.500425  1
  Be  Be11  1  0.999332  0.000000  0.999575  1
  Sn  Sn12  1  0.611921  0.000000  0.750000  1
  Sb  Sb13  1  0.390047  0.000000  0.250000  1
  Sb  Sb14  1  0.000174  0.611939  0.750000  1
  Sb  Sb15  1  0.999402  0.387654  0.250000  1
  Sb  Sb16  1  0.388235  0.388061  0.750000  1
  Sb  Sb17  1  0.611748  0.612346  0.250000  1
