# generated using pymatgen
data_Ac5Bi4Te
_symmetry_space_group_name_H-M   'P 1'
_cell_length_a   12.77720396
_cell_length_b   12.77724427
_cell_length_c   12.77724149
_cell_angle_alpha   157.85981140
_cell_angle_beta   148.95340644
_cell_angle_gamma   38.46278012
_symmetry_Int_Tables_number   1
_chemical_formula_structural   Ac5Bi4Te
_chemical_formula_sum   'Ac5 Bi4 Te1'
_cell_volume   404.84675253
_cell_formula_units_Z   1
loop_
 _symmetry_equiv_pos_site_id
 _symmetry_equiv_pos_as_xyz
  1  'x, y, z'
loop_
 _atom_site_type_symbol
 _atom_site_label
 _atom_site_symmetry_multiplicity
 _atom_site_fract_x
 _atom_site_fract_y
 _atom_site_fract_z
 _atom_site_occupancy
  Ac  Ac0  1  0.897713  0.897714  0.999998  1
  Ac  Ac1  1  0.102287  0.102286  0.000002  1
  Ac  Ac2  1  0.300401  0.300401  0.000000  1
  Ac  Ac3  1  0.699599  0.699599  0.000000  1
  Ac  Ac4  1  0.500000  0.500000  0.000000  1
  Bi  Bi5  1  0.599095  0.099096  0.500000  1
  Bi  Bi6  1  0.400905  0.900904  0.500000  1
  Bi  Bi7  1  0.800197  0.300197  0.500000  1
  Bi  Bi8  1  0.199803  0.699803  0.500000  1
  Te  Te9  1  0.000000  0.500000  0.500000  1
