# generated using pymatgen
data_EuCr4AgO14
_symmetry_space_group_name_H-M   'P 1'
_cell_length_a   7.38623915
_cell_length_b   7.38623992
_cell_length_c   7.38623991
_cell_angle_alpha   108.28689415
_cell_angle_beta   108.28688360
_cell_angle_gamma   111.86677467
_symmetry_Int_Tables_number   1
_chemical_formula_structural   EuCr4AgO14
_chemical_formula_sum   'Eu1 Cr4 Ag1 O14'
_cell_volume   309.79605179
_cell_formula_units_Z   1
loop_
 _symmetry_equiv_pos_site_id
 _symmetry_equiv_pos_as_xyz
  1  'x, y, z'
loop_
 _atom_site_type_symbol
 _atom_site_label
 _atom_site_symmetry_multiplicity
 _atom_site_fract_x
 _atom_site_fract_y
 _atom_site_fract_z
 _atom_site_occupancy
  Eu  Eu0  1  0.009887  0.009887  0.000000  1
  Cr  Cr1  1  0.825367  0.369684  0.781624  1
  Cr  Cr2  1  0.043743  0.825367  0.455683  1
  Cr  Cr3  1  0.369684  0.588060  0.544317  1
  Cr  Cr4  1  0.588060  0.043743  0.218376  1
  Ag  Ag5  1  0.470007  0.470007  0.000000  1
  O  O6  1  0.235962  0.735962  0.500000  1
  O  O7  1  0.735962  0.235962  0.500000  1
  O  O8  1  0.962207  0.642009  0.878377  1
  O  O9  1  0.083829  0.962207  0.320198  1
  O  O10  1  0.642009  0.763631  0.679802  1
  O  O11  1  0.763631  0.083829  0.121623  1
  O  O12  1  0.473447  0.788595  0.179041  1
  O  O13  1  0.294406  0.473447  0.684852  1
  O  O14  1  0.788595  0.609554  0.315148  1
  O  O15  1  0.609554  0.294406  0.820959  1
  O  O16  1  0.392698  0.086175  0.095699  1
  O  O17  1  0.297000  0.392698  0.306525  1
  O  O18  1  0.086175  0.990475  0.693475  1
  O  O19  1  0.990475  0.297000  0.904301  1
