# generated using pymatgen
data_YbZn9Cu2
_symmetry_space_group_name_H-M   'P 1'
_cell_length_a   8.21326419
_cell_length_b   8.21326501
_cell_length_c   8.21326426
_cell_angle_alpha   99.53835737
_cell_angle_beta   99.53835594
_cell_angle_gamma   131.95789414
_symmetry_Int_Tables_number   1
_chemical_formula_structural   YbZn9Cu2
_chemical_formula_sum   'Yb2 Zn18 Cu4'
_cell_volume   376.32851456
_cell_formula_units_Z   2
loop_
 _symmetry_equiv_pos_site_id
 _symmetry_equiv_pos_as_xyz
  1  'x, y, z'
loop_
 _atom_site_type_symbol
 _atom_site_label
 _atom_site_symmetry_multiplicity
 _atom_site_fract_x
 _atom_site_fract_y
 _atom_site_fract_z
 _atom_site_occupancy
  Yb  Yb0  1  0.625000  0.375000  0.250000  1
  Yb  Yb1  1  0.375000  0.625000  0.750000  1
  Zn  Zn2  1  0.195739  0.270737  0.332014  1
  Zn  Zn3  1  0.438726  0.863725  0.167985  1
  Zn  Zn4  1  0.804259  0.136275  0.074999  1
  Zn  Zn5  1  0.561274  0.729260  0.425000  1
  Zn  Zn6  1  0.729262  0.804262  0.167985  1
  Zn  Zn7  1  0.136275  0.561276  0.332015  1
  Zn  Zn8  1  0.863724  0.195740  0.425001  1
  Zn  Zn9  1  0.270738  0.438724  0.075000  1
  Zn  Zn10  1  0.804259  0.729261  0.667985  1
  Zn  Zn11  1  0.561277  0.136275  0.832015  1
  Zn  Zn12  1  0.195740  0.863725  0.925002  1
  Zn  Zn13  1  0.438723  0.270737  0.574998  1
  Zn  Zn14  1  0.270739  0.195741  0.832017  1
  Zn  Zn15  1  0.863723  0.438724  0.667985  1
  Zn  Zn16  1  0.136276  0.804260  0.574999  1
  Zn  Zn17  1  0.729261  0.561277  0.925002  1
  Zn  Zn18  1  0.875000  0.125000  0.750000  1
  Zn  Zn19  1  0.125001  0.875001  0.250000  1
  Cu  Cu20  1  0.000000  0.000000  0.000000  1
  Cu  Cu21  1  0.500000  0.000000  0.500000  1
  Cu  Cu22  1  0.000001  0.000001  0.500000  1
  Cu  Cu23  1  0.999999  0.499999  0.000000  1
