# generated using pymatgen
data_La8Tb12Si13Sn3
_symmetry_space_group_name_H-M   'P 1'
_cell_length_a   7.98361631
_cell_length_b   7.99681579
_cell_length_c   14.78002800
_cell_angle_alpha   89.88296968
_cell_angle_beta   90.13846681
_cell_angle_gamma   90.24861569
_symmetry_Int_Tables_number   1
_chemical_formula_structural   La8Tb12Si13Sn3
_chemical_formula_sum   'La8 Tb12 Si13 Sn3'
_cell_volume   943.59526409
_cell_formula_units_Z   1
loop_
 _symmetry_equiv_pos_site_id
 _symmetry_equiv_pos_as_xyz
  1  'x, y, z'
loop_
 _atom_site_type_symbol
 _atom_site_label
 _atom_site_symmetry_multiplicity
 _atom_site_fract_x
 _atom_site_fract_y
 _atom_site_fract_z
 _atom_site_occupancy
  La  La0  1  0.642065  0.988970  0.455365  1
  La  La1  1  0.350927  0.006501  0.956743  1
  La  La2  1  0.989113  0.643386  0.545694  1
  La  La3  1  0.488824  0.850171  0.211554  1
  La  La4  1  0.509730  0.150905  0.716452  1
  La  La5  1  0.859667  0.497534  0.791823  1
  La  La6  1  0.148803  0.508895  0.285516  1
  La  La7  1  0.010742  0.363393  0.040795  1
  Tb  Tb8  1  0.490005  0.364692  0.124106  1
  Tb  Tb9  1  0.979685  0.149060  0.636084  1
  Tb  Tb10  1  0.861352  0.008858  0.870250  1
  Tb  Tb11  1  0.148270  0.979283  0.364551  1
  Tb  Tb12  1  0.506737  0.637958  0.627941  1
  Tb  Tb13  1  0.356303  0.495374  0.875262  1
  Tb  Tb14  1  0.637984  0.506867  0.373136  1
  Tb  Tb15  1  0.019077  0.851487  0.128793  1
  Tb  Tb16  1  0.327869  0.326546  0.500506  1
  Tb  Tb17  1  0.180277  0.816559  0.756243  1
  Tb  Tb18  1  0.818699  0.182089  0.249338  1
  Tb  Tb19  1  0.684901  0.672176  0.996683  1
  Si  Si20  1  0.439065  0.207284  0.310013  1
  Si  Si21  1  0.562198  0.791713  0.811918  1
  Si  Si22  1  0.207981  0.438550  0.689177  1
  Si  Si23  1  0.789761  0.562060  0.188104  1
  Si  Si24  1  0.061715  0.710825  0.939531  1
  Si  Si25  1  0.791152  0.848773  0.692304  1
  Si  Si26  1  0.206398  0.152762  0.188669  1
  Si  Si27  1  0.846719  0.792723  0.306534  1
  Si  Si28  1  0.349759  0.693602  0.435297  1
  Si  Si29  1  0.647843  0.302915  0.932749  1
  Si  Si30  1  0.693009  0.349495  0.565272  1
  Si  Si31  1  0.298126  0.652195  0.057778  1
  Si  Si32  1  0.151854  0.207482  0.811155  1
  Sn  Sn33  1  0.285754  0.945553  0.564950  1
  Sn  Sn34  1  0.711233  0.056831  0.061993  1
  Sn  Sn35  1  0.946404  0.286529  0.437722  1
