# generated using pymatgen
data_Hf8CoReBi4
_symmetry_space_group_name_H-M   'P 1'
_cell_length_a   8.27548606
_cell_length_b   8.27536893
_cell_length_c   8.27548662
_cell_angle_alpha   96.03313596
_cell_angle_beta   96.03458098
_cell_angle_gamma   142.16498124
_symmetry_Int_Tables_number   1
_chemical_formula_structural   Hf8CoReBi4
_chemical_formula_sum   'Hf8 Co1 Re1 Bi4'
_cell_volume   328.84620299
_cell_formula_units_Z   1
loop_
 _symmetry_equiv_pos_site_id
 _symmetry_equiv_pos_as_xyz
  1  'x, y, z'
loop_
 _atom_site_type_symbol
 _atom_site_label
 _atom_site_symmetry_multiplicity
 _atom_site_fract_x
 _atom_site_fract_y
 _atom_site_fract_z
 _atom_site_occupancy
  Hf  Hf0  1  0.699019  0.584611  0.279273  1
  Hf  Hf1  1  0.584606  0.305345  0.885591  1
  Hf  Hf2  1  0.080246  0.194655  0.279262  1
  Hf  Hf3  1  0.915396  0.800993  0.720743  1
  Hf  Hf4  1  0.194662  0.915389  0.114406  1
  Hf  Hf5  1  0.801010  0.080260  0.885611  1
  Hf  Hf6  1  0.305350  0.419740  0.720749  1
  Hf  Hf7  1  0.419749  0.699007  0.114401  1
  Co  Co8  1  0.749984  0.750000  0.999984  1
  Re  Re9  1  0.249994  0.250000  0.999994  1
  Bi  Bi10  1  0.138435  0.638436  0.776880  1
  Bi  Bi11  1  0.361554  0.138440  0.499994  1
  Bi  Bi12  1  0.638442  0.861564  0.499998  1
  Bi  Bi13  1  0.861554  0.361560  0.223113  1
