# generated using pymatgen
data_Cs12Na8Ti(SiAs4)3
_symmetry_space_group_name_H-M   'P 1'
_cell_length_a   10.85989377
_cell_length_b   10.85989091
_cell_length_c   16.63450417
_cell_angle_alpha   89.99489180
_cell_angle_beta   89.99489243
_cell_angle_gamma   142.46725011
_symmetry_Int_Tables_number   1
_chemical_formula_structural   Cs12Na8Ti(SiAs4)3
_chemical_formula_sum   'Cs12 Na8 Ti1 Si3 As12'
_cell_volume   1195.17453779
_cell_formula_units_Z   1
loop_
 _symmetry_equiv_pos_site_id
 _symmetry_equiv_pos_as_xyz
  1  'x, y, z'
loop_
 _atom_site_type_symbol
 _atom_site_label
 _atom_site_symmetry_multiplicity
 _atom_site_fract_x
 _atom_site_fract_y
 _atom_site_fract_z
 _atom_site_occupancy
  Cs  Cs0  1  0.940540  0.608378  0.829523  1
  Cs  Cs1  1  0.559964  0.892246  0.328974  1
  Cs  Cs2  1  0.391622  0.059460  0.170477  1
  Cs  Cs3  1  0.059409  0.390985  0.169928  1
  Cs  Cs4  1  0.890173  0.553688  0.326845  1
  Cs  Cs5  1  0.446312  0.109827  0.673155  1
  Cs  Cs6  1  0.609015  0.940591  0.830072  1
  Cs  Cs7  1  0.275361  0.277101  0.317439  1
  Cs  Cs8  1  0.772263  0.772531  0.180365  1
  Cs  Cs9  1  0.227469  0.227737  0.819635  1
  Cs  Cs10  1  0.722899  0.724639  0.682561  1
  Cs  Cs11  1  0.107754  0.440036  0.671026  1
  Na  Na12  1  0.921112  0.078888  0.000000  1
  Na  Na13  1  0.578958  0.421042  0.500000  1
  Na  Na14  1  0.078964  0.921036  0.000000  1
  Na  Na15  1  0.419840  0.580160  0.500000  1
  Na  Na16  1  0.754845  0.245155  0.000000  1
  Na  Na17  1  0.745892  0.254108  0.500000  1
  Na  Na18  1  0.245102  0.754898  0.000000  1
  Na  Na19  1  0.255103  0.744897  0.500000  1
  Ti  Ti20  1  0.081526  0.918474  0.500000  1
  Si  Si21  1  0.585015  0.414985  0.000000  1
  Si  Si22  1  0.917483  0.082517  0.500000  1
  Si  Si23  1  0.414926  0.585074  0.000000  1
  As  As24  1  0.853289  0.549102  0.087123  1
  As  As25  1  0.450898  0.146711  0.912877  1
  As  As26  1  0.648917  0.950159  0.587012  1
  As  As27  1  0.947568  0.642638  0.588444  1
  As  As28  1  0.146599  0.450804  0.912980  1
  As  As29  1  0.549196  0.853401  0.087020  1
  As  As30  1  0.357362  0.052432  0.411556  1
  As  As31  1  0.187069  0.192331  0.581090  1
  As  As32  1  0.679944  0.679899  0.924023  1
  As  As33  1  0.320101  0.320056  0.075977  1
  As  As34  1  0.049841  0.351083  0.412988  1
  As  As35  1  0.807669  0.812931  0.418910  1
