# generated using pymatgen
data_HoTm3B12OsW
_symmetry_space_group_name_H-M   'P 1'
_cell_length_a   3.60036700
_cell_length_b   9.17138776
_cell_length_c   11.56098329
_cell_angle_alpha   89.84849413
_cell_angle_beta   90.00000000
_cell_angle_gamma   90.00000000
_symmetry_Int_Tables_number   1
_chemical_formula_structural   HoTm3B12OsW
_chemical_formula_sum   'Ho2 Tm6 B24 Os2 W2'
_cell_volume   381.74651706
_cell_formula_units_Z   2
loop_
 _symmetry_equiv_pos_site_id
 _symmetry_equiv_pos_as_xyz
  1  'x, y, z'
loop_
 _atom_site_type_symbol
 _atom_site_label
 _atom_site_symmetry_multiplicity
 _atom_site_fract_x
 _atom_site_fract_y
 _atom_site_fract_z
 _atom_site_occupancy
  Ho  Ho0  1  0.000000  0.321229  0.413751  1
  Ho  Ho1  1  0.000000  0.678771  0.586249  1
  Tm  Tm2  1  0.000000  0.821223  0.086358  1
  Tm  Tm3  1  0.000000  0.178777  0.913642  1
  Tm  Tm4  1  0.000000  0.944943  0.371504  1
  Tm  Tm5  1  0.000000  0.055057  0.628497  1
  Tm  Tm6  1  0.000000  0.442115  0.127432  1
  Tm  Tm7  1  0.000000  0.557885  0.872567  1
  B  B8  1  0.500000  0.551004  0.434635  1
  B  B9  1  0.500000  0.448996  0.565365  1
  B  B10  1  0.500000  0.053394  0.066312  1
  B  B11  1  0.500000  0.946606  0.933688  1
  B  B12  1  0.500000  0.752218  0.421481  1
  B  B13  1  0.500000  0.247782  0.578519  1
  B  B14  1  0.500000  0.248678  0.080835  1
  B  B15  1  0.500000  0.751322  0.919165  1
  B  B16  1  0.500000  0.796228  0.262748  1
  B  B17  1  0.500000  0.203772  0.737252  1
  B  B18  1  0.500000  0.290131  0.233208  1
  B  B19  1  0.500000  0.709868  0.766792  1
  B  B20  1  0.500000  0.631998  0.180844  1
  B  B21  1  0.500000  0.368002  0.819156  1
  B  B22  1  0.500000  0.130198  0.313315  1
  B  B23  1  0.500000  0.869802  0.686685  1
  B  B24  1  0.500000  0.982965  0.211371  1
  B  B25  1  0.500000  0.017035  0.788629  1
  B  B26  1  0.500000  0.477121  0.285799  1
  B  B27  1  0.500000  0.522879  0.714201  1
  B  B28  1  0.500000  0.603370  0.027898  1
  B  B29  1  0.500000  0.396630  0.972102  1
  B  B30  1  0.500000  0.102294  0.470625  1
  B  B31  1  0.500000  0.897706  0.529375  1
  Os  Os32  1  0.000000  0.137543  0.177346  1
  Os  Os33  1  0.000000  0.862457  0.822654  1
  W  W34  1  0.000000  0.639161  0.319164  1
  W  W35  1  0.000000  0.360839  0.680836  1
