# generated using pymatgen
data_Er4GaSb5Rh7
_symmetry_space_group_name_H-M   'P 1'
_cell_length_a   7.53682750
_cell_length_b   7.53682845
_cell_length_c   7.53682914
_cell_angle_alpha   109.12296171
_cell_angle_beta   109.64562550
_cell_angle_gamma   109.64562755
_symmetry_Int_Tables_number   1
_chemical_formula_structural   Er4GaSb5Rh7
_chemical_formula_sum   'Er4 Ga1 Sb5 Rh7'
_cell_volume   329.55810715
_cell_formula_units_Z   1
loop_
 _symmetry_equiv_pos_site_id
 _symmetry_equiv_pos_as_xyz
  1  'x, y, z'
loop_
 _atom_site_type_symbol
 _atom_site_label
 _atom_site_symmetry_multiplicity
 _atom_site_fract_x
 _atom_site_fract_y
 _atom_site_fract_z
 _atom_site_occupancy
  Er  Er0  1  0.520873  0.009259  0.009259  1
  Er  Er1  1  0.000000  0.488387  0.009259  1
  Er  Er2  1  0.000000  0.009259  0.488387  1
  Er  Er3  1  0.479127  0.488387  0.488387  1
  Ga  Ga4  1  0.000000  0.327854  0.327854  1
  Sb  Sb5  1  0.684785  0.996791  0.681576  1
  Sb  Sb6  1  0.684785  0.681576  0.996791  1
  Sb  Sb7  1  0.000000  0.683781  0.683781  1
  Sb  Sb8  1  0.315215  0.996791  0.312006  1
  Sb  Sb9  1  0.315215  0.312006  0.996791  1
  Rh  Rh10  1  0.000000  0.018026  0.018026  1
  Rh  Rh11  1  0.500000  0.748268  0.248268  1
  Rh  Rh12  1  0.751973  0.497837  0.249811  1
  Rh  Rh13  1  0.248027  0.745863  0.497837  1
  Rh  Rh14  1  0.248027  0.497837  0.745863  1
  Rh  Rh15  1  0.500000  0.248268  0.748268  1
  Rh  Rh16  1  0.751973  0.249811  0.497837  1
