# generated using pymatgen
data_Ce3Pr2Pb3Au
_symmetry_space_group_name_H-M   'P 1'
_cell_length_a   9.76961700
_cell_length_b   9.76961633
_cell_length_c   6.65776600
_cell_angle_alpha   90.00000000
_cell_angle_beta   90.00000000
_cell_angle_gamma   120.29298140
_symmetry_Int_Tables_number   1
_chemical_formula_structural   Ce3Pr2Pb3Au
_chemical_formula_sum   'Ce6 Pr4 Pb6 Au2'
_cell_volume   548.68673791
_cell_formula_units_Z   2
loop_
 _symmetry_equiv_pos_site_id
 _symmetry_equiv_pos_as_xyz
  1  'x, y, z'
loop_
 _atom_site_type_symbol
 _atom_site_label
 _atom_site_symmetry_multiplicity
 _atom_site_fract_x
 _atom_site_fract_y
 _atom_site_fract_z
 _atom_site_occupancy
  Ce  Ce0  1  0.668796  0.334120  0.502703  1
  Ce  Ce1  1  0.334120  0.668796  0.502703  1
  Ce  Ce2  1  0.334120  0.668796  0.997297  1
  Ce  Ce3  1  0.668796  0.334120  0.997297  1
  Ce  Ce4  1  0.723807  0.000046  0.750000  1
  Ce  Ce5  1  0.000046  0.723807  0.750000  1
  Pr  Pr6  1  0.729293  0.729293  0.250000  1
  Pr  Pr7  1  0.270404  0.000786  0.250000  1
  Pr  Pr8  1  0.000786  0.270404  0.250000  1
  Pr  Pr9  1  0.274549  0.274549  0.750000  1
  Pb  Pb10  1  0.380315  0.380315  0.250000  1
  Pb  Pb11  1  0.620982  0.000806  0.250000  1
  Pb  Pb12  1  0.000806  0.620982  0.250000  1
  Pb  Pb13  1  0.624781  0.624781  0.750000  1
  Pb  Pb14  1  0.375727  0.999975  0.750000  1
  Pb  Pb15  1  0.999975  0.375727  0.750000  1
  Au  Au16  1  0.996349  0.996349  0.510429  1
  Au  Au17  1  0.996349  0.996349  0.989571  1
