# generated using pymatgen
data_Hf8Nb4Ga11Ge
_symmetry_space_group_name_H-M   'P 1'
_cell_length_a   5.53840900
_cell_length_b   8.47111762
_cell_length_c   9.14636766
_cell_angle_alpha   89.95641218
_cell_angle_beta   90.00000000
_cell_angle_gamma   90.00000000
_symmetry_Int_Tables_number   1
_chemical_formula_structural   Hf8Nb4Ga11Ge
_chemical_formula_sum   'Hf8 Nb4 Ga11 Ge1'
_cell_volume   429.11556252
_cell_formula_units_Z   1
loop_
 _symmetry_equiv_pos_site_id
 _symmetry_equiv_pos_as_xyz
  1  'x, y, z'
loop_
 _atom_site_type_symbol
 _atom_site_label
 _atom_site_symmetry_multiplicity
 _atom_site_fract_x
 _atom_site_fract_y
 _atom_site_fract_z
 _atom_site_occupancy
  Hf  Hf0  1  0.750000  0.469587  0.621429  1
  Hf  Hf1  1  0.250000  0.530200  0.379120  1
  Hf  Hf2  1  0.750000  0.971635  0.376595  1
  Hf  Hf3  1  0.250000  0.029749  0.621996  1
  Hf  Hf4  1  0.750000  0.367548  0.182942  1
  Hf  Hf5  1  0.250000  0.632178  0.817657  1
  Hf  Hf6  1  0.750000  0.869165  0.817236  1
  Hf  Hf7  1  0.250000  0.130477  0.182787  1
  Nb  Nb8  1  0.000671  0.750569  0.111677  1
  Nb  Nb9  1  0.499565  0.248546  0.888777  1
  Nb  Nb10  1  0.000435  0.248546  0.888777  1
  Nb  Nb11  1  0.499329  0.750569  0.111677  1
  Ga  Ga12  1  0.999662  0.750092  0.572208  1
  Ga  Ga13  1  0.499515  0.250267  0.427850  1
  Ga  Ga14  1  0.000485  0.250267  0.427850  1
  Ga  Ga15  1  0.500338  0.750092  0.572208  1
  Ga  Ga16  1  0.250000  0.952549  0.919324  1
  Ga  Ga17  1  0.750000  0.546108  0.920480  1
  Ga  Ga18  1  0.250000  0.453863  0.079417  1
  Ga  Ga19  1  0.750000  0.133202  0.651215  1
  Ga  Ga20  1  0.250000  0.866880  0.349130  1
  Ga  Ga21  1  0.750000  0.633210  0.347964  1
  Ga  Ga22  1  0.250000  0.367567  0.652455  1
  Ge  Ge23  1  0.750000  0.047136  0.079229  1
