# generated using pymatgen
data_Pm5Pt4
_symmetry_space_group_name_H-M   'P 1'
_cell_length_a   3.88811766
_cell_length_b   12.17718226
_cell_length_c   5.76212400
_cell_angle_alpha   69.08598936
_cell_angle_beta   109.71554206
_cell_angle_gamma   108.72365952
_symmetry_Int_Tables_number   1
_chemical_formula_structural   Pm5Pt4
_chemical_formula_sum   'Pm5 Pt4'
_cell_volume   233.57811631
_cell_formula_units_Z   1
loop_
 _symmetry_equiv_pos_site_id
 _symmetry_equiv_pos_as_xyz
  1  'x, y, z'
loop_
 _atom_site_type_symbol
 _atom_site_label
 _atom_site_symmetry_multiplicity
 _atom_site_fract_x
 _atom_site_fract_y
 _atom_site_fract_z
 _atom_site_occupancy
  Pm  Pm0  1  0.450057  0.514548  0.643803  1
  Pm  Pm1  1  0.735695  0.919825  0.405908  1
  Pm  Pm2  1  0.604661  0.119334  0.747310  1
  Pm  Pm3  1  0.318743  0.714067  0.985181  1
  Pm  Pm4  1  0.027470  0.316955  0.195523  1
  Pt  Pt5  1  0.331254  0.128069  0.181245  1
  Pt  Pt6  1  0.723574  0.505824  0.209877  1
  Pt  Pt7  1  0.009078  0.920594  0.952706  1
  Pt  Pt8  1  0.045292  0.713310  0.438345  1
