# generated using pymatgen
data_SrNp(Si7Ir3)2
_symmetry_space_group_name_H-M   'P 1'
_cell_length_a   8.09668007
_cell_length_b   8.09668024
_cell_length_c   8.09667991
_cell_angle_alpha   56.56017072
_cell_angle_beta   56.56018687
_cell_angle_gamma   56.56017474
_symmetry_Int_Tables_number   1
_chemical_formula_structural   SrNp(Si7Ir3)2
_chemical_formula_sum   'Sr1 Np1 Si14 Ir6'
_cell_volume   345.49147930
_cell_formula_units_Z   1
loop_
 _symmetry_equiv_pos_site_id
 _symmetry_equiv_pos_as_xyz
  1  'x, y, z'
loop_
 _atom_site_type_symbol
 _atom_site_label
 _atom_site_symmetry_multiplicity
 _atom_site_fract_x
 _atom_site_fract_y
 _atom_site_fract_z
 _atom_site_occupancy
  Sr  Sr0  1  0.000000  0.000000  0.000000  1
  Np  Np1  1  0.500000  0.500000  0.500000  1
  Si  Si2  1  0.750071  0.750071  0.750071  1
  Si  Si3  1  0.249929  0.249929  0.249929  1
  Si  Si4  1  0.851465  0.064885  0.672718  1
  Si  Si5  1  0.672718  0.851465  0.064885  1
  Si  Si6  1  0.064885  0.672718  0.851465  1
  Si  Si7  1  0.650662  0.826305  0.437767  1
  Si  Si8  1  0.437767  0.650662  0.826305  1
  Si  Si9  1  0.826305  0.437767  0.650662  1
  Si  Si10  1  0.173695  0.562233  0.349338  1
  Si  Si11  1  0.562233  0.349338  0.173695  1
  Si  Si12  1  0.349338  0.173695  0.562233  1
  Si  Si13  1  0.935115  0.327282  0.148535  1
  Si  Si14  1  0.327282  0.148535  0.935115  1
  Si  Si15  1  0.148535  0.935115  0.327282  1
  Ir  Ir16  1  0.073196  0.435929  0.744974  1
  Ir  Ir17  1  0.255026  0.926804  0.564071  1
  Ir  Ir18  1  0.564071  0.255026  0.926804  1
  Ir  Ir19  1  0.926804  0.564071  0.255026  1
  Ir  Ir20  1  0.435929  0.744974  0.073196  1
  Ir  Ir21  1  0.744974  0.073196  0.435929  1
