# generated using pymatgen
data_Pr2NdCoO6
_symmetry_space_group_name_H-M   'P 1'
_cell_length_a   7.47316069
_cell_length_b   7.47316147
_cell_length_c   5.66634400
_cell_angle_alpha   90.00000000
_cell_angle_beta   90.00000000
_cell_angle_gamma   102.86771894
_symmetry_Int_Tables_number   1
_chemical_formula_structural   Pr2NdCoO6
_chemical_formula_sum   'Pr4 Nd2 Co2 O12'
_cell_volume   308.50756872
_cell_formula_units_Z   2
loop_
 _symmetry_equiv_pos_site_id
 _symmetry_equiv_pos_as_xyz
  1  'x, y, z'
loop_
 _atom_site_type_symbol
 _atom_site_label
 _atom_site_symmetry_multiplicity
 _atom_site_fract_x
 _atom_site_fract_y
 _atom_site_fract_z
 _atom_site_occupancy
  Pr  Pr0  1  0.412798  0.202060  0.535688  1
  Pr  Pr1  1  0.797940  0.587202  0.535688  1
  Pr  Pr2  1  0.587202  0.797940  0.035688  1
  Pr  Pr3  1  0.202060  0.412798  0.035688  1
  Nd  Nd4  1  0.103338  0.896662  0.077455  1
  Nd  Nd5  1  0.896662  0.103338  0.577455  1
  Co  Co6  1  0.304008  0.695992  0.501560  1
  Co  Co7  1  0.695992  0.304008  0.001560  1
  O  O8  1  0.170311  0.144878  0.804033  1
  O  O9  1  0.855122  0.829689  0.804033  1
  O  O10  1  0.829689  0.855122  0.304033  1
  O  O11  1  0.144878  0.170311  0.304033  1
  O  O12  1  0.609900  0.086843  0.826638  1
  O  O13  1  0.913157  0.390100  0.826638  1
  O  O14  1  0.390100  0.913157  0.326638  1
  O  O15  1  0.086843  0.609900  0.326638  1
  O  O16  1  0.542436  0.457564  0.871076  1
  O  O17  1  0.457564  0.542436  0.371076  1
  O  O18  1  0.285898  0.714102  0.827311  1
  O  O19  1  0.714102  0.285898  0.327311  1
