# generated using pymatgen
data_Tm5MnAsO12
_symmetry_space_group_name_H-M   'P 1'
_cell_length_a   6.64822260
_cell_length_b   6.64822293
_cell_length_c   7.08992800
_cell_angle_alpha   74.55272671
_cell_angle_beta   74.55272593
_cell_angle_gamma   50.50341243
_symmetry_Int_Tables_number   1
_chemical_formula_structural   Tm5MnAsO12
_chemical_formula_sum   'Tm5 Mn1 As1 O12'
_cell_volume   231.08987564
_cell_formula_units_Z   1
loop_
 _symmetry_equiv_pos_site_id
 _symmetry_equiv_pos_as_xyz
  1  'x, y, z'
loop_
 _atom_site_type_symbol
 _atom_site_label
 _atom_site_symmetry_multiplicity
 _atom_site_fract_x
 _atom_site_fract_y
 _atom_site_fract_z
 _atom_site_occupancy
  Tm  Tm0  1  0.695528  0.693879  0.666311  1
  Tm  Tm1  1  0.702932  0.692814  0.139825  1
  Tm  Tm2  1  0.004787  0.995213  0.000000  1
  Tm  Tm3  1  0.307186  0.297068  0.860175  1
  Tm  Tm4  1  0.306121  0.304472  0.333689  1
  Mn  Mn5  1  0.750388  0.249612  0.500000  1
  As  As6  1  0.238894  0.761106  0.500000  1
  O  O7  1  0.404930  0.898767  0.926398  1
  O  O8  1  0.573063  0.098946  0.580619  1
  O  O9  1  0.901054  0.426937  0.419381  1
  O  O10  1  0.101233  0.595070  0.073602  1
  O  O11  1  0.005104  0.995847  0.319681  1
  O  O12  1  0.490754  0.509259  0.681669  1
  O  O13  1  0.905860  0.399938  0.922661  1
  O  O14  1  0.101046  0.583837  0.579625  1
  O  O15  1  0.416163  0.898954  0.420375  1
  O  O16  1  0.600062  0.094140  0.077339  1
  O  O17  1  0.490741  0.509246  0.318331  1
  O  O18  1  0.004153  0.994896  0.680319  1
