# generated using pymatgen
data_Yb5USi24Ru7Pt
_symmetry_space_group_name_H-M   'P 1'
_cell_length_a   10.14196578
_cell_length_b   10.14196520
_cell_length_c   8.18253004
_cell_angle_alpha   89.97689479
_cell_angle_beta   89.97690502
_cell_angle_gamma   132.46198714
_symmetry_Int_Tables_number   1
_chemical_formula_structural   Yb5USi24Ru7Pt
_chemical_formula_sum   'Yb5 U1 Si24 Ru7 Pt1'
_cell_volume   620.90675021
_cell_formula_units_Z   1
loop_
 _symmetry_equiv_pos_site_id
 _symmetry_equiv_pos_as_xyz
  1  'x, y, z'
loop_
 _atom_site_type_symbol
 _atom_site_label
 _atom_site_symmetry_multiplicity
 _atom_site_fract_x
 _atom_site_fract_y
 _atom_site_fract_z
 _atom_site_occupancy
  Yb  Yb0  1  0.500417  0.499583  0.500000  1
  Yb  Yb1  1  0.501944  0.000721  0.750024  1
  Yb  Yb2  1  0.999279  0.498056  0.249976  1
  Yb  Yb3  1  0.498119  0.996821  0.248419  1
  Yb  Yb4  1  0.003179  0.501881  0.751581  1
  U  U5  1  0.999246  0.000754  0.000000  1
  Si  Si6  1  0.797621  0.202379  0.500000  1
  Si  Si7  1  0.293777  0.706223  0.000000  1
  Si  Si8  1  0.207494  0.792506  0.500000  1
  Si  Si9  1  0.708757  0.291243  0.000000  1
  Si  Si10  1  0.333061  0.336388  0.830483  1
  Si  Si11  1  0.663612  0.666939  0.169517  1
  Si  Si12  1  0.164062  0.171757  0.334242  1
  Si  Si13  1  0.828243  0.835938  0.665758  1
  Si  Si14  1  0.121552  0.888035  0.727248  1
  Si  Si15  1  0.111965  0.878448  0.272752  1
  Si  Si16  1  0.614943  0.382599  0.218706  1
  Si  Si17  1  0.617401  0.385057  0.781294  1
  Si  Si18  1  0.880729  0.114953  0.274627  1
  Si  Si19  1  0.885047  0.119271  0.725373  1
  Si  Si20  1  0.390080  0.623200  0.770659  1
  Si  Si21  1  0.376800  0.609920  0.229341  1
  Si  Si22  1  0.334619  0.103911  0.501234  1
  Si  Si23  1  0.896089  0.665381  0.498766  1
  Si  Si24  1  0.390542  0.156322  0.001129  1
  Si  Si25  1  0.843678  0.609458  0.998871  1
  Si  Si26  1  0.653191  0.885570  0.497537  1
  Si  Si27  1  0.114430  0.346809  0.502463  1
  Si  Si28  1  0.606723  0.840682  0.996998  1
  Si  Si29  1  0.159318  0.393277  0.003002  1
  Ru  Ru30  1  0.166975  0.833025  0.000000  1
  Ru  Ru31  1  0.331027  0.668973  0.500000  1
  Ru  Ru32  1  0.834749  0.165251  0.000000  1
  Ru  Ru33  1  0.126690  0.125543  0.627114  1
  Ru  Ru34  1  0.874457  0.873310  0.372886  1
  Ru  Ru35  1  0.372370  0.369991  0.124530  1
  Ru  Ru36  1  0.630009  0.627630  0.875470  1
  Pt  Pt37  1  0.667812  0.332188  0.500000  1
