# generated using pymatgen
data_TbYb13(InN4)2
_symmetry_space_group_name_H-M   'P 1'
_cell_length_a   3.52364200
_cell_length_b   11.97659360
_cell_length_c   11.45883656
_cell_angle_alpha   89.96384559
_cell_angle_beta   90.00000000
_cell_angle_gamma   90.00000000
_symmetry_Int_Tables_number   1
_chemical_formula_structural   TbYb13(InN4)2
_chemical_formula_sum   'Tb1 Yb13 In2 N8'
_cell_volume   483.57688088
_cell_formula_units_Z   1
loop_
 _symmetry_equiv_pos_site_id
 _symmetry_equiv_pos_as_xyz
  1  'x, y, z'
loop_
 _atom_site_type_symbol
 _atom_site_label
 _atom_site_symmetry_multiplicity
 _atom_site_fract_x
 _atom_site_fract_y
 _atom_site_fract_z
 _atom_site_occupancy
  Tb  Tb0  1  0.499388  0.500000  0.000000  1
  Yb  Yb1  1  0.499403  0.666270  0.241550  1
  Yb  Yb2  1  0.499403  0.333730  0.758450  1
  Yb  Yb3  1  0.500511  0.167683  0.259671  1
  Yb  Yb4  1  0.500511  0.832317  0.740329  1
  Yb  Yb5  1  0.500775  0.000000  0.500000  1
  Yb  Yb6  1  0.999658  0.928788  0.264310  1
  Yb  Yb7  1  0.999658  0.071212  0.735690  1
  Yb  Yb8  1  0.000941  0.425502  0.240809  1
  Yb  Yb9  1  0.000941  0.574498  0.759191  1
  Yb  Yb10  1  0.001706  0.765512  0.480428  1
  Yb  Yb11  1  0.001706  0.234488  0.519572  1
  Yb  Yb12  1  0.997695  0.260677  0.019716  1
  Yb  Yb13  1  0.997695  0.739323  0.980284  1
  In  In14  1  0.533114  0.500000  0.500000  1
  In  In15  1  0.466592  0.000000  0.000000  1
  N  N16  1  0.999190  0.594196  0.122317  1
  N  N17  1  0.999190  0.405804  0.877683  1
  N  N18  1  0.000770  0.100762  0.369710  1
  N  N19  1  0.000770  0.899238  0.630290  1
  N  N20  1  0.500506  0.831387  0.357438  1
  N  N21  1  0.500506  0.168613  0.642562  1
  N  N22  1  0.499686  0.339261  0.134947  1
  N  N23  1  0.499686  0.660739  0.865053  1
