# generated using pymatgen
data_Er2Lu4C2I7
_symmetry_space_group_name_H-M   'P 1'
_cell_length_a   10.85612149
_cell_length_b   10.85612084
_cell_length_c   12.68616469
_cell_angle_alpha   58.25568451
_cell_angle_beta   58.25568761
_cell_angle_gamma   20.71603538
_symmetry_Int_Tables_number   1
_chemical_formula_structural   Er2Lu4C2I7
_chemical_formula_sum   'Er2 Lu4 C2 I7'
_cell_volume   446.87971499
_cell_formula_units_Z   1
loop_
 _symmetry_equiv_pos_site_id
 _symmetry_equiv_pos_as_xyz
  1  'x, y, z'
loop_
 _atom_site_type_symbol
 _atom_site_label
 _atom_site_symmetry_multiplicity
 _atom_site_fract_x
 _atom_site_fract_y
 _atom_site_fract_z
 _atom_site_occupancy
  Er  Er0  1  0.237837  0.237837  0.805239  1
  Er  Er1  1  0.307441  0.307441  0.376969  1
  Lu  Lu2  1  0.137747  0.137747  0.446004  1
  Lu  Lu3  1  0.861408  0.861408  0.554282  1
  Lu  Lu4  1  0.694235  0.694235  0.620800  1
  Lu  Lu5  1  0.761696  0.761696  0.197195  1
  C  C6  1  0.280828  0.280828  0.593762  1
  C  C7  1  0.717965  0.717965  0.406265  1
  I  I8  1  0.160167  0.160167  0.179221  1
  I  I9  1  0.841139  0.841139  0.820545  1
  I  I10  1  0.059583  0.059583  0.718971  1
  I  I11  1  0.941599  0.941599  0.280266  1
  I  I12  1  0.500054  0.500054  0.499958  1
  I  I13  1  0.385355  0.385355  0.073855  1
  I  I14  1  0.612947  0.612947  0.926665  1
