# generated using pymatgen
data_Dy(ThH5)3
_symmetry_space_group_name_H-M   'P 1'
_cell_length_a   7.84082420
_cell_length_b   7.83902218
_cell_length_c   7.80845523
_cell_angle_alpha   109.45724061
_cell_angle_beta   109.46661093
_cell_angle_gamma   109.65244920
_symmetry_Int_Tables_number   1
_chemical_formula_structural   Dy(ThH5)3
_chemical_formula_sum   'Dy2 Th6 H30'
_cell_volume   368.71504728
_cell_formula_units_Z   2
loop_
 _symmetry_equiv_pos_site_id
 _symmetry_equiv_pos_as_xyz
  1  'x, y, z'
loop_
 _atom_site_type_symbol
 _atom_site_label
 _atom_site_symmetry_multiplicity
 _atom_site_fract_x
 _atom_site_fract_y
 _atom_site_fract_z
 _atom_site_occupancy
  Dy  Dy0  1  0.913572  0.914633  0.915212  1
  Dy  Dy1  1  0.498359  0.999421  0.084788  1
  Th  Th2  1  0.994153  0.080186  0.495051  1
  Th  Th3  1  0.085519  0.504546  0.000898  1
  Th  Th4  1  0.999102  0.585135  0.504949  1
  Th  Th5  1  0.584621  0.503648  0.999102  1
  Th  Th6  1  0.504053  0.998705  0.588142  1
  Th  Th7  1  0.415911  0.410563  0.411858  1
  H  H8  1  0.651469  0.966193  0.371071  1
  H  H9  1  0.218263  0.316287  0.845849  1
  H  H10  1  0.186003  0.403657  0.533312  1
  H  H11  1  0.095843  0.280354  0.125716  1
  H  H12  1  0.281864  0.122755  0.093607  1
  H  H13  1  0.124864  0.093731  0.277230  1
  H  H14  1  0.470127  0.154638  0.874284  1
  H  H15  1  0.719637  0.349629  0.814565  1
  H  H16  1  0.627732  0.380144  0.251445  1
  H  H17  1  0.250091  0.624665  0.375609  1
  H  H18  1  0.750582  0.872715  0.127200  1
  H  H19  1  0.123382  0.745515  0.872800  1
  H  H20  1  0.374481  0.249056  0.624391  1
  H  H21  1  0.876286  0.128699  0.748555  1
  H  H22  1  0.780398  0.595122  0.628929  1
  H  H23  1  0.317776  0.848067  0.221254  1
  H  H24  1  0.374537  0.658462  0.968625  1
  H  H25  1  0.965808  0.370002  0.651652  1
  H  H26  1  0.534775  0.184872  0.405475  1
  H  H27  1  0.405072  0.535064  0.185435  1
  H  H28  1  0.840712  0.217646  0.312593  1
  H  H29  1  0.905912  0.689838  0.031375  1
  H  H30  1  0.814156  0.718350  0.348348  1
  H  H31  1  0.152692  0.870346  0.466688  1
  H  H32  1  0.688257  0.029148  0.906393  1
  H  H33  1  0.347634  0.816501  0.722770  1
  H  H34  1  0.872414  0.470438  0.154151  1
  H  H35  1  0.629301  0.779398  0.594525  1
  H  H36  1  0.596521  0.626812  0.778746  1
  H  H37  1  0.028118  0.905052  0.687407  1
