# generated using pymatgen
data_YScB6Rh
_symmetry_space_group_name_H-M   'P 1'
_cell_length_a   3.55620900
_cell_length_b   9.01563700
_cell_length_c   11.37611300
_cell_angle_alpha   90.00000000
_cell_angle_beta   90.00000000
_cell_angle_gamma   90.00000000
_symmetry_Int_Tables_number   1
_chemical_formula_structural   YScB6Rh
_chemical_formula_sum   'Y4 Sc4 B24 Rh4'
_cell_volume   364.73512682
_cell_formula_units_Z   4
loop_
 _symmetry_equiv_pos_site_id
 _symmetry_equiv_pos_as_xyz
  1  'x, y, z'
loop_
 _atom_site_type_symbol
 _atom_site_label
 _atom_site_symmetry_multiplicity
 _atom_site_fract_x
 _atom_site_fract_y
 _atom_site_fract_z
 _atom_site_occupancy
  Y  Y0  1  0.500000  0.320265  0.413849  1
  Y  Y1  1  0.500000  0.679735  0.586151  1
  Y  Y2  1  0.500000  0.179735  0.913849  1
  Y  Y3  1  0.500000  0.820265  0.086151  1
  Sc  Sc4  1  0.500000  0.444673  0.125016  1
  Sc  Sc5  1  0.500000  0.555327  0.874984  1
  Sc  Sc6  1  0.500000  0.055327  0.625016  1
  Sc  Sc7  1  0.500000  0.944673  0.374984  1
  B  B8  1  0.000000  0.099886  0.473034  1
  B  B9  1  0.000000  0.900114  0.526966  1
  B  B10  1  0.000000  0.400114  0.973034  1
  B  B11  1  0.000000  0.599886  0.026966  1
  B  B12  1  0.000000  0.129859  0.318121  1
  B  B13  1  0.000000  0.870141  0.681879  1
  B  B14  1  0.000000  0.370141  0.818121  1
  B  B15  1  0.000000  0.629859  0.181879  1
  B  B16  1  0.000000  0.054833  0.065980  1
  B  B17  1  0.000000  0.945167  0.934020  1
  B  B18  1  0.000000  0.445167  0.565980  1
  B  B19  1  0.000000  0.554833  0.434020  1
  B  B20  1  0.000000  0.481876  0.285073  1
  B  B21  1  0.000000  0.518124  0.714927  1
  B  B22  1  0.000000  0.018124  0.785073  1
  B  B23  1  0.000000  0.981876  0.214927  1
  B  B24  1  0.000000  0.254063  0.080650  1
  B  B25  1  0.000000  0.745937  0.919350  1
  B  B26  1  0.000000  0.245937  0.580650  1
  B  B27  1  0.000000  0.754063  0.419350  1
  B  B28  1  0.000000  0.295830  0.235261  1
  B  B29  1  0.000000  0.704170  0.764739  1
  B  B30  1  0.000000  0.204170  0.735261  1
  B  B31  1  0.000000  0.795830  0.264739  1
  Rh  Rh32  1  0.500000  0.141632  0.181650  1
  Rh  Rh33  1  0.500000  0.858368  0.818350  1
  Rh  Rh34  1  0.500000  0.358368  0.681650  1
  Rh  Rh35  1  0.500000  0.641632  0.318350  1
