# generated using pymatgen
data_ErLu3(FeSi2)2
_symmetry_space_group_name_H-M   'P 1'
_cell_length_a   5.52217346
_cell_length_b   5.52217360
_cell_length_c   9.78127662
_cell_angle_alpha   63.41810160
_cell_angle_beta   63.41810069
_cell_angle_gamma   43.59103013
_symmetry_Int_Tables_number   1
_chemical_formula_structural   ErLu3(FeSi2)2
_chemical_formula_sum   'Er1 Lu3 Fe2 Si4'
_cell_volume   180.20325235
_cell_formula_units_Z   1
loop_
 _symmetry_equiv_pos_site_id
 _symmetry_equiv_pos_as_xyz
  1  'x, y, z'
loop_
 _atom_site_type_symbol
 _atom_site_label
 _atom_site_symmetry_multiplicity
 _atom_site_fract_x
 _atom_site_fract_y
 _atom_site_fract_z
 _atom_site_occupancy
  Er  Er0  1  0.188500  0.188500  0.891830  1
  Lu  Lu1  1  0.999777  0.999777  0.328407  1
  Lu  Lu2  1  0.000590  0.000590  0.671074  1
  Lu  Lu3  1  0.812068  0.812068  0.109550  1
  Fe  Fe4  1  0.729467  0.729467  0.624480  1
  Fe  Fe5  1  0.270288  0.270288  0.374753  1
  Si  Si6  1  0.650524  0.650524  0.436310  1
  Si  Si7  1  0.349950  0.349950  0.562694  1
  Si  Si8  1  0.502109  0.502109  0.127110  1
  Si  Si9  1  0.496727  0.496727  0.873793  1
