# generated using pymatgen
data_Ta4Cr5CoIr2
_symmetry_space_group_name_H-M   'P 1'
_cell_length_a   4.79802300
_cell_length_b   4.90228264
_cell_length_c   8.29052100
_cell_angle_alpha   90.00000000
_cell_angle_beta   90.00000000
_cell_angle_gamma   119.29892655
_symmetry_Int_Tables_number   1
_chemical_formula_structural   Ta4Cr5CoIr2
_chemical_formula_sum   'Ta4 Cr5 Co1 Ir2'
_cell_volume   170.05838330
_cell_formula_units_Z   1
loop_
 _symmetry_equiv_pos_site_id
 _symmetry_equiv_pos_as_xyz
  1  'x, y, z'
loop_
 _atom_site_type_symbol
 _atom_site_label
 _atom_site_symmetry_multiplicity
 _atom_site_fract_x
 _atom_site_fract_y
 _atom_site_fract_z
 _atom_site_occupancy
  Ta  Ta0  1  0.330205  0.660411  0.434251  1
  Ta  Ta1  1  0.665092  0.330183  0.933316  1
  Ta  Ta2  1  0.665092  0.330183  0.566684  1
  Ta  Ta3  1  0.330205  0.660411  0.065749  1
  Cr  Cr4  1  0.184982  0.831261  0.750000  1
  Cr  Cr5  1  0.354333  0.172727  0.250000  1
  Cr  Cr6  1  0.825807  0.651615  0.250000  1
  Cr  Cr7  1  0.646280  0.831261  0.750000  1
  Cr  Cr8  1  0.818392  0.172727  0.250000  1
  Co  Co9  1  0.176311  0.352622  0.750000  1
  Ir  Ir10  1  0.001650  0.003300  0.996823  1
  Ir  Ir11  1  0.001650  0.003300  0.503177  1
