# generated using pymatgen
data_Zr2Sc2Fe6SiGe
_symmetry_space_group_name_H-M   'P 1'
_cell_length_a   4.99642100
_cell_length_b   4.99642204
_cell_length_c   8.03418100
_cell_angle_alpha   90.00000000
_cell_angle_beta   90.00000000
_cell_angle_gamma   119.99998651
_symmetry_Int_Tables_number   1
_chemical_formula_structural   Zr2Sc2Fe6SiGe
_chemical_formula_sum   'Zr2 Sc2 Fe6 Si1 Ge1'
_cell_volume   173.69625006
_cell_formula_units_Z   1
loop_
 _symmetry_equiv_pos_site_id
 _symmetry_equiv_pos_as_xyz
  1  'x, y, z'
loop_
 _atom_site_type_symbol
 _atom_site_label
 _atom_site_symmetry_multiplicity
 _atom_site_fract_x
 _atom_site_fract_y
 _atom_site_fract_z
 _atom_site_occupancy
  Zr  Zr0  1  0.666667  0.333333  0.564553  1
  Zr  Zr1  1  0.333333  0.666667  0.063486  1
  Sc  Sc2  1  0.666667  0.333333  0.937331  1
  Sc  Sc3  1  0.333333  0.666667  0.436619  1
  Fe  Fe4  1  0.172032  0.827968  0.753263  1
  Fe  Fe5  1  0.655938  0.827968  0.753263  1
  Fe  Fe6  1  0.827947  0.172053  0.246472  1
  Fe  Fe7  1  0.172032  0.344062  0.753263  1
  Fe  Fe8  1  0.827947  0.655895  0.246472  1
  Fe  Fe9  1  0.344105  0.172053  0.246472  1
  Si  Si10  1  0.000000  0.000000  0.999476  1
  Ge  Ge11  1  0.000000  0.000000  0.499331  1
