# generated using pymatgen
data_Nb6Si6Mo5Ir
_symmetry_space_group_name_H-M   'P 1'
_cell_length_a   7.68664929
_cell_length_b   7.71083788
_cell_length_c   7.68780669
_cell_angle_alpha   126.38559552
_cell_angle_beta   128.19932091
_cell_angle_gamma   77.71533606
_symmetry_Int_Tables_number   1
_chemical_formula_structural   Nb6Si6Mo5Ir
_chemical_formula_sum   'Nb6 Si6 Mo5 Ir1'
_cell_volume   279.59584005
_cell_formula_units_Z   1
loop_
 _symmetry_equiv_pos_site_id
 _symmetry_equiv_pos_as_xyz
  1  'x, y, z'
loop_
 _atom_site_type_symbol
 _atom_site_label
 _atom_site_symmetry_multiplicity
 _atom_site_fract_x
 _atom_site_fract_y
 _atom_site_fract_z
 _atom_site_occupancy
  Nb  Nb0  1  0.951330  0.918786  0.467984  1
  Nb  Nb1  1  0.058478  0.502649  0.950532  1
  Nb  Nb2  1  0.551009  0.504090  0.445733  1
  Nb  Nb3  1  0.450827  0.917921  0.965444  1
  Nb  Nb4  1  0.745784  0.088369  0.847234  1
  Nb  Nb5  1  0.241533  0.089726  0.342531  1
  Si  Si6  1  0.754148  0.503335  0.251589  1
  Si  Si7  1  0.253864  0.503305  0.748388  1
  Si  Si8  1  0.665169  0.178804  0.513026  1
  Si  Si9  1  0.329868  0.833334  0.500902  1
  Si  Si10  1  0.165052  0.172362  0.006938  1
  Si  Si11  1  0.828205  0.827671  0.000977  1
  Mo  Mo12  1  0.501366  0.760469  0.258812  1
  Mo  Mo13  1  0.998884  0.759163  0.761454  1
  Mo  Mo14  1  0.871003  0.245561  0.375226  1
  Mo  Mo15  1  0.129288  0.502182  0.369391  1
  Mo  Mo16  1  0.372475  0.247600  0.875236  1
  Ir  Ir17  1  0.631716  0.502472  0.876400  1
