# generated using pymatgen
data_TbTm3(NiPt)2
_symmetry_space_group_name_H-M   'P 1'
_cell_length_a   4.33652500
_cell_length_b   5.45440542
_cell_length_c   6.99623274
_cell_angle_alpha   90.30481497
_cell_angle_beta   90.00000000
_cell_angle_gamma   90.00000000
_symmetry_Int_Tables_number   1
_chemical_formula_structural   TbTm3(NiPt)2
_chemical_formula_sum   'Tb1 Tm3 Ni2 Pt2'
_cell_volume   165.48070896
_cell_formula_units_Z   1
loop_
 _symmetry_equiv_pos_site_id
 _symmetry_equiv_pos_as_xyz
  1  'x, y, z'
loop_
 _atom_site_type_symbol
 _atom_site_label
 _atom_site_symmetry_multiplicity
 _atom_site_fract_x
 _atom_site_fract_y
 _atom_site_fract_z
 _atom_site_occupancy
  Tb  Tb0  1  0.000000  0.887012  0.182191  1
  Tm  Tm1  1  0.000000  0.112546  0.680633  1
  Tm  Tm2  1  0.500000  0.384778  0.320367  1
  Tm  Tm3  1  0.500000  0.615099  0.818367  1
  Ni  Ni4  1  0.500000  0.896308  0.464857  1
  Ni  Ni5  1  0.500000  0.107909  0.955250  1
  Pt  Pt6  1  0.000000  0.609792  0.542058  1
  Pt  Pt7  1  0.000000  0.386557  0.036280  1
