# generated using pymatgen
data_Cs3Na2SiAs3
_symmetry_space_group_name_H-M   'P 1'
_cell_length_a   10.89884225
_cell_length_b   10.89884069
_cell_length_c   16.52875700
_cell_angle_alpha   90.00000000
_cell_angle_beta   90.00000000
_cell_angle_gamma   142.60994087
_symmetry_Int_Tables_number   1
_chemical_formula_structural   Cs3Na2SiAs3
_chemical_formula_sum   'Cs12 Na8 Si4 As12'
_cell_volume   1192.22934301
_cell_formula_units_Z   4
loop_
 _symmetry_equiv_pos_site_id
 _symmetry_equiv_pos_as_xyz
  1  'x, y, z'
loop_
 _atom_site_type_symbol
 _atom_site_label
 _atom_site_symmetry_multiplicity
 _atom_site_fract_x
 _atom_site_fract_y
 _atom_site_fract_z
 _atom_site_occupancy
  Cs  Cs0  1  0.941258  0.608994  0.828931  1
  Cs  Cs1  1  0.558742  0.891006  0.328931  1
  Cs  Cs2  1  0.391006  0.058742  0.171069  1
  Cs  Cs3  1  0.058742  0.391006  0.171069  1
  Cs  Cs4  1  0.891006  0.558742  0.328931  1
  Cs  Cs5  1  0.441258  0.108994  0.671069  1
  Cs  Cs6  1  0.608994  0.941258  0.828931  1
  Cs  Cs7  1  0.273051  0.273051  0.319401  1
  Cs  Cs8  1  0.773051  0.773051  0.180599  1
  Cs  Cs9  1  0.226949  0.226949  0.819401  1
  Cs  Cs10  1  0.726949  0.726949  0.680599  1
  Cs  Cs11  1  0.108994  0.441258  0.671069  1
  Na  Na12  1  0.920844  0.079156  0.000000  1
  Na  Na13  1  0.579156  0.420844  0.500000  1
  Na  Na14  1  0.079156  0.920844  0.000000  1
  Na  Na15  1  0.420844  0.579156  0.500000  1
  Na  Na16  1  0.754817  0.245183  0.000000  1
  Na  Na17  1  0.745183  0.254817  0.500000  1
  Na  Na18  1  0.245183  0.754817  0.000000  1
  Na  Na19  1  0.254817  0.745183  0.500000  1
  Si  Si20  1  0.585007  0.414993  0.000000  1
  Si  Si21  1  0.914993  0.085007  0.500000  1
  Si  Si22  1  0.414993  0.585007  0.000000  1
  Si  Si23  1  0.085007  0.914993  0.500000  1
  As  As24  1  0.853251  0.549073  0.087626  1
  As  As25  1  0.450927  0.146749  0.912374  1
  As  As26  1  0.646749  0.950927  0.587626  1
  As  As27  1  0.950927  0.646749  0.587626  1
  As  As28  1  0.146749  0.450927  0.912374  1
  As  As29  1  0.549073  0.853251  0.087626  1
  As  As30  1  0.353251  0.049073  0.412374  1
  As  As31  1  0.179879  0.179879  0.576200  1
  As  As32  1  0.679879  0.679879  0.923800  1
  As  As33  1  0.320121  0.320121  0.076200  1
  As  As34  1  0.049073  0.353251  0.412374  1
  As  As35  1  0.820121  0.820121  0.423800  1
