# generated using pymatgen
data_Nd10Sn3Bi3Br2
_symmetry_space_group_name_H-M   'P 1'
_cell_length_a   9.58663695
_cell_length_b   9.62438888
_cell_length_c   6.74714800
_cell_angle_alpha   90.00000000
_cell_angle_beta   90.00000000
_cell_angle_gamma   120.31300688
_symmetry_Int_Tables_number   1
_chemical_formula_structural   Nd10Sn3Bi3Br2
_chemical_formula_sum   'Nd10 Sn3 Bi3 Br2'
_cell_volume   537.41756854
_cell_formula_units_Z   1
loop_
 _symmetry_equiv_pos_site_id
 _symmetry_equiv_pos_as_xyz
  1  'x, y, z'
loop_
 _atom_site_type_symbol
 _atom_site_label
 _atom_site_symmetry_multiplicity
 _atom_site_fract_x
 _atom_site_fract_y
 _atom_site_fract_z
 _atom_site_occupancy
  Nd  Nd0  1  0.732685  0.733341  0.250000  1
  Nd  Nd1  1  0.329883  0.666772  0.498987  1
  Nd  Nd2  1  0.265617  0.270814  0.750000  1
  Nd  Nd3  1  0.994278  0.270156  0.250000  1
  Nd  Nd4  1  0.671187  0.333237  0.498925  1
  Nd  Nd5  1  0.269673  0.994742  0.250000  1
  Nd  Nd6  1  0.733723  0.004945  0.750000  1
  Nd  Nd7  1  0.329883  0.666772  0.001013  1
  Nd  Nd8  1  0.671187  0.333237  0.001075  1
  Nd  Nd9  1  0.999889  0.725652  0.750000  1
  Sn  Sn10  1  0.999148  0.614349  0.250000  1
  Sn  Sn11  1  0.614540  0.998877  0.250000  1
  Sn  Sn12  1  0.000270  0.386206  0.750000  1
  Bi  Bi13  1  0.383924  0.383630  0.250000  1
  Bi  Bi14  1  0.615097  0.616062  0.750000  1
  Bi  Bi15  1  0.385646  0.001287  0.750000  1
  Br  Br16  1  0.001683  0.999959  0.999771  1
  Br  Br17  1  0.001683  0.999959  0.500229  1
