# generated using pymatgen
data_Ac7LaSe16
_symmetry_space_group_name_H-M   'P 1'
_cell_length_a   8.77474107
_cell_length_b   8.79480506
_cell_length_c   8.87156855
_cell_angle_alpha   90.08028868
_cell_angle_beta   89.83818406
_cell_angle_gamma   89.92608713
_symmetry_Int_Tables_number   1
_chemical_formula_structural   Ac7LaSe16
_chemical_formula_sum   'Ac7 La1 Se16'
_cell_volume   684.63392904
_cell_formula_units_Z   1
loop_
 _symmetry_equiv_pos_site_id
 _symmetry_equiv_pos_as_xyz
  1  'x, y, z'
loop_
 _atom_site_type_symbol
 _atom_site_label
 _atom_site_symmetry_multiplicity
 _atom_site_fract_x
 _atom_site_fract_y
 _atom_site_fract_z
 _atom_site_occupancy
  Ac  Ac0  1  0.252195  0.486431  0.723799  1
  Ac  Ac1  1  0.252053  0.987501  0.723730  1
  Ac  Ac2  1  0.752816  0.512618  0.723095  1
  Ac  Ac3  1  0.753200  0.013634  0.722427  1
  Ac  Ac4  1  0.498405  0.232077  0.277592  1
  Ac  Ac5  1  0.996411  0.766403  0.277830  1
  Ac  Ac6  1  0.495869  0.729908  0.273520  1
  La  La7  1  0.998784  0.267461  0.278191  1
  Se  Se8  1  0.500054  0.245513  0.635433  1
  Se  Se9  1  0.999800  0.754370  0.636388  1
  Se  Se10  1  0.499197  0.745016  0.631673  1
  Se  Se11  1  0.000919  0.253455  0.629125  1
  Se  Se12  1  0.754558  0.499739  0.363941  1
  Se  Se13  1  0.754329  0.007261  0.364557  1
  Se  Se14  1  0.246428  0.492014  0.364018  1
  Se  Se15  1  0.248316  0.997659  0.364823  1
  Se  Se16  1  0.233976  0.714949  0.998335  1
  Se  Se17  1  0.240101  0.216566  0.000297  1
  Se  Se18  1  0.746999  0.285013  0.999854  1
  Se  Se19  1  0.738407  0.786848  0.997709  1
  Se  Se20  1  0.007630  0.540160  0.002904  1
  Se  Se21  1  0.509360  0.958536  0.001779  1
  Se  Se22  1  0.512514  0.453145  0.002093  1
  Se  Se23  1  0.007677  0.053722  0.006887  1
