# generated using pymatgen
data_Y4ErPPb3
_symmetry_space_group_name_H-M   'P 1'
_cell_length_a   9.15073866
_cell_length_b   9.15073808
_cell_length_c   6.81294200
_cell_angle_alpha   90.00000000
_cell_angle_beta   90.00000000
_cell_angle_gamma   119.95652852
_symmetry_Int_Tables_number   1
_chemical_formula_structural   Y4ErPPb3
_chemical_formula_sum   'Y8 Er2 P2 Pb6'
_cell_volume   494.27389698
_cell_formula_units_Z   2
loop_
 _symmetry_equiv_pos_site_id
 _symmetry_equiv_pos_as_xyz
  1  'x, y, z'
loop_
 _atom_site_type_symbol
 _atom_site_label
 _atom_site_symmetry_multiplicity
 _atom_site_fract_x
 _atom_site_fract_y
 _atom_site_fract_z
 _atom_site_occupancy
  Y  Y0  1  0.762435  0.762435  0.250000  1
  Y  Y1  1  0.237338  0.999902  0.250000  1
  Y  Y2  1  0.999902  0.237338  0.250000  1
  Y  Y3  1  0.237510  0.237510  0.750000  1
  Y  Y4  1  0.666837  0.333416  0.500167  1
  Y  Y5  1  0.333416  0.666837  0.500167  1
  Y  Y6  1  0.333416  0.666837  0.999833  1
  Y  Y7  1  0.666837  0.333416  0.999833  1
  Er  Er8  1  0.763799  0.999944  0.750000  1
  Er  Er9  1  0.999944  0.763799  0.750000  1
  P  P10  1  0.999101  0.999101  0.501518  1
  P  P11  1  0.999101  0.999101  0.998482  1
  Pb  Pb12  1  0.400468  0.400468  0.250000  1
  Pb  Pb13  1  0.599539  0.999993  0.250000  1
  Pb  Pb14  1  0.999993  0.599539  0.250000  1
  Pb  Pb15  1  0.600947  0.600947  0.750000  1
  Pb  Pb16  1  0.400095  0.999323  0.750000  1
  Pb  Pb17  1  0.999323  0.400095  0.750000  1
