# generated using pymatgen
data_Y4Ho2Al24Ir3Os5
_symmetry_space_group_name_H-M   'P 1'
_cell_length_a   8.78994115
_cell_length_b   8.80156612
_cell_length_c   9.58188566
_cell_angle_alpha   90.01279272
_cell_angle_beta   89.84839933
_cell_angle_gamma   119.49437385
_symmetry_Int_Tables_number   1
_chemical_formula_structural   Y4Ho2Al24Ir3Os5
_chemical_formula_sum   'Y4 Ho2 Al24 Ir3 Os5'
_cell_volume   645.23208338
_cell_formula_units_Z   1
loop_
 _symmetry_equiv_pos_site_id
 _symmetry_equiv_pos_as_xyz
  1  'x, y, z'
loop_
 _atom_site_type_symbol
 _atom_site_label
 _atom_site_symmetry_multiplicity
 _atom_site_fract_x
 _atom_site_fract_y
 _atom_site_fract_z
 _atom_site_occupancy
  Y  Y0  1  0.188940  0.384503  0.250674  1
  Y  Y1  1  0.811060  0.615497  0.749326  1
  Y  Y2  1  0.613814  0.811271  0.250807  1
  Y  Y3  1  0.386186  0.188729  0.749193  1
  Ho  Ho4  1  0.195526  0.807857  0.251007  1
  Ho  Ho5  1  0.804474  0.192143  0.748993  1
  Al  Al6  1  0.333801  0.668372  0.024691  1
  Al  Al7  1  0.666199  0.331628  0.975309  1
  Al  Al8  1  0.667735  0.332612  0.523397  1
  Al  Al9  1  0.332265  0.667388  0.476603  1
  Al  Al10  1  0.162204  0.326638  0.576083  1
  Al  Al11  1  0.837796  0.673362  0.423917  1
  Al  Al12  1  0.672794  0.836957  0.575994  1
  Al  Al13  1  0.836117  0.673653  0.076705  1
  Al  Al14  1  0.327206  0.163043  0.424006  1
  Al  Al15  1  0.163883  0.326347  0.923295  1
  Al  Al16  1  0.163977  0.835138  0.575044  1
  Al  Al17  1  0.327007  0.162663  0.075706  1
  Al  Al18  1  0.836023  0.164862  0.424956  1
  Al  Al19  1  0.672993  0.837337  0.924294  1
  Al  Al20  1  0.834207  0.163015  0.074794  1
  Al  Al21  1  0.165793  0.836985  0.925206  1
  Al  Al22  1  0.560873  0.124973  0.249536  1
  Al  Al23  1  0.439127  0.875027  0.750464  1
  Al  Al24  1  0.876038  0.439704  0.250479  1
  Al  Al25  1  0.123962  0.560296  0.749521  1
  Al  Al26  1  0.561635  0.438672  0.249596  1
  Al  Al27  1  0.438365  0.561328  0.750404  1
  Al  Al28  1  0.999867  0.000452  0.250013  1
  Al  Al29  1  0.000133  0.999548  0.749987  1
  Ir  Ir30  1  0.000000  0.500000  0.000000  1
  Ir  Ir31  1  0.500000  0.500000  0.000000  1
  Ir  Ir32  1  0.500000  0.500000  0.500000  1
  Os  Os33  1  0.500000  0.000000  0.000000  1
  Os  Os34  1  0.500000  0.000000  0.500000  1
  Os  Os35  1  0.000000  0.500000  0.500000  1
  Os  Os36  1  0.000000  0.000000  0.000000  1
  Os  Os37  1  0.000000  0.000000  0.500000  1
