# generated using pymatgen
data_YEr9(ThCo2)2
_symmetry_space_group_name_H-M   'P 1'
_cell_length_a   6.23508487
_cell_length_b   6.85459949
_cell_length_c   9.44424200
_cell_angle_alpha   90.00000000
_cell_angle_beta   90.00000000
_cell_angle_gamma   89.73094736
_symmetry_Int_Tables_number   1
_chemical_formula_structural   YEr9(ThCo2)2
_chemical_formula_sum   'Y1 Er9 Th2 Co4'
_cell_volume   403.63309901
_cell_formula_units_Z   1
loop_
 _symmetry_equiv_pos_site_id
 _symmetry_equiv_pos_as_xyz
  1  'x, y, z'
loop_
 _atom_site_type_symbol
 _atom_site_label
 _atom_site_symmetry_multiplicity
 _atom_site_fract_x
 _atom_site_fract_y
 _atom_site_fract_z
 _atom_site_occupancy
  Y  Y0  1  0.859783  0.540809  0.250000  1
  Er  Er1  1  0.326017  0.675055  0.068831  1
  Er  Er2  1  0.175100  0.170667  0.432774  1
  Er  Er3  1  0.673882  0.328140  0.568295  1
  Er  Er4  1  0.824600  0.825745  0.930407  1
  Er  Er5  1  0.673882  0.328140  0.931705  1
  Er  Er6  1  0.824600  0.825745  0.569593  1
  Er  Er7  1  0.326017  0.675055  0.431169  1
  Er  Er8  1  0.175100  0.170667  0.067226  1
  Er  Er9  1  0.356545  0.957937  0.750000  1
  Th  Th10  1  0.652697  0.052431  0.250000  1
  Th  Th11  1  0.152278  0.447775  0.750000  1
  Co  Co12  1  0.034485  0.891071  0.250000  1
  Co  Co13  1  0.455149  0.370299  0.250000  1
  Co  Co14  1  0.958280  0.128700  0.750000  1
  Co  Co15  1  0.531583  0.611766  0.750000  1
