# generated using pymatgen
data_KVF5
_symmetry_space_group_name_H-M   'P 1'
_cell_length_a   10.19443000
_cell_length_b   5.66202806
_cell_length_c   7.70967669
_cell_angle_alpha   89.35541930
_cell_angle_beta   90.00000000
_cell_angle_gamma   90.00000000
_symmetry_Int_Tables_number   1
_chemical_formula_structural   KVF5
_chemical_formula_sum   'K4 V4 F20'
_cell_volume   444.98323385
_cell_formula_units_Z   4
loop_
 _symmetry_equiv_pos_site_id
 _symmetry_equiv_pos_as_xyz
  1  'x, y, z'
loop_
 _atom_site_type_symbol
 _atom_site_label
 _atom_site_symmetry_multiplicity
 _atom_site_fract_x
 _atom_site_fract_y
 _atom_site_fract_z
 _atom_site_occupancy
  K  K0  1  0.653650  0.488999  0.367307  1
  K  K1  1  0.153650  0.511001  0.632693  1
  K  K2  1  0.994832  0.009109  0.119103  1
  K  K3  1  0.494832  0.990891  0.880897  1
  V  V4  1  0.265667  0.521004  0.123285  1
  V  V5  1  0.765667  0.478996  0.876715  1
  V  V6  1  0.369944  0.015010  0.425959  1
  V  V7  1  0.869944  0.984990  0.574041  1
  F  F8  1  0.969782  0.779210  0.444740  1
  F  F9  1  0.452195  0.759150  0.528078  1
  F  F10  1  0.952195  0.240850  0.471922  1
  F  F11  1  0.268468  0.272082  0.970707  1
  F  F12  1  0.474884  0.039457  0.237010  1
  F  F13  1  0.089325  0.508923  0.151824  1
  F  F14  1  0.754753  0.203012  0.710564  1
  F  F15  1  0.270385  0.296540  0.327611  1
  F  F16  1  0.974884  0.960543  0.762990  1
  F  F17  1  0.239731  0.010080  0.587764  1
  F  F18  1  0.589325  0.491077  0.848176  1
  F  F19  1  0.469782  0.220790  0.555260  1
  F  F20  1  0.941671  0.453394  0.852518  1
  F  F21  1  0.757114  0.266590  0.060889  1
  F  F22  1  0.739731  0.989920  0.412236  1
  F  F23  1  0.254753  0.796988  0.289436  1
  F  F24  1  0.768468  0.727918  0.029293  1
  F  F25  1  0.257114  0.733410  0.939111  1
  F  F26  1  0.770385  0.703460  0.672389  1
  F  F27  1  0.441671  0.546606  0.147482  1
