# generated using pymatgen
data_Tm8InAgRh2
_symmetry_space_group_name_H-M   'P 1'
_cell_length_a   9.49813235
_cell_length_b   9.47544686
_cell_length_c   9.47544565
_cell_angle_alpha   59.90912698
_cell_angle_beta   59.92077248
_cell_angle_gamma   59.92077048
_symmetry_Int_Tables_number   1
_chemical_formula_structural   Tm8InAgRh2
_chemical_formula_sum   'Tm16 In2 Ag2 Rh4'
_cell_volume   601.87042887
_cell_formula_units_Z   2
loop_
 _symmetry_equiv_pos_site_id
 _symmetry_equiv_pos_as_xyz
  1  'x, y, z'
loop_
 _atom_site_type_symbol
 _atom_site_label
 _atom_site_symmetry_multiplicity
 _atom_site_fract_x
 _atom_site_fract_y
 _atom_site_fract_z
 _atom_site_occupancy
  Tm  Tm0  1  0.059898  0.066762  0.437280  1
  Tm  Tm1  1  0.436060  0.066762  0.437280  1
  Tm  Tm2  1  0.059898  0.437280  0.066762  1
  Tm  Tm3  1  0.052101  0.649090  0.649090  1
  Tm  Tm4  1  0.436060  0.437280  0.066762  1
  Tm  Tm5  1  0.649291  0.052259  0.649160  1
  Tm  Tm6  1  0.188970  0.811099  0.189499  1
  Tm  Tm7  1  0.188970  0.189499  0.811099  1
  Tm  Tm8  1  0.810432  0.811099  0.189499  1
  Tm  Tm9  1  0.435725  0.064275  0.064275  1
  Tm  Tm10  1  0.811690  0.188310  0.188310  1
  Tm  Tm11  1  0.062394  0.437606  0.437606  1
  Tm  Tm12  1  0.810432  0.189499  0.811099  1
  Tm  Tm13  1  0.190228  0.809772  0.809772  1
  Tm  Tm14  1  0.649291  0.649160  0.052259  1
  Tm  Tm15  1  0.649719  0.649090  0.649090  1
  In  In16  1  0.419638  0.744150  0.416572  1
  In  In17  1  0.419638  0.416572  0.744150  1
  Ag  Ag18  1  0.417484  0.416078  0.416078  1
  Ag  Ag19  1  0.750360  0.416078  0.416078  1
  Rh  Rh20  1  0.857401  0.856570  0.428628  1
  Rh  Rh21  1  0.858203  0.856541  0.856541  1
  Rh  Rh22  1  0.428716  0.856541  0.856541  1
  Rh  Rh23  1  0.857401  0.428628  0.856570  1
