# generated using pymatgen
data_TmLuU2(FeB4)4
_symmetry_space_group_name_H-M   'P 1'
_cell_length_a   3.35813100
_cell_length_b   5.86928867
_cell_length_c   11.35580609
_cell_angle_alpha   89.89422547
_cell_angle_beta   90.00000000
_cell_angle_gamma   90.00000000
_symmetry_Int_Tables_number   1
_chemical_formula_structural   TmLuU2(FeB4)4
_chemical_formula_sum   'Tm1 Lu1 U2 Fe4 B16'
_cell_volume   223.82074234
_cell_formula_units_Z   1
loop_
 _symmetry_equiv_pos_site_id
 _symmetry_equiv_pos_as_xyz
  1  'x, y, z'
loop_
 _atom_site_type_symbol
 _atom_site_label
 _atom_site_symmetry_multiplicity
 _atom_site_fract_x
 _atom_site_fract_y
 _atom_site_fract_z
 _atom_site_occupancy
  Tm  Tm0  1  0.500000  0.872997  0.351799  1
  Lu  Lu1  1  0.500000  0.127034  0.648311  1
  U  U2  1  0.500000  0.373402  0.151235  1
  U  U3  1  0.500000  0.626676  0.848543  1
  Fe  Fe4  1  0.500000  0.366412  0.409233  1
  Fe  Fe5  1  0.500000  0.633480  0.591315  1
  Fe  Fe6  1  0.500000  0.134031  0.909673  1
  Fe  Fe7  1  0.500000  0.866003  0.089740  1
  B  B8  1  0.000000  0.112364  0.046324  1
  B  B9  1  0.000000  0.887662  0.953301  1
  B  B10  1  0.000000  0.386412  0.545744  1
  B  B11  1  0.000000  0.612793  0.454988  1
  B  B12  1  0.000000  0.138015  0.468384  1
  B  B13  1  0.000000  0.862045  0.532326  1
  B  B14  1  0.000000  0.363934  0.965784  1
  B  B15  1  0.000000  0.636135  0.033884  1
  B  B16  1  0.000000  0.023574  0.191525  1
  B  B17  1  0.000000  0.976696  0.807969  1
  B  B18  1  0.000000  0.474434  0.690063  1
  B  B19  1  0.000000  0.525133  0.310129  1
  B  B20  1  0.000000  0.216669  0.315480  1
  B  B21  1  0.000000  0.784121  0.684655  1
  B  B22  1  0.000000  0.283371  0.813970  1
  B  B23  1  0.000000  0.716607  0.185623  1
