# generated using pymatgen
data_Sc4Re5W3
_symmetry_space_group_name_H-M   'P 1'
_cell_length_a   5.34625900
_cell_length_b   5.35320343
_cell_length_c   8.65898900
_cell_angle_alpha   90.00000000
_cell_angle_beta   90.00000000
_cell_angle_gamma   119.95477332
_symmetry_Int_Tables_number   1
_chemical_formula_structural   Sc4Re5W3
_chemical_formula_sum   'Sc4 Re5 W3'
_cell_volume   214.71347640
_cell_formula_units_Z   1
loop_
 _symmetry_equiv_pos_site_id
 _symmetry_equiv_pos_as_xyz
  1  'x, y, z'
loop_
 _atom_site_type_symbol
 _atom_site_label
 _atom_site_symmetry_multiplicity
 _atom_site_fract_x
 _atom_site_fract_y
 _atom_site_fract_z
 _atom_site_occupancy
  Sc  Sc0  1  0.666726  0.333466  0.560688  1
  Sc  Sc1  1  0.333540  0.667064  0.435992  1
  Sc  Sc2  1  0.333540  0.667064  0.064008  1
  Sc  Sc3  1  0.666726  0.333466  0.939312  1
  Re  Re4  1  0.173465  0.830865  0.750000  1
  Re  Re5  1  0.657498  0.830885  0.750000  1
  Re  Re6  1  0.828125  0.656259  0.250000  1
  Re  Re7  1  0.828166  0.172447  0.250000  1
  Re  Re8  1  0.344165  0.172403  0.250000  1
  W  W9  1  0.998449  0.996901  0.497560  1
  W  W10  1  0.998449  0.996901  0.002440  1
  W  W11  1  0.171148  0.342278  0.750000  1
