# generated using pymatgen
data_Dy3Cd3SiGeAu
_symmetry_space_group_name_H-M   'P 1'
_cell_length_a   7.29474300
_cell_length_b   7.29474346
_cell_length_c   4.32631800
_cell_angle_alpha   90.00000000
_cell_angle_beta   90.00000000
_cell_angle_gamma   120.00000243
_symmetry_Int_Tables_number   1
_chemical_formula_structural   Dy3Cd3SiGeAu
_chemical_formula_sum   'Dy3 Cd3 Si1 Ge1 Au1'
_cell_volume   199.37425570
_cell_formula_units_Z   1
loop_
 _symmetry_equiv_pos_site_id
 _symmetry_equiv_pos_as_xyz
  1  'x, y, z'
loop_
 _atom_site_type_symbol
 _atom_site_label
 _atom_site_symmetry_multiplicity
 _atom_site_fract_x
 _atom_site_fract_y
 _atom_site_fract_z
 _atom_site_occupancy
  Dy  Dy0  1  0.584771  0.002455  0.000000  1
  Dy  Dy1  1  0.997545  0.582315  0.000000  1
  Dy  Dy2  1  0.417685  0.415229  0.000000  1
  Cd  Cd3  1  0.254678  0.003203  0.500000  1
  Cd  Cd4  1  0.996797  0.251475  0.500000  1
  Cd  Cd5  1  0.748525  0.745322  0.500000  1
  Si  Si6  1  0.666667  0.333333  0.500000  1
  Ge  Ge7  1  0.333333  0.666667  0.500000  1
  Au  Au8  1  0.000000  0.000000  0.000000  1
