# generated using pymatgen
data_Y6Er13Mg(Cd3Ru)2
_symmetry_space_group_name_H-M   'P 1'
_cell_length_a   9.55105400
_cell_length_b   9.55105366
_cell_length_c   9.69446300
_cell_angle_alpha   90.00000000
_cell_angle_beta   90.00000000
_cell_angle_gamma   120.00000119
_symmetry_Int_Tables_number   1
_chemical_formula_structural   Y6Er13Mg(Cd3Ru)2
_chemical_formula_sum   'Y6 Er13 Mg1 Cd6 Ru2'
_cell_volume   765.87337046
_cell_formula_units_Z   1
loop_
 _symmetry_equiv_pos_site_id
 _symmetry_equiv_pos_as_xyz
  1  'x, y, z'
loop_
 _atom_site_type_symbol
 _atom_site_label
 _atom_site_symmetry_multiplicity
 _atom_site_fract_x
 _atom_site_fract_y
 _atom_site_fract_z
 _atom_site_occupancy
  Y  Y0  1  0.540809  0.459191  0.251685  1
  Y  Y1  1  0.540809  0.081619  0.251685  1
  Y  Y2  1  0.918381  0.459191  0.251685  1
  Y  Y3  1  0.459191  0.540809  0.748315  1
  Y  Y4  1  0.459191  0.918381  0.748315  1
  Y  Y5  1  0.081619  0.540809  0.748315  1
  Er  Er6  1  0.000000  0.000000  0.000000  1
  Er  Er7  1  0.208266  0.791734  0.439681  1
  Er  Er8  1  0.208266  0.416533  0.439681  1
  Er  Er9  1  0.583467  0.791734  0.439681  1
  Er  Er10  1  0.791734  0.208266  0.560319  1
  Er  Er11  1  0.791734  0.583467  0.560319  1
  Er  Er12  1  0.416533  0.208266  0.560319  1
  Er  Er13  1  0.789274  0.210726  0.941419  1
  Er  Er14  1  0.789274  0.578547  0.941419  1
  Er  Er15  1  0.421453  0.210726  0.941419  1
  Er  Er16  1  0.210726  0.789274  0.058581  1
  Er  Er17  1  0.210726  0.421453  0.058581  1
  Er  Er18  1  0.578547  0.789274  0.058581  1
  Mg  Mg19  1  0.000000  0.000000  0.500000  1
  Cd  Cd20  1  0.887460  0.112540  0.256079  1
  Cd  Cd21  1  0.887460  0.774922  0.256079  1
  Cd  Cd22  1  0.225078  0.112540  0.256079  1
  Cd  Cd23  1  0.112540  0.887460  0.743921  1
  Cd  Cd24  1  0.112540  0.225078  0.743921  1
  Cd  Cd25  1  0.774922  0.887460  0.743921  1
  Ru  Ru26  1  0.333333  0.666667  0.250289  1
  Ru  Ru27  1  0.666667  0.333333  0.749711  1
