# generated using pymatgen
data_Ba4CaTc2HgN8
_symmetry_space_group_name_H-M   'P 1'
_cell_length_a   11.13125625
_cell_length_b   10.86937682
_cell_length_c   8.25787715
_cell_angle_alpha   69.64874940
_cell_angle_beta   66.27975240
_cell_angle_gamma   44.54878459
_symmetry_Int_Tables_number   1
_chemical_formula_structural   Ba4CaTc2HgN8
_chemical_formula_sum   'Ba8 Ca2 Tc4 Hg2 N16'
_cell_volume   638.77692257
_cell_formula_units_Z   2
loop_
 _symmetry_equiv_pos_site_id
 _symmetry_equiv_pos_as_xyz
  1  'x, y, z'
loop_
 _atom_site_type_symbol
 _atom_site_label
 _atom_site_symmetry_multiplicity
 _atom_site_fract_x
 _atom_site_fract_y
 _atom_site_fract_z
 _atom_site_occupancy
  Ba  Ba0  1  0.561826  0.962967  0.912011  1
  Ba  Ba1  1  0.962967  0.561826  0.563195  1
  Ba  Ba2  1  0.287033  0.688174  0.686805  1
  Ba  Ba3  1  0.111394  0.111394  0.888606  1
  Ba  Ba4  1  0.138606  0.138606  0.361394  1
  Ba  Ba5  1  0.360739  0.360739  0.139261  1
  Ba  Ba6  1  0.688174  0.287033  0.337989  1
  Ba  Ba7  1  0.889261  0.889261  0.110739  1
  Ca  Ca8  1  0.647962  0.647962  0.352038  1
  Ca  Ca9  1  0.602038  0.602038  0.897962  1
  Tc  Tc10  1  0.491998  0.005887  0.467443  1
  Tc  Tc11  1  0.005887  0.491998  0.034672  1
  Tc  Tc12  1  0.758002  0.244113  0.782557  1
  Tc  Tc13  1  0.244113  0.758002  0.215328  1
  Hg  Hg14  1  0.348980  0.348980  0.651020  1
  Hg  Hg15  1  0.901020  0.901020  0.598980  1
  N  N16  1  0.079035  0.613186  0.922393  1
  N  N17  1  0.746265  0.301617  0.977067  1
  N  N18  1  0.613186  0.079035  0.385385  1
  N  N19  1  0.580191  0.815349  0.638183  1
  N  N20  1  0.170965  0.636814  0.327607  1
  N  N21  1  0.669809  0.434651  0.611817  1
  N  N22  1  0.991787  0.057730  0.703234  1
  N  N23  1  0.503735  0.948383  0.272933  1
  N  N24  1  0.434651  0.669809  0.283724  1
  N  N25  1  0.948383  0.503735  0.274948  1
  N  N26  1  0.301617  0.746265  0.975052  1
  N  N27  1  0.815349  0.580191  0.966276  1
  N  N28  1  0.192270  0.258213  0.002750  1
  N  N29  1  0.636814  0.170965  0.864615  1
  N  N30  1  0.258213  0.192270  0.546766  1
  N  N31  1  0.057730  0.991787  0.247250  1
