# generated using pymatgen
data_Ho14Th2MgCd3Ni4
_symmetry_space_group_name_H-M   'P 1'
_cell_length_a   9.56027445
_cell_length_b   9.56027446
_cell_length_c   9.57938694
_cell_angle_alpha   59.99334624
_cell_angle_beta   59.99334663
_cell_angle_gamma   59.95023196
_symmetry_Int_Tables_number   1
_chemical_formula_structural   Ho14Th2MgCd3Ni4
_chemical_formula_sum   'Ho14 Th2 Mg1 Cd3 Ni4'
_cell_volume   618.80836190
_cell_formula_units_Z   1
loop_
 _symmetry_equiv_pos_site_id
 _symmetry_equiv_pos_as_xyz
  1  'x, y, z'
loop_
 _atom_site_type_symbol
 _atom_site_label
 _atom_site_symmetry_multiplicity
 _atom_site_fract_x
 _atom_site_fract_y
 _atom_site_fract_z
 _atom_site_occupancy
  Ho  Ho0  1  0.347165  0.953055  0.349708  1
  Ho  Ho1  1  0.953055  0.347165  0.349708  1
  Ho  Ho2  1  0.811823  0.189183  0.189051  1
  Ho  Ho3  1  0.188808  0.813770  0.812275  1
  Ho  Ho4  1  0.189183  0.811823  0.189051  1
  Ho  Ho5  1  0.813770  0.188808  0.812275  1
  Ho  Ho6  1  0.188534  0.188534  0.813249  1
  Ho  Ho7  1  0.812858  0.812858  0.187595  1
  Ho  Ho8  1  0.937798  0.566082  0.565984  1
  Ho  Ho9  1  0.563853  0.935869  0.934571  1
  Ho  Ho10  1  0.566082  0.937798  0.565984  1
  Ho  Ho11  1  0.935869  0.563853  0.934571  1
  Ho  Ho12  1  0.565382  0.565382  0.936551  1
  Ho  Ho13  1  0.935694  0.935694  0.563376  1
  Th  Th14  1  0.344258  0.344258  0.348700  1
  Th  Th15  1  0.343558  0.343558  0.961172  1
  Mg  Mg16  1  0.577704  0.577704  0.575776  1
  Cd  Cd17  1  0.583177  0.583177  0.253886  1
  Cd  Cd18  1  0.584240  0.254491  0.580328  1
  Cd  Cd19  1  0.254491  0.584240  0.580328  1
  Ni  Ni20  1  0.144272  0.144272  0.139349  1
  Ni  Ni21  1  0.142459  0.142459  0.571814  1
  Ni  Ni22  1  0.145881  0.570088  0.142349  1
  Ni  Ni23  1  0.570088  0.145881  0.142349  1
