# generated using pymatgen
data_Tb5Dy3(PBr6)2
_symmetry_space_group_name_H-M   'P 1'
_cell_length_a   4.01647700
_cell_length_b   13.16674425
_cell_length_c   13.88318526
_cell_angle_alpha   89.97765367
_cell_angle_beta   90.00000000
_cell_angle_gamma   90.00000000
_symmetry_Int_Tables_number   1
_chemical_formula_structural   Tb5Dy3(PBr6)2
_chemical_formula_sum   'Tb5 Dy3 P2 Br12'
_cell_volume   734.19727862
_cell_formula_units_Z   1
loop_
 _symmetry_equiv_pos_site_id
 _symmetry_equiv_pos_as_xyz
  1  'x, y, z'
loop_
 _atom_site_type_symbol
 _atom_site_label
 _atom_site_symmetry_multiplicity
 _atom_site_fract_x
 _atom_site_fract_y
 _atom_site_fract_z
 _atom_site_occupancy
  Tb  Tb0  1  0.500000  0.382756  0.842899  1
  Tb  Tb1  1  0.000000  0.115214  0.576524  1
  Tb  Tb2  1  0.000000  0.884775  0.423478  1
  Tb  Tb3  1  0.000000  0.615085  0.923477  1
  Tb  Tb4  1  0.000000  0.384833  0.076419  1
  Dy  Dy5  1  0.500000  0.117164  0.342989  1
  Dy  Dy6  1  0.500000  0.882832  0.657006  1
  Dy  Dy7  1  0.500000  0.617200  0.157061  1
  P  P8  1  0.500000  0.999996  0.499997  1
  P  P9  1  0.500000  0.500328  0.000430  1
  Br  Br10  1  0.500000  0.242841  0.163011  1
  Br  Br11  1  0.500000  0.757173  0.837031  1
  Br  Br12  1  0.500000  0.742871  0.337040  1
  Br  Br13  1  0.500000  0.256901  0.662648  1
  Br  Br14  1  0.000000  0.256330  0.412011  1
  Br  Br15  1  0.000000  0.743669  0.587984  1
  Br  Br16  1  0.000000  0.756320  0.088007  1
  Br  Br17  1  0.000000  0.243112  0.912389  1
  Br  Br18  1  0.000000  0.000897  0.242489  1
  Br  Br19  1  0.000000  0.999095  0.757506  1
  Br  Br20  1  0.000000  0.500921  0.257508  1
  Br  Br21  1  0.000000  0.499688  0.742095  1
