# generated using pymatgen
data_Al2ZnSiPd4
_symmetry_space_group_name_H-M   'P 1'
_cell_length_a   4.89613648
_cell_length_b   4.88218917
_cell_length_c   4.88983535
_cell_angle_alpha   90.56030183
_cell_angle_beta   91.30750428
_cell_angle_gamma   91.39528728
_symmetry_Int_Tables_number   1
_chemical_formula_structural   Al2ZnSiPd4
_chemical_formula_sum   'Al2 Zn1 Si1 Pd4'
_cell_volume   116.81463431
_cell_formula_units_Z   1
loop_
 _symmetry_equiv_pos_site_id
 _symmetry_equiv_pos_as_xyz
  1  'x, y, z'
loop_
 _atom_site_type_symbol
 _atom_site_label
 _atom_site_symmetry_multiplicity
 _atom_site_fract_x
 _atom_site_fract_y
 _atom_site_fract_z
 _atom_site_occupancy
  Al  Al0  1  0.161594  0.648656  0.342907  1
  Al  Al1  1  0.646904  0.336646  0.156877  1
  Zn  Zn2  1  0.340354  0.160320  0.646930  1
  Si  Si3  1  0.843701  0.842623  0.840608  1
  Pd  Pd4  1  0.135089  0.140340  0.139801  1
  Pd  Pd5  1  0.658208  0.850133  0.359246  1
  Pd  Pd6  1  0.852677  0.363797  0.653764  1
  Pd  Pd7  1  0.361471  0.657486  0.859866  1
