# generated using pymatgen
data_Tb3HoSc4In3Co
_symmetry_space_group_name_H-M   'P 1'
_cell_length_a   9.91220700
_cell_length_b   9.91220669
_cell_length_c   7.07238900
_cell_angle_alpha   90.00000000
_cell_angle_beta   90.00000000
_cell_angle_gamma   119.99999770
_symmetry_Int_Tables_number   1
_chemical_formula_structural   Tb3HoSc4In3Co
_chemical_formula_sum   'Tb6 Ho2 Sc8 In6 Co2'
_cell_volume   601.77964550
_cell_formula_units_Z   2
loop_
 _symmetry_equiv_pos_site_id
 _symmetry_equiv_pos_as_xyz
  1  'x, y, z'
loop_
 _atom_site_type_symbol
 _atom_site_label
 _atom_site_symmetry_multiplicity
 _atom_site_fract_x
 _atom_site_fract_y
 _atom_site_fract_z
 _atom_site_occupancy
  Tb  Tb0  1  0.533531  0.067062  0.498751  1
  Tb  Tb1  1  0.932938  0.466469  0.498751  1
  Tb  Tb2  1  0.533531  0.466469  0.498751  1
  Tb  Tb3  1  0.466469  0.932938  0.998751  1
  Tb  Tb4  1  0.067062  0.533531  0.998751  1
  Tb  Tb5  1  0.466469  0.533531  0.998751  1
  Ho  Ho6  1  0.000000  0.000000  0.497122  1
  Ho  Ho7  1  0.000000  0.000000  0.997122  1
  Sc  Sc8  1  0.180048  0.360097  0.706029  1
  Sc  Sc9  1  0.639903  0.819952  0.706029  1
  Sc  Sc10  1  0.180048  0.819952  0.706029  1
  Sc  Sc11  1  0.819952  0.639903  0.206029  1
  Sc  Sc12  1  0.360097  0.180048  0.206029  1
  Sc  Sc13  1  0.819952  0.180048  0.206029  1
  Sc  Sc14  1  0.666667  0.333333  0.905246  1
  Sc  Sc15  1  0.333333  0.666667  0.405246  1
  In  In16  1  0.836586  0.673173  0.766943  1
  In  In17  1  0.326827  0.163414  0.766943  1
  In  In18  1  0.836586  0.163414  0.766943  1
  In  In19  1  0.163414  0.326827  0.266943  1
  In  In20  1  0.673173  0.836586  0.266943  1
  In  In21  1  0.163414  0.836586  0.266943  1
  Co  Co22  1  0.666667  0.333333  0.261486  1
  Co  Co23  1  0.333333  0.666667  0.761486  1
