# generated using pymatgen
data_Dy8Ta9Ti2Si16Rh
_symmetry_space_group_name_H-M   'P 1'
_cell_length_a   7.04320629
_cell_length_b   7.04320588
_cell_length_c   12.93429748
_cell_angle_alpha   89.74626029
_cell_angle_beta   90.25373698
_cell_angle_gamma   89.65835086
_symmetry_Int_Tables_number   1
_chemical_formula_structural   Dy8Ta9Ti2Si16Rh
_chemical_formula_sum   'Dy8 Ta9 Ti2 Si16 Rh1'
_cell_volume   641.60442129
_cell_formula_units_Z   1
loop_
 _symmetry_equiv_pos_site_id
 _symmetry_equiv_pos_as_xyz
  1  'x, y, z'
loop_
 _atom_site_type_symbol
 _atom_site_label
 _atom_site_symmetry_multiplicity
 _atom_site_fract_x
 _atom_site_fract_y
 _atom_site_fract_z
 _atom_site_occupancy
  Dy  Dy0  1  0.998181  0.658395  0.031908  1
  Dy  Dy1  1  0.001613  0.343216  0.531789  1
  Dy  Dy2  1  0.658395  0.998181  0.968092  1
  Dy  Dy3  1  0.158955  0.504749  0.780919  1
  Dy  Dy4  1  0.841343  0.497879  0.283753  1
  Dy  Dy5  1  0.504749  0.158955  0.219081  1
  Dy  Dy6  1  0.497879  0.841343  0.716247  1
  Dy  Dy7  1  0.343216  0.001613  0.468211  1
  Ta  Ta8  1  0.342805  0.506358  0.375156  1
  Ta  Ta9  1  0.851844  0.996063  0.375932  1
  Ta  Ta10  1  0.007508  0.151206  0.125904  1
  Ta  Ta11  1  0.996063  0.851844  0.624068  1
  Ta  Ta12  1  0.506358  0.342805  0.624844  1
  Ta  Ta13  1  0.151206  0.007508  0.874096  1
  Ta  Ta14  1  0.826650  0.170986  0.747972  1
  Ta  Ta15  1  0.170986  0.826650  0.252028  1
  Ta  Ta16  1  0.326820  0.326820  0.000000  1
  Ti  Ti17  1  0.493855  0.651477  0.125753  1
  Ti  Ti18  1  0.651477  0.493855  0.874247  1
  Si  Si19  1  0.047747  0.709548  0.437979  1
  Si  Si20  1  0.952456  0.295473  0.934798  1
  Si  Si21  1  0.709548  0.047747  0.562021  1
  Si  Si22  1  0.207591  0.454802  0.185307  1
  Si  Si23  1  0.790500  0.551395  0.683615  1
  Si  Si24  1  0.454802  0.207591  0.814693  1
  Si  Si25  1  0.551395  0.790500  0.316385  1
  Si  Si26  1  0.295473  0.952456  0.065202  1
  Si  Si27  1  0.795616  0.863958  0.183171  1
  Si  Si28  1  0.296151  0.630147  0.567497  1
  Si  Si29  1  0.701655  0.368062  0.066303  1
  Si  Si30  1  0.630147  0.296151  0.432503  1
  Si  Si31  1  0.368062  0.701655  0.933697  1
  Si  Si32  1  0.134025  0.204649  0.317407  1
  Si  Si33  1  0.204649  0.134025  0.682593  1
  Si  Si34  1  0.863958  0.795616  0.816829  1
  Rh  Rh35  1  0.666323  0.666323  0.500000  1
