# generated using pymatgen
data_Na4UBiTe6
_symmetry_space_group_name_H-M   'P 1'
_cell_length_a   7.84535048
_cell_length_b   7.84535069
_cell_length_c   7.93229205
_cell_angle_alpha   80.45087142
_cell_angle_beta   80.45088349
_cell_angle_gamma   120.12896126
_symmetry_Int_Tables_number   1
_chemical_formula_structural   Na4UBiTe6
_chemical_formula_sum   'Na4 U1 Bi1 Te6'
_cell_volume   398.25210915
_cell_formula_units_Z   1
loop_
 _symmetry_equiv_pos_site_id
 _symmetry_equiv_pos_as_xyz
  1  'x, y, z'
loop_
 _atom_site_type_symbol
 _atom_site_label
 _atom_site_symmetry_multiplicity
 _atom_site_fract_x
 _atom_site_fract_y
 _atom_site_fract_z
 _atom_site_occupancy
  Na  Na0  1  0.000102  0.999898  0.000000  1
  Na  Na1  1  0.502481  0.497519  0.500000  1
  Na  Na2  1  0.837429  0.162571  0.500000  1
  Na  Na3  1  0.159810  0.840190  0.500000  1
  U  U4  1  0.332951  0.667049  0.000000  1
  Bi  Bi5  1  0.668164  0.331836  0.000000  1
  Te  Te6  1  0.266530  0.279918  0.233713  1
  Te  Te7  1  0.422839  0.065010  0.766444  1
  Te  Te8  1  0.090915  0.436292  0.767939  1
  Te  Te9  1  0.720082  0.733470  0.766287  1
  Te  Te10  1  0.563708  0.909085  0.232061  1
  Te  Te11  1  0.934990  0.577161  0.233556  1
