# generated using pymatgen
data_LiLa6Mn2WC12
_symmetry_space_group_name_H-M   'P 1'
_cell_length_a   8.41341400
_cell_length_b   8.41341428
_cell_length_c   5.36607400
_cell_angle_alpha   90.00000000
_cell_angle_beta   90.00000000
_cell_angle_gamma   120.00000677
_symmetry_Int_Tables_number   1
_chemical_formula_structural   LiLa6Mn2WC12
_chemical_formula_sum   'Li1 La6 Mn2 W1 C12'
_cell_volume   328.95144123
_cell_formula_units_Z   1
loop_
 _symmetry_equiv_pos_site_id
 _symmetry_equiv_pos_as_xyz
  1  'x, y, z'
loop_
 _atom_site_type_symbol
 _atom_site_label
 _atom_site_symmetry_multiplicity
 _atom_site_fract_x
 _atom_site_fract_y
 _atom_site_fract_z
 _atom_site_occupancy
  Li  Li0  1  0.000000  0.000000  0.500000  1
  La  La1  1  0.612594  0.682987  0.745919  1
  La  La2  1  0.929607  0.612594  0.254081  1
  La  La3  1  0.682987  0.070393  0.254081  1
  La  La4  1  0.317013  0.929607  0.745919  1
  La  La5  1  0.070393  0.387406  0.745919  1
  La  La6  1  0.387406  0.317013  0.254081  1
  Mn  Mn7  1  0.666667  0.333333  0.747201  1
  Mn  Mn8  1  0.333333  0.666667  0.252799  1
  W  W9  1  0.000000  0.000000  0.000000  1
  C  C10  1  0.956516  0.758722  0.777388  1
  C  C11  1  0.197795  0.956516  0.222612  1
  C  C12  1  0.758722  0.802205  0.222612  1
  C  C13  1  0.241278  0.197795  0.777388  1
  C  C14  1  0.802205  0.043484  0.777388  1
  C  C15  1  0.043484  0.241278  0.222612  1
  C  C16  1  0.854864  0.572170  0.758852  1
  C  C17  1  0.282694  0.854864  0.241148  1
  C  C18  1  0.572170  0.717306  0.241148  1
  C  C19  1  0.427830  0.282694  0.758852  1
  C  C20  1  0.145136  0.427830  0.241148  1
  C  C21  1  0.717306  0.145136  0.758852  1
