# generated using pymatgen
data_Sr2H7Rh
_symmetry_space_group_name_H-M   'P 1'
_cell_length_a   8.36913395
_cell_length_b   8.36913395
_cell_length_c   8.10680799
_cell_angle_alpha   70.62320090
_cell_angle_beta   70.62319615
_cell_angle_gamma   70.66058859
_symmetry_Int_Tables_number   1
_chemical_formula_structural   Sr2H7Rh
_chemical_formula_sum   'Sr8 H28 Rh4'
_cell_volume   489.47399102
_cell_formula_units_Z   4
loop_
 _symmetry_equiv_pos_site_id
 _symmetry_equiv_pos_as_xyz
  1  'x, y, z'
loop_
 _atom_site_type_symbol
 _atom_site_label
 _atom_site_symmetry_multiplicity
 _atom_site_fract_x
 _atom_site_fract_y
 _atom_site_fract_z
 _atom_site_occupancy
  Sr  Sr0  1  0.263517  0.925692  0.473264  1
  Sr  Sr1  1  0.074308  0.736483  0.026736  1
  Sr  Sr2  1  0.736483  0.074308  0.526736  1
  Sr  Sr3  1  0.925692  0.263517  0.973264  1
  Sr  Sr4  1  0.286280  0.429773  0.472975  1
  Sr  Sr5  1  0.570227  0.713720  0.027025  1
  Sr  Sr6  1  0.713720  0.570227  0.527025  1
  Sr  Sr7  1  0.429773  0.286280  0.972975  1
  H  H8  1  0.386126  0.099644  0.581727  1
  H  H9  1  0.900356  0.613874  0.918273  1
  H  H10  1  0.613874  0.900356  0.418273  1
  H  H11  1  0.099644  0.386126  0.081727  1
  H  H12  1  0.389699  0.814670  0.774878  1
  H  H13  1  0.185330  0.610301  0.725122  1
  H  H14  1  0.610301  0.185330  0.225122  1
  H  H15  1  0.814670  0.389699  0.274878  1
  H  H16  1  0.509668  0.016372  0.825095  1
  H  H17  1  0.983628  0.490332  0.674905  1
  H  H18  1  0.490332  0.983628  0.174905  1
  H  H19  1  0.016372  0.509668  0.325095  1
  H  H20  1  0.251406  0.946156  0.027269  1
  H  H21  1  0.053844  0.748594  0.472731  1
  H  H22  1  0.748594  0.053844  0.972731  1
  H  H23  1  0.946156  0.251406  0.527269  1
  H  H24  1  0.243584  0.225479  0.820421  1
  H  H25  1  0.774521  0.756416  0.679579  1
  H  H26  1  0.756416  0.774521  0.179579  1
  H  H27  1  0.225479  0.243584  0.320421  1
  H  H28  1  0.122819  0.032341  0.779826  1
  H  H29  1  0.967659  0.877181  0.720174  1
  H  H30  1  0.877181  0.967659  0.220174  1
  H  H31  1  0.032341  0.122819  0.279826  1
  H  H32  1  0.348212  0.545270  0.128108  1
  H  H33  1  0.454730  0.651788  0.371892  1
  H  H34  1  0.651788  0.454730  0.871892  1
  H  H35  1  0.545270  0.348212  0.628108  1
  Rh  Rh36  1  0.316759  0.020924  0.802533  1
  Rh  Rh37  1  0.979076  0.683241  0.697467  1
  Rh  Rh38  1  0.683241  0.979076  0.197467  1
  Rh  Rh39  1  0.020924  0.316759  0.302533  1
