# generated using pymatgen
data_DyHo5P13Rh20
_symmetry_space_group_name_H-M   'P 1'
_cell_length_a   13.32815848
_cell_length_b   13.32754947
_cell_length_c   3.91761177
_cell_angle_alpha   89.99937318
_cell_angle_beta   89.99712638
_cell_angle_gamma   119.99330020
_symmetry_Int_Tables_number   1
_chemical_formula_structural   DyHo5P13Rh20
_chemical_formula_sum   'Dy1 Ho5 P13 Rh20'
_cell_volume   602.70083579
_cell_formula_units_Z   1
loop_
 _symmetry_equiv_pos_site_id
 _symmetry_equiv_pos_as_xyz
  1  'x, y, z'
loop_
 _atom_site_type_symbol
 _atom_site_label
 _atom_site_symmetry_multiplicity
 _atom_site_fract_x
 _atom_site_fract_y
 _atom_site_fract_z
 _atom_site_occupancy
  Dy  Dy0  1  0.529533  0.717528  0.248042  1
  Ho  Ho1  1  0.282641  0.812022  0.248227  1
  Ho  Ho2  1  0.187581  0.470536  0.248047  1
  Ho  Ho3  1  0.470630  0.282967  0.751950  1
  Ho  Ho4  1  0.717033  0.187734  0.751729  1
  Ho  Ho5  1  0.811793  0.529046  0.751859  1
  P  P6  1  0.526283  0.139509  0.250442  1
  P  P7  1  0.859906  0.386374  0.250315  1
  P  P8  1  0.613066  0.473738  0.250387  1
  P  P9  1  0.945096  0.714312  0.254909  1
  P  P10  1  0.285766  0.230652  0.254955  1
  P  P11  1  0.769487  0.054883  0.254500  1
  P  P12  1  0.386569  0.526424  0.749594  1
  P  P13  1  0.473668  0.860532  0.749518  1
  P  P14  1  0.139118  0.612879  0.749654  1
  P  P15  1  0.715008  0.769812  0.745164  1
  P  P16  1  0.230564  0.944863  0.745475  1
  P  P17  1  0.055008  0.285582  0.745037  1
  P  P18  1  0.000381  0.000163  0.999423  1
  Rh  Rh19  1  0.332802  0.666675  0.751913  1
  Rh  Rh20  1  0.920551  0.249907  0.254189  1
  Rh  Rh21  1  0.750176  0.670642  0.254492  1
  Rh  Rh22  1  0.329440  0.079086  0.254487  1
  Rh  Rh23  1  0.438433  0.022265  0.751652  1
  Rh  Rh24  1  0.977229  0.415659  0.751549  1
  Rh  Rh25  1  0.584120  0.561917  0.751664  1
  Rh  Rh26  1  0.666304  0.333226  0.247898  1
  Rh  Rh27  1  0.094649  0.187285  0.246867  1
  Rh  Rh28  1  0.813285  0.907377  0.246956  1
  Rh  Rh29  1  0.092766  0.905585  0.247295  1
  Rh  Rh30  1  0.021943  0.583595  0.248490  1
  Rh  Rh31  1  0.416002  0.438601  0.248405  1
  Rh  Rh32  1  0.561797  0.977843  0.248338  1
  Rh  Rh33  1  0.671127  0.921454  0.745590  1
  Rh  Rh34  1  0.078938  0.749567  0.745890  1
  Rh  Rh35  1  0.250234  0.329523  0.745630  1
  Rh  Rh36  1  0.905977  0.813072  0.753396  1
  Rh  Rh37  1  0.187420  0.092845  0.753199  1
  Rh  Rh38  1  0.907680  0.094324  0.752872  1
