# generated using pymatgen
data_Dy5Ti3Si3P9Ir16
_symmetry_space_group_name_H-M   'P 1'
_cell_length_a   12.81736073
_cell_length_b   12.84886827
_cell_length_c   3.94353400
_cell_angle_alpha   90.00000000
_cell_angle_beta   90.00000000
_cell_angle_gamma   120.10410528
_symmetry_Int_Tables_number   1
_chemical_formula_structural   Dy5Ti3Si3P9Ir16
_chemical_formula_sum   'Dy5 Ti3 Si3 P9 Ir16'
_cell_volume   561.85358860
_cell_formula_units_Z   1
loop_
 _symmetry_equiv_pos_site_id
 _symmetry_equiv_pos_as_xyz
  1  'x, y, z'
loop_
 _atom_site_type_symbol
 _atom_site_label
 _atom_site_symmetry_multiplicity
 _atom_site_fract_x
 _atom_site_fract_y
 _atom_site_fract_z
 _atom_site_occupancy
  Dy  Dy0  1  0.332471  0.666481  0.500000  1
  Dy  Dy1  1  0.667185  0.334531  0.500000  1
  Dy  Dy2  1  0.001033  0.811789  0.000000  1
  Dy  Dy3  1  0.187123  0.187083  0.000000  1
  Dy  Dy4  1  0.809511  0.999738  0.000000  1
  Ti  Ti5  1  0.998168  0.437610  0.500000  1
  Ti  Ti6  1  0.560614  0.559931  0.500000  1
  Ti  Ti7  1  0.445130  0.001981  0.500000  1
  Si  Si8  1  0.001208  0.637869  0.500000  1
  Si  Si9  1  0.361066  0.361560  0.500000  1
  Si  Si10  1  0.517551  0.686077  0.000000  1
  P  P11  1  0.636199  0.997692  0.500000  1
  P  P12  1  0.313737  0.831069  0.000000  1
  P  P13  1  0.168752  0.481025  0.000000  1
  P  P14  1  0.482017  0.170470  0.000000  1
  P  P15  1  0.687162  0.518893  0.000000  1
  P  P16  1  0.831730  0.315137  0.000000  1
  P  P17  1  0.998399  0.175684  0.500000  1
  P  P18  1  0.822847  0.823312  0.500000  1
  P  P19  1  0.177629  0.999560  0.500000  1
  Ir  Ir20  1  0.511558  0.873928  0.000000  1
  Ir  Ir21  1  0.130351  0.639772  0.000000  1
  Ir  Ir22  1  0.357963  0.485581  0.000000  1
  Ir  Ir23  1  0.490085  0.359770  0.000000  1
  Ir  Ir24  1  0.870985  0.511140  0.000000  1
  Ir  Ir25  1  0.641026  0.136005  0.000000  1
  Ir  Ir26  1  0.996838  0.279165  0.000000  1
  Ir  Ir27  1  0.722210  0.721187  0.000000  1
  Ir  Ir28  1  0.281472  0.999993  0.000000  1
  Ir  Ir29  1  0.626806  0.806640  0.500000  1
  Ir  Ir30  1  0.198204  0.822362  0.500000  1
  Ir  Ir31  1  0.175310  0.372063  0.500000  1
  Ir  Ir32  1  0.374250  0.177779  0.500000  1
  Ir  Ir33  1  0.804707  0.625874  0.500000  1
  Ir  Ir34  1  0.818331  0.191240  0.500000  1
  Ir  Ir35  1  0.000370  0.000012  0.500000  1
