# generated using pymatgen
data_Li4P4PtRh3
_symmetry_space_group_name_H-M   'P 1'
_cell_length_a   3.89779800
_cell_length_b   6.54327574
_cell_length_c   6.74104437
_cell_angle_alpha   89.75604778
_cell_angle_beta   90.00000000
_cell_angle_gamma   90.00000000
_symmetry_Int_Tables_number   1
_chemical_formula_structural   Li4P4PtRh3
_chemical_formula_sum   'Li4 P4 Pt1 Rh3'
_cell_volume   171.92451172
_cell_formula_units_Z   1
loop_
 _symmetry_equiv_pos_site_id
 _symmetry_equiv_pos_as_xyz
  1  'x, y, z'
loop_
 _atom_site_type_symbol
 _atom_site_label
 _atom_site_symmetry_multiplicity
 _atom_site_fract_x
 _atom_site_fract_y
 _atom_site_fract_z
 _atom_site_occupancy
  Li  Li0  1  0.250000  0.018673  0.836364  1
  Li  Li1  1  0.250000  0.521066  0.663998  1
  Li  Li2  1  0.750000  0.978790  0.164006  1
  Li  Li3  1  0.750000  0.479689  0.336517  1
  P  P4  1  0.250000  0.781420  0.372560  1
  P  P5  1  0.250000  0.289137  0.120280  1
  P  P6  1  0.750000  0.211211  0.634472  1
  P  P7  1  0.750000  0.714092  0.873900  1
  Pt  Pt8  1  0.250000  0.150126  0.443178  1
  Rh  Rh9  1  0.250000  0.645346  0.054679  1
  Rh  Rh10  1  0.750000  0.854499  0.554988  1
  Rh  Rh11  1  0.750000  0.355951  0.945059  1
