# generated using pymatgen
data_Dy8Ti2V5Si16W5
_symmetry_space_group_name_H-M   'P 1'
_cell_length_a   6.86853672
_cell_length_b   6.86902544
_cell_length_c   12.76530366
_cell_angle_alpha   90.06971529
_cell_angle_beta   89.93644237
_cell_angle_gamma   89.96740919
_symmetry_Int_Tables_number   1
_chemical_formula_structural   Dy8Ti2V5Si16W5
_chemical_formula_sum   'Dy8 Ti2 V5 Si16 W5'
_cell_volume   602.26807165
_cell_formula_units_Z   1
loop_
 _symmetry_equiv_pos_site_id
 _symmetry_equiv_pos_as_xyz
  1  'x, y, z'
loop_
 _atom_site_type_symbol
 _atom_site_label
 _atom_site_symmetry_multiplicity
 _atom_site_fract_x
 _atom_site_fract_y
 _atom_site_fract_z
 _atom_site_occupancy
  Dy  Dy0  1  0.999060  0.662011  0.031297  1
  Dy  Dy1  1  0.001852  0.337762  0.530040  1
  Dy  Dy2  1  0.661494  0.999317  0.968357  1
  Dy  Dy3  1  0.160072  0.499553  0.780002  1
  Dy  Dy4  1  0.839267  0.499113  0.282250  1
  Dy  Dy5  1  0.500370  0.161216  0.220112  1
  Dy  Dy6  1  0.499005  0.839001  0.718110  1
  Dy  Dy7  1  0.337742  0.001322  0.469809  1
  Ti  Ti8  1  0.493259  0.656567  0.125131  1
  Ti  Ti9  1  0.657554  0.492528  0.874933  1
  V  V10  1  0.842107  0.994027  0.376432  1
  V  V11  1  0.009047  0.157275  0.125608  1
  V  V12  1  0.994258  0.842219  0.623608  1
  V  V13  1  0.507577  0.341365  0.625380  1
  V  V14  1  0.157665  0.008251  0.874116  1
  Si  Si15  1  0.039428  0.714847  0.436792  1
  Si  Si16  1  0.961913  0.287034  0.936728  1
  Si  Si17  1  0.712626  0.041438  0.564502  1
  Si  Si18  1  0.205616  0.453785  0.184157  1
  Si  Si19  1  0.788904  0.543454  0.683659  1
  Si  Si20  1  0.454359  0.207520  0.813715  1
  Si  Si21  1  0.545965  0.793330  0.315730  1
  Si  Si22  1  0.287390  0.961479  0.063067  1
  Si  Si23  1  0.802769  0.876689  0.185967  1
  Si  Si24  1  0.297856  0.624373  0.567451  1
  Si  Si25  1  0.705672  0.369879  0.067153  1
  Si  Si26  1  0.627562  0.296660  0.435047  1
  Si  Si27  1  0.369933  0.705728  0.932908  1
  Si  Si28  1  0.122571  0.198675  0.316219  1
  Si  Si29  1  0.199318  0.124432  0.683738  1
  Si  Si30  1  0.876760  0.802216  0.813661  1
  W  W31  1  0.341203  0.505851  0.374097  1
  W  W32  1  0.669466  0.669554  0.500383  1
  W  W33  1  0.830560  0.169943  0.749733  1
  W  W34  1  0.169689  0.831806  0.250310  1
  W  W35  1  0.330112  0.329781  0.999798  1
