# generated using pymatgen
data_Ca2CrBiO6
_symmetry_space_group_name_H-M   'P 1'
_cell_length_a   7.50408882
_cell_length_b   7.50408868
_cell_length_c   5.58876000
_cell_angle_alpha   90.00000000
_cell_angle_beta   90.00000000
_cell_angle_gamma   106.20260041
_symmetry_Int_Tables_number   1
_chemical_formula_structural   Ca2CrBiO6
_chemical_formula_sum   'Ca4 Cr2 Bi2 O12'
_cell_volume   302.21062562
_cell_formula_units_Z   2
loop_
 _symmetry_equiv_pos_site_id
 _symmetry_equiv_pos_as_xyz
  1  'x, y, z'
loop_
 _atom_site_type_symbol
 _atom_site_label
 _atom_site_symmetry_multiplicity
 _atom_site_fract_x
 _atom_site_fract_y
 _atom_site_fract_z
 _atom_site_occupancy
  Ca  Ca0  1  0.302774  0.091346  0.758817  1
  Ca  Ca1  1  0.908654  0.697226  0.758817  1
  Ca  Ca2  1  0.091346  0.302774  0.258817  1
  Ca  Ca3  1  0.697226  0.908654  0.258817  1
  Cr  Cr4  1  0.814456  0.185544  0.806975  1
  Cr  Cr5  1  0.185544  0.814456  0.306975  1
  Bi  Bi6  1  0.590635  0.409365  0.241810  1
  Bi  Bi7  1  0.409365  0.590635  0.741810  1
  O  O8  1  0.352247  0.341864  0.504720  1
  O  O9  1  0.597802  0.096608  0.934761  1
  O  O10  1  0.096608  0.597802  0.434761  1
  O  O11  1  0.658136  0.647753  0.504720  1
  O  O12  1  0.181637  0.818363  0.998073  1
  O  O13  1  0.647753  0.658136  0.004720  1
  O  O14  1  0.818363  0.181637  0.498073  1
  O  O15  1  0.341864  0.352247  0.004720  1
  O  O16  1  0.052602  0.947398  0.430544  1
  O  O17  1  0.402198  0.903392  0.434761  1
  O  O18  1  0.947398  0.052602  0.930544  1
  O  O19  1  0.903392  0.402198  0.934761  1
