# generated using pymatgen
data_Er2TmZr2Sb3
_symmetry_space_group_name_H-M   'P 1'
_cell_length_a   8.76276555
_cell_length_b   8.75740594
_cell_length_c   5.97915900
_cell_angle_alpha   90.00000000
_cell_angle_beta   90.00000000
_cell_angle_gamma   119.97976341
_symmetry_Int_Tables_number   1
_chemical_formula_structural   Er2TmZr2Sb3
_chemical_formula_sum   'Er4 Tm2 Zr4 Sb6'
_cell_volume   397.44398784
_cell_formula_units_Z   2
loop_
 _symmetry_equiv_pos_site_id
 _symmetry_equiv_pos_as_xyz
  1  'x, y, z'
loop_
 _atom_site_type_symbol
 _atom_site_label
 _atom_site_symmetry_multiplicity
 _atom_site_fract_x
 _atom_site_fract_y
 _atom_site_fract_z
 _atom_site_occupancy
  Er  Er0  1  0.000000  0.250352  0.750000  1
  Er  Er1  1  0.250616  0.250674  0.250000  1
  Er  Er2  1  0.749384  0.000057  0.250000  1
  Er  Er3  1  0.000000  0.749696  0.250000  1
  Tm  Tm4  1  0.749232  0.749288  0.750000  1
  Tm  Tm5  1  0.250768  0.000056  0.750000  1
  Zr  Zr6  1  0.666705  0.333324  0.999934  1
  Zr  Zr7  1  0.333295  0.666620  0.999934  1
  Zr  Zr8  1  0.333295  0.666620  0.500066  1
  Zr  Zr9  1  0.666705  0.333324  0.500066  1
  Sb  Sb10  1  0.391504  0.391124  0.750000  1
  Sb  Sb11  1  0.608496  0.999620  0.750000  1
  Sb  Sb12  1  0.000000  0.609270  0.750000  1
  Sb  Sb13  1  0.608840  0.608829  0.250000  1
  Sb  Sb14  1  0.391160  0.999990  0.250000  1
  Sb  Sb15  1  0.000000  0.391157  0.250000  1
