# generated using pymatgen
data_Np3Sn3IrPtRh
_symmetry_space_group_name_H-M   'P 1'
_cell_length_a   7.48968700
_cell_length_b   7.48968515
_cell_length_c   4.03807700
_cell_angle_alpha   90.00000000
_cell_angle_beta   90.00000000
_cell_angle_gamma   119.99999399
_symmetry_Int_Tables_number   1
_chemical_formula_structural   Np3Sn3IrPtRh
_chemical_formula_sum   'Np3 Sn3 Ir1 Pt1 Rh1'
_cell_volume   196.16995116
_cell_formula_units_Z   1
loop_
 _symmetry_equiv_pos_site_id
 _symmetry_equiv_pos_as_xyz
  1  'x, y, z'
loop_
 _atom_site_type_symbol
 _atom_site_label
 _atom_site_symmetry_multiplicity
 _atom_site_fract_x
 _atom_site_fract_y
 _atom_site_fract_z
 _atom_site_occupancy
  Np  Np0  1  0.992237  0.578766  0.500000  1
  Np  Np1  1  0.586529  0.007763  0.500000  1
  Np  Np2  1  0.421234  0.413471  0.500000  1
  Sn  Sn3  1  0.997541  0.249764  0.000000  1
  Sn  Sn4  1  0.750236  0.747777  0.000000  1
  Sn  Sn5  1  0.252223  0.002459  0.000000  1
  Ir  Ir6  1  0.666667  0.333333  0.000000  1
  Pt  Pt7  1  0.333333  0.666667  0.000000  1
  Rh  Rh8  1  0.000000  0.000000  0.500000  1
