# generated using pymatgen
data_TbYPa2(CoGe)4
_symmetry_space_group_name_H-M   'P 1'
_cell_length_a   4.30683200
_cell_length_b   7.28107593
_cell_length_c   6.94384832
_cell_angle_alpha   93.08244054
_cell_angle_beta   90.00000000
_cell_angle_gamma   90.00000000
_symmetry_Int_Tables_number   1
_chemical_formula_structural   TbYPa2(CoGe)4
_chemical_formula_sum   'Tb1 Y1 Pa2 Co4 Ge4'
_cell_volume   217.43273232
_cell_formula_units_Z   1
loop_
 _symmetry_equiv_pos_site_id
 _symmetry_equiv_pos_as_xyz
  1  'x, y, z'
loop_
 _atom_site_type_symbol
 _atom_site_label
 _atom_site_symmetry_multiplicity
 _atom_site_fract_x
 _atom_site_fract_y
 _atom_site_fract_z
 _atom_site_occupancy
  Tb  Tb0  1  0.750000  0.019206  0.227207  1
  Y  Y1  1  0.250000  0.980966  0.772748  1
  Pa  Pa2  1  0.250000  0.489621  0.697884  1
  Pa  Pa3  1  0.750000  0.510186  0.301925  1
  Co  Co4  1  0.750000  0.375587  0.960664  1
  Co  Co5  1  0.250000  0.256668  0.449644  1
  Co  Co6  1  0.750000  0.743212  0.550283  1
  Co  Co7  1  0.250000  0.624776  0.039532  1
  Ge  Ge8  1  0.250000  0.797841  0.387031  1
  Ge  Ge9  1  0.750000  0.718592  0.904769  1
  Ge  Ge10  1  0.250000  0.281357  0.095076  1
  Ge  Ge11  1  0.750000  0.201989  0.613238  1
