# generated using pymatgen
data_SrTlAsS3
_symmetry_space_group_name_H-M   'P 1'
_cell_length_a   8.64660100
_cell_length_b   9.17985072
_cell_length_c   8.79291000
_cell_angle_alpha   72.36677551
_cell_angle_beta   90.00000000
_cell_angle_gamma   90.00000000
_symmetry_Int_Tables_number   1
_chemical_formula_structural   SrTlAsS3
_chemical_formula_sum   'Sr4 Tl4 As4 S12'
_cell_volume   665.14063338
_cell_formula_units_Z   4
loop_
 _symmetry_equiv_pos_site_id
 _symmetry_equiv_pos_as_xyz
  1  'x, y, z'
loop_
 _atom_site_type_symbol
 _atom_site_label
 _atom_site_symmetry_multiplicity
 _atom_site_fract_x
 _atom_site_fract_y
 _atom_site_fract_z
 _atom_site_occupancy
  Sr  Sr0  1  0.715246  0.920399  0.031080  1
  Sr  Sr1  1  0.215246  0.079601  0.468920  1
  Sr  Sr2  1  0.284754  0.079601  0.968920  1
  Sr  Sr3  1  0.784754  0.920399  0.531080  1
  Tl  Tl4  1  0.099866  0.577314  0.281312  1
  Tl  Tl5  1  0.599866  0.422686  0.218688  1
  Tl  Tl6  1  0.900134  0.422686  0.718688  1
  Tl  Tl7  1  0.400134  0.577314  0.781312  1
  As  As8  1  0.458564  0.756561  0.359207  1
  As  As9  1  0.958564  0.243439  0.140793  1
  As  As10  1  0.541436  0.243439  0.640793  1
  As  As11  1  0.041436  0.756561  0.859207  1
  S  S12  1  0.204575  0.336821  0.111639  1
  S  S13  1  0.704575  0.663179  0.388361  1
  S  S14  1  0.795425  0.663179  0.888361  1
  S  S15  1  0.295425  0.336821  0.611639  1
  S  S16  1  0.008237  0.985794  0.216888  1
  S  S17  1  0.508237  0.014206  0.283112  1
  S  S18  1  0.991763  0.014206  0.783112  1
  S  S19  1  0.491763  0.985794  0.716888  1
  S  S20  1  0.400650  0.741107  0.112576  1
  S  S21  1  0.900650  0.258893  0.387424  1
  S  S22  1  0.599350  0.258893  0.887424  1
  S  S23  1  0.099350  0.741107  0.612576  1
