# generated using pymatgen
data_Pr3CdIn3Rh2
_symmetry_space_group_name_H-M   'P 1'
_cell_length_a   8.00493800
_cell_length_b   8.00493829
_cell_length_c   3.98556300
_cell_angle_alpha   90.00000000
_cell_angle_beta   90.00000000
_cell_angle_gamma   119.99999880
_symmetry_Int_Tables_number   1
_chemical_formula_structural   Pr3CdIn3Rh2
_chemical_formula_sum   'Pr3 Cd1 In3 Rh2'
_cell_volume   221.17512242
_cell_formula_units_Z   1
loop_
 _symmetry_equiv_pos_site_id
 _symmetry_equiv_pos_as_xyz
  1  'x, y, z'
loop_
 _atom_site_type_symbol
 _atom_site_label
 _atom_site_symmetry_multiplicity
 _atom_site_fract_x
 _atom_site_fract_y
 _atom_site_fract_z
 _atom_site_occupancy
  Pr  Pr0  1  0.972174  0.580947  0.500000  1
  Pr  Pr1  1  0.419053  0.391227  0.500000  1
  Pr  Pr2  1  0.608773  0.027826  0.500000  1
  Cd  Cd3  1  0.333333  0.666667  0.000000  1
  In  In4  1  0.751496  0.751776  0.000000  1
  In  In5  1  0.000279  0.248504  0.000000  1
  In  In6  1  0.248224  0.999721  0.000000  1
  Rh  Rh7  1  0.000000  0.000000  0.500000  1
  Rh  Rh8  1  0.666667  0.333333  0.000000  1
