# generated using pymatgen
data_Rb4ZrPaBr12
_symmetry_space_group_name_H-M   'P 1'
_cell_length_a   7.88564100
_cell_length_b   7.88564100
_cell_length_c   11.25278800
_cell_angle_alpha   90.00000000
_cell_angle_beta   90.00000000
_cell_angle_gamma   90.00000000
_symmetry_Int_Tables_number   1
_chemical_formula_structural   Rb4ZrPaBr12
_chemical_formula_sum   'Rb4 Zr1 Pa1 Br12'
_cell_volume   699.73587442
_cell_formula_units_Z   1
loop_
 _symmetry_equiv_pos_site_id
 _symmetry_equiv_pos_as_xyz
  1  'x, y, z'
loop_
 _atom_site_type_symbol
 _atom_site_label
 _atom_site_symmetry_multiplicity
 _atom_site_fract_x
 _atom_site_fract_y
 _atom_site_fract_z
 _atom_site_occupancy
  Rb  Rb0  1  0.500000  0.000000  0.751668  1
  Rb  Rb1  1  0.500000  0.000000  0.248332  1
  Rb  Rb2  1  0.000000  0.500000  0.248332  1
  Rb  Rb3  1  0.000000  0.500000  0.751668  1
  Zr  Zr4  1  0.000000  0.000000  0.000000  1
  Pa  Pa5  1  0.500000  0.500000  0.500000  1
  Br  Br6  1  0.795039  0.267784  0.000000  1
  Br  Br7  1  0.204961  0.732216  0.000000  1
  Br  Br8  1  0.500000  0.500000  0.249880  1
  Br  Br9  1  0.284532  0.216343  0.500000  1
  Br  Br10  1  0.267784  0.204961  0.000000  1
  Br  Br11  1  0.783657  0.284532  0.500000  1
  Br  Br12  1  0.000000  0.000000  0.236198  1
  Br  Br13  1  0.715468  0.783657  0.500000  1
  Br  Br14  1  0.216343  0.715468  0.500000  1
  Br  Br15  1  0.500000  0.500000  0.750120  1
  Br  Br16  1  0.732216  0.795039  0.000000  1
  Br  Br17  1  0.000000  0.000000  0.763802  1
