# generated using pymatgen
data_YEr(CoC)2
_symmetry_space_group_name_H-M   'P 1'
_cell_length_a   3.62445000
_cell_length_b   3.62445000
_cell_length_c   6.88552300
_cell_angle_alpha   90.00000000
_cell_angle_beta   90.00000000
_cell_angle_gamma   90.00000000
_symmetry_Int_Tables_number   1
_chemical_formula_structural   YEr(CoC)2
_chemical_formula_sum   'Y1 Er1 Co2 C2'
_cell_volume   90.45262173
_cell_formula_units_Z   1
loop_
 _symmetry_equiv_pos_site_id
 _symmetry_equiv_pos_as_xyz
  1  'x, y, z'
loop_
 _atom_site_type_symbol
 _atom_site_label
 _atom_site_symmetry_multiplicity
 _atom_site_fract_x
 _atom_site_fract_y
 _atom_site_fract_z
 _atom_site_occupancy
  Y  Y0  1  0.000000  0.000000  0.750000  1
  Er  Er1  1  0.000000  0.000000  0.250000  1
  Co  Co2  1  0.500000  0.500000  0.005632  1
  Co  Co3  1  0.500000  0.500000  0.494368  1
  C  C4  1  0.500000  0.000000  0.496522  1
  C  C5  1  0.000000  0.500000  0.003478  1
