# generated using pymatgen
data_Hf15Sc3Nb2(Re3B)2
_symmetry_space_group_name_H-M   'P 1'
_cell_length_a   8.56503900
_cell_length_b   8.56503981
_cell_length_c   8.48158200
_cell_angle_alpha   90.00000000
_cell_angle_beta   90.00000000
_cell_angle_gamma   120.00000075
_symmetry_Int_Tables_number   1
_chemical_formula_structural   Hf15Sc3Nb2(Re3B)2
_chemical_formula_sum   'Hf15 Sc3 Nb2 Re6 B2'
_cell_volume   538.84793653
_cell_formula_units_Z   1
loop_
 _symmetry_equiv_pos_site_id
 _symmetry_equiv_pos_as_xyz
  1  'x, y, z'
loop_
 _atom_site_type_symbol
 _atom_site_label
 _atom_site_symmetry_multiplicity
 _atom_site_fract_x
 _atom_site_fract_y
 _atom_site_fract_z
 _atom_site_occupancy
  Hf  Hf0  1  0.203648  0.796352  0.444009  1
  Hf  Hf1  1  0.203648  0.407295  0.444009  1
  Hf  Hf2  1  0.592705  0.796352  0.444009  1
  Hf  Hf3  1  0.796769  0.203231  0.555502  1
  Hf  Hf4  1  0.796769  0.593539  0.555502  1
  Hf  Hf5  1  0.406461  0.203231  0.555502  1
  Hf  Hf6  1  0.796769  0.203231  0.944498  1
  Hf  Hf7  1  0.796769  0.593539  0.944498  1
  Hf  Hf8  1  0.406461  0.203231  0.944498  1
  Hf  Hf9  1  0.203648  0.796352  0.055991  1
  Hf  Hf10  1  0.203648  0.407295  0.055991  1
  Hf  Hf11  1  0.592705  0.796352  0.055991  1
  Hf  Hf12  1  0.458891  0.541109  0.750000  1
  Hf  Hf13  1  0.458891  0.917783  0.750000  1
  Hf  Hf14  1  0.082217  0.541109  0.750000  1
  Sc  Sc15  1  0.540822  0.459178  0.250000  1
  Sc  Sc16  1  0.540822  0.081644  0.250000  1
  Sc  Sc17  1  0.918356  0.459178  0.250000  1
  Nb  Nb18  1  0.000000  0.000000  0.497404  1
  Nb  Nb19  1  0.000000  0.000000  0.002596  1
  Re  Re20  1  0.886692  0.113308  0.250000  1
  Re  Re21  1  0.886692  0.773387  0.250000  1
  Re  Re22  1  0.226613  0.113308  0.250000  1
  Re  Re23  1  0.113514  0.886486  0.750000  1
  Re  Re24  1  0.113514  0.227027  0.750000  1
  Re  Re25  1  0.772973  0.886486  0.750000  1
  B  B26  1  0.333333  0.666667  0.250000  1
  B  B27  1  0.666667  0.333333  0.750000  1
