# generated using pymatgen
data_Tb11YPd4
_symmetry_space_group_name_H-M   'P 1'
_cell_length_a   6.47680227
_cell_length_b   7.06613237
_cell_length_c   9.75918100
_cell_angle_alpha   90.00000000
_cell_angle_beta   90.00000000
_cell_angle_gamma   89.92835865
_symmetry_Int_Tables_number   1
_chemical_formula_structural   Tb11YPd4
_chemical_formula_sum   'Tb11 Y1 Pd4'
_cell_volume   446.63776457
_cell_formula_units_Z   1
loop_
 _symmetry_equiv_pos_site_id
 _symmetry_equiv_pos_as_xyz
  1  'x, y, z'
loop_
 _atom_site_type_symbol
 _atom_site_label
 _atom_site_symmetry_multiplicity
 _atom_site_fract_x
 _atom_site_fract_y
 _atom_site_fract_z
 _atom_site_occupancy
  Tb  Tb0  1  0.635579  0.025274  0.250000  1
  Tb  Tb1  1  0.364392  0.974743  0.750000  1
  Tb  Tb2  1  0.135490  0.474645  0.750000  1
  Tb  Tb3  1  0.173112  0.181133  0.059539  1
  Tb  Tb4  1  0.826935  0.818569  0.940507  1
  Tb  Tb5  1  0.672999  0.318825  0.940434  1
  Tb  Tb6  1  0.826935  0.818569  0.559493  1
  Tb  Tb7  1  0.326930  0.681288  0.059589  1
  Tb  Tb8  1  0.173112  0.181133  0.440461  1
  Tb  Tb9  1  0.326930  0.681288  0.440411  1
  Tb  Tb10  1  0.672999  0.318825  0.559566  1
  Y  Y11  1  0.864867  0.525000  0.250000  1
  Pd  Pd12  1  0.436363  0.388060  0.250000  1
  Pd  Pd13  1  0.563033  0.611921  0.750000  1
  Pd  Pd14  1  0.936665  0.111934  0.750000  1
  Pd  Pd15  1  0.063658  0.888793  0.250000  1
