# generated using pymatgen
data_Tb16Cd3HgPdRu3
_symmetry_space_group_name_H-M   'P 1'
_cell_length_a   9.66609537
_cell_length_b   9.72296357
_cell_length_c   9.72296340
_cell_angle_alpha   59.69133637
_cell_angle_beta   59.50477373
_cell_angle_gamma   59.50477527
_symmetry_Int_Tables_number   1
_chemical_formula_structural   Tb16Cd3HgPdRu3
_chemical_formula_sum   'Tb16 Cd3 Hg1 Pd1 Ru3'
_cell_volume   639.78448396
_cell_formula_units_Z   1
loop_
 _symmetry_equiv_pos_site_id
 _symmetry_equiv_pos_as_xyz
  1  'x, y, z'
loop_
 _atom_site_type_symbol
 _atom_site_label
 _atom_site_symmetry_multiplicity
 _atom_site_fract_x
 _atom_site_fract_y
 _atom_site_fract_z
 _atom_site_occupancy
  Tb  Tb0  1  0.344196  0.352101  0.352101  1
  Tb  Tb1  1  0.345743  0.352826  0.951564  1
  Tb  Tb2  1  0.345743  0.951564  0.352826  1
  Tb  Tb3  1  0.963599  0.345172  0.345172  1
  Tb  Tb4  1  0.815345  0.189332  0.189332  1
  Tb  Tb5  1  0.185820  0.810410  0.810410  1
  Tb  Tb6  1  0.187527  0.810975  0.189052  1
  Tb  Tb7  1  0.815214  0.189428  0.803319  1
  Tb  Tb8  1  0.187527  0.189052  0.810975  1
  Tb  Tb9  1  0.815214  0.803319  0.189428  1
  Tb  Tb10  1  0.934463  0.562664  0.562664  1
  Tb  Tb11  1  0.556803  0.938475  0.938475  1
  Tb  Tb12  1  0.557017  0.937197  0.566709  1
  Tb  Tb13  1  0.936362  0.561920  0.938707  1
  Tb  Tb14  1  0.557017  0.566709  0.937197  1
  Tb  Tb15  1  0.936362  0.938707  0.561920  1
  Cd  Cd16  1  0.581001  0.579279  0.258493  1
  Cd  Cd17  1  0.581001  0.258493  0.579279  1
  Cd  Cd18  1  0.255350  0.580694  0.580694  1
  Hg  Hg19  1  0.584782  0.583513  0.583513  1
  Pd  Pd20  1  0.574226  0.143193  0.143193  1
  Ru  Ru21  1  0.145647  0.137502  0.137502  1
  Ru  Ru22  1  0.147021  0.139782  0.577694  1
  Ru  Ru23  1  0.147021  0.577694  0.139782  1
