# generated using pymatgen
data_Tb16Cd3TcNi3Hg
_symmetry_space_group_name_H-M   'P 1'
_cell_length_a   9.60500248
_cell_length_b   9.60500208
_cell_length_c   9.60500256
_cell_angle_alpha   59.50082713
_cell_angle_beta   59.50082928
_cell_angle_gamma   59.50082519
_symmetry_Int_Tables_number   1
_chemical_formula_structural   Tb16Cd3TcNi3Hg
_chemical_formula_sum   'Tb16 Cd3 Tc1 Ni3 Hg1'
_cell_volume   619.46805698
_cell_formula_units_Z   1
loop_
 _symmetry_equiv_pos_site_id
 _symmetry_equiv_pos_as_xyz
  1  'x, y, z'
loop_
 _atom_site_type_symbol
 _atom_site_label
 _atom_site_symmetry_multiplicity
 _atom_site_fract_x
 _atom_site_fract_y
 _atom_site_fract_z
 _atom_site_occupancy
  Tb  Tb0  1  0.347528  0.347528  0.347528  1
  Tb  Tb1  1  0.352491  0.352491  0.951971  1
  Tb  Tb2  1  0.352491  0.951971  0.352491  1
  Tb  Tb3  1  0.951971  0.352491  0.352491  1
  Tb  Tb4  1  0.810641  0.187778  0.187778  1
  Tb  Tb5  1  0.188145  0.809817  0.809817  1
  Tb  Tb6  1  0.187778  0.810641  0.187778  1
  Tb  Tb7  1  0.809817  0.188145  0.809817  1
  Tb  Tb8  1  0.187778  0.187778  0.810641  1
  Tb  Tb9  1  0.809817  0.809817  0.188145  1
  Tb  Tb10  1  0.935031  0.565008  0.565008  1
  Tb  Tb11  1  0.555701  0.939243  0.939243  1
  Tb  Tb12  1  0.565008  0.935031  0.565008  1
  Tb  Tb13  1  0.939243  0.555701  0.939243  1
  Tb  Tb14  1  0.565008  0.565008  0.935031  1
  Tb  Tb15  1  0.939243  0.939243  0.555701  1
  Cd  Cd16  1  0.579405  0.579405  0.255460  1
  Cd  Cd17  1  0.579405  0.255460  0.579405  1
  Cd  Cd18  1  0.255460  0.579405  0.579405  1
  Tc  Tc19  1  0.143276  0.143276  0.143276  1
  Ni  Ni20  1  0.142874  0.142874  0.575586  1
  Ni  Ni21  1  0.142874  0.575586  0.142874  1
  Ni  Ni22  1  0.575586  0.142874  0.142874  1
  Hg  Hg23  1  0.583431  0.583431  0.583431  1
