# generated using pymatgen
data_Ho2Tm8Bi5Au
_symmetry_space_group_name_H-M   'P 1'
_cell_length_a   8.10684000
_cell_length_b   9.39982400
_cell_length_c   11.92263500
_cell_angle_alpha   90.00000000
_cell_angle_beta   90.00000000
_cell_angle_gamma   90.00000000
_symmetry_Int_Tables_number   1
_chemical_formula_structural   Ho2Tm8Bi5Au
_chemical_formula_sum   'Ho4 Tm16 Bi10 Au2'
_cell_volume   908.53899538
_cell_formula_units_Z   2
loop_
 _symmetry_equiv_pos_site_id
 _symmetry_equiv_pos_as_xyz
  1  'x, y, z'
loop_
 _atom_site_type_symbol
 _atom_site_label
 _atom_site_symmetry_multiplicity
 _atom_site_fract_x
 _atom_site_fract_y
 _atom_site_fract_z
 _atom_site_occupancy
  Ho  Ho0  1  0.312127  0.250000  0.218158  1
  Ho  Ho1  1  0.812127  0.250000  0.281842  1
  Ho  Ho2  1  0.674534  0.750000  0.789563  1
  Ho  Ho3  1  0.174534  0.750000  0.710437  1
  Tm  Tm4  1  0.353035  0.750000  0.203131  1
  Tm  Tm5  1  0.853035  0.750000  0.296869  1
  Tm  Tm6  1  0.652845  0.250000  0.782378  1
  Tm  Tm7  1  0.152845  0.250000  0.717622  1
  Tm  Tm8  1  0.684946  0.571015  0.056822  1
  Tm  Tm9  1  0.184946  0.928985  0.443178  1
  Tm  Tm10  1  0.310400  0.046375  0.940559  1
  Tm  Tm11  1  0.810400  0.453625  0.559441  1
  Tm  Tm12  1  0.310400  0.453625  0.940559  1
  Tm  Tm13  1  0.810400  0.046375  0.559441  1
  Tm  Tm14  1  0.684946  0.928985  0.056822  1
  Tm  Tm15  1  0.184946  0.571015  0.443178  1
  Tm  Tm16  1  0.482303  0.250000  0.490816  1
  Tm  Tm17  1  0.982303  0.250000  0.009184  1
  Tm  Tm18  1  0.539253  0.750000  0.508036  1
  Tm  Tm19  1  0.039253  0.750000  0.991964  1
  Bi  Bi20  1  0.595629  0.250000  0.040781  1
  Bi  Bi21  1  0.095629  0.250000  0.459219  1
  Bi  Bi22  1  0.558312  0.997095  0.323465  1
  Bi  Bi23  1  0.058312  0.502905  0.176535  1
  Bi  Bi24  1  0.437354  0.496873  0.675874  1
  Bi  Bi25  1  0.937354  0.003127  0.824126  1
  Bi  Bi26  1  0.437354  0.003127  0.675874  1
  Bi  Bi27  1  0.937354  0.496873  0.824126  1
  Bi  Bi28  1  0.558312  0.502905  0.323465  1
  Bi  Bi29  1  0.058312  0.997095  0.176535  1
  Au  Au30  1  0.408249  0.750000  0.964685  1
  Au  Au31  1  0.908249  0.750000  0.535315  1
