# generated using pymatgen
data_Th4Pd10PtRh
_symmetry_space_group_name_H-M   'P 1'
_cell_length_a   5.93348700
_cell_length_b   5.97226382
_cell_length_c   9.78250569
_cell_angle_alpha   89.22643388
_cell_angle_beta   90.00000000
_cell_angle_gamma   119.78545627
_symmetry_Int_Tables_number   1
_chemical_formula_structural   Th4Pd10PtRh
_chemical_formula_sum   'Th4 Pd10 Pt1 Rh1'
_cell_volume   300.82367181
_cell_formula_units_Z   1
loop_
 _symmetry_equiv_pos_site_id
 _symmetry_equiv_pos_as_xyz
  1  'x, y, z'
loop_
 _atom_site_type_symbol
 _atom_site_label
 _atom_site_symmetry_multiplicity
 _atom_site_fract_x
 _atom_site_fract_y
 _atom_site_fract_z
 _atom_site_occupancy
  Th  Th0  1  0.000000  0.000000  0.500000  1
  Th  Th1  1  0.000000  0.000000  0.000000  1
  Th  Th2  1  0.340372  0.680744  0.244420  1
  Th  Th3  1  0.659628  0.319256  0.755580  1
  Pd  Pd4  1  0.500000  0.500000  0.500000  1
  Pd  Pd5  1  0.000000  0.500000  0.500000  1
  Pd  Pd6  1  0.500000  0.500000  0.000000  1
  Pd  Pd7  1  0.000000  0.500000  0.000000  1
  Pd  Pd8  1  0.826599  0.653196  0.250227  1
  Pd  Pd9  1  0.351787  0.182587  0.250387  1
  Pd  Pd10  1  0.830800  0.182587  0.250387  1
  Pd  Pd11  1  0.173401  0.346804  0.749773  1
  Pd  Pd12  1  0.648213  0.817413  0.749613  1
  Pd  Pd13  1  0.169200  0.817413  0.749613  1
  Pt  Pt14  1  0.500000  0.000000  0.500000  1
  Rh  Rh15  1  0.500000  0.000000  0.000000  1
