# generated using pymatgen
data_Ca19Tl2In5HgN7
_symmetry_space_group_name_H-M   'P 1'
_cell_length_a   10.41922989
_cell_length_b   10.41950646
_cell_length_c   10.45734943
_cell_angle_alpha   60.22337517
_cell_angle_beta   60.23415562
_cell_angle_gamma   60.10687935
_symmetry_Int_Tables_number   1
_chemical_formula_structural   Ca19Tl2In5HgN7
_chemical_formula_sum   'Ca19 Tl2 In5 Hg1 N7'
_cell_volume   806.18448832
_cell_formula_units_Z   1
loop_
 _symmetry_equiv_pos_site_id
 _symmetry_equiv_pos_as_xyz
  1  'x, y, z'
loop_
 _atom_site_type_symbol
 _atom_site_label
 _atom_site_symmetry_multiplicity
 _atom_site_fract_x
 _atom_site_fract_y
 _atom_site_fract_z
 _atom_site_occupancy
  Ca  Ca0  1  0.173867  0.500175  0.826092  1
  Ca  Ca1  1  0.498910  0.828009  0.173776  1
  Ca  Ca2  1  0.828423  0.174074  0.498673  1
  Ca  Ca3  1  0.166392  0.834244  0.165215  1
  Ca  Ca4  1  0.827586  0.499465  0.173865  1
  Ca  Ca5  1  0.173616  0.828785  0.498692  1
  Ca  Ca6  1  0.167246  0.165825  0.832907  1
  Ca  Ca7  1  0.173955  0.498976  0.498453  1
  Ca  Ca8  1  0.834801  0.833369  0.165365  1
  Ca  Ca9  1  0.834933  0.165755  0.832160  1
  Ca  Ca10  1  0.498661  0.828628  0.498847  1
  Ca  Ca11  1  0.500074  0.500249  0.499518  1
  Ca  Ca12  1  0.498699  0.499479  0.173884  1
  Ca  Ca13  1  0.166341  0.834361  0.833026  1
  Ca  Ca14  1  0.499667  0.174231  0.826033  1
  Ca  Ca15  1  0.498342  0.174308  0.498682  1
  Ca  Ca16  1  0.828224  0.499219  0.498595  1
  Ca  Ca17  1  0.834805  0.165809  0.166131  1
  Ca  Ca18  1  0.499709  0.500437  0.826013  1
  Tl  Tl19  1  0.826576  0.519179  0.827451  1
  Tl  Tl20  1  0.480628  0.172954  0.173803  1
  In  In21  1  0.173740  0.474734  0.176244  1
  In  In22  1  0.525020  0.825750  0.824999  1
  In  In23  1  0.173354  0.175361  0.176268  1
  In  In24  1  0.824063  0.825914  0.825071  1
  In  In25  1  0.822620  0.824459  0.529945  1
  Hg  Hg26  1  0.169693  0.172044  0.486320  1
  N  N27  1  0.675273  0.326437  0.672484  1
  N  N28  1  0.674205  0.325667  0.325343  1
  N  N29  1  0.326076  0.675593  0.672351  1
  N  N30  1  0.325376  0.674599  0.325504  1
  N  N31  1  0.325824  0.326316  0.672339  1
  N  N32  1  0.674275  0.674891  0.325570  1
  N  N33  1  0.999023  0.000701  0.000378  1
