# generated using pymatgen
data_Hf10BeGaSn6
_symmetry_space_group_name_H-M   'P 1'
_cell_length_a   8.60716700
_cell_length_b   8.60716614
_cell_length_c   5.79068900
_cell_angle_alpha   90.00000000
_cell_angle_beta   90.00000000
_cell_angle_gamma   120.00000713
_symmetry_Int_Tables_number   1
_chemical_formula_structural   Hf10BeGaSn6
_chemical_formula_sum   'Hf10 Be1 Ga1 Sn6'
_cell_volume   371.51919505
_cell_formula_units_Z   1
loop_
 _symmetry_equiv_pos_site_id
 _symmetry_equiv_pos_as_xyz
  1  'x, y, z'
loop_
 _atom_site_type_symbol
 _atom_site_label
 _atom_site_symmetry_multiplicity
 _atom_site_fract_x
 _atom_site_fract_y
 _atom_site_fract_z
 _atom_site_occupancy
  Hf  Hf0  1  0.740567  0.740567  0.761477  1
  Hf  Hf1  1  0.259433  0.000000  0.761477  1
  Hf  Hf2  1  0.000000  0.259433  0.761477  1
  Hf  Hf3  1  0.259433  0.259433  0.238523  1
  Hf  Hf4  1  0.740567  0.000000  0.238523  1
  Hf  Hf5  1  0.000000  0.740567  0.238523  1
  Hf  Hf6  1  0.666667  0.333333  0.000000  1
  Hf  Hf7  1  0.333333  0.666667  0.000000  1
  Hf  Hf8  1  0.333333  0.666667  0.500000  1
  Hf  Hf9  1  0.666667  0.333333  0.500000  1
  Be  Be10  1  0.000000  0.000000  0.000000  1
  Ga  Ga11  1  0.000000  0.000000  0.500000  1
  Sn  Sn12  1  0.389345  0.389345  0.745921  1
  Sn  Sn13  1  0.610655  0.000000  0.745921  1
  Sn  Sn14  1  0.000000  0.610655  0.745921  1
  Sn  Sn15  1  0.610655  0.610655  0.254079  1
  Sn  Sn16  1  0.389345  0.000000  0.254079  1
  Sn  Sn17  1  0.000000  0.389345  0.254079  1
