# generated using pymatgen
data_Dy5P12Ir2Ru11Rh6
_symmetry_space_group_name_H-M   'P 1'
_cell_length_a   12.62891911
_cell_length_b   12.53780801
_cell_length_c   3.94528100
_cell_angle_alpha   90.00000000
_cell_angle_beta   90.00000000
_cell_angle_gamma   119.71568491
_symmetry_Int_Tables_number   1
_chemical_formula_structural   Dy5P12Ir2Ru11Rh6
_chemical_formula_sum   'Dy5 P12 Ir2 Ru11 Rh6'
_cell_volume   542.54215063
_cell_formula_units_Z   1
loop_
 _symmetry_equiv_pos_site_id
 _symmetry_equiv_pos_as_xyz
  1  'x, y, z'
loop_
 _atom_site_type_symbol
 _atom_site_label
 _atom_site_symmetry_multiplicity
 _atom_site_fract_x
 _atom_site_fract_y
 _atom_site_fract_z
 _atom_site_occupancy
  Dy  Dy0  1  0.666272  0.330952  0.000000  1
  Dy  Dy1  1  0.333972  0.667680  0.000000  1
  Dy  Dy2  1  0.813079  0.000783  0.500000  1
  Dy  Dy3  1  0.184925  0.187127  0.500000  1
  Dy  Dy4  1  0.000174  0.814679  0.500000  1
  P  P5  1  0.630178  0.001888  0.000000  1
  P  P6  1  0.366980  0.372120  0.000000  1
  P  P7  1  0.005689  0.633721  0.000000  1
  P  P8  1  0.688693  0.518942  0.500000  1
  P  P9  1  0.828065  0.304865  0.500000  1
  P  P10  1  0.313799  0.832359  0.500000  1
  P  P11  1  0.517955  0.685575  0.500000  1
  P  P12  1  0.181521  0.002563  0.000000  1
  P  P13  1  0.817398  0.818092  0.000000  1
  P  P14  1  0.997129  0.182902  0.000000  1
  P  P15  1  0.481591  0.163661  0.500000  1
  P  P16  1  0.169349  0.483860  0.500000  1
  Ir  Ir17  1  0.492618  0.358947  0.500000  1
  Ir  Ir18  1  0.998863  0.000366  0.000000  1
  Ru  Ru19  1  0.637651  0.123642  0.500000  1
  Ru  Ru20  1  0.126597  0.641613  0.500000  1
  Ru  Ru21  1  0.361105  0.485946  0.500000  1
  Ru  Ru22  1  0.510450  0.870368  0.500000  1
  Ru  Ru23  1  0.716302  0.715074  0.500000  1
  Ru  Ru24  1  0.002461  0.286633  0.500000  1
  Ru  Ru25  1  0.447824  0.000716  0.000000  1
  Ru  Ru26  1  0.552428  0.547828  0.000000  1
  Ru  Ru27  1  0.000460  0.449723  0.000000  1
  Ru  Ru28  1  0.819104  0.196175  0.000000  1
  Ru  Ru29  1  0.283851  0.002253  0.500000  1
  Rh  Rh30  1  0.623860  0.805192  0.000000  1
  Rh  Rh31  1  0.182068  0.377534  0.000000  1
  Rh  Rh32  1  0.373931  0.184910  0.000000  1
  Rh  Rh33  1  0.195149  0.821374  0.000000  1
  Rh  Rh34  1  0.808164  0.623221  0.000000  1
  Rh  Rh35  1  0.870342  0.506716  0.500000  1
