# generated using pymatgen
data_Cu(RhS4)2
_symmetry_space_group_name_H-M   'P 1'
_cell_length_a   5.70311262
_cell_length_b   5.70194162
_cell_length_c   5.80522172
_cell_angle_alpha   91.17004714
_cell_angle_beta   91.62766829
_cell_angle_gamma   90.14694053
_symmetry_Int_Tables_number   1
_chemical_formula_structural   Cu(RhS4)2
_chemical_formula_sum   'Cu1 Rh2 S8'
_cell_volume   188.66248338
_cell_formula_units_Z   1
loop_
 _symmetry_equiv_pos_site_id
 _symmetry_equiv_pos_as_xyz
  1  'x, y, z'
loop_
 _atom_site_type_symbol
 _atom_site_label
 _atom_site_symmetry_multiplicity
 _atom_site_fract_x
 _atom_site_fract_y
 _atom_site_fract_z
 _atom_site_occupancy
  Cu  Cu0  1  0.500000  0.500000  0.000000  1
  Rh  Rh1  1  0.500000  0.000000  0.500000  1
  Rh  Rh2  1  0.000000  0.500000  0.500000  1
  S  S3  1  0.397034  0.898764  0.102197  1
  S  S4  1  0.900995  0.602267  0.107282  1
  S  S5  1  0.386921  0.387866  0.399974  1
  S  S6  1  0.890438  0.103506  0.396221  1
  S  S7  1  0.109563  0.896495  0.603780  1
  S  S8  1  0.613080  0.612135  0.600027  1
  S  S9  1  0.099006  0.397733  0.892718  1
  S  S10  1  0.602967  0.101236  0.897803  1
