# generated using pymatgen
data_Tb2Yb6Si12Ni3Ag
_symmetry_space_group_name_H-M   'P 1'
_cell_length_a   8.09355000
_cell_length_b   8.09354971
_cell_length_c   8.16385200
_cell_angle_alpha   90.00000000
_cell_angle_beta   90.00000000
_cell_angle_gamma   120.00000934
_symmetry_Int_Tables_number   1
_chemical_formula_structural   Tb2Yb6Si12Ni3Ag
_chemical_formula_sum   'Tb2 Yb6 Si12 Ni3 Ag1'
_cell_volume   463.13095171
_cell_formula_units_Z   1
loop_
 _symmetry_equiv_pos_site_id
 _symmetry_equiv_pos_as_xyz
  1  'x, y, z'
loop_
 _atom_site_type_symbol
 _atom_site_label
 _atom_site_symmetry_multiplicity
 _atom_site_fract_x
 _atom_site_fract_y
 _atom_site_fract_z
 _atom_site_occupancy
  Tb  Tb0  1  0.000000  0.000000  0.246922  1
  Tb  Tb1  1  0.000000  0.000000  0.753057  1
  Yb  Yb2  1  0.503007  0.006015  0.246669  1
  Yb  Yb3  1  0.502615  0.005230  0.753309  1
  Yb  Yb4  1  0.993985  0.496993  0.246669  1
  Yb  Yb5  1  0.994770  0.497385  0.753309  1
  Yb  Yb6  1  0.503007  0.496993  0.246669  1
  Yb  Yb7  1  0.502615  0.497385  0.753309  1
  Si  Si8  1  0.170415  0.340829  0.000169  1
  Si  Si9  1  0.830717  0.661433  0.999807  1
  Si  Si10  1  0.659171  0.829585  0.000169  1
  Si  Si11  1  0.828714  0.657426  0.500188  1
  Si  Si12  1  0.338567  0.169283  0.999807  1
  Si  Si13  1  0.159021  0.318041  0.499886  1
  Si  Si14  1  0.170415  0.829585  0.000169  1
  Si  Si15  1  0.342574  0.171286  0.500188  1
  Si  Si16  1  0.830717  0.169283  0.999807  1
  Si  Si17  1  0.681959  0.840979  0.499886  1
  Si  Si18  1  0.828714  0.171286  0.500188  1
  Si  Si19  1  0.159021  0.840979  0.499886  1
  Ni  Ni20  1  0.333333  0.666667  0.000343  1
  Ni  Ni21  1  0.666667  0.333333  0.999466  1
  Ni  Ni22  1  0.666667  0.333333  0.500710  1
  Ag  Ag23  1  0.333333  0.666667  0.499415  1
