# generated using pymatgen
data_KPr3CBr6
_symmetry_space_group_name_H-M   'P 1'
_cell_length_a   9.13141405
_cell_length_b   9.16611645
_cell_length_c   9.83320800
_cell_angle_alpha   69.22815320
_cell_angle_beta   86.72632101
_cell_angle_gamma   89.65637505
_symmetry_Int_Tables_number   1
_chemical_formula_structural   KPr3CBr6
_chemical_formula_sum   'K2 Pr6 C2 Br12'
_cell_volume   768.19299428
_cell_formula_units_Z   2
loop_
 _symmetry_equiv_pos_site_id
 _symmetry_equiv_pos_as_xyz
  1  'x, y, z'
loop_
 _atom_site_type_symbol
 _atom_site_label
 _atom_site_symmetry_multiplicity
 _atom_site_fract_x
 _atom_site_fract_y
 _atom_site_fract_z
 _atom_site_occupancy
  K  K0  1  0.489555  0.292345  0.358333  1
  K  K1  1  0.510446  0.707655  0.641667  1
  Pr  Pr2  1  0.914362  0.735969  0.003303  1
  Pr  Pr3  1  0.085638  0.264031  0.996696  1
  Pr  Pr4  1  0.735418  0.086446  0.998985  1
  Pr  Pr5  1  0.264581  0.913554  0.001016  1
  Pr  Pr6  1  0.983307  0.872200  0.328928  1
  Pr  Pr7  1  0.016692  0.127800  0.671073  1
  C  C8  1  0.004187  0.028960  0.923529  1
  C  C9  1  0.995812  0.971040  0.076471  1
  Br  Br10  1  0.096706  0.187094  0.327536  1
  Br  Br11  1  0.903294  0.812906  0.672464  1
  Br  Br12  1  0.209159  0.594202  0.998434  1
  Br  Br13  1  0.790842  0.405798  0.001566  1
  Br  Br14  1  0.405950  0.204015  0.009795  1
  Br  Br15  1  0.594049  0.795986  0.990204  1
  Br  Br16  1  0.673287  0.991810  0.329162  1
  Br  Br17  1  0.326713  0.008190  0.670838  1
  Br  Br18  1  0.291125  0.762447  0.326954  1
  Br  Br19  1  0.708875  0.237553  0.673046  1
  Br  Br20  1  0.851807  0.578895  0.324953  1
  Br  Br21  1  0.148192  0.421105  0.675047  1
