# generated using pymatgen
data_TiNb(ReSi)2
_symmetry_space_group_name_H-M   'P 1'
_cell_length_a   7.56651295
_cell_length_b   7.60162228
_cell_length_c   7.56651207
_cell_angle_alpha   126.05941955
_cell_angle_beta   128.40145020
_cell_angle_gamma   77.78730893
_symmetry_Int_Tables_number   1
_chemical_formula_structural   TiNb(ReSi)2
_chemical_formula_sum   'Ti3 Nb3 Re6 Si6'
_cell_volume   267.43804996
_cell_formula_units_Z   3
loop_
 _symmetry_equiv_pos_site_id
 _symmetry_equiv_pos_as_xyz
  1  'x, y, z'
loop_
 _atom_site_type_symbol
 _atom_site_label
 _atom_site_symmetry_multiplicity
 _atom_site_fract_x
 _atom_site_fract_y
 _atom_site_fract_z
 _atom_site_occupancy
  Ti  Ti0  1  0.550941  0.094893  0.043951  1
  Ti  Ti1  1  0.448700  0.494009  0.545309  1
  Ti  Ti2  1  0.950491  0.496279  0.045788  1
  Nb  Nb3  1  0.049346  0.091805  0.542460  1
  Nb  Nb4  1  0.752849  0.902973  0.650124  1
  Nb  Nb5  1  0.249172  0.898879  0.149707  1
  Re  Re6  1  0.501543  0.240342  0.741269  1
  Re  Re7  1  0.999072  0.240342  0.238798  1
  Re  Re8  1  0.131283  0.754167  0.626830  1
  Re  Re9  1  0.868639  0.496382  0.625393  1
  Re  Re10  1  0.627336  0.754167  0.122884  1
  Re  Re11  1  0.370989  0.496382  0.127744  1
  Si  Si12  1  0.750313  0.497939  0.247626  1
  Si  Si13  1  0.249308  0.496124  0.746815  1
  Si  Si14  1  0.335745  0.826217  0.499200  1
  Si  Si15  1  0.664891  0.167542  0.495178  1
  Si  Si16  1  0.827016  0.826217  0.990471  1
  Si  Si17  1  0.172365  0.167542  0.002651  1
