# generated using pymatgen
data_Tb4Ho2Al24CuRu7
_symmetry_space_group_name_H-M   'P 1'
_cell_length_a   8.83757557
_cell_length_b   8.83757507
_cell_length_c   9.55114688
_cell_angle_alpha   89.67337442
_cell_angle_beta   90.32662315
_cell_angle_gamma   119.75152793
_symmetry_Int_Tables_number   1
_chemical_formula_structural   Tb4Ho2Al24CuRu7
_chemical_formula_sum   'Tb4 Ho2 Al24 Cu1 Ru7'
_cell_volume   647.62695463
_cell_formula_units_Z   1
loop_
 _symmetry_equiv_pos_site_id
 _symmetry_equiv_pos_as_xyz
  1  'x, y, z'
loop_
 _atom_site_type_symbol
 _atom_site_label
 _atom_site_symmetry_multiplicity
 _atom_site_fract_x
 _atom_site_fract_y
 _atom_site_fract_z
 _atom_site_occupancy
  Tb  Tb0  1  0.191626  0.385846  0.248844  1
  Tb  Tb1  1  0.808374  0.614154  0.751156  1
  Tb  Tb2  1  0.614154  0.808374  0.248844  1
  Tb  Tb3  1  0.385846  0.191626  0.751156  1
  Ho  Ho4  1  0.194620  0.805380  0.251208  1
  Ho  Ho5  1  0.805380  0.194620  0.748792  1
  Al  Al6  1  0.331783  0.668217  0.020384  1
  Al  Al7  1  0.668217  0.331783  0.979616  1
  Al  Al8  1  0.666669  0.333331  0.515790  1
  Al  Al9  1  0.333331  0.666669  0.484210  1
  Al  Al10  1  0.163067  0.324505  0.578022  1
  Al  Al11  1  0.836933  0.675495  0.421978  1
  Al  Al12  1  0.675495  0.836933  0.578022  1
  Al  Al13  1  0.843994  0.676520  0.079410  1
  Al  Al14  1  0.324505  0.163067  0.421978  1
  Al  Al15  1  0.156006  0.323480  0.920590  1
  Al  Al16  1  0.162740  0.837260  0.577537  1
  Al  Al17  1  0.323480  0.156006  0.079410  1
  Al  Al18  1  0.837260  0.162740  0.422463  1
  Al  Al19  1  0.676520  0.843994  0.920590  1
  Al  Al20  1  0.836749  0.163251  0.076693  1
  Al  Al21  1  0.163251  0.836749  0.923307  1
  Al  Al22  1  0.560567  0.122088  0.248412  1
  Al  Al23  1  0.439433  0.877912  0.751588  1
  Al  Al24  1  0.877912  0.439433  0.248412  1
  Al  Al25  1  0.122088  0.560567  0.751588  1
  Al  Al26  1  0.561342  0.438658  0.250047  1
  Al  Al27  1  0.438658  0.561342  0.749953  1
  Al  Al28  1  0.999618  0.000382  0.250136  1
  Al  Al29  1  0.000382  0.999618  0.749864  1
  Cu  Cu30  1  0.500000  0.500000  0.000000  1
  Ru  Ru31  1  0.500000  0.000000  0.000000  1
  Ru  Ru32  1  0.000000  0.500000  0.000000  1
  Ru  Ru33  1  0.500000  0.000000  0.500000  1
  Ru  Ru34  1  0.000000  0.500000  0.500000  1
  Ru  Ru35  1  0.500000  0.500000  0.500000  1
  Ru  Ru36  1  0.000000  0.000000  0.000000  1
  Ru  Ru37  1  0.000000  0.000000  0.500000  1
