# generated using pymatgen
data_Hf2P7(IrRu5)2
_symmetry_space_group_name_H-M   'P 1'
_cell_length_a   9.43631995
_cell_length_b   9.47081304
_cell_length_c   3.84492700
_cell_angle_alpha   90.00000000
_cell_angle_beta   90.00000000
_cell_angle_gamma   120.09959831
_symmetry_Int_Tables_number   1
_chemical_formula_structural   Hf2P7(IrRu5)2
_chemical_formula_sum   'Hf2 P7 Ir2 Ru10'
_cell_volume   297.28425615
_cell_formula_units_Z   1
loop_
 _symmetry_equiv_pos_site_id
 _symmetry_equiv_pos_as_xyz
  1  'x, y, z'
loop_
 _atom_site_type_symbol
 _atom_site_label
 _atom_site_symmetry_multiplicity
 _atom_site_fract_x
 _atom_site_fract_y
 _atom_site_fract_z
 _atom_site_occupancy
  Hf  Hf0  1  0.668414  0.334193  0.500000  1
  Hf  Hf1  1  0.329086  0.665424  0.000000  1
  P  P2  1  0.596801  0.712980  0.500000  1
  P  P3  1  0.999884  0.000845  0.000000  1
  P  P4  1  0.282490  0.879167  0.500000  1
  P  P5  1  0.114168  0.406160  0.500000  1
  P  P6  1  0.882539  0.586268  0.000000  1
  P  P7  1  0.415569  0.291774  0.000000  1
  P  P8  1  0.708719  0.121550  0.000000  1
  Ir  Ir9  1  0.545501  0.929393  0.500000  1
  Ir  Ir10  1  0.383417  0.453847  0.500000  1
  Ru  Ru11  1  0.898841  0.134597  0.500000  1
  Ru  Ru12  1  0.243977  0.105501  0.500000  1
  Ru  Ru13  1  0.862834  0.762375  0.500000  1
  Ru  Ru14  1  0.726652  0.884031  0.000000  1
  Ru  Ru15  1  0.116713  0.846199  0.000000  1
  Ru  Ru16  1  0.157925  0.272335  0.000000  1
  Ru  Ru17  1  0.446810  0.070758  0.000000  1
  Ru  Ru18  1  0.930045  0.372587  0.000000  1
  Ru  Ru19  1  0.627075  0.554573  0.000000  1
  Ru  Ru20  1  0.062540  0.615441  0.500000  1
