# generated using pymatgen
data_Dy4Tm4Mn(B8Ru)3
_symmetry_space_group_name_H-M   'P 1'
_cell_length_a   3.61557500
_cell_length_b   9.08249111
_cell_length_c   11.46874313
_cell_angle_alpha   89.98243109
_cell_angle_beta   90.00000000
_cell_angle_gamma   90.00000000
_symmetry_Int_Tables_number   1
_chemical_formula_structural   Dy4Tm4Mn(B8Ru)3
_chemical_formula_sum   'Dy4 Tm4 Mn1 B24 Ru3'
_cell_volume   376.61547549
_cell_formula_units_Z   1
loop_
 _symmetry_equiv_pos_site_id
 _symmetry_equiv_pos_as_xyz
  1  'x, y, z'
loop_
 _atom_site_type_symbol
 _atom_site_label
 _atom_site_symmetry_multiplicity
 _atom_site_fract_x
 _atom_site_fract_y
 _atom_site_fract_z
 _atom_site_occupancy
  Dy  Dy0  1  0.000000  0.325463  0.412860  1
  Dy  Dy1  1  0.000000  0.676776  0.582043  1
  Dy  Dy2  1  0.000000  0.820215  0.088333  1
  Dy  Dy3  1  0.000000  0.177577  0.915154  1
  Tm  Tm4  1  0.000000  0.940513  0.371381  1
  Tm  Tm5  1  0.000000  0.056791  0.627742  1
  Tm  Tm6  1  0.000000  0.445953  0.130455  1
  Tm  Tm7  1  0.000000  0.556619  0.871725  1
  Mn  Mn8  1  0.000000  0.638482  0.320349  1
  B  B9  1  0.500000  0.554629  0.431350  1
  B  B10  1  0.500000  0.446253  0.566829  1
  B  B11  1  0.500000  0.054053  0.067600  1
  B  B12  1  0.500000  0.945884  0.932932  1
  B  B13  1  0.500000  0.747112  0.417313  1
  B  B14  1  0.500000  0.251138  0.580542  1
  B  B15  1  0.500000  0.249719  0.081232  1
  B  B16  1  0.500000  0.750877  0.919394  1
  B  B17  1  0.500000  0.789817  0.266441  1
  B  B18  1  0.500000  0.208523  0.734137  1
  B  B19  1  0.500000  0.291960  0.234295  1
  B  B20  1  0.500000  0.708630  0.765613  1
  B  B21  1  0.500000  0.631307  0.186559  1
  B  B22  1  0.500000  0.368851  0.815366  1
  B  B23  1  0.500000  0.130841  0.315052  1
  B  B24  1  0.500000  0.868774  0.684503  1
  B  B25  1  0.500000  0.982592  0.213188  1
  B  B26  1  0.500000  0.016878  0.787176  1
  B  B27  1  0.500000  0.485503  0.287878  1
  B  B28  1  0.500000  0.516936  0.712738  1
  B  B29  1  0.500000  0.604882  0.029089  1
  B  B30  1  0.500000  0.395375  0.971531  1
  B  B31  1  0.500000  0.104728  0.470866  1
  B  B32  1  0.500000  0.894985  0.528602  1
  Ru  Ru33  1  0.000000  0.361243  0.679993  1
  Ru  Ru34  1  0.000000  0.138442  0.179383  1
  Ru  Ru35  1  0.000000  0.861677  0.820357  1
