# generated using pymatgen
data_Tb3Y13Al2(CdPd2)2
_symmetry_space_group_name_H-M   'P 1'
_cell_length_a   9.69069467
_cell_length_b   9.68969253
_cell_length_c   9.69919600
_cell_angle_alpha   59.96755071
_cell_angle_beta   59.97097598
_cell_angle_gamma   60.01935052
_symmetry_Int_Tables_number   1
_chemical_formula_structural   Tb3Y13Al2(CdPd2)2
_chemical_formula_sum   'Tb3 Y13 Al2 Cd2 Pd4'
_cell_volume   643.79430929
_cell_formula_units_Z   1
loop_
 _symmetry_equiv_pos_site_id
 _symmetry_equiv_pos_as_xyz
  1  'x, y, z'
loop_
 _atom_site_type_symbol
 _atom_site_label
 _atom_site_symmetry_multiplicity
 _atom_site_fract_x
 _atom_site_fract_y
 _atom_site_fract_z
 _atom_site_occupancy
  Tb  Tb0  1  0.354658  0.354704  0.351989  1
  Tb  Tb1  1  0.354658  0.354704  0.938651  1
  Tb  Tb2  1  0.357561  0.933169  0.354635  1
  Y  Y3  1  0.931495  0.358330  0.355088  1
  Y  Y4  1  0.808695  0.192805  0.190144  1
  Y  Y5  1  0.192835  0.808709  0.808316  1
  Y  Y6  1  0.192835  0.808709  0.190142  1
  Y  Y7  1  0.808695  0.192805  0.808357  1
  Y  Y8  1  0.189418  0.189248  0.810667  1
  Y  Y9  1  0.806236  0.806295  0.193734  1
  Y  Y10  1  0.932722  0.565663  0.565644  1
  Y  Y11  1  0.565435  0.932807  0.936190  1
  Y  Y12  1  0.565435  0.932807  0.565568  1
  Y  Y13  1  0.932722  0.565663  0.935971  1
  Y  Y14  1  0.565976  0.566283  0.933871  1
  Y  Y15  1  0.936587  0.936388  0.563513  1
  Al  Al16  1  0.582015  0.581548  0.579478  1
  Al  Al17  1  0.582015  0.581548  0.256959  1
  Cd  Cd18  1  0.581344  0.258283  0.580187  1
  Cd  Cd19  1  0.258246  0.581152  0.580302  1
  Pd  Pd20  1  0.145336  0.144426  0.146046  1
  Pd  Pd21  1  0.145336  0.144426  0.564191  1
  Pd  Pd22  1  0.143630  0.566345  0.145012  1
  Pd  Pd23  1  0.566119  0.143186  0.145347  1
