# generated using pymatgen
data_Tm2Co9Tc(AsP2)2
_symmetry_space_group_name_H-M   'P 1'
_cell_length_a   3.70346100
_cell_length_b   10.46987500
_cell_length_c   11.85561900
_cell_angle_alpha   90.00000000
_cell_angle_beta   90.00000000
_cell_angle_gamma   90.00000000
_symmetry_Int_Tables_number   1
_chemical_formula_structural   Tm2Co9Tc(AsP2)2
_chemical_formula_sum   'Tm4 Co18 Tc2 As4 P8'
_cell_volume   459.69894424
_cell_formula_units_Z   2
loop_
 _symmetry_equiv_pos_site_id
 _symmetry_equiv_pos_as_xyz
  1  'x, y, z'
loop_
 _atom_site_type_symbol
 _atom_site_label
 _atom_site_symmetry_multiplicity
 _atom_site_fract_x
 _atom_site_fract_y
 _atom_site_fract_z
 _atom_site_occupancy
  Tm  Tm0  1  0.250000  0.585329  0.702228  1
  Tm  Tm1  1  0.250000  0.914671  0.202228  1
  Tm  Tm2  1  0.750000  0.423575  0.299488  1
  Tm  Tm3  1  0.750000  0.076425  0.799488  1
  Co  Co4  1  0.750000  0.278432  0.011164  1
  Co  Co5  1  0.750000  0.221568  0.511164  1
  Co  Co6  1  0.250000  0.415955  0.490308  1
  Co  Co7  1  0.250000  0.084045  0.990308  1
  Co  Co8  1  0.750000  0.595071  0.512203  1
  Co  Co9  1  0.750000  0.904929  0.012203  1
  Co  Co10  1  0.250000  0.208512  0.174153  1
  Co  Co11  1  0.250000  0.291488  0.674153  1
  Co  Co12  1  0.750000  0.778057  0.823234  1
  Co  Co13  1  0.750000  0.721943  0.323234  1
  Co  Co14  1  0.250000  0.881268  0.702886  1
  Co  Co15  1  0.250000  0.618732  0.202886  1
  Co  Co16  1  0.750000  0.106657  0.297143  1
  Co  Co17  1  0.750000  0.393343  0.797143  1
  Co  Co18  1  0.250000  0.474349  0.927878  1
  Co  Co19  1  0.250000  0.025651  0.427878  1
  Co  Co20  1  0.750000  0.539436  0.066904  1
  Co  Co21  1  0.750000  0.960564  0.566904  1
  Tc  Tc22  1  0.250000  0.711726  0.990331  1
  Tc  Tc23  1  0.250000  0.788274  0.490331  1
  As  As24  1  0.250000  0.413111  0.113492  1
  As  As25  1  0.250000  0.086889  0.613492  1
  As  As26  1  0.250000  0.267520  0.870190  1
  As  As27  1  0.250000  0.232480  0.370190  1
  P  P28  1  0.750000  0.582002  0.885147  1
  P  P29  1  0.750000  0.917998  0.385147  1
  P  P30  1  0.750000  0.731039  0.134119  1
  P  P31  1  0.750000  0.768961  0.634119  1
  P  P32  1  0.250000  0.598923  0.391037  1
  P  P33  1  0.250000  0.901077  0.891037  1
  P  P34  1  0.750000  0.403726  0.608097  1
  P  P35  1  0.750000  0.096274  0.108097  1
