# generated using pymatgen
data_Er9Tm(Ir2Rh)2
_symmetry_space_group_name_H-M   'P 1'
_cell_length_a   10.76822800
_cell_length_b   10.76822800
_cell_length_c   6.33362100
_cell_angle_alpha   90.00000000
_cell_angle_beta   90.00000000
_cell_angle_gamma   90.00000000
_symmetry_Int_Tables_number   1
_chemical_formula_structural   Er9Tm(Ir2Rh)2
_chemical_formula_sum   'Er18 Tm2 Ir8 Rh4'
_cell_volume   734.41333996
_cell_formula_units_Z   2
loop_
 _symmetry_equiv_pos_site_id
 _symmetry_equiv_pos_as_xyz
  1  'x, y, z'
loop_
 _atom_site_type_symbol
 _atom_site_label
 _atom_site_symmetry_multiplicity
 _atom_site_fract_x
 _atom_site_fract_y
 _atom_site_fract_z
 _atom_site_occupancy
  Er  Er0  1  0.290449  0.088390  0.377988  1
  Er  Er1  1  0.290449  0.911610  0.877988  1
  Er  Er2  1  0.709551  0.088390  0.877988  1
  Er  Er3  1  0.709551  0.911610  0.377988  1
  Er  Er4  1  0.588328  0.790316  0.878026  1
  Er  Er5  1  0.588328  0.209684  0.378026  1
  Er  Er6  1  0.411672  0.790316  0.378026  1
  Er  Er7  1  0.411672  0.209684  0.878026  1
  Er  Er8  1  0.209684  0.411672  0.621974  1
  Er  Er9  1  0.209684  0.588328  0.121974  1
  Er  Er10  1  0.790316  0.411672  0.121974  1
  Er  Er11  1  0.790316  0.588328  0.621974  1
  Er  Er12  1  0.911610  0.709551  0.122012  1
  Er  Er13  1  0.911610  0.290449  0.622012  1
  Er  Er14  1  0.088390  0.709551  0.622012  1
  Er  Er15  1  0.088390  0.290449  0.122012  1
  Er  Er16  1  0.000000  0.000000  0.500000  1
  Er  Er17  1  0.000000  0.000000  0.000000  1
  Tm  Tm18  1  0.500000  0.500000  0.000000  1
  Tm  Tm19  1  0.500000  0.500000  0.500000  1
  Ir  Ir20  1  0.845889  0.154111  0.250000  1
  Ir  Ir21  1  0.845889  0.845889  0.750000  1
  Ir  Ir22  1  0.154111  0.154111  0.750000  1
  Ir  Ir23  1  0.154111  0.845889  0.250000  1
  Ir  Ir24  1  0.653819  0.346181  0.750000  1
  Ir  Ir25  1  0.653819  0.653819  0.250000  1
  Ir  Ir26  1  0.346181  0.346181  0.250000  1
  Ir  Ir27  1  0.346181  0.653819  0.750000  1
  Rh  Rh28  1  0.500000  0.000000  0.122996  1
  Rh  Rh29  1  0.500000  0.000000  0.622996  1
  Rh  Rh30  1  0.000000  0.500000  0.877004  1
  Rh  Rh31  1  0.000000  0.500000  0.377004  1
