# generated using pymatgen
data_HoZn2CdNi2
_symmetry_space_group_name_H-M   'P 1'
_cell_length_a   5.19947797
_cell_length_b   5.08320486
_cell_length_c   5.08320540
_cell_angle_alpha   60.45757996
_cell_angle_beta   59.24040707
_cell_angle_gamma   59.24040688
_symmetry_Int_Tables_number   1
_chemical_formula_structural   HoZn2CdNi2
_chemical_formula_sum   'Ho1 Zn2 Cd1 Ni2'
_cell_volume   94.20645292
_cell_formula_units_Z   1
loop_
 _symmetry_equiv_pos_site_id
 _symmetry_equiv_pos_as_xyz
  1  'x, y, z'
loop_
 _atom_site_type_symbol
 _atom_site_label
 _atom_site_symmetry_multiplicity
 _atom_site_fract_x
 _atom_site_fract_y
 _atom_site_fract_z
 _atom_site_occupancy
  Ho  Ho0  1  0.242386  0.257614  0.257614  1
  Zn  Zn1  1  0.627684  0.622766  0.121867  1
  Zn  Zn2  1  0.627684  0.121867  0.622766  1
  Cd  Cd3  1  0.001228  0.998772  0.998772  1
  Ni  Ni4  1  0.124090  0.624491  0.624491  1
  Ni  Ni5  1  0.626928  0.624491  0.624491  1
