# generated using pymatgen
data_As6PdRu
_symmetry_space_group_name_H-M   'P 1'
_cell_length_a   7.49119372
_cell_length_b   7.49119379
_cell_length_c   8.64384427
_cell_angle_alpha   54.66789584
_cell_angle_beta   54.66789570
_cell_angle_gamma   70.51680920
_symmetry_Int_Tables_number   1
_chemical_formula_structural   As6PdRu
_chemical_formula_sum   'As12 Pd2 Ru2'
_cell_volume   322.84238117
_cell_formula_units_Z   2
loop_
 _symmetry_equiv_pos_site_id
 _symmetry_equiv_pos_as_xyz
  1  'x, y, z'
loop_
 _atom_site_type_symbol
 _atom_site_label
 _atom_site_symmetry_multiplicity
 _atom_site_fract_x
 _atom_site_fract_y
 _atom_site_fract_z
 _atom_site_occupancy
  As  As0  1  0.148319  0.148319  0.194334  1
  As  As1  1  0.851681  0.851681  0.805666  1
  As  As2  1  0.855927  0.855927  0.499942  1
  As  As3  1  0.144073  0.144073  0.500058  1
  As  As4  1  0.796656  0.503580  0.344824  1
  As  As5  1  0.203344  0.496420  0.655176  1
  As  As6  1  0.503580  0.796656  0.344824  1
  As  As7  1  0.496420  0.203344  0.655176  1
  As  As8  1  0.645304  0.344457  0.859110  1
  As  As9  1  0.354696  0.655543  0.140890  1
  As  As10  1  0.655543  0.354696  0.140890  1
  As  As11  1  0.344457  0.645304  0.859110  1
  Pd  Pd12  1  0.000000  0.500000  0.500000  1
  Pd  Pd13  1  0.500000  0.000000  0.500000  1
  Ru  Ru14  1  0.000000  0.500000  0.000000  1
  Ru  Ru15  1  0.500000  0.000000  0.000000  1
