# generated using pymatgen
data_Ho5P12Ir11Os8
_symmetry_space_group_name_H-M   'P 1'
_cell_length_a   12.63888100
_cell_length_b   12.59620936
_cell_length_c   3.99970000
_cell_angle_alpha   90.00000000
_cell_angle_beta   90.00000000
_cell_angle_gamma   120.02440176
_symmetry_Int_Tables_number   1
_chemical_formula_structural   Ho5P12Ir11Os8
_chemical_formula_sum   'Ho5 P12 Ir11 Os8'
_cell_volume   551.31486747
_cell_formula_units_Z   1
loop_
 _symmetry_equiv_pos_site_id
 _symmetry_equiv_pos_as_xyz
  1  'x, y, z'
loop_
 _atom_site_type_symbol
 _atom_site_label
 _atom_site_symmetry_multiplicity
 _atom_site_fract_x
 _atom_site_fract_y
 _atom_site_fract_z
 _atom_site_occupancy
  Ho  Ho0  1  0.666403  0.330908  0.000000  1
  Ho  Ho1  1  0.335315  0.669406  0.000000  1
  Ho  Ho2  1  0.812562  0.000472  0.500000  1
  Ho  Ho3  1  0.183890  0.185515  0.500000  1
  Ho  Ho4  1  0.999199  0.814392  0.500000  1
  P  P5  1  0.636141  0.998642  0.000000  1
  P  P6  1  0.361164  0.361176  0.000000  1
  P  P7  1  0.000259  0.638128  0.000000  1
  P  P8  1  0.689778  0.515926  0.500000  1
  P  P9  1  0.827066  0.306137  0.500000  1
  P  P10  1  0.316240  0.831954  0.500000  1
  P  P11  1  0.518115  0.691479  0.500000  1
  P  P12  1  0.177730  0.000162  0.000000  1
  P  P13  1  0.820667  0.820508  0.000000  1
  P  P14  1  0.996166  0.179366  0.000000  1
  P  P15  1  0.480604  0.169838  0.500000  1
  P  P16  1  0.173017  0.484192  0.500000  1
  Ir  Ir17  1  0.625956  0.804418  0.000000  1
  Ir  Ir18  1  0.183147  0.376789  0.000000  1
  Ir  Ir19  1  0.374264  0.180994  0.000000  1
  Ir  Ir20  1  0.191636  0.819081  0.000000  1
  Ir  Ir21  1  0.805264  0.622444  0.000000  1
  Ir  Ir22  1  0.870627  0.505642  0.500000  1
  Ir  Ir23  1  0.492688  0.361095  0.500000  1
  Ir  Ir24  1  0.635215  0.130204  0.500000  1
  Ir  Ir25  1  0.133574  0.641011  0.500000  1
  Ir  Ir26  1  0.363289  0.493088  0.500000  1
  Ir  Ir27  1  0.999093  0.000523  0.000000  1
  Os  Os28  1  0.510521  0.870810  0.500000  1
  Os  Os29  1  0.708917  0.707182  0.500000  1
  Os  Os30  1  0.002574  0.292910  0.500000  1
  Os  Os31  1  0.452408  0.999470  0.000000  1
  Os  Os32  1  0.545524  0.543672  0.000000  1
  Os  Os33  1  0.003322  0.456318  0.000000  1
  Os  Os34  1  0.818647  0.196678  0.000000  1
  Os  Os35  1  0.289014  0.999465  0.500000  1
