# generated using pymatgen
data_Dy6Zn21Ru2Se
_symmetry_space_group_name_H-M   'P 1'
_cell_length_a   9.04181749
_cell_length_b   9.04181868
_cell_length_c   8.92653200
_cell_angle_alpha   60.42089063
_cell_angle_beta   60.42088634
_cell_angle_gamma   59.15822102
_symmetry_Int_Tables_number   1
_chemical_formula_structural   Dy6Zn21Ru2Se
_chemical_formula_sum   'Dy6 Zn21 Ru2 Se1'
_cell_volume   515.86947932
_cell_formula_units_Z   1
loop_
 _symmetry_equiv_pos_site_id
 _symmetry_equiv_pos_as_xyz
  1  'x, y, z'
loop_
 _atom_site_type_symbol
 _atom_site_label
 _atom_site_symmetry_multiplicity
 _atom_site_fract_x
 _atom_site_fract_y
 _atom_site_fract_z
 _atom_site_occupancy
  Dy  Dy0  1  0.721234  0.278766  0.278766  1
  Dy  Dy1  1  0.721234  0.278766  0.721234  1
  Dy  Dy2  1  0.722718  0.722718  0.277282  1
  Dy  Dy3  1  0.278766  0.721234  0.721234  1
  Dy  Dy4  1  0.278766  0.721234  0.278766  1
  Dy  Dy5  1  0.277282  0.277282  0.722718  1
  Zn  Zn6  1  0.622878  0.129241  0.123941  1
  Zn  Zn7  1  0.129241  0.622878  0.123941  1
  Zn  Zn8  1  0.123941  0.123941  0.622878  1
  Zn  Zn9  1  0.123941  0.123941  0.129241  1
  Zn  Zn10  1  0.377122  0.870759  0.876059  1
  Zn  Zn11  1  0.870759  0.377122  0.876059  1
  Zn  Zn12  1  0.876059  0.876059  0.377122  1
  Zn  Zn13  1  0.876059  0.876059  0.870759  1
  Zn  Zn14  1  0.500000  0.000000  0.000000  1
  Zn  Zn15  1  0.500000  0.000000  0.500000  1
  Zn  Zn16  1  0.000000  0.500000  0.500000  1
  Zn  Zn17  1  0.000000  0.500000  0.000000  1
  Zn  Zn18  1  0.000000  0.000000  0.000000  1
  Zn  Zn19  1  0.005847  0.328432  0.332860  1
  Zn  Zn20  1  0.328432  0.005847  0.332860  1
  Zn  Zn21  1  0.332860  0.332860  0.005847  1
  Zn  Zn22  1  0.332860  0.332860  0.328432  1
  Zn  Zn23  1  0.994153  0.671568  0.667140  1
  Zn  Zn24  1  0.671568  0.994153  0.667140  1
  Zn  Zn25  1  0.667140  0.667140  0.994153  1
  Zn  Zn26  1  0.667140  0.667140  0.671568  1
  Ru  Ru27  1  0.500000  0.500000  0.000000  1
  Ru  Ru28  1  0.000000  0.000000  0.500000  1
  Se  Se29  1  0.500000  0.500000  0.500000  1
