# generated using pymatgen
data_Ba4DyNpU2O12
_symmetry_space_group_name_H-M   'P 1'
_cell_length_a   6.19059639
_cell_length_b   6.21303298
_cell_length_c   8.72963100
_cell_angle_alpha   90.06480209
_cell_angle_beta   89.97958282
_cell_angle_gamma   89.99700754
_symmetry_Int_Tables_number   1
_chemical_formula_structural   Ba4DyNpU2O12
_chemical_formula_sum   'Ba4 Dy1 Np1 U2 O12'
_cell_volume   335.76214450
_cell_formula_units_Z   1
loop_
 _symmetry_equiv_pos_site_id
 _symmetry_equiv_pos_as_xyz
  1  'x, y, z'
loop_
 _atom_site_type_symbol
 _atom_site_label
 _atom_site_symmetry_multiplicity
 _atom_site_fract_x
 _atom_site_fract_y
 _atom_site_fract_z
 _atom_site_occupancy
  Ba  Ba0  1  0.012587  0.993957  0.754457  1
  Ba  Ba1  1  0.486167  0.493493  0.245373  1
  Ba  Ba2  1  0.513833  0.506507  0.754627  1
  Ba  Ba3  1  0.987414  0.006043  0.245543  1
  Dy  Dy4  1  0.000000  0.500000  0.000000  1
  Np  Np5  1  0.500000  0.000000  0.500000  1
  U  U6  1  0.000000  0.500000  0.500000  1
  U  U7  1  0.500000  0.000000  0.000000  1
  O  O8  1  0.238820  0.228314  0.038030  1
  O  O9  1  0.509237  0.928497  0.246086  1
  O  O10  1  0.736448  0.273947  0.459386  1
  O  O11  1  0.728118  0.260577  0.037026  1
  O  O12  1  0.773590  0.762397  0.540074  1
  O  O13  1  0.009344  0.570645  0.256753  1
  O  O14  1  0.226410  0.237603  0.459926  1
  O  O15  1  0.271882  0.739423  0.962974  1
  O  O16  1  0.263552  0.726053  0.540614  1
  O  O17  1  0.490763  0.071503  0.753914  1
  O  O18  1  0.761180  0.771686  0.961970  1
  O  O19  1  0.990656  0.429355  0.743247  1
