# generated using pymatgen
data_Hf6Co17CuP12
_symmetry_space_group_name_H-M   'P 1'
_cell_length_a   3.61037900
_cell_length_b   10.29990800
_cell_length_c   11.85908500
_cell_angle_alpha   90.00000000
_cell_angle_beta   90.00000000
_cell_angle_gamma   90.00000000
_symmetry_Int_Tables_number   1
_chemical_formula_structural   Hf6Co17CuP12
_chemical_formula_sum   'Hf6 Co17 Cu1 P12'
_cell_volume   440.99871281
_cell_formula_units_Z   1
loop_
 _symmetry_equiv_pos_site_id
 _symmetry_equiv_pos_as_xyz
  1  'x, y, z'
loop_
 _atom_site_type_symbol
 _atom_site_label
 _atom_site_symmetry_multiplicity
 _atom_site_fract_x
 _atom_site_fract_y
 _atom_site_fract_z
 _atom_site_occupancy
  Hf  Hf0  1  0.750000  0.250000  0.473119  1
  Hf  Hf1  1  0.250000  0.750000  0.527755  1
  Hf  Hf2  1  0.250000  0.926046  0.791848  1
  Hf  Hf3  1  0.250000  0.573954  0.791848  1
  Hf  Hf4  1  0.750000  0.071208  0.207480  1
  Hf  Hf5  1  0.750000  0.428792  0.207480  1
  Co  Co6  1  0.750000  0.750000  0.165683  1
  Co  Co7  1  0.250000  0.250000  0.295849  1
  Co  Co8  1  0.750000  0.750000  0.703589  1
  Co  Co9  1  0.750000  0.250000  0.010008  1
  Co  Co10  1  0.250000  0.750000  0.988707  1
  Co  Co11  1  0.250000  0.419026  0.004972  1
  Co  Co12  1  0.250000  0.080974  0.004972  1
  Co  Co13  1  0.750000  0.584573  0.997012  1
  Co  Co14  1  0.750000  0.915427  0.997012  1
  Co  Co15  1  0.250000  0.451350  0.565790  1
  Co  Co16  1  0.250000  0.048650  0.565790  1
  Co  Co17  1  0.750000  0.550359  0.432042  1
  Co  Co18  1  0.750000  0.949641  0.432042  1
  Co  Co19  1  0.250000  0.874184  0.293553  1
  Co  Co20  1  0.250000  0.625816  0.293553  1
  Co  Co21  1  0.750000  0.122491  0.706925  1
  Co  Co22  1  0.750000  0.377509  0.706925  1
  Cu  Cu23  1  0.250000  0.250000  0.836856  1
  P  P24  1  0.250000  0.250000  0.119282  1
  P  P25  1  0.750000  0.750000  0.880268  1
  P  P26  1  0.250000  0.250000  0.644387  1
  P  P27  1  0.750000  0.750000  0.353413  1
  P  P28  1  0.250000  0.432487  0.381879  1
  P  P29  1  0.250000  0.067513  0.381879  1
  P  P30  1  0.750000  0.567572  0.616947  1
  P  P31  1  0.750000  0.932428  0.616947  1
  P  P32  1  0.250000  0.906123  0.112661  1
  P  P33  1  0.250000  0.593877  0.112661  1
  P  P34  1  0.750000  0.087881  0.889433  1
  P  P35  1  0.750000  0.412119  0.889433  1
