# generated using pymatgen
data_U4V3Sb12Mo
_symmetry_space_group_name_H-M   'P 1'
_cell_length_a   6.02183514
_cell_length_b   6.32438558
_cell_length_c   12.41771400
_cell_angle_alpha   90.00000000
_cell_angle_beta   90.00000000
_cell_angle_gamma   90.31858406
_symmetry_Int_Tables_number   1
_chemical_formula_structural   U4V3Sb12Mo
_chemical_formula_sum   'U4 V3 Sb12 Mo1'
_cell_volume   472.91396737
_cell_formula_units_Z   1
loop_
 _symmetry_equiv_pos_site_id
 _symmetry_equiv_pos_as_xyz
  1  'x, y, z'
loop_
 _atom_site_type_symbol
 _atom_site_label
 _atom_site_symmetry_multiplicity
 _atom_site_fract_x
 _atom_site_fract_y
 _atom_site_fract_z
 _atom_site_occupancy
  U  U0  1  0.248511  0.493388  0.305466  1
  U  U1  1  0.755420  0.510813  0.695585  1
  U  U2  1  0.244580  0.989187  0.695585  1
  U  U3  1  0.751489  0.006612  0.305466  1
  V  V4  1  0.000000  0.250000  0.110200  1
  V  V5  1  0.500000  0.250000  0.110065  1
  V  V6  1  0.500000  0.750000  0.889288  1
  Sb  Sb7  1  0.000000  0.750000  0.498932  1
  Sb  Sb8  1  0.000000  0.250000  0.501503  1
  Sb  Sb9  1  0.500000  0.250000  0.500851  1
  Sb  Sb10  1  0.500000  0.750000  0.500247  1
  Sb  Sb11  1  0.252827  0.600971  0.062209  1
  Sb  Sb12  1  0.748271  0.395412  0.939231  1
  Sb  Sb13  1  0.251729  0.104588  0.939231  1
  Sb  Sb14  1  0.747173  0.899029  0.062209  1
  Sb  Sb15  1  0.249184  0.986972  0.235787  1
  Sb  Sb16  1  0.745279  0.019142  0.762306  1
  Sb  Sb17  1  0.254721  0.480858  0.762306  1
  Sb  Sb18  1  0.750816  0.513028  0.235787  1
  Mo  Mo19  1  0.000000  0.750000  0.887745  1
