# generated using pymatgen
data_Ac2Tb2ErSi4
_symmetry_space_group_name_H-M   'P 1'
_cell_length_a   8.01018800
_cell_length_b   8.01018800
_cell_length_c   14.96405500
_cell_angle_alpha   90.00000000
_cell_angle_beta   90.00000000
_cell_angle_gamma   90.00000000
_symmetry_Int_Tables_number   1
_chemical_formula_structural   Ac2Tb2ErSi4
_chemical_formula_sum   'Ac8 Tb8 Er4 Si16'
_cell_volume   960.14033388
_cell_formula_units_Z   4
loop_
 _symmetry_equiv_pos_site_id
 _symmetry_equiv_pos_as_xyz
  1  'x, y, z'
loop_
 _atom_site_type_symbol
 _atom_site_label
 _atom_site_symmetry_multiplicity
 _atom_site_fract_x
 _atom_site_fract_y
 _atom_site_fract_z
 _atom_site_occupancy
  Ac  Ac0  1  0.988019  0.637547  0.043539  1
  Ac  Ac1  1  0.011981  0.362453  0.543539  1
  Ac  Ac2  1  0.637547  0.988019  0.956461  1
  Ac  Ac3  1  0.137547  0.511981  0.793539  1
  Ac  Ac4  1  0.862453  0.488019  0.293539  1
  Ac  Ac5  1  0.511981  0.137547  0.206461  1
  Ac  Ac6  1  0.488019  0.862453  0.706461  1
  Ac  Ac7  1  0.362453  0.011981  0.456461  1
  Tb  Tb8  1  0.364427  0.491306  0.374165  1
  Tb  Tb9  1  0.864427  0.008694  0.375835  1
  Tb  Tb10  1  0.991306  0.135573  0.124165  1
  Tb  Tb11  1  0.008694  0.864427  0.624165  1
  Tb  Tb12  1  0.635573  0.508694  0.874165  1
  Tb  Tb13  1  0.491306  0.364427  0.625835  1
  Tb  Tb14  1  0.508694  0.635573  0.125835  1
  Tb  Tb15  1  0.135573  0.991306  0.875835  1
  Er  Er16  1  0.684948  0.684948  0.500000  1
  Er  Er17  1  0.815052  0.184948  0.750000  1
  Er  Er18  1  0.184948  0.815052  0.250000  1
  Er  Er19  1  0.315052  0.315052  0.000000  1
  Si  Si20  1  0.069783  0.716162  0.436872  1
  Si  Si21  1  0.930217  0.283838  0.936872  1
  Si  Si22  1  0.716162  0.069783  0.563128  1
  Si  Si23  1  0.216163  0.430217  0.186872  1
  Si  Si24  1  0.783838  0.569783  0.686872  1
  Si  Si25  1  0.430217  0.216163  0.813128  1
  Si  Si26  1  0.569783  0.783838  0.313128  1
  Si  Si27  1  0.283838  0.930217  0.063128  1
  Si  Si28  1  0.843785  0.800494  0.803652  1
  Si  Si29  1  0.156215  0.199506  0.303652  1
  Si  Si30  1  0.800494  0.843785  0.196348  1
  Si  Si31  1  0.300494  0.656215  0.553652  1
  Si  Si32  1  0.699506  0.343785  0.053652  1
  Si  Si33  1  0.656215  0.300494  0.446348  1
  Si  Si34  1  0.343785  0.699506  0.946348  1
  Si  Si35  1  0.199506  0.156215  0.696348  1
