# generated using pymatgen
data_UIn(P2O7)2
_symmetry_space_group_name_H-M   'P 1'
_cell_length_a   8.74319557
_cell_length_b   5.19818472
_cell_length_c   7.26895940
_cell_angle_alpha   73.32847749
_cell_angle_beta   89.35858683
_cell_angle_gamma   90.18864022
_symmetry_Int_Tables_number   1
_chemical_formula_structural   UIn(P2O7)2
_chemical_formula_sum   'U1 In1 P4 O14'
_cell_volume   316.45113171
_cell_formula_units_Z   1
loop_
 _symmetry_equiv_pos_site_id
 _symmetry_equiv_pos_as_xyz
  1  'x, y, z'
loop_
 _atom_site_type_symbol
 _atom_site_label
 _atom_site_symmetry_multiplicity
 _atom_site_fract_x
 _atom_site_fract_y
 _atom_site_fract_z
 _atom_site_occupancy
  U  U0  1  0.050620  0.793223  0.726934  1
  In  In1  1  0.549618  0.209667  0.272477  1
  P  P2  1  0.373757  0.608205  0.508083  1
  P  P3  1  0.295228  0.250066  0.891742  1
  P  P4  1  0.856390  0.387438  0.483125  1
  P  P5  1  0.776061  0.754528  0.113360  1
  O  O6  1  0.159855  0.437477  0.908889  1
  O  O7  1  0.226590  0.018027  0.823029  1
  O  O8  1  0.732434  0.999754  0.172667  1
  O  O9  1  0.385981  0.147994  0.070733  1
  O  O10  1  0.979756  0.164502  0.522165  1
  O  O11  1  0.695620  0.280053  0.495279  1
  O  O12  1  0.375714  0.433252  0.374480  1
  O  O13  1  0.648781  0.573562  0.083577  1
  O  O14  1  0.486770  0.836288  0.475416  1
  O  O15  1  0.407286  0.420749  0.726089  1
  O  O16  1  0.895935  0.577157  0.272082  1
  O  O17  1  0.884159  0.558680  0.623134  1
  O  O18  1  0.205428  0.710912  0.523479  1
  O  O19  1  0.886108  0.838468  0.933260  1
