# generated using pymatgen
data_NaFe2I7
_symmetry_space_group_name_H-M   'P 1'
_cell_length_a   10.50052599
_cell_length_b   9.90315900
_cell_length_c   7.67542544
_cell_angle_alpha   75.67126761
_cell_angle_beta   47.66238807
_cell_angle_gamma   65.76557220
_symmetry_Int_Tables_number   1
_chemical_formula_structural   NaFe2I7
_chemical_formula_sum   'Na1 Fe2 I7'
_cell_volume   537.49707939
_cell_formula_units_Z   1
loop_
 _symmetry_equiv_pos_site_id
 _symmetry_equiv_pos_as_xyz
  1  'x, y, z'
loop_
 _atom_site_type_symbol
 _atom_site_label
 _atom_site_symmetry_multiplicity
 _atom_site_fract_x
 _atom_site_fract_y
 _atom_site_fract_z
 _atom_site_occupancy
  Na  Na0  1  0.743821  0.801259  0.709214  1
  Fe  Fe1  1  0.267061  0.546092  0.401917  1
  Fe  Fe2  1  0.510738  0.073414  0.444625  1
  I  I3  1  0.510336  0.065392  0.118175  1
  I  I4  1  0.091325  0.517269  0.304968  1
  I  I5  1  0.277673  0.330642  0.677582  1
  I  I6  1  0.818826  0.050246  0.299126  1
  I  I7  1  0.595144  0.525933  0.044559  1
  I  I8  1  0.393258  0.882546  0.749830  1
  I  I9  1  0.084520  0.779345  0.657145  1
