# generated using pymatgen
data_Ac12Si(OsBr4)3
_symmetry_space_group_name_H-M   'P 1'
_cell_length_a   11.23686220
_cell_length_b   11.23686282
_cell_length_c   11.23686330
_cell_angle_alpha   110.25139479
_cell_angle_beta   110.25139564
_cell_angle_gamma   110.25139391
_symmetry_Int_Tables_number   1
_chemical_formula_structural   Ac12Si(OsBr4)3
_chemical_formula_sum   'Ac12 Si1 Os3 Br12'
_cell_volume   1059.50603912
_cell_formula_units_Z   1
loop_
 _symmetry_equiv_pos_site_id
 _symmetry_equiv_pos_as_xyz
  1  'x, y, z'
loop_
 _atom_site_type_symbol
 _atom_site_label
 _atom_site_symmetry_multiplicity
 _atom_site_fract_x
 _atom_site_fract_y
 _atom_site_fract_z
 _atom_site_occupancy
  Ac  Ac0  1  0.474664  0.497511  0.231127  1
  Ac  Ac1  1  0.750000  0.231031  0.268969  1
  Ac  Ac2  1  0.750000  0.016873  0.483127  1
  Ac  Ac3  1  0.231127  0.474664  0.497511  1
  Ac  Ac4  1  0.268969  0.750000  0.231031  1
  Ac  Ac5  1  0.025336  0.268873  0.002489  1
  Ac  Ac6  1  0.002489  0.025336  0.268873  1
  Ac  Ac7  1  0.483127  0.750000  0.016873  1
  Ac  Ac8  1  0.497511  0.231127  0.474664  1
  Ac  Ac9  1  0.016873  0.483127  0.750000  1
  Ac  Ac10  1  0.268873  0.002489  0.025336  1
  Ac  Ac11  1  0.231031  0.268969  0.750000  1
  Si  Si12  1  0.250000  0.250000  0.250000  1
  Os  Os13  1  0.500257  0.999743  0.250000  1
  Os  Os14  1  0.999743  0.250000  0.500257  1
  Os  Os15  1  0.250000  0.500257  0.999743  1
  Br  Br16  1  0.250000  0.758164  0.741836  1
  Br  Br17  1  0.504099  0.497793  0.745590  1
  Br  Br18  1  0.995901  0.754410  0.002207  1
  Br  Br19  1  0.741836  0.250000  0.758164  1
  Br  Br20  1  0.002207  0.995901  0.754410  1
  Br  Br21  1  0.250000  0.001848  0.498152  1
  Br  Br22  1  0.745590  0.504099  0.497793  1
  Br  Br23  1  0.498152  0.250000  0.001848  1
  Br  Br24  1  0.758164  0.741836  0.250000  1
  Br  Br25  1  0.754410  0.002207  0.995901  1
  Br  Br26  1  0.001848  0.498152  0.250000  1
  Br  Br27  1  0.497793  0.745590  0.504099  1
