# generated using pymatgen
data_Yb2Ho4Si24Os5Ru3
_symmetry_space_group_name_H-M   'P 1'
_cell_length_a   10.13269483
_cell_length_b   10.13269475
_cell_length_c   8.12500692
_cell_angle_alpha   89.97560375
_cell_angle_beta   89.97560333
_cell_angle_gamma   132.60668657
_symmetry_Int_Tables_number   1
_chemical_formula_structural   Yb2Ho4Si24Os5Ru3
_chemical_formula_sum   'Yb2 Ho4 Si24 Os5 Ru3'
_cell_volume   613.99086081
_cell_formula_units_Z   1
loop_
 _symmetry_equiv_pos_site_id
 _symmetry_equiv_pos_as_xyz
  1  'x, y, z'
loop_
 _atom_site_type_symbol
 _atom_site_label
 _atom_site_symmetry_multiplicity
 _atom_site_fract_x
 _atom_site_fract_y
 _atom_site_fract_z
 _atom_site_occupancy
  Yb  Yb0  1  0.499453  0.499453  0.499924  1
  Yb  Yb1  1  0.999854  0.999854  0.999498  1
  Ho  Ho2  1  0.500696  0.000727  0.750092  1
  Ho  Ho3  1  0.999116  0.499516  0.249937  1
  Ho  Ho4  1  0.499516  0.999116  0.249937  1
  Ho  Ho5  1  0.000727  0.500696  0.750092  1
  Si  Si6  1  0.797095  0.202954  0.500158  1
  Si  Si7  1  0.297050  0.702958  0.000145  1
  Si  Si8  1  0.202954  0.797095  0.500158  1
  Si  Si9  1  0.702958  0.297050  0.000145  1
  Si  Si10  1  0.333241  0.333241  0.832983  1
  Si  Si11  1  0.666984  0.666984  0.167302  1
  Si  Si12  1  0.166057  0.166057  0.330842  1
  Si  Si13  1  0.831269  0.831269  0.666549  1
  Si  Si14  1  0.122841  0.890470  0.730510  1
  Si  Si15  1  0.109972  0.878299  0.269764  1
  Si  Si16  1  0.609262  0.377544  0.230089  1
  Si  Si17  1  0.623188  0.390952  0.770045  1
  Si  Si18  1  0.878299  0.109972  0.269764  1
  Si  Si19  1  0.890470  0.122841  0.730510  1
  Si  Si20  1  0.390952  0.623188  0.770045  1
  Si  Si21  1  0.377544  0.609262  0.230089  1
  Si  Si22  1  0.347217  0.114817  0.506760  1
  Si  Si23  1  0.885053  0.653270  0.493951  1
  Si  Si24  1  0.385612  0.153523  0.006973  1
  Si  Si25  1  0.846617  0.614858  0.993354  1
  Si  Si26  1  0.653270  0.885053  0.493951  1
  Si  Si27  1  0.114817  0.347217  0.506760  1
  Si  Si28  1  0.614858  0.846617  0.993354  1
  Si  Si29  1  0.153523  0.385612  0.006973  1
  Os  Os30  1  0.671862  0.328254  0.499841  1
  Os  Os31  1  0.171865  0.828219  0.000090  1
  Os  Os32  1  0.328254  0.671862  0.499841  1
  Os  Os33  1  0.828219  0.171865  0.000090  1
  Os  Os34  1  0.126203  0.126203  0.626136  1
  Ru  Ru35  1  0.873338  0.873338  0.373545  1
  Ru  Ru36  1  0.373664  0.373664  0.126133  1
  Ru  Ru37  1  0.626131  0.626131  0.873667  1
