# generated using pymatgen
data_Li3Co4P4Pd
_symmetry_space_group_name_H-M   'P 1'
_cell_length_a   3.60849000
_cell_length_b   6.21094283
_cell_length_c   6.43102446
_cell_angle_alpha   88.97027396
_cell_angle_beta   90.00000000
_cell_angle_gamma   90.00000000
_symmetry_Int_Tables_number   1
_chemical_formula_structural   Li3Co4P4Pd
_chemical_formula_sum   'Li3 Co4 P4 Pd1'
_cell_volume   144.10964810
_cell_formula_units_Z   1
loop_
 _symmetry_equiv_pos_site_id
 _symmetry_equiv_pos_as_xyz
  1  'x, y, z'
loop_
 _atom_site_type_symbol
 _atom_site_label
 _atom_site_symmetry_multiplicity
 _atom_site_fract_x
 _atom_site_fract_y
 _atom_site_fract_z
 _atom_site_occupancy
  Li  Li0  1  0.250000  0.981667  0.335487  1
  Li  Li1  1  0.750000  0.516152  0.837918  1
  Li  Li2  1  0.250000  0.490797  0.166545  1
  Co  Co3  1  0.250000  0.354480  0.558456  1
  Co  Co4  1  0.750000  0.635036  0.445502  1
  Co  Co5  1  0.250000  0.860068  0.938084  1
  Co  Co6  1  0.750000  0.140641  0.059974  1
  P  P7  1  0.250000  0.707555  0.628230  1
  P  P8  1  0.750000  0.286397  0.367219  1
  P  P9  1  0.250000  0.215810  0.879306  1
  P  P10  1  0.750000  0.787175  0.126978  1
  Pd  Pd11  1  0.750000  0.024221  0.656302  1
