# generated using pymatgen
data_Nd3SmGa4NiRh3
_symmetry_space_group_name_H-M   'P 1'
_cell_length_a   4.37378000
_cell_length_b   7.04811992
_cell_length_c   7.81433759
_cell_angle_alpha   90.25764748
_cell_angle_beta   90.00000000
_cell_angle_gamma   90.00000000
_symmetry_Int_Tables_number   1
_chemical_formula_structural   Nd3SmGa4NiRh3
_chemical_formula_sum   'Nd3 Sm1 Ga4 Ni1 Rh3'
_cell_volume   240.88957077
_cell_formula_units_Z   1
loop_
 _symmetry_equiv_pos_site_id
 _symmetry_equiv_pos_as_xyz
  1  'x, y, z'
loop_
 _atom_site_type_symbol
 _atom_site_label
 _atom_site_symmetry_multiplicity
 _atom_site_fract_x
 _atom_site_fract_y
 _atom_site_fract_z
 _atom_site_occupancy
  Nd  Nd0  1  0.250000  0.027691  0.812965  1
  Nd  Nd1  1  0.250000  0.527429  0.689876  1
  Nd  Nd2  1  0.750000  0.971929  0.190574  1
  Sm  Sm3  1  0.750000  0.473974  0.308642  1
  Ga  Ga4  1  0.250000  0.156482  0.427827  1
  Ga  Ga5  1  0.250000  0.658417  0.065347  1
  Ga  Ga6  1  0.750000  0.841268  0.576312  1
  Ga  Ga7  1  0.750000  0.348047  0.929366  1
  Ni  Ni8  1  0.750000  0.717658  0.892088  1
  Rh  Rh9  1  0.250000  0.773372  0.393611  1
  Rh  Rh10  1  0.250000  0.279752  0.107158  1
  Rh  Rh11  1  0.750000  0.223983  0.606234  1
