# generated using pymatgen
data_Zr6Al16CoNi5Rh
_symmetry_space_group_name_H-M   'P 1'
_cell_length_a   8.56352597
_cell_length_b   8.57891123
_cell_length_c   8.57891125
_cell_angle_alpha   59.98871335
_cell_angle_beta   60.05930295
_cell_angle_gamma   60.05930047
_symmetry_Int_Tables_number   1
_chemical_formula_structural   Zr6Al16CoNi5Rh
_chemical_formula_sum   'Zr6 Al16 Co1 Ni5 Rh1'
_cell_volume   446.01918784
_cell_formula_units_Z   1
loop_
 _symmetry_equiv_pos_site_id
 _symmetry_equiv_pos_as_xyz
  1  'x, y, z'
loop_
 _atom_site_type_symbol
 _atom_site_label
 _atom_site_symmetry_multiplicity
 _atom_site_fract_x
 _atom_site_fract_y
 _atom_site_fract_z
 _atom_site_occupancy
  Zr  Zr0  1  0.689981  0.690786  0.309214  1
  Zr  Zr1  1  0.310019  0.690786  0.309214  1
  Zr  Zr2  1  0.695324  0.304676  0.304676  1
  Zr  Zr3  1  0.310019  0.309214  0.690786  1
  Zr  Zr4  1  0.689981  0.309214  0.690786  1
  Zr  Zr5  1  0.304676  0.695324  0.695324  1
  Al  Al6  1  0.879620  0.879247  0.361512  1
  Al  Al7  1  0.879620  0.361512  0.879247  1
  Al  Al8  1  0.362173  0.881572  0.881572  1
  Al  Al9  1  0.874682  0.881572  0.881572  1
  Al  Al10  1  0.120380  0.120753  0.638488  1
  Al  Al11  1  0.120380  0.638488  0.120753  1
  Al  Al12  1  0.637827  0.118428  0.118428  1
  Al  Al13  1  0.125318  0.118428  0.118428  1
  Al  Al14  1  0.664598  0.666600  0.004205  1
  Al  Al15  1  0.664598  0.004205  0.666600  1
  Al  Al16  1  0.003678  0.665953  0.665953  1
  Al  Al17  1  0.664418  0.665953  0.665953  1
  Al  Al18  1  0.335402  0.333400  0.995795  1
  Al  Al19  1  0.335402  0.995795  0.333400  1
  Al  Al20  1  0.996322  0.334047  0.334047  1
  Al  Al21  1  0.335582  0.334047  0.334047  1
  Co  Co22  1  0.500000  0.000000  0.000000  1
  Ni  Ni23  1  0.000000  0.000000  0.500000  1
  Ni  Ni24  1  0.500000  0.000000  0.500000  1
  Ni  Ni25  1  0.000000  0.500000  0.500000  1
  Ni  Ni26  1  0.500000  0.500000  0.000000  1
  Ni  Ni27  1  0.000000  0.500000  0.000000  1
  Rh  Rh28  1  0.000000  0.000000  0.000000  1
