# generated using pymatgen
data_Ho9Tm11Pb16
_symmetry_space_group_name_H-M   'P 1'
_cell_length_a   8.16631400
_cell_length_b   8.24438061
_cell_length_c   15.54571900
_cell_angle_alpha   90.00544855
_cell_angle_beta   90.00014032
_cell_angle_gamma   90.02143279
_symmetry_Int_Tables_number   1
_chemical_formula_structural   Ho9Tm11Pb16
_chemical_formula_sum   'Ho9 Tm11 Pb16'
_cell_volume   1046.63412148
_cell_formula_units_Z   1
loop_
 _symmetry_equiv_pos_site_id
 _symmetry_equiv_pos_as_xyz
  1  'x, y, z'
loop_
 _atom_site_type_symbol
 _atom_site_label
 _atom_site_symmetry_multiplicity
 _atom_site_fract_x
 _atom_site_fract_y
 _atom_site_fract_z
 _atom_site_occupancy
  Ho  Ho0  1  0.534908  0.322905  0.900183  1
  Ho  Ho1  1  0.034909  0.177031  0.599808  1
  Ho  Ho2  1  0.465061  0.676987  0.400188  1
  Ho  Ho3  1  0.965092  0.823108  0.100036  1
  Ho  Ho4  1  0.465153  0.676879  0.099775  1
  Ho  Ho5  1  0.965100  0.822955  0.400162  1
  Ho  Ho6  1  0.534926  0.322951  0.599832  1
  Ho  Ho7  1  0.034884  0.176889  0.900108  1
  Ho  Ho8  1  0.876617  0.659116  0.879212  1
  Tm  Tm9  1  0.376511  0.840873  0.878936  1
  Tm  Tm10  1  0.876476  0.658926  0.620943  1
  Tm  Tm11  1  0.623491  0.158986  0.379025  1
  Tm  Tm12  1  0.123475  0.341128  0.120927  1
  Tm  Tm13  1  0.623370  0.159003  0.121128  1
  Tm  Tm14  1  0.123527  0.340980  0.379018  1
  Tm  Tm15  1  0.376639  0.840978  0.620943  1
  Tm  Tm16  1  0.208182  0.504558  0.749890  1
  Tm  Tm17  1  0.707852  0.995533  0.749881  1
  Tm  Tm18  1  0.791983  0.495252  0.250064  1
  Tm  Tm19  1  0.291996  0.004610  0.249991  1
  Pb  Pb20  1  0.282241  0.034158  0.042716  1
  Pb  Pb21  1  0.782379  0.465793  0.457306  1
  Pb  Pb22  1  0.717738  0.965688  0.542796  1
  Pb  Pb23  1  0.218643  0.533775  0.957272  1
  Pb  Pb24  1  0.717087  0.966895  0.957283  1
  Pb  Pb25  1  0.217535  0.534224  0.542810  1
  Pb  Pb26  1  0.282240  0.034291  0.457312  1
  Pb  Pb27  1  0.782155  0.465416  0.043220  1
  Pb  Pb28  1  0.570450  0.627477  0.749736  1
  Pb  Pb29  1  0.071193  0.872962  0.749609  1
  Pb  Pb30  1  0.429115  0.372524  0.250063  1
  Pb  Pb31  1  0.929163  0.127475  0.250035  1
  Pb  Pb32  1  0.346189  0.153061  0.749949  1
  Pb  Pb33  1  0.846083  0.346637  0.749771  1
  Pb  Pb34  1  0.653840  0.846884  0.250026  1
  Pb  Pb35  1  0.153798  0.653092  0.250047  1
