# generated using pymatgen
data_Zr8ReSiBi4
_symmetry_space_group_name_H-M   'P 1'
_cell_length_a   8.30418308
_cell_length_b   8.30352289
_cell_length_c   8.30418200
_cell_angle_alpha   95.90685940
_cell_angle_beta   95.89814074
_cell_angle_gamma   142.59853844
_symmetry_Int_Tables_number   1
_chemical_formula_structural   Zr8ReSiBi4
_chemical_formula_sum   'Zr8 Re1 Si1 Bi4'
_cell_volume   329.42419987
_cell_formula_units_Z   1
loop_
 _symmetry_equiv_pos_site_id
 _symmetry_equiv_pos_as_xyz
  1  'x, y, z'
loop_
 _atom_site_type_symbol
 _atom_site_label
 _atom_site_symmetry_multiplicity
 _atom_site_fract_x
 _atom_site_fract_y
 _atom_site_fract_z
 _atom_site_occupancy
  Zr  Zr0  1  0.084624  0.201790  0.286517  1
  Zr  Zr1  1  0.915312  0.798093  0.713475  1
  Zr  Zr2  1  0.798136  0.084622  0.882803  1
  Zr  Zr3  1  0.415382  0.701907  0.117220  1
  Zr  Zr4  1  0.201787  0.915327  0.117187  1
  Zr  Zr5  1  0.584726  0.298210  0.882833  1
  Zr  Zr6  1  0.701859  0.584673  0.286460  1
  Zr  Zr7  1  0.298182  0.415378  0.713515  1
  Re  Re8  1  0.749996  0.750000  0.999996  1
  Si  Si9  1  0.249986  0.250000  0.999986  1
  Bi  Bi10  1  0.138704  0.638691  0.777377  1
  Bi  Bi11  1  0.861344  0.361335  0.222611  1
  Bi  Bi12  1  0.361276  0.138665  0.500009  1
  Bi  Bi13  1  0.638686  0.861309  0.500011  1
