# generated using pymatgen
data_Zr4In(Re3Tc)6
_symmetry_space_group_name_H-M   'P 1'
_cell_length_a   8.48776591
_cell_length_b   8.48776539
_cell_length_c   8.46870101
_cell_angle_alpha   109.46689887
_cell_angle_beta   109.46690189
_cell_angle_gamma   109.57087032
_symmetry_Int_Tables_number   1
_chemical_formula_structural   Zr4In(Re3Tc)6
_chemical_formula_sum   'Zr4 In1 Re18 Tc6'
_cell_volume   469.12930506
_cell_formula_units_Z   1
loop_
 _symmetry_equiv_pos_site_id
 _symmetry_equiv_pos_as_xyz
  1  'x, y, z'
loop_
 _atom_site_type_symbol
 _atom_site_label
 _atom_site_symmetry_multiplicity
 _atom_site_fract_x
 _atom_site_fract_y
 _atom_site_fract_z
 _atom_site_occupancy
  Zr  Zr0  1  0.629260  0.999753  0.000000  1
  Zr  Zr1  1  0.999753  0.629260  0.000000  1
  Zr  Zr2  1  0.999672  0.999672  0.631086  1
  Zr  Zr3  1  0.368585  0.368585  0.368914  1
  In  In4  1  0.999278  0.999278  0.000000  1
  Re  Re5  1  0.325202  0.325202  0.720520  1
  Re  Re6  1  0.001023  0.674965  0.394624  1
  Re  Re7  1  0.674965  0.001023  0.394624  1
  Re  Re8  1  0.604681  0.604681  0.279480  1
  Re  Re9  1  0.280341  0.606399  0.605376  1
  Re  Re10  1  0.606399  0.280341  0.605376  1
  Re  Re11  1  0.376876  0.195268  0.000000  1
  Re  Re12  1  0.181118  0.805602  0.804851  1
  Re  Re13  1  0.376268  0.000752  0.195149  1
  Re  Re14  1  0.195268  0.376876  0.000000  1
  Re  Re15  1  0.000752  0.376268  0.195149  1
  Re  Re16  1  0.805602  0.181118  0.804851  1
  Re  Re17  1  0.806337  0.806337  0.183098  1
  Re  Re18  1  0.000785  0.194538  0.378190  1
  Re  Re19  1  0.194538  0.000785  0.378190  1
  Re  Re20  1  0.623239  0.623239  0.816902  1
  Re  Re21  1  0.816347  0.622595  0.621810  1
  Re  Re22  1  0.622595  0.816347  0.621810  1
  Tc  Tc23  1  0.394402  0.676189  0.000000  1
  Tc  Tc24  1  0.719298  0.324335  0.323372  1
  Tc  Tc25  1  0.395926  0.000963  0.676628  1
  Tc  Tc26  1  0.676189  0.394402  0.000000  1
  Tc  Tc27  1  0.000963  0.395926  0.676628  1
  Tc  Tc28  1  0.324335  0.719298  0.323372  1
