# generated using pymatgen
data_PrTm3(Ir2O7)2
_symmetry_space_group_name_H-M   'P 1'
_cell_length_a   7.28013545
_cell_length_b   7.20953764
_cell_length_c   7.20953700
_cell_angle_alpha   60.00000752
_cell_angle_beta   60.32027710
_cell_angle_gamma   60.32027931
_symmetry_Int_Tables_number   1
_chemical_formula_structural   PrTm3(Ir2O7)2
_chemical_formula_sum   'Pr1 Tm3 Ir4 O14'
_cell_volume   268.85914925
_cell_formula_units_Z   1
loop_
 _symmetry_equiv_pos_site_id
 _symmetry_equiv_pos_as_xyz
  1  'x, y, z'
loop_
 _atom_site_type_symbol
 _atom_site_label
 _atom_site_symmetry_multiplicity
 _atom_site_fract_x
 _atom_site_fract_y
 _atom_site_fract_z
 _atom_site_occupancy
  Pr  Pr0  1  0.625000  0.125000  0.125000  1
  Tm  Tm1  1  0.125000  0.625000  0.125000  1
  Tm  Tm2  1  0.125000  0.125000  0.625000  1
  Tm  Tm3  1  0.125000  0.125000  0.125000  1
  Ir  Ir4  1  0.125000  0.625000  0.625000  1
  Ir  Ir5  1  0.625000  0.125000  0.625000  1
  Ir  Ir6  1  0.625000  0.625000  0.125000  1
  Ir  Ir7  1  0.625000  0.625000  0.625000  1
  O  O8  1  0.724109  0.700569  0.287661  1
  O  O9  1  0.286340  0.287622  0.713018  1
  O  O10  1  0.724109  0.287661  0.700569  1
  O  O11  1  0.286340  0.713018  0.287622  1
  O  O12  1  0.286340  0.713018  0.713018  1
  O  O13  1  0.724109  0.287661  0.287661  1
  O  O14  1  0.525891  0.549431  0.962339  1
  O  O15  1  0.963660  0.962378  0.536982  1
  O  O16  1  0.525891  0.962339  0.549431  1
  O  O17  1  0.963660  0.536982  0.962378  1
  O  O18  1  0.963660  0.536982  0.536982  1
  O  O19  1  0.525891  0.962339  0.962339  1
  O  O20  1  0.234977  0.255008  0.255008  1
  O  O21  1  0.015023  0.994992  0.994992  1
