# generated using pymatgen
data_KBa3H13Pt
_symmetry_space_group_name_H-M   'P 1'
_cell_length_a   7.99536036
_cell_length_b   7.99536230
_cell_length_c   5.98404614
_cell_angle_alpha   90.00003411
_cell_angle_beta   90.00003532
_cell_angle_gamma   134.81068471
_symmetry_Int_Tables_number   1
_chemical_formula_structural   KBa3H13Pt
_chemical_formula_sum   'K1 Ba3 H13 Pt1'
_cell_volume   271.38533797
_cell_formula_units_Z   1
loop_
 _symmetry_equiv_pos_site_id
 _symmetry_equiv_pos_as_xyz
  1  'x, y, z'
loop_
 _atom_site_type_symbol
 _atom_site_label
 _atom_site_symmetry_multiplicity
 _atom_site_fract_x
 _atom_site_fract_y
 _atom_site_fract_z
 _atom_site_occupancy
  K  K0  1  0.855446  0.144554  0.500000  1
  Ba  Ba1  1  0.341091  0.658909  0.000000  1
  Ba  Ba2  1  0.647826  0.352174  0.000000  1
  Ba  Ba3  1  0.151534  0.848466  0.500000  1
  H  H4  1  0.958369  0.041631  0.000000  1
  H  H5  1  0.995979  0.492322  0.247156  1
  H  H6  1  0.507678  0.004021  0.752844  1
  H  H7  1  0.995966  0.492310  0.752831  1
  H  H8  1  0.507690  0.004034  0.247169  1
  H  H9  1  0.124466  0.875534  0.000000  1
  H  H10  1  0.614380  0.385620  0.500000  1
  H  H11  1  0.906639  0.093361  0.000000  1
  H  H12  1  0.389628  0.610372  0.500000  1
  H  H13  1  0.691743  0.690848  0.304867  1
  H  H14  1  0.309152  0.308257  0.695133  1
  H  H15  1  0.691424  0.690538  0.695448  1
  H  H16  1  0.309462  0.308576  0.304552  1
  Pt  Pt17  1  0.501526  0.498474  0.500000  1
