# generated using pymatgen
data_Dy10Ho6InAg3Rh4
_symmetry_space_group_name_H-M   'P 1'
_cell_length_a   9.55684792
_cell_length_b   9.53442464
_cell_length_c   9.56447528
_cell_angle_alpha   59.95460556
_cell_angle_beta   60.04315038
_cell_angle_gamma   59.91264446
_symmetry_Int_Tables_number   1
_chemical_formula_structural   Dy10Ho6InAg3Rh4
_chemical_formula_sum   'Dy10 Ho6 In1 Ag3 Rh4'
_cell_volume   615.82866995
_cell_formula_units_Z   1
loop_
 _symmetry_equiv_pos_site_id
 _symmetry_equiv_pos_as_xyz
  1  'x, y, z'
loop_
 _atom_site_type_symbol
 _atom_site_label
 _atom_site_symmetry_multiplicity
 _atom_site_fract_x
 _atom_site_fract_y
 _atom_site_fract_z
 _atom_site_occupancy
  Dy  Dy0  1  0.188526  0.182237  0.814474  1
  Dy  Dy1  1  0.601334  0.600418  0.197046  1
  Dy  Dy2  1  0.438567  0.062185  0.437185  1
  Dy  Dy3  1  0.441108  0.438892  0.059676  1
  Dy  Dy4  1  0.814888  0.182131  0.814323  1
  Dy  Dy5  1  0.186129  0.812395  0.187851  1
  Dy  Dy6  1  0.438072  0.062313  0.061262  1
  Dy  Dy7  1  0.187155  0.811748  0.813729  1
  Dy  Dy8  1  0.060299  0.438688  0.059923  1
  Dy  Dy9  1  0.813911  0.812311  0.187528  1
  Ho  Ho10  1  0.196972  0.601014  0.601202  1
  Ho  Ho11  1  0.060251  0.438099  0.441174  1
  Ho  Ho12  1  0.061979  0.062278  0.437117  1
  Ho  Ho13  1  0.814757  0.182101  0.188683  1
  Ho  Ho14  1  0.601638  0.195165  0.601892  1
  Ho  Ho15  1  0.600917  0.600730  0.601139  1
  In  In16  1  0.829772  0.511243  0.829151  1
  Ag  Ag17  1  0.832135  0.834590  0.832003  1
  Ag  Ag18  1  0.832246  0.834963  0.500716  1
  Ag  Ag19  1  0.501306  0.834501  0.832107  1
  Rh  Rh20  1  0.392122  0.821334  0.393939  1
  Rh  Rh21  1  0.391478  0.393373  0.393528  1
  Rh  Rh22  1  0.821933  0.392973  0.393610  1
  Rh  Rh23  1  0.392501  0.394320  0.820742  1
