# generated using pymatgen
data_Yb6Re2N6Cl
_symmetry_space_group_name_H-M   'P 1'
_cell_length_a   6.05029366
_cell_length_b   6.05029416
_cell_length_c   6.05029500
_cell_angle_alpha   95.38834796
_cell_angle_beta   95.38833889
_cell_angle_gamma   95.38834932
_symmetry_Int_Tables_number   1
_chemical_formula_structural   Yb6Re2N6Cl
_chemical_formula_sum   'Yb6 Re2 N6 Cl1'
_cell_volume   218.34226458
_cell_formula_units_Z   1
loop_
 _symmetry_equiv_pos_site_id
 _symmetry_equiv_pos_as_xyz
  1  'x, y, z'
loop_
 _atom_site_type_symbol
 _atom_site_label
 _atom_site_symmetry_multiplicity
 _atom_site_fract_x
 _atom_site_fract_y
 _atom_site_fract_z
 _atom_site_occupancy
  Yb  Yb0  1  0.617687  0.121314  0.780646  1
  Yb  Yb1  1  0.121314  0.780646  0.617687  1
  Yb  Yb2  1  0.780646  0.617687  0.121314  1
  Yb  Yb3  1  0.382313  0.878686  0.219354  1
  Yb  Yb4  1  0.878686  0.219354  0.382313  1
  Yb  Yb5  1  0.219354  0.382313  0.878686  1
  Re  Re6  1  0.626447  0.626447  0.626447  1
  Re  Re7  1  0.373553  0.373553  0.373553  1
  N  N8  1  0.736212  0.867010  0.470260  1
  N  N9  1  0.867010  0.470260  0.736212  1
  N  N10  1  0.470260  0.736212  0.867010  1
  N  N11  1  0.263788  0.132990  0.529740  1
  N  N12  1  0.132990  0.529740  0.263788  1
  N  N13  1  0.529740  0.263788  0.132990  1
  Cl  Cl14  1  0.000000  0.000000  0.000000  1
