# generated using pymatgen
data_Ce12NpSi5Tc6
_symmetry_space_group_name_H-M   'P 1'
_cell_length_a   7.70463200
_cell_length_b   7.70463060
_cell_length_c   9.79574700
_cell_angle_alpha   90.00000000
_cell_angle_beta   90.00000000
_cell_angle_gamma   119.99999742
_symmetry_Int_Tables_number   1
_chemical_formula_structural   Ce12NpSi5Tc6
_chemical_formula_sum   'Ce12 Np1 Si5 Tc6'
_cell_volume   503.58400122
_cell_formula_units_Z   1
loop_
 _symmetry_equiv_pos_site_id
 _symmetry_equiv_pos_as_xyz
  1  'x, y, z'
loop_
 _atom_site_type_symbol
 _atom_site_label
 _atom_site_symmetry_multiplicity
 _atom_site_fract_x
 _atom_site_fract_y
 _atom_site_fract_z
 _atom_site_occupancy
  Ce  Ce0  1  0.000000  0.588104  0.497186  1
  Ce  Ce1  1  0.588104  0.000000  0.497186  1
  Ce  Ce2  1  0.411896  0.411896  0.497186  1
  Ce  Ce3  1  0.000000  0.411191  0.003712  1
  Ce  Ce4  1  0.411191  0.000000  0.003712  1
  Ce  Ce5  1  0.588809  0.588809  0.003712  1
  Ce  Ce6  1  0.000000  0.737630  0.175363  1
  Ce  Ce7  1  0.737630  0.000000  0.175363  1
  Ce  Ce8  1  0.262370  0.262370  0.175363  1
  Ce  Ce9  1  0.000000  0.266892  0.665762  1
  Ce  Ce10  1  0.266892  0.000000  0.665762  1
  Ce  Ce11  1  0.733108  0.733108  0.665762  1
  Np  Np12  1  0.000000  0.000000  0.934283  1
  Si  Si13  1  0.666667  0.333333  0.271961  1
  Si  Si14  1  0.333333  0.666667  0.271961  1
  Si  Si15  1  0.333333  0.666667  0.776135  1
  Si  Si16  1  0.666667  0.333333  0.776135  1
  Si  Si17  1  0.000000  0.000000  0.422370  1
  Tc  Tc18  1  0.000000  0.343176  0.338491  1
  Tc  Tc19  1  0.343176  0.000000  0.338491  1
  Tc  Tc20  1  0.656824  0.656824  0.338491  1
  Tc  Tc21  1  0.000000  0.667832  0.844953  1
  Tc  Tc22  1  0.667832  0.000000  0.844953  1
  Tc  Tc23  1  0.332168  0.332168  0.844953  1
