# generated using pymatgen
data_Ba2BN2F
_symmetry_space_group_name_H-M   'P 1'
_cell_length_a   4.23904400
_cell_length_b   10.67626100
_cell_length_c   10.68803600
_cell_angle_alpha   90.00000000
_cell_angle_beta   90.00000000
_cell_angle_gamma   90.00000000
_symmetry_Int_Tables_number   1
_chemical_formula_structural   Ba2BN2F
_chemical_formula_sum   'Ba8 B4 N8 F4'
_cell_volume   483.70994301
_cell_formula_units_Z   4
loop_
 _symmetry_equiv_pos_site_id
 _symmetry_equiv_pos_as_xyz
  1  'x, y, z'
loop_
 _atom_site_type_symbol
 _atom_site_label
 _atom_site_symmetry_multiplicity
 _atom_site_fract_x
 _atom_site_fract_y
 _atom_site_fract_z
 _atom_site_occupancy
  Ba  Ba0  1  0.250000  0.677808  0.015610  1
  Ba  Ba1  1  0.750000  0.822192  0.515610  1
  Ba  Ba2  1  0.250000  0.177808  0.484390  1
  Ba  Ba3  1  0.750000  0.322192  0.984390  1
  Ba  Ba4  1  0.250000  0.529013  0.664200  1
  Ba  Ba5  1  0.750000  0.470987  0.335800  1
  Ba  Ba6  1  0.250000  0.029013  0.835800  1
  Ba  Ba7  1  0.750000  0.970987  0.164200  1
  B  B8  1  0.250000  0.724593  0.329794  1
  B  B9  1  0.750000  0.275407  0.670206  1
  B  B10  1  0.250000  0.224593  0.170206  1
  B  B11  1  0.750000  0.775407  0.829794  1
  N  N12  1  0.250000  0.644429  0.428852  1
  N  N13  1  0.750000  0.355571  0.571148  1
  N  N14  1  0.250000  0.144429  0.071148  1
  N  N15  1  0.750000  0.188890  0.761611  1
  N  N16  1  0.250000  0.311110  0.261611  1
  N  N17  1  0.750000  0.688890  0.738389  1
  N  N18  1  0.250000  0.811110  0.238389  1
  N  N19  1  0.750000  0.855571  0.928852  1
  F  F20  1  0.750000  0.549380  0.097593  1
  F  F21  1  0.750000  0.049380  0.402407  1
  F  F22  1  0.250000  0.450620  0.902407  1
  F  F23  1  0.250000  0.950620  0.597593  1
