# generated using pymatgen
data_Ca5YU2O12
_symmetry_space_group_name_H-M   'P 1'
_cell_length_a   6.81775927
_cell_length_b   6.77423333
_cell_length_c   6.79145695
_cell_angle_alpha   90.85270967
_cell_angle_beta   90.53294309
_cell_angle_gamma   90.84357218
_symmetry_Int_Tables_number   1
_chemical_formula_structural   Ca5YU2O12
_chemical_formula_sum   'Ca5 Y1 U2 O12'
_cell_volume   313.58111745
_cell_formula_units_Z   1
loop_
 _symmetry_equiv_pos_site_id
 _symmetry_equiv_pos_as_xyz
  1  'x, y, z'
loop_
 _atom_site_type_symbol
 _atom_site_label
 _atom_site_symmetry_multiplicity
 _atom_site_fract_x
 _atom_site_fract_y
 _atom_site_fract_z
 _atom_site_occupancy
  Ca  Ca0  1  0.751970  0.941920  0.444517  1
  Ca  Ca1  1  0.552539  0.247740  0.060422  1
  Ca  Ca2  1  0.248878  0.056702  0.553607  1
  Ca  Ca3  1  0.060587  0.557120  0.249581  1
  Ca  Ca4  1  0.445594  0.750852  0.941814  1
  Y  Y5  1  0.938255  0.442351  0.750338  1
  U  U6  1  0.998746  0.999198  0.998878  1
  U  U7  1  0.499090  0.500137  0.499977  1
  O  O8  1  0.291001  0.061947  0.926127  1
  O  O9  1  0.063712  0.923839  0.292061  1
  O  O10  1  0.925620  0.301677  0.058374  1
  O  O11  1  0.706846  0.936500  0.073771  1
  O  O12  1  0.934393  0.089976  0.703536  1
  O  O13  1  0.069944  0.695457  0.925401  1
  O  O14  1  0.197182  0.411076  0.548547  1
  O  O15  1  0.411458  0.541551  0.204375  1
  O  O16  1  0.459761  0.794543  0.588254  1
  O  O17  1  0.599416  0.456897  0.797253  1
  O  O18  1  0.804707  0.585440  0.470013  1
  O  O19  1  0.540300  0.205078  0.413155  1
