# generated using pymatgen
data_In(RhSe2)2
_symmetry_space_group_name_H-M   'P 1'
_cell_length_a   7.75041897
_cell_length_b   7.75041981
_cell_length_c   7.75042000
_cell_angle_alpha   60.00000772
_cell_angle_beta   60.00000415
_cell_angle_gamma   60.00000881
_symmetry_Int_Tables_number   1
_chemical_formula_structural   In(RhSe2)2
_chemical_formula_sum   'In2 Rh4 Se8'
_cell_volume   329.20067365
_cell_formula_units_Z   2
loop_
 _symmetry_equiv_pos_site_id
 _symmetry_equiv_pos_as_xyz
  1  'x, y, z'
loop_
 _atom_site_type_symbol
 _atom_site_label
 _atom_site_symmetry_multiplicity
 _atom_site_fract_x
 _atom_site_fract_y
 _atom_site_fract_z
 _atom_site_occupancy
  In  In0  1  0.249999  0.249999  0.249999  1
  In  In1  1  0.500000  0.500000  0.500000  1
  Rh  Rh2  1  0.875000  0.875000  0.375001  1
  Rh  Rh3  1  0.875001  0.375000  0.875000  1
  Rh  Rh4  1  0.375000  0.875001  0.875000  1
  Rh  Rh5  1  0.875001  0.875001  0.875001  1
  Se  Se6  1  0.645697  0.645697  0.062912  1
  Se  Se7  1  0.104303  0.104303  0.104303  1
  Se  Se8  1  0.687089  0.104304  0.104303  1
  Se  Se9  1  0.104304  0.687089  0.104303  1
  Se  Se10  1  0.645696  0.062911  0.645697  1
  Se  Se11  1  0.062911  0.645696  0.645697  1
  Se  Se12  1  0.645697  0.645697  0.645697  1
  Se  Se13  1  0.104304  0.104304  0.687089  1
