# generated using pymatgen
data_HoTmHf2(Co5P3)4
_symmetry_space_group_name_H-M   'P 1'
_cell_length_a   3.61137100
_cell_length_b   10.18503526
_cell_length_c   11.64523129
_cell_angle_alpha   90.02567041
_cell_angle_beta   90.00000000
_cell_angle_gamma   90.00000000
_symmetry_Int_Tables_number   1
_chemical_formula_structural   HoTmHf2(Co5P3)4
_chemical_formula_sum   'Ho1 Tm1 Hf2 Co20 P12'
_cell_volume   428.33416682
_cell_formula_units_Z   1
loop_
 _symmetry_equiv_pos_site_id
 _symmetry_equiv_pos_as_xyz
  1  'x, y, z'
loop_
 _atom_site_type_symbol
 _atom_site_label
 _atom_site_symmetry_multiplicity
 _atom_site_fract_x
 _atom_site_fract_y
 _atom_site_fract_z
 _atom_site_occupancy
  Ho  Ho0  1  0.750000  0.417537  0.296626  1
  Tm  Tm1  1  0.750000  0.082256  0.796805  1
  Hf  Hf2  1  0.250000  0.581496  0.701242  1
  Hf  Hf3  1  0.250000  0.918633  0.201304  1
  Co  Co4  1  0.250000  0.719745  0.993742  1
  Co  Co5  1  0.250000  0.780576  0.494278  1
  Co  Co6  1  0.750000  0.281885  0.008017  1
  Co  Co7  1  0.750000  0.217931  0.508206  1
  Co  Co8  1  0.250000  0.409959  0.490657  1
  Co  Co9  1  0.250000  0.090178  0.989625  1
  Co  Co10  1  0.750000  0.593169  0.516964  1
  Co  Co11  1  0.750000  0.907138  0.016743  1
  Co  Co12  1  0.250000  0.221470  0.177649  1
  Co  Co13  1  0.250000  0.277725  0.677997  1
  Co  Co14  1  0.750000  0.776419  0.822677  1
  Co  Co15  1  0.750000  0.723898  0.322774  1
  Co  Co16  1  0.250000  0.880901  0.699352  1
  Co  Co17  1  0.250000  0.619868  0.198872  1
  Co  Co18  1  0.750000  0.112889  0.298941  1
  Co  Co19  1  0.750000  0.386540  0.798682  1
  Co  Co20  1  0.250000  0.470163  0.927750  1
  Co  Co21  1  0.250000  0.029493  0.428478  1
  Co  Co22  1  0.750000  0.535483  0.066499  1
  Co  Co23  1  0.750000  0.964865  0.567307  1
  P  P24  1  0.250000  0.419324  0.110384  1
  P  P25  1  0.250000  0.080515  0.611420  1
  P  P26  1  0.750000  0.581749  0.883676  1
  P  P27  1  0.750000  0.918194  0.384174  1
  P  P28  1  0.250000  0.268800  0.871495  1
  P  P29  1  0.250000  0.230169  0.371966  1
  P  P30  1  0.750000  0.733574  0.131672  1
  P  P31  1  0.750000  0.766673  0.631807  1
  P  P32  1  0.250000  0.601468  0.390794  1
  P  P33  1  0.250000  0.899349  0.890495  1
  P  P34  1  0.750000  0.400582  0.610477  1
  P  P35  1  0.750000  0.099384  0.110455  1
