# generated using pymatgen
data_CaSi2(AsRh3)2
_symmetry_space_group_name_H-M   'P 1'
_cell_length_a   7.19642817
_cell_length_b   7.19642800
_cell_length_c   3.76853500
_cell_angle_alpha   90.00000000
_cell_angle_beta   90.00000000
_cell_angle_gamma   120.08902899
_symmetry_Int_Tables_number   1
_chemical_formula_structural   CaSi2(AsRh3)2
_chemical_formula_sum   'Ca1 Si2 As2 Rh6'
_cell_volume   168.86780280
_cell_formula_units_Z   1
loop_
 _symmetry_equiv_pos_site_id
 _symmetry_equiv_pos_as_xyz
  1  'x, y, z'
loop_
 _atom_site_type_symbol
 _atom_site_label
 _atom_site_symmetry_multiplicity
 _atom_site_fract_x
 _atom_site_fract_y
 _atom_site_fract_z
 _atom_site_occupancy
  Ca  Ca0  1  0.997401  0.002599  0.000000  1
  Si  Si1  1  0.804847  0.195153  0.500000  1
  Si  Si2  1  0.333650  0.666350  0.000000  1
  As  As3  1  0.381971  0.189625  0.500000  1
  As  As4  1  0.810375  0.618029  0.500000  1
  Rh  Rh5  1  0.204558  0.795442  0.500000  1
  Rh  Rh6  1  0.195720  0.400534  0.500000  1
  Rh  Rh7  1  0.541722  0.067892  0.000000  1
  Rh  Rh8  1  0.932108  0.458278  0.000000  1
  Rh  Rh9  1  0.531516  0.468484  0.000000  1
  Rh  Rh10  1  0.599466  0.804280  0.500000  1
