# generated using pymatgen
data_DyHo4InSb2
_symmetry_space_group_name_H-M   'P 1'
_cell_length_a   8.95305500
_cell_length_b   8.94372404
_cell_length_c   6.45287600
_cell_angle_alpha   90.00000000
_cell_angle_beta   90.00000000
_cell_angle_gamma   119.87053518
_symmetry_Int_Tables_number   1
_chemical_formula_structural   DyHo4InSb2
_chemical_formula_sum   'Dy2 Ho8 In2 Sb4'
_cell_volume   448.06259122
_cell_formula_units_Z   2
loop_
 _symmetry_equiv_pos_site_id
 _symmetry_equiv_pos_as_xyz
  1  'x, y, z'
loop_
 _atom_site_type_symbol
 _atom_site_label
 _atom_site_symmetry_multiplicity
 _atom_site_fract_x
 _atom_site_fract_y
 _atom_site_fract_z
 _atom_site_occupancy
  Dy  Dy0  1  0.759263  0.998305  0.750000  1
  Dy  Dy1  1  0.002268  0.759972  0.750000  1
  Ho  Ho2  1  0.333745  0.667222  0.000151  1
  Ho  Ho3  1  0.662985  0.331297  0.499828  1
  Ho  Ho4  1  0.662985  0.331297  0.000172  1
  Ho  Ho5  1  0.333745  0.667222  0.499849  1
  Ho  Ho6  1  0.758508  0.760102  0.250000  1
  Ho  Ho7  1  0.002531  0.241735  0.250000  1
  Ho  Ho8  1  0.241658  0.237471  0.750000  1
  Ho  Ho9  1  0.240550  0.004236  0.250000  1
  In  In10  1  0.396092  0.998427  0.750000  1
  In  In11  1  0.395449  0.398055  0.250000  1
  Sb  Sb12  1  0.998761  0.607447  0.250000  1
  Sb  Sb13  1  0.999248  0.391425  0.750000  1
  Sb  Sb14  1  0.605718  0.605565  0.750000  1
  Sb  Sb15  1  0.606492  0.000217  0.250000  1
