# generated using pymatgen
data_Zn8CuPd3O16
_symmetry_space_group_name_H-M   'P 1'
_cell_length_a   6.10794900
_cell_length_b   6.08072835
_cell_length_c   8.56481202
_cell_angle_alpha   89.59089879
_cell_angle_beta   90.00000000
_cell_angle_gamma   90.00000000
_symmetry_Int_Tables_number   1
_chemical_formula_structural   Zn8CuPd3O16
_chemical_formula_sum   'Zn8 Cu1 Pd3 O16'
_cell_volume   318.09567879
_cell_formula_units_Z   1
loop_
 _symmetry_equiv_pos_site_id
 _symmetry_equiv_pos_as_xyz
  1  'x, y, z'
loop_
 _atom_site_type_symbol
 _atom_site_label
 _atom_site_symmetry_multiplicity
 _atom_site_fract_x
 _atom_site_fract_y
 _atom_site_fract_z
 _atom_site_occupancy
  Zn  Zn0  1  0.998165  0.242101  0.997116  1
  Zn  Zn1  1  0.998165  0.757899  0.502884  1
  Zn  Zn2  1  0.252926  0.249155  0.628954  1
  Zn  Zn3  1  0.252926  0.750845  0.871046  1
  Zn  Zn4  1  0.235917  0.000000  0.250000  1
  Zn  Zn5  1  0.765650  0.000000  0.750000  1
  Zn  Zn6  1  0.747140  0.253978  0.376198  1
  Zn  Zn7  1  0.747140  0.746022  0.123802  1
  Cu  Cu8  1  0.754970  0.500000  0.750000  1
  Pd  Pd9  1  0.247166  0.500000  0.250000  1
  Pd  Pd10  1  0.501295  0.748188  0.501410  1
  Pd  Pd11  1  0.501295  0.251812  0.998590  1
  O  O12  1  0.527261  0.737405  0.737472  1
  O  O13  1  0.527261  0.262595  0.762528  1
  O  O14  1  0.738693  0.980092  0.504771  1
  O  O15  1  0.738693  0.019908  0.995229  1
  O  O16  1  0.743129  0.519128  0.512079  1
  O  O17  1  0.743129  0.480872  0.987921  1
  O  O18  1  0.978220  0.733824  0.746429  1
  O  O19  1  0.978220  0.266176  0.753571  1
  O  O20  1  0.017580  0.739947  0.255849  1
  O  O21  1  0.017580  0.260053  0.244151  1
  O  O22  1  0.255977  0.517029  0.487613  1
  O  O23  1  0.255977  0.482971  0.012387  1
  O  O24  1  0.259419  0.978738  0.497866  1
  O  O25  1  0.259419  0.021262  0.002134  1
  O  O26  1  0.478342  0.744857  0.263334  1
  O  O27  1  0.478342  0.255143  0.236666  1
