# generated using pymatgen
data_Lu4Al2Ga3Si
_symmetry_space_group_name_H-M   'P 1'
_cell_length_a   6.86202405
_cell_length_b   6.86202463
_cell_length_c   4.31349500
_cell_angle_alpha   90.00000000
_cell_angle_beta   90.00000000
_cell_angle_gamma   90.48600813
_symmetry_Int_Tables_number   1
_chemical_formula_structural   Lu4Al2Ga3Si
_chemical_formula_sum   'Lu4 Al2 Ga3 Si1'
_cell_volume   203.10386255
_cell_formula_units_Z   1
loop_
 _symmetry_equiv_pos_site_id
 _symmetry_equiv_pos_as_xyz
  1  'x, y, z'
loop_
 _atom_site_type_symbol
 _atom_site_label
 _atom_site_symmetry_multiplicity
 _atom_site_fract_x
 _atom_site_fract_y
 _atom_site_fract_z
 _atom_site_occupancy
  Lu  Lu0  1  0.828934  0.673686  0.500000  1
  Lu  Lu1  1  0.173686  0.328934  0.500000  1
  Lu  Lu2  1  0.672806  0.172806  0.500000  1
  Lu  Lu3  1  0.325451  0.825451  0.500000  1
  Al  Al4  1  0.001276  0.997532  0.000000  1
  Al  Al5  1  0.497532  0.501276  0.000000  1
  Ga  Ga6  1  0.629222  0.870905  0.000000  1
  Ga  Ga7  1  0.370905  0.129222  0.000000  1
  Ga  Ga8  1  0.872915  0.372915  0.000000  1
  Si  Si9  1  0.127274  0.627274  0.000000  1
