# generated using pymatgen
data_Dy8ScTi7(Si4W)4
_symmetry_space_group_name_H-M   'P 1'
_cell_length_a   6.99568654
_cell_length_b   7.00180956
_cell_length_c   12.87508224
_cell_angle_alpha   89.90364597
_cell_angle_beta   89.83757984
_cell_angle_gamma   89.99438398
_symmetry_Int_Tables_number   1
_chemical_formula_structural   Dy8ScTi7(Si4W)4
_chemical_formula_sum   'Dy8 Sc1 Ti7 Si16 W4'
_cell_volume   630.64983564
_cell_formula_units_Z   1
loop_
 _symmetry_equiv_pos_site_id
 _symmetry_equiv_pos_as_xyz
  1  'x, y, z'
loop_
 _atom_site_type_symbol
 _atom_site_label
 _atom_site_symmetry_multiplicity
 _atom_site_fract_x
 _atom_site_fract_y
 _atom_site_fract_z
 _atom_site_occupancy
  Dy  Dy0  1  0.998375  0.660176  0.031297  1
  Dy  Dy1  1  0.001164  0.340905  0.534557  1
  Dy  Dy2  1  0.659181  0.999823  0.967403  1
  Dy  Dy3  1  0.159463  0.501026  0.782729  1
  Dy  Dy4  1  0.841040  0.500030  0.282389  1
  Dy  Dy5  1  0.500645  0.158594  0.215746  1
  Dy  Dy6  1  0.499904  0.841613  0.718744  1
  Dy  Dy7  1  0.341648  0.999342  0.467240  1
  Sc  Sc8  1  0.347280  0.504088  0.374184  1
  Ti  Ti9  1  0.846267  0.991651  0.376403  1
  Ti  Ti10  1  0.008628  0.152273  0.121460  1
  Ti  Ti11  1  0.989953  0.847244  0.624626  1
  Ti  Ti12  1  0.509447  0.347667  0.626394  1
  Ti  Ti13  1  0.153209  0.009898  0.876754  1
  Ti  Ti14  1  0.489351  0.654567  0.126796  1
  Ti  Ti15  1  0.653188  0.490306  0.873527  1
  Si  Si16  1  0.042516  0.710011  0.435549  1
  Si  Si17  1  0.952434  0.292143  0.934040  1
  Si  Si18  1  0.708668  0.046787  0.566389  1
  Si  Si19  1  0.206333  0.451273  0.180791  1
  Si  Si20  1  0.792033  0.547641  0.685137  1
  Si  Si21  1  0.452841  0.208309  0.815268  1
  Si  Si22  1  0.550091  0.795798  0.314462  1
  Si  Si23  1  0.291750  0.952537  0.064832  1
  Si  Si24  1  0.800563  0.870578  0.184699  1
  Si  Si25  1  0.298588  0.632241  0.569444  1
  Si  Si26  1  0.699576  0.371094  0.064758  1
  Si  Si27  1  0.636770  0.295496  0.437491  1
  Si  Si28  1  0.370683  0.699763  0.934821  1
  Si  Si29  1  0.127664  0.193337  0.312170  1
  Si  Si30  1  0.200779  0.129751  0.685521  1
  Si  Si31  1  0.870646  0.800005  0.815498  1
  W  W32  1  0.676753  0.676692  0.501705  1
  W  W33  1  0.826627  0.174440  0.750172  1
  W  W34  1  0.170750  0.827949  0.248377  1
  W  W35  1  0.325190  0.324953  0.998630  1
