# generated using pymatgen
data_Ce2ErMg2InRu2
_symmetry_space_group_name_H-M   'P 1'
_cell_length_a   8.18532592
_cell_length_b   8.18532611
_cell_length_c   4.91815631
_cell_angle_alpha   83.43246859
_cell_angle_beta   83.43246652
_cell_angle_gamma   34.55885346
_symmetry_Int_Tables_number   1
_chemical_formula_structural   Ce2ErMg2InRu2
_chemical_formula_sum   'Ce2 Er1 Mg2 In1 Ru2'
_cell_volume   185.57208406
_cell_formula_units_Z   1
loop_
 _symmetry_equiv_pos_site_id
 _symmetry_equiv_pos_as_xyz
  1  'x, y, z'
loop_
 _atom_site_type_symbol
 _atom_site_label
 _atom_site_symmetry_multiplicity
 _atom_site_fract_x
 _atom_site_fract_y
 _atom_site_fract_z
 _atom_site_occupancy
  Ce  Ce0  1  0.829924  0.829924  0.570108  1
  Ce  Ce1  1  0.170076  0.170076  0.429892  1
  Er  Er2  1  0.000000  0.000000  0.000000  1
  Mg  Mg3  1  0.371738  0.371738  0.046276  1
  Mg  Mg4  1  0.628262  0.628262  0.953724  1
  In  In5  1  0.500000  0.500000  0.500000  1
  Ru  Ru6  1  0.793117  0.793117  0.119072  1
  Ru  Ru7  1  0.206883  0.206883  0.880928  1
