# generated using pymatgen
data_Dy5YMnB14Os
_symmetry_space_group_name_H-M   'P 1'
_cell_length_a   8.06557800
_cell_length_b   8.06557834
_cell_length_c   9.32615000
_cell_angle_alpha   90.00000000
_cell_angle_beta   90.00000000
_cell_angle_gamma   155.00368603
_symmetry_Int_Tables_number   1
_chemical_formula_structural   Dy5YMnB14Os
_chemical_formula_sum   'Dy5 Y1 Mn1 B14 Os1'
_cell_volume   256.36677674
_cell_formula_units_Z   1
loop_
 _symmetry_equiv_pos_site_id
 _symmetry_equiv_pos_as_xyz
  1  'x, y, z'
loop_
 _atom_site_type_symbol
 _atom_site_label
 _atom_site_symmetry_multiplicity
 _atom_site_fract_x
 _atom_site_fract_y
 _atom_site_fract_z
 _atom_site_occupancy
  Dy  Dy0  1  0.894734  0.105266  0.442439  1
  Dy  Dy1  1  0.104648  0.895352  0.563707  1
  Dy  Dy2  1  0.894734  0.105266  0.057561  1
  Dy  Dy3  1  0.104648  0.895352  0.936293  1
  Dy  Dy4  1  0.243964  0.756036  0.250000  1
  Y  Y5  1  0.759261  0.240739  0.750000  1
  Mn  Mn6  1  0.946931  0.053069  0.750000  1
  B  B7  1  0.727088  0.272912  0.466379  1
  B  B8  1  0.272317  0.727683  0.533841  1
  B  B9  1  0.727088  0.272912  0.033621  1
  B  B10  1  0.272317  0.727683  0.966159  1
  B  B11  1  0.631796  0.368204  0.150314  1
  B  B12  1  0.370192  0.629808  0.846303  1
  B  B13  1  0.631796  0.368204  0.349686  1
  B  B14  1  0.370192  0.629808  0.653697  1
  B  B15  1  0.520544  0.479456  0.095764  1
  B  B16  1  0.478202  0.521798  0.901469  1
  B  B17  1  0.520544  0.479456  0.404236  1
  B  B18  1  0.478202  0.521798  0.598531  1
  B  B19  1  0.456956  0.543044  0.250000  1
  B  B20  1  0.539849  0.460151  0.750000  1
  Os  Os21  1  0.053992  0.946008  0.250000  1
