# generated using pymatgen
data_Pr7ThZn8(Ir3Rh)2
_symmetry_space_group_name_H-M   'P 1'
_cell_length_a   4.04486900
_cell_length_b   7.36408610
_cell_length_c   16.70287868
_cell_angle_alpha   89.62049581
_cell_angle_beta   90.00000000
_cell_angle_gamma   90.00000000
_symmetry_Int_Tables_number   1
_chemical_formula_structural   Pr7ThZn8(Ir3Rh)2
_chemical_formula_sum   'Pr7 Th1 Zn8 Ir6 Rh2'
_cell_volume   497.51378470
_cell_formula_units_Z   1
loop_
 _symmetry_equiv_pos_site_id
 _symmetry_equiv_pos_as_xyz
  1  'x, y, z'
loop_
 _atom_site_type_symbol
 _atom_site_label
 _atom_site_symmetry_multiplicity
 _atom_site_fract_x
 _atom_site_fract_y
 _atom_site_fract_z
 _atom_site_occupancy
  Pr  Pr0  1  0.750000  0.950638  0.282973  1
  Pr  Pr1  1  0.750000  0.829709  0.059800  1
  Pr  Pr2  1  0.250000  0.049465  0.717138  1
  Pr  Pr3  1  0.250000  0.167497  0.939519  1
  Pr  Pr4  1  0.250000  0.546655  0.783790  1
  Pr  Pr5  1  0.750000  0.333585  0.440486  1
  Pr  Pr6  1  0.250000  0.669855  0.561348  1
  Th  Th7  1  0.750000  0.449111  0.216496  1
  Zn  Zn8  1  0.250000  0.002652  0.440109  1
  Zn  Zn9  1  0.750000  0.500793  0.940086  1
  Zn  Zn10  1  0.750000  0.004160  0.560296  1
  Zn  Zn11  1  0.250000  0.626356  0.351165  1
  Zn  Zn12  1  0.750000  0.376216  0.650678  1
  Zn  Zn13  1  0.750000  0.878054  0.850006  1
  Zn  Zn14  1  0.250000  0.497591  0.057880  1
  Zn  Zn15  1  0.250000  0.120187  0.150496  1
  Ir  Ir16  1  0.250000  0.245706  0.565442  1
  Ir  Ir17  1  0.750000  0.258623  0.068295  1
  Ir  Ir18  1  0.250000  0.251692  0.307090  1
  Ir  Ir19  1  0.750000  0.255846  0.813362  1
  Ir  Ir20  1  0.250000  0.744114  0.933766  1
  Ir  Ir21  1  0.250000  0.724497  0.188192  1
  Rh  Rh22  1  0.750000  0.755246  0.685939  1
  Rh  Rh23  1  0.750000  0.761754  0.435650  1
