# generated using pymatgen
data_UBr35
_symmetry_space_group_name_H-M   'P 1'
_cell_length_a   15.98197694
_cell_length_b   11.40028128
_cell_length_c   10.79188300
_cell_angle_alpha   88.81408278
_cell_angle_beta   66.02770512
_cell_angle_gamma   92.31545406
_symmetry_Int_Tables_number   1
_chemical_formula_structural   UBr35
_chemical_formula_sum   'U1 Br35'
_cell_volume   1793.71352310
_cell_formula_units_Z   1
loop_
 _symmetry_equiv_pos_site_id
 _symmetry_equiv_pos_as_xyz
  1  'x, y, z'
loop_
 _atom_site_type_symbol
 _atom_site_label
 _atom_site_symmetry_multiplicity
 _atom_site_fract_x
 _atom_site_fract_y
 _atom_site_fract_z
 _atom_site_occupancy
  U  U0  1  0.242557  0.442749  0.434721  1
  Br  Br1  1  0.519287  0.266988  0.527758  1
  Br  Br2  1  0.757530  0.580771  0.572846  1
  Br  Br3  1  0.477561  0.690437  0.759666  1
  Br  Br4  1  0.054878  0.889837  0.848811  1
  Br  Br5  1  0.884073  0.155904  0.027904  1
  Br  Br6  1  0.643092  0.323875  0.295114  1
  Br  Br7  1  0.618157  0.335995  0.841190  1
  Br  Br8  1  0.335678  0.770055  0.740611  1
  Br  Br9  1  0.326712  0.570654  0.199769  1
  Br  Br10  1  0.654400  0.135588  0.801487  1
  Br  Br11  1  0.904515  0.544092  0.376261  1
  Br  Br12  1  0.061359  0.950298  0.616495  1
  Br  Br13  1  0.887088  0.112035  0.266263  1
  Br  Br14  1  0.883837  0.209434  0.803860  1
  Br  Br15  1  0.663299  0.054065  0.161074  1
  Br  Br16  1  0.030343  0.826994  0.092163  1
  Br  Br17  1  0.363199  0.991757  0.750773  1
  Br  Br18  1  0.892815  0.323610  0.326204  1
  Br  Br19  1  0.880179  0.926257  0.691394  1
  Br  Br20  1  0.882645  0.656350  0.818734  1
  Br  Br21  1  0.305080  0.018786  0.291682  1
  Br  Br22  1  0.356395  0.282363  0.302122  1
  Br  Br23  1  0.613654  0.611408  0.795758  1
  Br  Br24  1  0.121579  0.368518  0.343223  1
  Br  Br25  1  0.711954  0.905082  0.777023  1
  Br  Br26  1  0.869444  0.446778  0.819473  1
  Br  Br27  1  0.502956  0.033487  0.224477  1
  Br  Br28  1  0.165262  0.299220  0.648089  1
  Br  Br29  1  0.680579  0.772494  0.271803  1
  Br  Br30  1  0.853368  0.801367  0.186383  1
  Br  Br31  1  0.390054  0.211386  0.762787  1
  Br  Br32  1  0.365384  0.518221  0.522058  1
  Br  Br33  1  0.658951  0.547307  0.286632  1
  Br  Br34  1  0.138070  0.611535  0.560152  1
  Br  Br35  1  0.304067  0.814302  0.255244  1
