# generated using pymatgen
data_Dy2Al2IrPd
_symmetry_space_group_name_H-M   'P 1'
_cell_length_a   4.34469400
_cell_length_b   6.88128600
_cell_length_c   7.90103500
_cell_angle_alpha   90.00000000
_cell_angle_beta   90.00000000
_cell_angle_gamma   90.00000000
_symmetry_Int_Tables_number   1
_chemical_formula_structural   Dy2Al2IrPd
_chemical_formula_sum   'Dy4 Al4 Ir2 Pd2'
_cell_volume   236.21789125
_cell_formula_units_Z   2
loop_
 _symmetry_equiv_pos_site_id
 _symmetry_equiv_pos_as_xyz
  1  'x, y, z'
loop_
 _atom_site_type_symbol
 _atom_site_label
 _atom_site_symmetry_multiplicity
 _atom_site_fract_x
 _atom_site_fract_y
 _atom_site_fract_z
 _atom_site_occupancy
  Dy  Dy0  1  0.250000  0.035723  0.322567  1
  Dy  Dy1  1  0.250000  0.535723  0.177433  1
  Dy  Dy2  1  0.750000  0.972700  0.682197  1
  Dy  Dy3  1  0.750000  0.472700  0.817803  1
  Al  Al4  1  0.250000  0.138386  0.934112  1
  Al  Al5  1  0.250000  0.638386  0.565888  1
  Al  Al6  1  0.750000  0.856546  0.057303  1
  Al  Al7  1  0.750000  0.356546  0.442697  1
  Ir  Ir8  1  0.250000  0.267458  0.619076  1
  Ir  Ir9  1  0.250000  0.767458  0.880924  1
  Pd  Pd10  1  0.750000  0.729188  0.378202  1
  Pd  Pd11  1  0.750000  0.229188  0.121798  1
