# generated using pymatgen
data_Ho5MgCo17MoP12
_symmetry_space_group_name_H-M   'P 1'
_cell_length_a   12.04245969
_cell_length_b   12.03586230
_cell_length_c   3.69664200
_cell_angle_alpha   90.00000000
_cell_angle_beta   90.00000000
_cell_angle_gamma   119.72740521
_symmetry_Int_Tables_number   1
_chemical_formula_structural   Ho5MgCo17MoP12
_chemical_formula_sum   'Ho5 Mg1 Co17 Mo1 P12'
_cell_volume   465.28262522
_cell_formula_units_Z   1
loop_
 _symmetry_equiv_pos_site_id
 _symmetry_equiv_pos_as_xyz
  1  'x, y, z'
loop_
 _atom_site_type_symbol
 _atom_site_label
 _atom_site_symmetry_multiplicity
 _atom_site_fract_x
 _atom_site_fract_y
 _atom_site_fract_z
 _atom_site_occupancy
  Ho  Ho0  1  0.666138  0.336146  0.000000  1
  Ho  Ho1  1  0.332868  0.664094  0.000000  1
  Ho  Ho2  1  0.815171  0.814485  0.500000  1
  Ho  Ho3  1  0.184001  0.000129  0.500000  1
  Ho  Ho4  1  0.001181  0.190347  0.500000  1
  Mg  Mg5  1  0.560382  0.001809  0.000000  1
  Co  Co6  1  0.878795  0.362096  0.500000  1
  Co  Co7  1  0.644801  0.517095  0.500000  1
  Co  Co8  1  0.483498  0.129302  0.500000  1
  Co  Co9  1  0.353958  0.873542  0.500000  1
  Co  Co10  1  0.518716  0.641614  0.500000  1
  Co  Co11  1  0.128047  0.486244  0.500000  1
  Co  Co12  1  0.002071  0.553436  0.000000  1
  Co  Co13  1  0.804473  0.182453  0.000000  1
  Co  Co14  1  0.824434  0.622281  0.000000  1
  Co  Co15  1  0.371215  0.194934  0.000000  1
  Co  Co16  1  0.174527  0.797821  0.000000  1
  Co  Co17  1  0.624051  0.820660  0.000000  1
  Co  Co18  1  0.195818  0.375262  0.000000  1
  Co  Co19  1  0.278171  0.279806  0.500000  1
  Co  Co20  1  0.719077  0.000912  0.500000  1
  Co  Co21  1  0.999450  0.714496  0.500000  1
  Co  Co22  1  0.996914  0.996746  0.000000  1
  Mo  Mo23  1  0.444702  0.443597  0.000000  1
  P  P24  1  0.692851  0.175167  0.500000  1
  P  P25  1  0.835252  0.520424  0.500000  1
  P  P26  1  0.477386  0.312161  0.500000  1
  P  P27  1  0.166269  0.686880  0.500000  1
  P  P28  1  0.518841  0.827452  0.500000  1
  P  P29  1  0.313442  0.479166  0.500000  1
  P  P30  1  0.175833  0.177516  0.000000  1
  P  P31  1  0.820422  0.001064  0.000000  1
  P  P32  1  0.999292  0.818086  0.000000  1
  P  P33  1  0.639214  0.635763  0.000000  1
  P  P34  1  0.357097  0.997481  0.000000  1
  P  P35  1  0.001642  0.369532  0.000000  1
