# generated using pymatgen
data_Dy2HoTm(ReB6)2
_symmetry_space_group_name_H-M   'P 1'
_cell_length_a   3.66942700
_cell_length_b   9.14919506
_cell_length_c   11.53519507
_cell_angle_alpha   90.01282384
_cell_angle_beta   90.00000000
_cell_angle_gamma   90.00000000
_symmetry_Int_Tables_number   1
_chemical_formula_structural   Dy2HoTm(ReB6)2
_chemical_formula_sum   'Dy4 Ho2 Tm2 Re4 B24'
_cell_volume   387.26305871
_cell_formula_units_Z   2
loop_
 _symmetry_equiv_pos_site_id
 _symmetry_equiv_pos_as_xyz
  1  'x, y, z'
loop_
 _atom_site_type_symbol
 _atom_site_label
 _atom_site_symmetry_multiplicity
 _atom_site_fract_x
 _atom_site_fract_y
 _atom_site_fract_z
 _atom_site_occupancy
  Dy  Dy0  1  0.000000  0.323543  0.413848  1
  Dy  Dy1  1  0.000000  0.676457  0.586152  1
  Dy  Dy2  1  0.000000  0.823217  0.085977  1
  Dy  Dy3  1  0.000000  0.176783  0.914023  1
  Ho  Ho4  1  0.000000  0.943228  0.369976  1
  Ho  Ho5  1  0.000000  0.056772  0.630024  1
  Tm  Tm6  1  0.000000  0.443292  0.129784  1
  Tm  Tm7  1  0.000000  0.556708  0.870216  1
  Re  Re8  1  0.000000  0.638378  0.320088  1
  Re  Re9  1  0.000000  0.361622  0.679912  1
  Re  Re10  1  0.000000  0.139580  0.179247  1
  Re  Re11  1  0.000000  0.860420  0.820753  1
  B  B12  1  0.500000  0.553346  0.432648  1
  B  B13  1  0.500000  0.446654  0.567352  1
  B  B14  1  0.500000  0.053606  0.067204  1
  B  B15  1  0.500000  0.946394  0.932796  1
  B  B16  1  0.500000  0.749328  0.418354  1
  B  B17  1  0.500000  0.250672  0.581646  1
  B  B18  1  0.500000  0.250250  0.081541  1
  B  B19  1  0.500000  0.749750  0.918459  1
  B  B20  1  0.500000  0.792067  0.265292  1
  B  B21  1  0.500000  0.207933  0.734708  1
  B  B22  1  0.500000  0.292943  0.234379  1
  B  B23  1  0.500000  0.707057  0.765621  1
  B  B24  1  0.500000  0.630202  0.185051  1
  B  B25  1  0.500000  0.369798  0.814949  1
  B  B26  1  0.500000  0.131013  0.314413  1
  B  B27  1  0.500000  0.868987  0.685587  1
  B  B28  1  0.500000  0.982440  0.211987  1
  B  B29  1  0.500000  0.017560  0.788013  1
  B  B30  1  0.500000  0.481966  0.287475  1
  B  B31  1  0.500000  0.518034  0.712525  1
  B  B32  1  0.500000  0.598582  0.027498  1
  B  B33  1  0.500000  0.401418  0.972502  1
  B  B34  1  0.500000  0.099664  0.472247  1
  B  B35  1  0.500000  0.900336  0.527753  1
