# generated using pymatgen
data_Y2Th(HgAu)3
_symmetry_space_group_name_H-M   'P 1'
_cell_length_a   7.93871400
_cell_length_b   7.98419659
_cell_length_c   3.86447900
_cell_angle_alpha   90.00000000
_cell_angle_beta   90.00000000
_cell_angle_gamma   119.81173699
_symmetry_Int_Tables_number   1
_chemical_formula_structural   Y2Th(HgAu)3
_chemical_formula_sum   'Y2 Th1 Hg3 Au3'
_cell_volume   212.53170361
_cell_formula_units_Z   1
loop_
 _symmetry_equiv_pos_site_id
 _symmetry_equiv_pos_as_xyz
  1  'x, y, z'
loop_
 _atom_site_type_symbol
 _atom_site_label
 _atom_site_symmetry_multiplicity
 _atom_site_fract_x
 _atom_site_fract_y
 _atom_site_fract_z
 _atom_site_occupancy
  Y  Y0  1  0.000891  0.598650  0.000000  1
  Y  Y1  1  0.402242  0.401350  0.000000  1
  Th  Th2  1  0.597502  0.000000  0.000000  1
  Hg  Hg3  1  0.263398  0.000000  0.500000  1
  Hg  Hg4  1  0.008519  0.277274  0.500000  1
  Hg  Hg5  1  0.731246  0.722726  0.500000  1
  Au  Au6  1  0.334472  0.667283  0.500000  1
  Au  Au7  1  0.667190  0.332717  0.500000  1
  Au  Au8  1  0.994541  0.000000  0.000000  1
