# generated using pymatgen
data_Rb(SnS2)8
_symmetry_space_group_name_H-M   'P 1'
_cell_length_a   7.43024959
_cell_length_b   7.44347174
_cell_length_c   15.98634265
_cell_angle_alpha   89.99999944
_cell_angle_beta   90.03009964
_cell_angle_gamma   120.05886779
_symmetry_Int_Tables_number   1
_chemical_formula_structural   Rb(SnS2)8
_chemical_formula_sum   'Rb1 Sn8 S16'
_cell_volume   765.24533440
_cell_formula_units_Z   1
loop_
 _symmetry_equiv_pos_site_id
 _symmetry_equiv_pos_as_xyz
  1  'x, y, z'
loop_
 _atom_site_type_symbol
 _atom_site_label
 _atom_site_symmetry_multiplicity
 _atom_site_fract_x
 _atom_site_fract_y
 _atom_site_fract_z
 _atom_site_occupancy
  Rb  Rb0  1  0.000000  0.000000  0.000000  1
  Sn  Sn1  1  0.500857  0.499095  0.735305  1
  Sn  Sn2  1  0.499143  0.500905  0.264695  1
  Sn  Sn3  1  0.500857  0.001760  0.735305  1
  Sn  Sn4  1  0.499143  0.998240  0.264695  1
  Sn  Sn5  1  0.998234  0.499116  0.735289  1
  Sn  Sn6  1  0.001766  0.500884  0.264711  1
  Sn  Sn7  1  0.999960  0.999980  0.734749  1
  Sn  Sn8  1  0.000040  0.000020  0.265251  1
  S  S9  1  0.832508  0.664695  0.170854  1
  S  S10  1  0.832904  0.665454  0.643511  1
  S  S11  1  0.832508  0.167814  0.170854  1
  S  S12  1  0.832904  0.167452  0.643511  1
  S  S13  1  0.333178  0.666589  0.170493  1
  S  S14  1  0.333251  0.666626  0.644671  1
  S  S15  1  0.335291  0.167646  0.170820  1
  S  S16  1  0.334580  0.167291  0.643485  1
  S  S17  1  0.664709  0.832354  0.829180  1
  S  S18  1  0.665420  0.832709  0.356515  1
  S  S19  1  0.666822  0.333411  0.829507  1
  S  S20  1  0.666749  0.333374  0.355329  1
  S  S21  1  0.167492  0.832186  0.829146  1
  S  S22  1  0.167096  0.832548  0.356489  1
  S  S23  1  0.167492  0.335305  0.829146  1
  S  S24  1  0.167096  0.334546  0.356489  1
