# generated using pymatgen
data_Ca11La8YbSi16
_symmetry_space_group_name_H-M   'P 1'
_cell_length_a   7.98709904
_cell_length_b   7.98709904
_cell_length_c   14.84838004
_cell_angle_alpha   89.99379834
_cell_angle_beta   90.00620166
_cell_angle_gamma   89.99015807
_symmetry_Int_Tables_number   1
_chemical_formula_structural   Ca11La8YbSi16
_chemical_formula_sum   'Ca11 La8 Yb1 Si16'
_cell_volume   947.23383556
_cell_formula_units_Z   1
loop_
 _symmetry_equiv_pos_site_id
 _symmetry_equiv_pos_as_xyz
  1  'x, y, z'
loop_
 _atom_site_type_symbol
 _atom_site_label
 _atom_site_symmetry_multiplicity
 _atom_site_fract_x
 _atom_site_fract_y
 _atom_site_fract_z
 _atom_site_occupancy
  Ca  Ca0  1  0.371244  0.490421  0.375007  1
  Ca  Ca1  1  0.871247  0.009643  0.374982  1
  Ca  Ca2  1  0.990650  0.128887  0.124849  1
  Ca  Ca3  1  0.009643  0.871247  0.625018  1
  Ca  Ca4  1  0.628481  0.509435  0.875131  1
  Ca  Ca5  1  0.490421  0.371244  0.624993  1
  Ca  Ca6  1  0.509435  0.628481  0.124869  1
  Ca  Ca7  1  0.128887  0.990650  0.875151  1
  Ca  Ca8  1  0.687555  0.687555  0.500000  1
  Ca  Ca9  1  0.812452  0.187565  0.750023  1
  Ca  Ca10  1  0.187565  0.812452  0.249977  1
  La  La11  1  0.989955  0.621178  0.048827  1
  La  La12  1  0.010376  0.378414  0.548862  1
  La  La13  1  0.621178  0.989955  0.951173  1
  La  La14  1  0.121669  0.510093  0.799019  1
  La  La15  1  0.878514  0.489614  0.298826  1
  La  La16  1  0.510093  0.121669  0.200981  1
  La  La17  1  0.489614  0.878514  0.701174  1
  La  La18  1  0.378414  0.010376  0.451138  1
  Yb  Yb19  1  0.312548  0.312548  0.000000  1
  Si  Si20  1  0.081837  0.709312  0.441801  1
  Si  Si21  1  0.918188  0.290647  0.941885  1
  Si  Si22  1  0.709312  0.081837  0.558199  1
  Si  Si23  1  0.209418  0.417998  0.191854  1
  Si  Si24  1  0.790729  0.581888  0.691828  1
  Si  Si25  1  0.417998  0.209418  0.808146  1
  Si  Si26  1  0.581888  0.790729  0.308172  1
  Si  Si27  1  0.290647  0.918188  0.058115  1
  Si  Si28  1  0.831762  0.796532  0.806500  1
  Si  Si29  1  0.168169  0.203570  0.306465  1
  Si  Si30  1  0.796532  0.831762  0.193500  1
  Si  Si31  1  0.296544  0.668208  0.556451  1
  Si  Si32  1  0.703422  0.331837  0.056385  1
  Si  Si33  1  0.668208  0.296544  0.443549  1
  Si  Si34  1  0.331837  0.703422  0.943615  1
  Si  Si35  1  0.203570  0.168169  0.693535  1
