# generated using pymatgen
data_TbY3CdRu
_symmetry_space_group_name_H-M   'P 1'
_cell_length_a   9.65738187
_cell_length_b   9.65738167
_cell_length_c   9.65738300
_cell_angle_alpha   59.99999888
_cell_angle_beta   59.99999957
_cell_angle_gamma   59.99999902
_symmetry_Int_Tables_number   1
_chemical_formula_structural   TbY3CdRu
_chemical_formula_sum   'Tb4 Y12 Cd4 Ru4'
_cell_volume   636.88826890
_cell_formula_units_Z   4
loop_
 _symmetry_equiv_pos_site_id
 _symmetry_equiv_pos_as_xyz
  1  'x, y, z'
loop_
 _atom_site_type_symbol
 _atom_site_label
 _atom_site_symmetry_multiplicity
 _atom_site_fract_x
 _atom_site_fract_y
 _atom_site_fract_z
 _atom_site_occupancy
  Tb  Tb0  1  0.347259  0.347259  0.347259  1
  Tb  Tb1  1  0.347259  0.347259  0.958224  1
  Tb  Tb2  1  0.347259  0.958224  0.347259  1
  Tb  Tb3  1  0.958224  0.347259  0.347259  1
  Y  Y4  1  0.811283  0.188717  0.188717  1
  Y  Y5  1  0.188717  0.811283  0.811283  1
  Y  Y6  1  0.188717  0.811283  0.188717  1
  Y  Y7  1  0.811283  0.188717  0.811283  1
  Y  Y8  1  0.188717  0.188717  0.811283  1
  Y  Y9  1  0.811283  0.811283  0.188717  1
  Y  Y10  1  0.939150  0.560850  0.560850  1
  Y  Y11  1  0.560850  0.939150  0.939150  1
  Y  Y12  1  0.560850  0.939150  0.560850  1
  Y  Y13  1  0.939150  0.560850  0.939150  1
  Y  Y14  1  0.560850  0.560850  0.939150  1
  Y  Y15  1  0.939150  0.939150  0.560850  1
  Cd  Cd16  1  0.580216  0.580216  0.580216  1
  Cd  Cd17  1  0.580216  0.580216  0.259352  1
  Cd  Cd18  1  0.580216  0.259352  0.580216  1
  Cd  Cd19  1  0.259352  0.580216  0.580216  1
  Ru  Ru20  1  0.140301  0.140301  0.140301  1
  Ru  Ru21  1  0.140301  0.140301  0.579096  1
  Ru  Ru22  1  0.140301  0.579096  0.140301  1
  Ru  Ru23  1  0.579096  0.140301  0.140301  1
