# generated using pymatgen
data_YHo7(OsI4)2
_symmetry_space_group_name_H-M   'P 1'
_cell_length_a   11.15293002
_cell_length_b   11.13577187
_cell_length_c   6.17426036
_cell_angle_alpha   89.52805455
_cell_angle_beta   89.53064328
_cell_angle_gamma   88.74079928
_symmetry_Int_Tables_number   1
_chemical_formula_structural   YHo7(OsI4)2
_chemical_formula_sum   'Y1 Ho7 Os2 I8'
_cell_volume   766.58563289
_cell_formula_units_Z   1
loop_
 _symmetry_equiv_pos_site_id
 _symmetry_equiv_pos_as_xyz
  1  'x, y, z'
loop_
 _atom_site_type_symbol
 _atom_site_label
 _atom_site_symmetry_multiplicity
 _atom_site_fract_x
 _atom_site_fract_y
 _atom_site_fract_z
 _atom_site_occupancy
  Y  Y0  1  0.203400  0.915026  0.997841  1
  Ho  Ho1  1  0.799669  0.083861  0.002117  1
  Ho  Ho2  1  0.083165  0.799225  0.502269  1
  Ho  Ho3  1  0.915694  0.200725  0.497917  1
  Ho  Ho4  1  0.801043  0.920977  0.504989  1
  Ho  Ho5  1  0.198251  0.079786  0.495073  1
  Ho  Ho6  1  0.079348  0.198947  0.994988  1
  Ho  Ho7  1  0.920854  0.800939  0.004879  1
  Os  Os8  1  0.999834  0.000031  0.250099  1
  Os  Os9  1  0.999784  0.000096  0.749932  1
  I  I10  1  0.361148  0.844582  0.501342  1
  I  I11  1  0.637949  0.155830  0.498297  1
  I  I12  1  0.155005  0.637026  0.998125  1
  I  I13  1  0.844899  0.361664  0.001534  1
  I  I14  1  0.358011  0.148915  0.002318  1
  I  I15  1  0.642746  0.852077  0.998250  1
  I  I16  1  0.852030  0.642466  0.498159  1
  I  I17  1  0.147170  0.357823  0.501872  1
