# generated using pymatgen
data_Er4HfSc3(PtRh)2
_symmetry_space_group_name_H-M   'P 1'
_cell_length_a   4.56151800
_cell_length_b   6.94784042
_cell_length_c   8.36267126
_cell_angle_alpha   89.60271754
_cell_angle_beta   90.00000000
_cell_angle_gamma   90.00000000
_symmetry_Int_Tables_number   1
_chemical_formula_structural   Er4HfSc3(PtRh)2
_chemical_formula_sum   'Er4 Hf1 Sc3 Pt2 Rh2'
_cell_volume   265.02925316
_cell_formula_units_Z   1
loop_
 _symmetry_equiv_pos_site_id
 _symmetry_equiv_pos_as_xyz
  1  'x, y, z'
loop_
 _atom_site_type_symbol
 _atom_site_label
 _atom_site_symmetry_multiplicity
 _atom_site_fract_x
 _atom_site_fract_y
 _atom_site_fract_z
 _atom_site_occupancy
  Er  Er0  1  0.250000  0.982890  0.320805  1
  Er  Er1  1  0.250000  0.481990  0.174634  1
  Er  Er2  1  0.750000  0.015989  0.675316  1
  Er  Er3  1  0.750000  0.518137  0.827499  1
  Hf  Hf4  1  0.750000  0.139688  0.071021  1
  Sc  Sc5  1  0.250000  0.355279  0.574855  1
  Sc  Sc6  1  0.250000  0.860432  0.926037  1
  Sc  Sc7  1  0.750000  0.640658  0.427594  1
  Pt  Pt8  1  0.250000  0.744978  0.598943  1
  Pt  Pt9  1  0.750000  0.253587  0.395018  1
  Rh  Rh10  1  0.250000  0.243057  0.914173  1
  Rh  Rh11  1  0.750000  0.763318  0.094106  1
