# generated using pymatgen
data_Ho5TaNb2Fe3Co13P12
_symmetry_space_group_name_H-M   'P 1'
_cell_length_a   12.15467000
_cell_length_b   12.15466964
_cell_length_c   3.69001000
_cell_angle_alpha   90.00000000
_cell_angle_beta   90.00000000
_cell_angle_gamma   120.00000643
_symmetry_Int_Tables_number   1
_chemical_formula_structural   Ho5TaNb2Fe3Co13P12
_chemical_formula_sum   'Ho5 Ta1 Nb2 Fe3 Co13 P12'
_cell_volume   472.11139001
_cell_formula_units_Z   1
loop_
 _symmetry_equiv_pos_site_id
 _symmetry_equiv_pos_as_xyz
  1  'x, y, z'
loop_
 _atom_site_type_symbol
 _atom_site_label
 _atom_site_symmetry_multiplicity
 _atom_site_fract_x
 _atom_site_fract_y
 _atom_site_fract_z
 _atom_site_occupancy
  Ho  Ho0  1  0.666523  0.333198  0.000000  1
  Ho  Ho1  1  0.333442  0.666686  0.000000  1
  Ho  Ho2  1  0.816853  0.817086  0.500000  1
  Ho  Ho3  1  0.182828  0.999496  0.500000  1
  Ho  Ho4  1  0.000374  0.183252  0.500000  1
  Ta  Ta5  1  0.000139  0.558932  0.000000  1
  Nb  Nb6  1  0.441693  0.441966  0.000000  1
  Nb  Nb7  1  0.558084  0.999768  0.000000  1
  Fe  Fe8  1  0.801699  0.177224  0.000000  1
  Fe  Fe9  1  0.823245  0.624395  0.000000  1
  Fe  Fe10  1  0.375370  0.198218  0.000000  1
  Co  Co11  1  0.876048  0.357941  0.500000  1
  Co  Co12  1  0.643373  0.518568  0.500000  1
  Co  Co13  1  0.481353  0.124540  0.500000  1
  Co  Co14  1  0.355154  0.873004  0.500000  1
  Co  Co15  1  0.517817  0.644737  0.500000  1
  Co  Co16  1  0.126307  0.482640  0.500000  1
  Co  Co17  1  0.178765  0.803492  0.000000  1
  Co  Co18  1  0.624941  0.820864  0.000000  1
  Co  Co19  1  0.195927  0.375234  0.000000  1
  Co  Co20  1  0.278004  0.280114  0.500000  1
  Co  Co21  1  0.719791  0.997754  0.500000  1
  Co  Co22  1  0.002231  0.721131  0.500000  1
  Co  Co23  1  0.000030  0.000122  0.000000  1
  P  P24  1  0.691889  0.169715  0.500000  1
  P  P25  1  0.830410  0.521828  0.500000  1
  P  P26  1  0.477852  0.308198  0.500000  1
  P  P27  1  0.169450  0.689506  0.500000  1
  P  P28  1  0.520393  0.830512  0.500000  1
  P  P29  1  0.310074  0.479623  0.500000  1
  P  P30  1  0.180262  0.178869  0.000000  1
  P  P31  1  0.821239  0.001601  0.000000  1
  P  P32  1  0.998447  0.819999  0.000000  1
  P  P33  1  0.646695  0.644138  0.000000  1
  P  P34  1  0.355899  0.002599  0.000000  1
  P  P35  1  0.997399  0.353054  0.000000  1
