# generated using pymatgen
data_Nd2HoTm5Lu2(In2Pt)4
_symmetry_space_group_name_H-M   'P 1'
_cell_length_a   3.60064200
_cell_length_b   8.16282843
_cell_length_c   18.24107063
_cell_angle_alpha   89.87720720
_cell_angle_beta   90.00000000
_cell_angle_gamma   90.00000000
_symmetry_Int_Tables_number   1
_chemical_formula_structural   Nd2HoTm5Lu2(In2Pt)4
_chemical_formula_sum   'Nd2 Ho1 Tm5 Lu2 In8 Pt4'
_cell_volume   536.12978976
_cell_formula_units_Z   1
loop_
 _symmetry_equiv_pos_site_id
 _symmetry_equiv_pos_as_xyz
  1  'x, y, z'
loop_
 _atom_site_type_symbol
 _atom_site_label
 _atom_site_symmetry_multiplicity
 _atom_site_fract_x
 _atom_site_fract_y
 _atom_site_fract_z
 _atom_site_occupancy
  Nd  Nd0  1  0.000000  0.999913  0.999984  1
  Nd  Nd1  1  0.000000  0.500052  0.499973  1
  Ho  Ho2  1  0.000000  0.740937  0.282457  1
  Tm  Tm3  1  0.000000  0.379769  0.913040  1
  Tm  Tm4  1  0.000000  0.620164  0.086834  1
  Tm  Tm5  1  0.000000  0.241813  0.219734  1
  Tm  Tm6  1  0.000000  0.758093  0.780228  1
  Tm  Tm7  1  0.000000  0.258795  0.717753  1
  Lu  Lu8  1  0.000000  0.120118  0.413013  1
  Lu  Lu9  1  0.000000  0.879896  0.587029  1
  In  In10  1  0.500000  0.418977  0.348639  1
  In  In11  1  0.500000  0.579858  0.651500  1
  In  In12  1  0.500000  0.079648  0.847251  1
  In  In13  1  0.500000  0.921398  0.152240  1
  In  In14  1  0.500000  0.301112  0.066948  1
  In  In15  1  0.500000  0.698312  0.932943  1
  In  In16  1  0.500000  0.196245  0.565179  1
  In  In17  1  0.500000  0.804797  0.435825  1
  Pt  Pt18  1  0.500000  0.027474  0.304693  1
  Pt  Pt19  1  0.500000  0.974573  0.695403  1
  Pt  Pt20  1  0.500000  0.473870  0.802957  1
  Pt  Pt21  1  0.500000  0.524185  0.196378  1
