# generated using pymatgen
data_Gd7Er3Rh4
_symmetry_space_group_name_H-M   'P 1'
_cell_length_a   6.42839823
_cell_length_b   7.18859418
_cell_length_c   8.64292900
_cell_angle_alpha   96.95034970
_cell_angle_beta   111.61465574
_cell_angle_gamma   89.94955591
_symmetry_Int_Tables_number   1
_chemical_formula_structural   Gd7Er3Rh4
_chemical_formula_sum   'Gd7 Er3 Rh4'
_cell_volume   368.17275709
_cell_formula_units_Z   1
loop_
 _symmetry_equiv_pos_site_id
 _symmetry_equiv_pos_as_xyz
  1  'x, y, z'
loop_
 _atom_site_type_symbol
 _atom_site_label
 _atom_site_symmetry_multiplicity
 _atom_site_fract_x
 _atom_site_fract_y
 _atom_site_fract_z
 _atom_site_occupancy
  Gd  Gd0  1  0.792146  0.582174  0.811641  1
  Gd  Gd1  1  0.981218  0.920746  0.191243  1
  Gd  Gd2  1  0.208804  0.417467  0.189512  1
  Gd  Gd3  1  0.019241  0.081444  0.808831  1
  Gd  Gd4  1  0.209786  0.685747  0.562939  1
  Gd  Gd5  1  0.645482  0.813285  0.436781  1
  Gd  Gd6  1  0.791460  0.312921  0.436714  1
  Er  Er7  1  0.356007  0.187395  0.564869  1
  Er  Er8  1  0.423948  0.749610  0.999092  1
  Er  Er9  1  0.573951  0.249588  0.998873  1
  Rh  Rh10  1  0.591867  0.928015  0.779824  1
  Rh  Rh11  1  0.811479  0.573091  0.217805  1
  Rh  Rh12  1  0.407501  0.073271  0.222918  1
  Rh  Rh13  1  0.187114  0.425245  0.778958  1
