# generated using pymatgen
data_Tm3Co5(P3Ir2)2
_symmetry_space_group_name_H-M   'P 1'
_cell_length_a   3.76931300
_cell_length_b   10.79880900
_cell_length_c   12.48319500
_cell_angle_alpha   90.00000000
_cell_angle_beta   90.00000000
_cell_angle_gamma   90.00000000
_symmetry_Int_Tables_number   1
_chemical_formula_structural   Tm3Co5(P3Ir2)2
_chemical_formula_sum   'Tm6 Co10 P12 Ir8'
_cell_volume   508.11710710
_cell_formula_units_Z   2
loop_
 _symmetry_equiv_pos_site_id
 _symmetry_equiv_pos_as_xyz
  1  'x, y, z'
loop_
 _atom_site_type_symbol
 _atom_site_label
 _atom_site_symmetry_multiplicity
 _atom_site_fract_x
 _atom_site_fract_y
 _atom_site_fract_z
 _atom_site_occupancy
  Tm  Tm0  1  0.000000  0.500000  0.521242  1
  Tm  Tm1  1  0.500000  0.000000  0.478758  1
  Tm  Tm2  1  0.500000  0.815513  0.197247  1
  Tm  Tm3  1  0.500000  0.184487  0.197247  1
  Tm  Tm4  1  0.000000  0.684487  0.802753  1
  Tm  Tm5  1  0.000000  0.315513  0.802753  1
  Co  Co6  1  0.000000  0.500000  0.991498  1
  Co  Co7  1  0.500000  0.000000  0.008502  1
  Co  Co8  1  0.500000  0.878732  0.716572  1
  Co  Co9  1  0.500000  0.121268  0.716572  1
  Co  Co10  1  0.000000  0.621268  0.283428  1
  Co  Co11  1  0.000000  0.378732  0.283428  1
  Co  Co12  1  0.500000  0.332616  0.995317  1
  Co  Co13  1  0.500000  0.667384  0.995317  1
  Co  Co14  1  0.000000  0.167384  0.004683  1
  Co  Co15  1  0.000000  0.832616  0.004683  1
  P  P16  1  0.500000  0.310486  0.625761  1
  P  P17  1  0.500000  0.689514  0.625761  1
  P  P18  1  0.000000  0.189514  0.374239  1
  P  P19  1  0.000000  0.810486  0.374239  1
  P  P20  1  0.500000  0.500000  0.893908  1
  P  P21  1  0.000000  0.000000  0.106092  1
  P  P22  1  0.500000  0.842252  0.896513  1
  P  P23  1  0.500000  0.157748  0.896513  1
  P  P24  1  0.000000  0.657748  0.103487  1
  P  P25  1  0.000000  0.342252  0.103487  1
  P  P26  1  0.500000  0.500000  0.344919  1
  P  P27  1  0.000000  0.000000  0.655081  1
  Ir  Ir28  1  0.500000  0.299107  0.426116  1
  Ir  Ir29  1  0.500000  0.700893  0.426116  1
  Ir  Ir30  1  0.000000  0.200893  0.573884  1
  Ir  Ir31  1  0.000000  0.799107  0.573884  1
  Ir  Ir32  1  0.500000  0.500000  0.159410  1
  Ir  Ir33  1  0.000000  0.000000  0.840590  1
  Ir  Ir34  1  0.500000  0.500000  0.708885  1
  Ir  Ir35  1  0.000000  0.000000  0.291115  1
