# generated using pymatgen
data_Sm2Y4Ga17Pd5
_symmetry_space_group_name_H-M   'P 1'
_cell_length_a   8.19946663
_cell_length_b   8.19946608
_cell_length_c   15.81412314
_cell_angle_alpha   76.29336684
_cell_angle_beta   76.29336820
_cell_angle_gamma   30.44977415
_symmetry_Int_Tables_number   1
_chemical_formula_structural   Sm2Y4Ga17Pd5
_chemical_formula_sum   'Sm2 Y4 Ga17 Pd5'
_cell_volume   522.31417555
_cell_formula_units_Z   1
loop_
 _symmetry_equiv_pos_site_id
 _symmetry_equiv_pos_as_xyz
  1  'x, y, z'
loop_
 _atom_site_type_symbol
 _atom_site_label
 _atom_site_symmetry_multiplicity
 _atom_site_fract_x
 _atom_site_fract_y
 _atom_site_fract_z
 _atom_site_occupancy
  Sm  Sm0  1  0.754574  0.754574  0.750268  1
  Sm  Sm1  1  0.245426  0.245426  0.249732  1
  Y  Y2  1  0.600515  0.600515  0.597434  1
  Y  Y3  1  0.090817  0.090817  0.093717  1
  Y  Y4  1  0.909183  0.909183  0.906283  1
  Y  Y5  1  0.399485  0.399485  0.402566  1
  Ga  Ga6  1  0.821945  0.821945  0.539642  1
  Ga  Ga7  1  0.326783  0.326783  0.043413  1
  Ga  Ga8  1  0.673217  0.673217  0.956587  1
  Ga  Ga9  1  0.178055  0.178055  0.460358  1
  Ga  Ga10  1  0.546757  0.546757  0.826634  1
  Ga  Ga11  1  0.038090  0.038090  0.322718  1
  Ga  Ga12  1  0.961910  0.961910  0.677282  1
  Ga  Ga13  1  0.453243  0.453243  0.173366  1
  Ga  Ga14  1  0.269688  0.269688  0.898196  1
  Ga  Ga15  1  0.760595  0.760595  0.395211  1
  Ga  Ga16  1  0.239405  0.239405  0.604789  1
  Ga  Ga17  1  0.730312  0.730312  0.101804  1
  Ga  Ga18  1  0.401483  0.401483  0.764492  1
  Ga  Ga19  1  0.892506  0.892506  0.266193  1
  Ga  Ga20  1  0.107494  0.107494  0.733807  1
  Ga  Ga21  1  0.598517  0.598517  0.235508  1
  Ga  Ga22  1  0.000000  0.000000  0.500000  1
  Pd  Pd23  1  0.106997  0.106997  0.895995  1
  Pd  Pd24  1  0.593678  0.593678  0.403962  1
  Pd  Pd25  1  0.406322  0.406322  0.596038  1
  Pd  Pd26  1  0.893003  0.893003  0.104005  1
  Pd  Pd27  1  0.500000  0.500000  0.000000  1
