# generated using pymatgen
data_Ba4Sr8Si15Sn
_symmetry_space_group_name_H-M   'P 1'
_cell_length_a   8.42952864
_cell_length_b   8.42952836
_cell_length_c   11.35134009
_cell_angle_alpha   89.73520496
_cell_angle_beta   89.73520703
_cell_angle_gamma   89.94771103
_symmetry_Int_Tables_number   1
_chemical_formula_structural   Ba4Sr8Si15Sn
_chemical_formula_sum   'Ba4 Sr8 Si15 Sn1'
_cell_volume   806.57406531
_cell_formula_units_Z   1
loop_
 _symmetry_equiv_pos_site_id
 _symmetry_equiv_pos_as_xyz
  1  'x, y, z'
loop_
 _atom_site_type_symbol
 _atom_site_label
 _atom_site_symmetry_multiplicity
 _atom_site_fract_x
 _atom_site_fract_y
 _atom_site_fract_z
 _atom_site_occupancy
  Ba  Ba0  1  0.668420  0.668420  0.999279  1
  Ba  Ba1  1  0.833296  0.169394  0.496953  1
  Ba  Ba2  1  0.169394  0.833296  0.496953  1
  Ba  Ba3  1  0.336331  0.336331  0.004072  1
  Sr  Sr4  1  0.490836  0.009341  0.753914  1
  Sr  Sr5  1  0.500087  0.998733  0.248863  1
  Sr  Sr6  1  0.009341  0.490836  0.753914  1
  Sr  Sr7  1  0.998733  0.500087  0.248863  1
  Sr  Sr8  1  0.010248  0.010248  0.838951  1
  Sr  Sr9  1  0.496677  0.496677  0.329160  1
  Sr  Sr10  1  0.497903  0.497903  0.666708  1
  Sr  Sr11  1  0.999970  0.999970  0.168758  1
  Si  Si12  1  0.200686  0.200686  0.650850  1
  Si  Si13  1  0.796957  0.796957  0.343409  1
  Si  Si14  1  0.295795  0.704480  0.156639  1
  Si  Si15  1  0.704480  0.295795  0.156639  1
  Si  Si16  1  0.703712  0.297245  0.845402  1
  Si  Si17  1  0.297245  0.703712  0.845402  1
  Si  Si18  1  0.204984  0.204984  0.342687  1
  Si  Si19  1  0.703646  0.095813  0.000832  1
  Si  Si20  1  0.299562  0.902394  0.001100  1
  Si  Si21  1  0.095813  0.703646  0.000832  1
  Si  Si22  1  0.588218  0.791957  0.491166  1
  Si  Si23  1  0.902394  0.299562  0.001100  1
  Si  Si24  1  0.202056  0.404067  0.498381  1
  Si  Si25  1  0.791957  0.588218  0.491166  1
  Si  Si26  1  0.404067  0.202056  0.498381  1
  Sn  Sn27  1  0.797192  0.797192  0.669621  1
