# generated using pymatgen
data_Sm2FeCo16
_symmetry_space_group_name_H-M   'P 1'
_cell_length_a   6.30872670
_cell_length_b   6.30923918
_cell_length_c   6.30814449
_cell_angle_alpha   83.12072505
_cell_angle_beta   83.13033674
_cell_angle_gamma   83.14074210
_symmetry_Int_Tables_number   1
_chemical_formula_structural   Sm2FeCo16
_chemical_formula_sum   'Sm2 Fe1 Co16'
_cell_volume   246.07648646
_cell_formula_units_Z   1
loop_
 _symmetry_equiv_pos_site_id
 _symmetry_equiv_pos_as_xyz
  1  'x, y, z'
loop_
 _atom_site_type_symbol
 _atom_site_label
 _atom_site_symmetry_multiplicity
 _atom_site_fract_x
 _atom_site_fract_y
 _atom_site_fract_z
 _atom_site_occupancy
  Sm  Sm0  1  0.655755  0.655808  0.655739  1
  Sm  Sm1  1  0.346508  0.346582  0.346627  1
  Fe  Fe2  1  0.096063  0.095942  0.095997  1
  Co  Co3  1  0.712635  0.999631  0.285985  1
  Co  Co4  1  0.999627  0.286009  0.712642  1
  Co  Co5  1  0.286009  0.712711  0.999642  1
  Co  Co6  1  0.999691  0.712655  0.286027  1
  Co  Co7  1  0.712644  0.285945  0.999603  1
  Co  Co8  1  0.286036  0.999605  0.712686  1
  Co  Co9  1  0.345450  0.852022  0.345456  1
  Co  Co10  1  0.852020  0.345464  0.345504  1
  Co  Co11  1  0.345468  0.345430  0.852004  1
  Co  Co12  1  0.655656  0.149821  0.655707  1
  Co  Co13  1  0.149829  0.655683  0.655641  1
  Co  Co14  1  0.655660  0.655748  0.149841  1
  Co  Co15  1  0.998540  0.501204  0.998483  1
  Co  Co16  1  0.501140  0.998498  0.998488  1
  Co  Co17  1  0.998525  0.998472  0.501190  1
  Co  Co18  1  0.902741  0.902768  0.902737  1
