# generated using pymatgen
data_Nd4Fe(Si2Pt)5
_symmetry_space_group_name_H-M   'P 1'
_cell_length_a   8.23631636
_cell_length_b   8.23631598
_cell_length_c   8.23631708
_cell_angle_alpha   137.04021152
_cell_angle_beta   105.26365429
_cell_angle_gamma   90.28113193
_symmetry_Int_Tables_number   1
_chemical_formula_structural   Nd4Fe(Si2Pt)5
_chemical_formula_sum   'Nd4 Fe1 Si10 Pt5'
_cell_volume   350.35322683
_cell_formula_units_Z   1
loop_
 _symmetry_equiv_pos_site_id
 _symmetry_equiv_pos_as_xyz
  1  'x, y, z'
loop_
 _atom_site_type_symbol
 _atom_site_label
 _atom_site_symmetry_multiplicity
 _atom_site_fract_x
 _atom_site_fract_y
 _atom_site_fract_z
 _atom_site_occupancy
  Nd  Nd0  1  0.637550  0.871198  0.766626  1
  Nd  Nd1  1  0.362450  0.129076  0.233649  1
  Nd  Nd2  1  0.104573  0.370924  0.733374  1
  Nd  Nd3  1  0.895427  0.628802  0.266351  1
  Fe  Fe4  1  0.500000  0.250000  0.750000  1
  Si  Si5  1  0.276082  0.026082  0.750000  1
  Si  Si6  1  0.727350  0.977350  0.250000  1
  Si  Si7  1  0.723918  0.473918  0.750000  1
  Si  Si8  1  0.272650  0.522650  0.250000  1
  Si  Si9  1  0.459176  0.592293  0.839732  1
  Si  Si10  1  0.540824  0.380556  0.133117  1
  Si  Si11  1  0.752561  0.119444  0.660268  1
  Si  Si12  1  0.247439  0.907707  0.366883  1
  Si  Si13  1  0.000000  0.750000  0.750000  1
  Si  Si14  1  0.000000  0.250000  0.250000  1
  Pt  Pt15  1  0.248900  0.638528  0.612857  1
  Pt  Pt16  1  0.751100  0.363957  0.389628  1
  Pt  Pt17  1  0.025671  0.136043  0.887143  1
  Pt  Pt18  1  0.974329  0.861472  0.110372  1
  Pt  Pt19  1  0.500000  0.750000  0.250000  1
