# generated using pymatgen
data_Ta6Fe6N
_symmetry_space_group_name_H-M   'P 1'
_cell_length_a   7.90336263
_cell_length_b   7.90336304
_cell_length_c   7.90336200
_cell_angle_alpha   60.00000434
_cell_angle_beta   60.00000266
_cell_angle_gamma   59.99999863
_symmetry_Int_Tables_number   1
_chemical_formula_structural   Ta6Fe6N
_chemical_formula_sum   'Ta12 Fe12 N2'
_cell_volume   349.07659902
_cell_formula_units_Z   2
loop_
 _symmetry_equiv_pos_site_id
 _symmetry_equiv_pos_as_xyz
  1  'x, y, z'
loop_
 _atom_site_type_symbol
 _atom_site_label
 _atom_site_symmetry_multiplicity
 _atom_site_fract_x
 _atom_site_fract_y
 _atom_site_fract_z
 _atom_site_occupancy
  Ta  Ta0  1  0.302683  0.697317  0.697317  1
  Ta  Ta1  1  0.302683  0.302683  0.697317  1
  Ta  Ta2  1  0.552683  0.947317  0.552683  1
  Ta  Ta3  1  0.947317  0.552683  0.552683  1
  Ta  Ta4  1  0.552683  0.947317  0.947317  1
  Ta  Ta5  1  0.697317  0.302683  0.302683  1
  Ta  Ta6  1  0.947317  0.552683  0.947317  1
  Ta  Ta7  1  0.302683  0.697317  0.302683  1
  Ta  Ta8  1  0.552683  0.552683  0.947317  1
  Ta  Ta9  1  0.697317  0.302683  0.697317  1
  Ta  Ta10  1  0.697317  0.697317  0.302683  1
  Ta  Ta11  1  0.947317  0.947317  0.552683  1
  Fe  Fe12  1  0.921158  0.236527  0.921158  1
  Fe  Fe13  1  0.328842  0.013473  0.328842  1
  Fe  Fe14  1  0.328842  0.328842  0.328842  1
  Fe  Fe15  1  0.013473  0.328842  0.328842  1
  Fe  Fe16  1  0.921158  0.921158  0.236527  1
  Fe  Fe17  1  0.236527  0.921158  0.921158  1
  Fe  Fe18  1  0.328842  0.328842  0.013473  1
  Fe  Fe19  1  0.125000  0.125000  0.625000  1
  Fe  Fe20  1  0.921158  0.921158  0.921158  1
  Fe  Fe21  1  0.125000  0.625000  0.125000  1
  Fe  Fe22  1  0.125000  0.125000  0.125000  1
  Fe  Fe23  1  0.625000  0.125000  0.125000  1
  N  N24  1  0.750000  0.750000  0.750000  1
  N  N25  1  0.500000  0.500000  0.500000  1
