# generated using pymatgen
data_SrTb4Nd2FeI12
_symmetry_space_group_name_H-M   'P 1'
_cell_length_a   9.95386470
_cell_length_b   9.88294280
_cell_length_c   9.88874470
_cell_angle_alpha   106.23073965
_cell_angle_beta   106.09615771
_cell_angle_gamma   106.57167798
_symmetry_Int_Tables_number   1
_chemical_formula_structural   SrTb4Nd2FeI12
_chemical_formula_sum   'Sr1 Tb4 Nd2 Fe1 I12'
_cell_volume   825.12841257
_cell_formula_units_Z   1
loop_
 _symmetry_equiv_pos_site_id
 _symmetry_equiv_pos_as_xyz
  1  'x, y, z'
loop_
 _atom_site_type_symbol
 _atom_site_label
 _atom_site_symmetry_multiplicity
 _atom_site_fract_x
 _atom_site_fract_y
 _atom_site_fract_z
 _atom_site_occupancy
  Sr  Sr0  1  0.500380  0.499743  0.500105  1
  Tb  Tb1  1  0.296967  0.020620  0.093283  1
  Tb  Tb2  1  0.909865  0.717620  0.979294  1
  Tb  Tb3  1  0.979720  0.909316  0.718935  1
  Tb  Tb4  1  0.702419  0.978528  0.904220  1
  Nd  Nd5  1  0.091921  0.289418  0.020348  1
  Nd  Nd6  1  0.019579  0.090188  0.288324  1
  Fe  Fe7  1  0.999849  0.001558  0.000906  1
  I  I8  1  0.452204  0.366835  0.138821  1
  I  I9  1  0.141743  0.454194  0.373955  1
  I  I10  1  0.371985  0.135880  0.446095  1
  I  I11  1  0.555728  0.633443  0.864371  1
  I  I12  1  0.863406  0.555255  0.634783  1
  I  I13  1  0.636093  0.864158  0.554365  1
  I  I14  1  0.771012  0.316393  0.924404  1
  I  I15  1  0.923320  0.767812  0.313444  1
  I  I16  1  0.316712  0.925909  0.776178  1
  I  I17  1  0.220597  0.683882  0.072642  1
  I  I18  1  0.072378  0.217916  0.677414  1
  I  I19  1  0.674122  0.071332  0.218111  1
