# generated using pymatgen
data_Pr2AlZn16
_symmetry_space_group_name_H-M   'P 1'
_cell_length_a   6.85682770
_cell_length_b   6.85682701
_cell_length_c   6.85682788
_cell_angle_alpha   82.81448676
_cell_angle_beta   82.81448577
_cell_angle_gamma   82.81448780
_symmetry_Int_Tables_number   1
_chemical_formula_structural   Pr2AlZn16
_chemical_formula_sum   'Pr2 Al1 Zn16'
_cell_volume   315.37006399
_cell_formula_units_Z   1
loop_
 _symmetry_equiv_pos_site_id
 _symmetry_equiv_pos_as_xyz
  1  'x, y, z'
loop_
 _atom_site_type_symbol
 _atom_site_label
 _atom_site_symmetry_multiplicity
 _atom_site_fract_x
 _atom_site_fract_y
 _atom_site_fract_z
 _atom_site_occupancy
  Pr  Pr0  1  0.664687  0.664687  0.664687  1
  Pr  Pr1  1  0.335635  0.335635  0.335635  1
  Al  Al2  1  0.097901  0.097901  0.097901  1
  Zn  Zn3  1  0.706101  0.294003  0.999881  1
  Zn  Zn4  1  0.999881  0.706101  0.294003  1
  Zn  Zn5  1  0.294003  0.999881  0.706101  1
  Zn  Zn6  1  0.999881  0.294003  0.706101  1
  Zn  Zn7  1  0.706101  0.999881  0.294003  1
  Zn  Zn8  1  0.294003  0.706101  0.999881  1
  Zn  Zn9  1  0.999219  0.999219  0.502203  1
  Zn  Zn10  1  0.502203  0.999219  0.999219  1
  Zn  Zn11  1  0.999219  0.502203  0.999219  1
  Zn  Zn12  1  0.349826  0.349826  0.840657  1
  Zn  Zn13  1  0.840657  0.349826  0.349826  1
  Zn  Zn14  1  0.349826  0.840657  0.349826  1
  Zn  Zn15  1  0.651266  0.651266  0.159298  1
  Zn  Zn16  1  0.159298  0.651266  0.651266  1
  Zn  Zn17  1  0.651266  0.159298  0.651266  1
  Zn  Zn18  1  0.899027  0.899027  0.899027  1
