# generated using pymatgen
data_La3PrTi8O20
_symmetry_space_group_name_H-M   'P 1'
_cell_length_a   5.87903700
_cell_length_b   7.85485352
_cell_length_c   8.86659060
_cell_angle_alpha   89.95814410
_cell_angle_beta   90.00000000
_cell_angle_gamma   90.00000000
_symmetry_Int_Tables_number   1
_chemical_formula_structural   La3PrTi8O20
_chemical_formula_sum   'La3 Pr1 Ti8 O20'
_cell_volume   409.44995155
_cell_formula_units_Z   1
loop_
 _symmetry_equiv_pos_site_id
 _symmetry_equiv_pos_as_xyz
  1  'x, y, z'
loop_
 _atom_site_type_symbol
 _atom_site_label
 _atom_site_symmetry_multiplicity
 _atom_site_fract_x
 _atom_site_fract_y
 _atom_site_fract_z
 _atom_site_occupancy
  La  La0  1  0.000000  0.355675  0.672729  1
  La  La1  1  0.000000  0.644014  0.327210  1
  La  La2  1  0.000000  0.856118  0.827678  1
  Pr  Pr3  1  0.000000  0.143893  0.172374  1
  Ti  Ti4  1  0.500000  0.115126  0.859101  1
  Ti  Ti5  1  0.500000  0.885533  0.141293  1
  Ti  Ti6  1  0.500000  0.614827  0.640969  1
  Ti  Ti7  1  0.500000  0.384642  0.358550  1
  Ti  Ti8  1  0.255232  0.499743  0.000070  1
  Ti  Ti9  1  0.744991  0.000151  0.499910  1
  Ti  Ti10  1  0.744768  0.499743  0.000070  1
  Ti  Ti11  1  0.255009  0.000151  0.499910  1
  O  O12  1  0.257675  0.902608  0.288641  1
  O  O13  1  0.258620  0.098548  0.710565  1
  O  O14  1  0.742279  0.399664  0.210671  1
  O  O15  1  0.741381  0.598466  0.789353  1
  O  O16  1  0.741380  0.098548  0.710565  1
  O  O17  1  0.742325  0.902608  0.288641  1
  O  O18  1  0.258619  0.598466  0.789353  1
  O  O19  1  0.257721  0.399664  0.210671  1
  O  O20  1  0.500000  0.333004  0.925424  1
  O  O21  1  0.500000  0.667018  0.074728  1
  O  O22  1  0.500000  0.833094  0.574357  1
  O  O23  1  0.500000  0.167104  0.425643  1
  O  O24  1  0.281999  0.001141  0.000987  1
  O  O25  1  0.716892  0.500103  0.499952  1
  O  O26  1  0.718001  0.001141  0.000987  1
  O  O27  1  0.283108  0.500103  0.499952  1
  O  O28  1  0.000000  0.159755  0.446871  1
  O  O29  1  0.000000  0.840451  0.552045  1
  O  O30  1  0.000000  0.659294  0.052133  1
  O  O31  1  0.000000  0.339601  0.948596  1
