# generated using pymatgen
data_Er4Ni2Hg3
_symmetry_space_group_name_H-M   'P 1'
_cell_length_a   3.62499000
_cell_length_b   7.33842819
_cell_length_c   7.88716047
_cell_angle_alpha   72.13591403
_cell_angle_beta   90.00000000
_cell_angle_gamma   90.00000000
_symmetry_Int_Tables_number   1
_chemical_formula_structural   Er4Ni2Hg3
_chemical_formula_sum   'Er4 Ni2 Hg3'
_cell_volume   199.69640649
_cell_formula_units_Z   1
loop_
 _symmetry_equiv_pos_site_id
 _symmetry_equiv_pos_as_xyz
  1  'x, y, z'
loop_
 _atom_site_type_symbol
 _atom_site_label
 _atom_site_symmetry_multiplicity
 _atom_site_fract_x
 _atom_site_fract_y
 _atom_site_fract_z
 _atom_site_occupancy
  Er  Er0  1  0.500000  0.601522  0.193209  1
  Er  Er1  1  0.500000  0.398478  0.806791  1
  Er  Er2  1  0.500000  0.083393  0.278366  1
  Er  Er3  1  0.500000  0.916607  0.721634  1
  Ni  Ni4  1  0.000000  0.657293  0.896071  1
  Ni  Ni5  1  0.000000  0.342707  0.103929  1
  Hg  Hg6  1  0.000000  0.711130  0.505595  1
  Hg  Hg7  1  0.000000  0.000000  0.000000  1
  Hg  Hg8  1  0.000000  0.288870  0.494405  1
