# generated using pymatgen
data_HoAl2CuSi
_symmetry_space_group_name_H-M   'P 1'
_cell_length_a   4.03978543
_cell_length_b   4.04043699
_cell_length_c   5.98408326
_cell_angle_alpha   70.26935791
_cell_angle_beta   70.27267148
_cell_angle_gamma   89.99999241
_symmetry_Int_Tables_number   1
_chemical_formula_structural   HoAl2CuSi
_chemical_formula_sum   'Ho1 Al2 Cu1 Si1'
_cell_volume   85.82592827
_cell_formula_units_Z   1
loop_
 _symmetry_equiv_pos_site_id
 _symmetry_equiv_pos_as_xyz
  1  'x, y, z'
loop_
 _atom_site_type_symbol
 _atom_site_label
 _atom_site_symmetry_multiplicity
 _atom_site_fract_x
 _atom_site_fract_y
 _atom_site_fract_z
 _atom_site_occupancy
  Ho  Ho0  1  0.993990  0.993990  0.012021  1
  Al  Al1  1  0.745124  0.245124  0.509753  1
  Al  Al2  1  0.245225  0.745225  0.509549  1
  Cu  Cu3  1  0.615784  0.615784  0.768432  1
  Si  Si4  1  0.399877  0.399877  0.200246  1
