# generated using pymatgen
data_CaPr4Si12Rh19
_symmetry_space_group_name_H-M   'P 1'
_cell_length_a   12.91523300
_cell_length_b   12.90618309
_cell_length_c   4.01755200
_cell_angle_alpha   90.00000000
_cell_angle_beta   90.00000000
_cell_angle_gamma   120.02319591
_symmetry_Int_Tables_number   1
_chemical_formula_structural   CaPr4Si12Rh19
_chemical_formula_sum   'Ca1 Pr4 Si12 Rh19'
_cell_volume   579.81660307
_cell_formula_units_Z   1
loop_
 _symmetry_equiv_pos_site_id
 _symmetry_equiv_pos_as_xyz
  1  'x, y, z'
loop_
 _atom_site_type_symbol
 _atom_site_label
 _atom_site_symmetry_multiplicity
 _atom_site_fract_x
 _atom_site_fract_y
 _atom_site_fract_z
 _atom_site_occupancy
  Ca  Ca0  1  0.187912  0.000000  0.500000  1
  Pr  Pr1  1  0.000441  0.186213  0.500000  1
  Pr  Pr2  1  0.814229  0.813787  0.500000  1
  Pr  Pr3  1  0.666859  0.334680  0.000000  1
  Pr  Pr4  1  0.332178  0.665320  0.000000  1
  Si  Si5  1  0.474776  0.311565  0.500000  1
  Si  Si6  1  0.814638  0.000000  0.000000  1
  Si  Si7  1  0.185883  0.183083  0.000000  1
  Si  Si8  1  0.002800  0.816917  0.000000  1
  Si  Si9  1  0.373310  0.000000  0.000000  1
  Si  Si10  1  0.686793  0.163325  0.500000  1
  Si  Si11  1  0.838754  0.525839  0.500000  1
  Si  Si12  1  0.523468  0.836675  0.500000  1
  Si  Si13  1  0.163212  0.688435  0.500000  1
  Si  Si14  1  0.312915  0.474161  0.500000  1
  Si  Si15  1  0.000189  0.374335  0.000000  1
  Si  Si16  1  0.625855  0.625665  0.000000  1
  Rh  Rh17  1  0.805171  0.182439  0.000000  1
  Rh  Rh18  1  0.377111  0.192931  0.000000  1
  Rh  Rh19  1  0.638915  0.513253  0.500000  1
  Rh  Rh20  1  0.874065  0.360678  0.500000  1
  Rh  Rh21  1  0.361125  0.874939  0.500000  1
  Rh  Rh22  1  0.513387  0.639322  0.500000  1
  Rh  Rh23  1  0.125662  0.486747  0.500000  1
  Rh  Rh24  1  0.818085  0.624074  0.000000  1
  Rh  Rh25  1  0.622732  0.817561  0.000000  1
  Rh  Rh26  1  0.184180  0.807069  0.000000  1
  Rh  Rh27  1  0.194011  0.375926  0.000000  1
  Rh  Rh28  1  0.001026  0.721433  0.500000  1
  Rh  Rh29  1  0.279593  0.278567  0.500000  1
  Rh  Rh30  1  0.718438  0.000000  0.500000  1
  Rh  Rh31  1  0.998035  0.554428  0.000000  1
  Rh  Rh32  1  0.443608  0.445572  0.000000  1
  Rh  Rh33  1  0.554928  0.000000  0.000000  1
  Rh  Rh34  1  0.999531  0.000000  0.000000  1
  Rh  Rh35  1  0.486185  0.125061  0.500000  1
