# generated using pymatgen
data_Yb4Sm2Si24OsRu7
_symmetry_space_group_name_H-M   'P 1'
_cell_length_a   10.17503509
_cell_length_b   10.17503616
_cell_length_c   8.16855001
_cell_angle_alpha   90.01695094
_cell_angle_beta   90.01695504
_cell_angle_gamma   132.67303132
_symmetry_Int_Tables_number   1
_chemical_formula_structural   Yb4Sm2Si24OsRu7
_chemical_formula_sum   'Yb4 Sm2 Si24 Os1 Ru7'
_cell_volume   621.78772895
_cell_formula_units_Z   1
loop_
 _symmetry_equiv_pos_site_id
 _symmetry_equiv_pos_as_xyz
  1  'x, y, z'
loop_
 _atom_site_type_symbol
 _atom_site_label
 _atom_site_symmetry_multiplicity
 _atom_site_fract_x
 _atom_site_fract_y
 _atom_site_fract_z
 _atom_site_occupancy
  Yb  Yb0  1  0.499990  0.500010  0.500000  1
  Yb  Yb1  1  0.000005  0.999995  0.000000  1
  Yb  Yb2  1  0.501033  0.000823  0.749858  1
  Yb  Yb3  1  0.999177  0.498967  0.250142  1
  Sm  Sm4  1  0.499187  0.999251  0.249925  1
  Sm  Sm5  1  0.000749  0.500813  0.750075  1
  Si  Si6  1  0.796083  0.203917  0.500000  1
  Si  Si7  1  0.295297  0.704703  0.000000  1
  Si  Si8  1  0.204773  0.795227  0.500000  1
  Si  Si9  1  0.704353  0.295647  0.000000  1
  Si  Si10  1  0.331922  0.335714  0.832206  1
  Si  Si11  1  0.664286  0.668078  0.167794  1
  Si  Si12  1  0.168121  0.163953  0.331826  1
  Si  Si13  1  0.836047  0.831879  0.668174  1
  Si  Si14  1  0.123129  0.890680  0.730666  1
  Si  Si15  1  0.109320  0.876871  0.269334  1
  Si  Si16  1  0.608721  0.376678  0.229237  1
  Si  Si17  1  0.623322  0.391279  0.770763  1
  Si  Si18  1  0.876308  0.108300  0.269209  1
  Si  Si19  1  0.891700  0.123692  0.730791  1
  Si  Si20  1  0.391443  0.624051  0.769637  1
  Si  Si21  1  0.375949  0.608557  0.230363  1
  Si  Si22  1  0.346001  0.113318  0.506769  1
  Si  Si23  1  0.886682  0.653999  0.493231  1
  Si  Si24  1  0.385964  0.153299  0.007625  1
  Si  Si25  1  0.846701  0.614036  0.992375  1
  Si  Si26  1  0.653012  0.885434  0.491426  1
  Si  Si27  1  0.114566  0.346988  0.508574  1
  Si  Si28  1  0.613619  0.846912  0.993296  1
  Si  Si29  1  0.153088  0.386381  0.006704  1
  Os  Os30  1  0.670698  0.329302  0.500000  1
  Ru  Ru31  1  0.170201  0.829799  0.000000  1
  Ru  Ru32  1  0.329931  0.670069  0.500000  1
  Ru  Ru33  1  0.829121  0.170879  0.000000  1
  Ru  Ru34  1  0.126375  0.126759  0.624739  1
  Ru  Ru35  1  0.873241  0.873625  0.375261  1
  Ru  Ru36  1  0.373289  0.373405  0.124546  1
  Ru  Ru37  1  0.626595  0.626711  0.875454  1
