# generated using pymatgen
data_Cs4La4SiGe3Se16
_symmetry_space_group_name_H-M   'P 1'
_cell_length_a   7.25035197
_cell_length_b   6.96356354
_cell_length_c   19.92209090
_cell_angle_alpha   71.50079989
_cell_angle_beta   89.98128924
_cell_angle_gamma   89.83408148
_symmetry_Int_Tables_number   1
_chemical_formula_structural   Cs4La4SiGe3Se16
_chemical_formula_sum   'Cs4 La4 Si1 Ge3 Se16'
_cell_volume   953.85477256
_cell_formula_units_Z   1
loop_
 _symmetry_equiv_pos_site_id
 _symmetry_equiv_pos_as_xyz
  1  'x, y, z'
loop_
 _atom_site_type_symbol
 _atom_site_label
 _atom_site_symmetry_multiplicity
 _atom_site_fract_x
 _atom_site_fract_y
 _atom_site_fract_z
 _atom_site_occupancy
  Cs  Cs0  1  0.751921  0.729318  0.032241  1
  Cs  Cs1  1  0.248212  0.270231  0.967031  1
  Cs  Cs2  1  0.747912  0.727887  0.533595  1
  Cs  Cs3  1  0.251878  0.270363  0.467381  1
  La  La4  1  0.233486  0.229273  0.226114  1
  La  La5  1  0.733884  0.770787  0.273867  1
  La  La6  1  0.766800  0.769414  0.774219  1
  La  La7  1  0.266077  0.230342  0.726541  1
  Si  Si8  1  0.730127  0.211238  0.834430  1
  Ge  Ge9  1  0.767709  0.210903  0.335540  1
  Ge  Ge10  1  0.232453  0.789196  0.664564  1
  Ge  Ge11  1  0.267812  0.789099  0.164436  1
  Se  Se12  1  0.507808  0.036592  0.142231  1
  Se  Se13  1  0.760812  0.410253  0.411467  1
  Se  Se14  1  0.994483  0.017963  0.848013  1
  Se  Se15  1  0.829351  0.421450  0.217229  1
  Se  Se16  1  0.992105  0.036783  0.642346  1
  Se  Se17  1  0.261234  0.589699  0.088520  1
  Se  Se18  1  0.737828  0.400799  0.908511  1
  Se  Se19  1  0.329730  0.578778  0.282679  1
  Se  Se20  1  0.239725  0.588328  0.589077  1
  Se  Se21  1  0.498558  0.973215  0.857655  1
  Se  Se22  1  0.674956  0.413339  0.720292  1
  Se  Se23  1  0.171634  0.580386  0.782995  1
  Se  Se24  1  0.008203  0.963003  0.357772  1
  Se  Se25  1  0.995100  0.991853  0.150816  1
  Se  Se26  1  0.495495  0.008837  0.349227  1
  Se  Se27  1  0.504707  0.990669  0.651212  1
