# generated using pymatgen
data_Tb2NdHoCuPt3
_symmetry_space_group_name_H-M   'P 1'
_cell_length_a   4.51220400
_cell_length_b   5.62178222
_cell_length_c   7.15295744
_cell_angle_alpha   89.23417923
_cell_angle_beta   90.00000000
_cell_angle_gamma   90.00000000
_symmetry_Int_Tables_number   1
_chemical_formula_structural   Tb2NdHoCuPt3
_chemical_formula_sum   'Tb2 Nd1 Ho1 Cu1 Pt3'
_cell_volume   181.43020420
_cell_formula_units_Z   1
loop_
 _symmetry_equiv_pos_site_id
 _symmetry_equiv_pos_as_xyz
  1  'x, y, z'
loop_
 _atom_site_type_symbol
 _atom_site_label
 _atom_site_symmetry_multiplicity
 _atom_site_fract_x
 _atom_site_fract_y
 _atom_site_fract_z
 _atom_site_occupancy
  Tb  Tb0  1  0.500000  0.364262  0.689454  1
  Tb  Tb1  1  0.500000  0.137331  0.174769  1
  Nd  Nd2  1  0.000000  0.638240  0.317949  1
  Ho  Ho3  1  0.000000  0.857141  0.819633  1
  Cu  Cu4  1  0.000000  0.135645  0.466843  1
  Pt  Pt5  1  0.000000  0.336710  0.951499  1
  Pt  Pt6  1  0.500000  0.874573  0.542153  1
  Pt  Pt7  1  0.500000  0.656099  0.037701  1
