# generated using pymatgen
data_SmEr2Lu(Si3Rh)2
_symmetry_space_group_name_H-M   'P 1'
_cell_length_a   8.16314091
_cell_length_b   8.15644648
_cell_length_c   7.89557000
_cell_angle_alpha   90.00000000
_cell_angle_beta   90.00000000
_cell_angle_gamma   119.97287022
_symmetry_Int_Tables_number   1
_chemical_formula_structural   SmEr2Lu(Si3Rh)2
_chemical_formula_sum   'Sm2 Er4 Lu2 Si12 Rh4'
_cell_volume   455.39794447
_cell_formula_units_Z   2
loop_
 _symmetry_equiv_pos_site_id
 _symmetry_equiv_pos_as_xyz
  1  'x, y, z'
loop_
 _atom_site_type_symbol
 _atom_site_label
 _atom_site_symmetry_multiplicity
 _atom_site_fract_x
 _atom_site_fract_y
 _atom_site_fract_z
 _atom_site_occupancy
  Sm  Sm0  1  0.999707  0.999853  0.250000  1
  Sm  Sm1  1  0.000114  0.000057  0.750000  1
  Er  Er2  1  0.017908  0.508954  0.250000  1
  Er  Er3  1  0.508050  0.491829  0.750000  1
  Er  Er4  1  0.983700  0.491851  0.750000  1
  Er  Er5  1  0.508050  0.016222  0.750000  1
  Lu  Lu6  1  0.492088  0.508286  0.250000  1
  Lu  Lu7  1  0.492088  0.983801  0.250000  1
  Si  Si8  1  0.831569  0.168278  0.500979  1
  Si  Si9  1  0.831569  0.663291  0.500979  1
  Si  Si10  1  0.336143  0.168071  0.500829  1
  Si  Si11  1  0.831569  0.168278  0.999021  1
  Si  Si12  1  0.831569  0.663291  0.999021  1
  Si  Si13  1  0.336143  0.168071  0.999171  1
  Si  Si14  1  0.168098  0.832259  0.002871  1
  Si  Si15  1  0.664228  0.832114  0.003990  1
  Si  Si16  1  0.168098  0.335838  0.002871  1
  Si  Si17  1  0.168098  0.832259  0.497129  1
  Si  Si18  1  0.664228  0.832114  0.496010  1
  Si  Si19  1  0.168098  0.335838  0.497129  1
  Rh  Rh20  1  0.665585  0.332792  0.460719  1
  Rh  Rh21  1  0.665585  0.332792  0.039281  1
  Rh  Rh22  1  0.333858  0.666929  0.968950  1
  Rh  Rh23  1  0.333858  0.666929  0.531050  1
