# generated using pymatgen
data_Tm4Ga2B4Ru3Rh7
_symmetry_space_group_name_H-M   'P 1'
_cell_length_a   9.53861411
_cell_length_b   9.55045911
_cell_length_c   3.09716900
_cell_angle_alpha   90.00000000
_cell_angle_beta   90.00000000
_cell_angle_gamma   89.98287944
_symmetry_Int_Tables_number   1
_chemical_formula_structural   Tm4Ga2B4Ru3Rh7
_chemical_formula_sum   'Tm4 Ga2 B4 Ru3 Rh7'
_cell_volume   282.14633483
_cell_formula_units_Z   1
loop_
 _symmetry_equiv_pos_site_id
 _symmetry_equiv_pos_as_xyz
  1  'x, y, z'
loop_
 _atom_site_type_symbol
 _atom_site_label
 _atom_site_symmetry_multiplicity
 _atom_site_fract_x
 _atom_site_fract_y
 _atom_site_fract_z
 _atom_site_occupancy
  Tm  Tm0  1  0.828619  0.323231  0.000000  1
  Tm  Tm1  1  0.322245  0.175703  0.000000  1
  Tm  Tm2  1  0.674932  0.825127  0.000000  1
  Tm  Tm3  1  0.175311  0.674189  0.000000  1
  Ga  Ga4  1  0.000568  0.003271  0.000000  1
  Ga  Ga5  1  0.499439  0.499996  0.000000  1
  B  B6  1  0.621234  0.120555  0.000000  1
  B  B7  1  0.118491  0.373419  0.000000  1
  B  B8  1  0.880172  0.620625  0.000000  1
  B  B9  1  0.378659  0.879126  0.000000  1
  Ru  Ru10  1  0.070790  0.217536  0.500000  1
  Ru  Ru11  1  0.499515  0.000152  0.500000  1
  Ru  Ru12  1  0.000055  0.502183  0.500000  1
  Rh  Rh13  1  0.217779  0.927985  0.500000  1
  Rh  Rh14  1  0.781608  0.069887  0.500000  1
  Rh  Rh15  1  0.928969  0.784446  0.500000  1
  Rh  Rh16  1  0.429979  0.717481  0.500000  1
  Rh  Rh17  1  0.571100  0.282574  0.500000  1
  Rh  Rh18  1  0.717136  0.571211  0.500000  1
  Rh  Rh19  1  0.283400  0.431303  0.500000  1
