# generated using pymatgen
data_Nd5USe10
_symmetry_space_group_name_H-M   'P 1'
_cell_length_a   7.93642200
_cell_length_b   8.46409900
_cell_length_c   12.55200800
_cell_angle_alpha   90.00000000
_cell_angle_beta   90.00000000
_cell_angle_gamma   90.00000000
_symmetry_Int_Tables_number   1
_chemical_formula_structural   Nd5USe10
_chemical_formula_sum   'Nd10 U2 Se20'
_cell_volume   843.17688872
_cell_formula_units_Z   2
loop_
 _symmetry_equiv_pos_site_id
 _symmetry_equiv_pos_as_xyz
  1  'x, y, z'
loop_
 _atom_site_type_symbol
 _atom_site_label
 _atom_site_symmetry_multiplicity
 _atom_site_fract_x
 _atom_site_fract_y
 _atom_site_fract_z
 _atom_site_occupancy
  Nd  Nd0  1  0.524980  0.499476  0.321900  1
  Nd  Nd1  1  0.975020  0.000524  0.821900  1
  Nd  Nd2  1  0.481162  0.996266  0.678651  1
  Nd  Nd3  1  0.018838  0.503734  0.178651  1
  Nd  Nd4  1  0.481162  0.503734  0.678651  1
  Nd  Nd5  1  0.018838  0.996266  0.178651  1
  Nd  Nd6  1  0.524980  0.000524  0.321900  1
  Nd  Nd7  1  0.975020  0.499476  0.821900  1
  Nd  Nd8  1  0.078242  0.750000  0.492451  1
  Nd  Nd9  1  0.421758  0.750000  0.992451  1
  U  U10  1  0.940055  0.250000  0.505507  1
  U  U11  1  0.559945  0.250000  0.005507  1
  Se  Se12  1  0.835887  0.969237  0.597683  1
  Se  Se13  1  0.664113  0.530763  0.097683  1
  Se  Se14  1  0.164300  0.447414  0.401802  1
  Se  Se15  1  0.335700  0.052586  0.901802  1
  Se  Se16  1  0.164300  0.052586  0.401802  1
  Se  Se17  1  0.335700  0.447414  0.901802  1
  Se  Se18  1  0.835887  0.530763  0.597683  1
  Se  Se19  1  0.664113  0.969237  0.097683  1
  Se  Se20  1  0.823387  0.750000  0.310876  1
  Se  Se21  1  0.676613  0.750000  0.810876  1
  Se  Se22  1  0.169370  0.250000  0.681588  1
  Se  Se23  1  0.330630  0.250000  0.181588  1
  Se  Se24  1  0.462556  0.750000  0.499784  1
  Se  Se25  1  0.037444  0.750000  0.999784  1
  Se  Se26  1  0.549361  0.250000  0.499486  1
  Se  Se27  1  0.950639  0.250000  0.999486  1
  Se  Se28  1  0.199770  0.750000  0.720199  1
  Se  Se29  1  0.300230  0.750000  0.220199  1
  Se  Se30  1  0.806995  0.250000  0.290037  1
  Se  Se31  1  0.693005  0.250000  0.790037  1
