# generated using pymatgen
data_Y2Tm2MnB12Os
_symmetry_space_group_name_H-M   'P 1'
_cell_length_a   3.59881500
_cell_length_b   9.09382089
_cell_length_c   11.48428708
_cell_angle_alpha   90.05247437
_cell_angle_beta   90.00000000
_cell_angle_gamma   90.00000000
_symmetry_Int_Tables_number   1
_chemical_formula_structural   Y2Tm2MnB12Os
_chemical_formula_sum   'Y4 Tm4 Mn2 B24 Os2'
_cell_volume   375.84586507
_cell_formula_units_Z   2
loop_
 _symmetry_equiv_pos_site_id
 _symmetry_equiv_pos_as_xyz
  1  'x, y, z'
loop_
 _atom_site_type_symbol
 _atom_site_label
 _atom_site_symmetry_multiplicity
 _atom_site_fract_x
 _atom_site_fract_y
 _atom_site_fract_z
 _atom_site_occupancy
  Y  Y0  1  0.000000  0.326034  0.416090  1
  Y  Y1  1  0.000000  0.673966  0.583910  1
  Y  Y2  1  0.000000  0.819927  0.087586  1
  Y  Y3  1  0.000000  0.180073  0.912414  1
  Tm  Tm4  1  0.000000  0.939241  0.370925  1
  Tm  Tm5  1  0.000000  0.060759  0.629076  1
  Tm  Tm6  1  0.000000  0.445576  0.131680  1
  Tm  Tm7  1  0.000000  0.554424  0.868319  1
  Mn  Mn8  1  0.000000  0.638858  0.319544  1
  Mn  Mn9  1  0.000000  0.361142  0.680456  1
  B  B10  1  0.500000  0.554454  0.431871  1
  B  B11  1  0.500000  0.445546  0.568129  1
  B  B12  1  0.500000  0.053762  0.067429  1
  B  B13  1  0.500000  0.946238  0.932571  1
  B  B14  1  0.500000  0.746928  0.417315  1
  B  B15  1  0.500000  0.253072  0.582685  1
  B  B16  1  0.500000  0.250189  0.082010  1
  B  B17  1  0.500000  0.749811  0.917990  1
  B  B18  1  0.500000  0.789428  0.266265  1
  B  B19  1  0.500000  0.210572  0.733735  1
  B  B20  1  0.500000  0.291969  0.235294  1
  B  B21  1  0.500000  0.708030  0.764706  1
  B  B22  1  0.500000  0.630802  0.186564  1
  B  B23  1  0.500000  0.369198  0.813436  1
  B  B24  1  0.500000  0.130344  0.315197  1
  B  B25  1  0.500000  0.869656  0.684803  1
  B  B26  1  0.500000  0.981958  0.212943  1
  B  B27  1  0.500000  0.018042  0.787057  1
  B  B28  1  0.500000  0.485580  0.288499  1
  B  B29  1  0.500000  0.514420  0.711501  1
  B  B30  1  0.500000  0.601397  0.027894  1
  B  B31  1  0.500000  0.398603  0.972106  1
  B  B32  1  0.500000  0.101795  0.471841  1
  B  B33  1  0.500000  0.898205  0.528159  1
  Os  Os34  1  0.000000  0.138348  0.179523  1
  Os  Os35  1  0.000000  0.861652  0.820477  1
