# generated using pymatgen
data_Ce2Hf3Si3Ge
_symmetry_space_group_name_H-M   'P 1'
_cell_length_a   7.35929200
_cell_length_b   7.35929200
_cell_length_c   13.53549500
_cell_angle_alpha   90.00000000
_cell_angle_beta   90.00000000
_cell_angle_gamma   90.00000000
_symmetry_Int_Tables_number   1
_chemical_formula_structural   Ce2Hf3Si3Ge
_chemical_formula_sum   'Ce8 Hf12 Si12 Ge4'
_cell_volume   733.07129306
_cell_formula_units_Z   4
loop_
 _symmetry_equiv_pos_site_id
 _symmetry_equiv_pos_as_xyz
  1  'x, y, z'
loop_
 _atom_site_type_symbol
 _atom_site_label
 _atom_site_symmetry_multiplicity
 _atom_site_fract_x
 _atom_site_fract_y
 _atom_site_fract_z
 _atom_site_occupancy
  Ce  Ce0  1  0.494906  0.159292  0.535352  1
  Ce  Ce1  1  0.505094  0.840708  0.035352  1
  Ce  Ce2  1  0.659292  0.005094  0.285352  1
  Ce  Ce3  1  0.340708  0.994906  0.785352  1
  Ce  Ce4  1  0.843268  0.505529  0.965669  1
  Ce  Ce5  1  0.156732  0.494471  0.465669  1
  Ce  Ce6  1  0.005529  0.656732  0.715669  1
  Ce  Ce7  1  0.994471  0.343268  0.215669  1
  Hf  Hf8  1  0.673729  0.323399  0.749518  1
  Hf  Hf9  1  0.326271  0.676601  0.249518  1
  Hf  Hf10  1  0.823399  0.826271  0.499518  1
  Hf  Hf11  1  0.176601  0.173729  0.999518  1
  Hf  Hf12  1  0.495974  0.348892  0.123339  1
  Hf  Hf13  1  0.504026  0.651108  0.623339  1
  Hf  Hf14  1  0.848892  0.004026  0.873339  1
  Hf  Hf15  1  0.151108  0.995974  0.373339  1
  Hf  Hf16  1  0.655720  0.504152  0.375883  1
  Hf  Hf17  1  0.344280  0.495848  0.875883  1
  Hf  Hf18  1  0.004152  0.844280  0.125883  1
  Hf  Hf19  1  0.995848  0.155720  0.625883  1
  Si  Si20  1  0.864888  0.202472  0.434944  1
  Si  Si21  1  0.135112  0.797528  0.934944  1
  Si  Si22  1  0.702472  0.635112  0.184944  1
  Si  Si23  1  0.297528  0.364888  0.684944  1
  Si  Si24  1  0.544287  0.206654  0.933063  1
  Si  Si25  1  0.455713  0.793346  0.433063  1
  Si  Si26  1  0.706654  0.955713  0.683063  1
  Si  Si27  1  0.293346  0.044287  0.183063  1
  Si  Si28  1  0.793952  0.453842  0.565226  1
  Si  Si29  1  0.206048  0.546158  0.065226  1
  Si  Si30  1  0.953842  0.706048  0.315226  1
  Si  Si31  1  0.046158  0.293952  0.815226  1
  Ge  Ge32  1  0.798167  0.134405  0.067004  1
  Ge  Ge33  1  0.201833  0.865595  0.567004  1
  Ge  Ge34  1  0.634405  0.701833  0.817004  1
  Ge  Ge35  1  0.365595  0.298167  0.317004  1
