# generated using pymatgen
data_BaLiErSe3
_symmetry_space_group_name_H-M   'P 1'
_cell_length_a   7.34698403
_cell_length_b   7.34698339
_cell_length_c   10.70093700
_cell_angle_alpha   90.00000000
_cell_angle_beta   90.00000000
_cell_angle_gamma   146.25654737
_symmetry_Int_Tables_number   1
_chemical_formula_structural   BaLiErSe3
_chemical_formula_sum   'Ba2 Li2 Er2 Se6'
_cell_volume   320.85192296
_cell_formula_units_Z   2
loop_
 _symmetry_equiv_pos_site_id
 _symmetry_equiv_pos_as_xyz
  1  'x, y, z'
loop_
 _atom_site_type_symbol
 _atom_site_label
 _atom_site_symmetry_multiplicity
 _atom_site_fract_x
 _atom_site_fract_y
 _atom_site_fract_z
 _atom_site_occupancy
  Ba  Ba0  1  0.252979  0.747021  0.250000  1
  Ba  Ba1  1  0.747021  0.252979  0.750000  1
  Li  Li2  1  0.529301  0.470700  0.250000  1
  Li  Li3  1  0.470700  0.529301  0.750000  1
  Er  Er4  1  0.000000  0.000000  0.000000  1
  Er  Er5  1  0.000000  0.000000  0.500000  1
  Se  Se6  1  0.631469  0.368531  0.057568  1
  Se  Se7  1  0.931548  0.068452  0.250000  1
  Se  Se8  1  0.631469  0.368531  0.442432  1
  Se  Se9  1  0.368531  0.631469  0.557568  1
  Se  Se10  1  0.068452  0.931548  0.750000  1
  Se  Se11  1  0.368531  0.631469  0.942432  1
