# generated using pymatgen
data_Y16Er4Sn15Te
_symmetry_space_group_name_H-M   'P 1'
_cell_length_a   8.07913539
_cell_length_b   8.16002444
_cell_length_c   15.50323700
_cell_angle_alpha   89.97656919
_cell_angle_beta   90.06617379
_cell_angle_gamma   89.92102796
_symmetry_Int_Tables_number   1
_chemical_formula_structural   Y16Er4Sn15Te
_chemical_formula_sum   'Y16 Er4 Sn15 Te1'
_cell_volume   1022.06376794
_cell_formula_units_Z   1
loop_
 _symmetry_equiv_pos_site_id
 _symmetry_equiv_pos_as_xyz
  1  'x, y, z'
loop_
 _atom_site_type_symbol
 _atom_site_label
 _atom_site_symmetry_multiplicity
 _atom_site_fract_x
 _atom_site_fract_y
 _atom_site_fract_z
 _atom_site_occupancy
  Y  Y0  1  0.378910  0.836956  0.878718  1
  Y  Y1  1  0.876521  0.660341  0.621720  1
  Y  Y2  1  0.623836  0.162311  0.377800  1
  Y  Y3  1  0.122742  0.338472  0.119522  1
  Y  Y4  1  0.620082  0.158454  0.121670  1
  Y  Y5  1  0.124137  0.338646  0.377731  1
  Y  Y6  1  0.377513  0.836417  0.621437  1
  Y  Y7  1  0.879336  0.661273  0.879471  1
  Y  Y8  1  0.529469  0.319544  0.897231  1
  Y  Y9  1  0.031034  0.176445  0.600347  1
  Y  Y10  1  0.468198  0.676501  0.399510  1
  Y  Y11  1  0.967585  0.833862  0.101697  1
  Y  Y12  1  0.455763  0.680031  0.104050  1
  Y  Y13  1  0.968585  0.824924  0.399790  1
  Y  Y14  1  0.532967  0.323479  0.600435  1
  Y  Y15  1  0.044349  0.164839  0.893988  1
  Er  Er16  1  0.207974  0.501130  0.749421  1
  Er  Er17  1  0.708783  0.996311  0.748714  1
  Er  Er18  1  0.791626  0.499385  0.255647  1
  Er  Er19  1  0.292114  0.003571  0.251037  1
  Sn  Sn20  1  0.284999  0.032041  0.043017  1
  Sn  Sn21  1  0.785666  0.467229  0.457600  1
  Sn  Sn22  1  0.715145  0.967007  0.542430  1
  Sn  Sn23  1  0.218610  0.528982  0.956173  1
  Sn  Sn24  1  0.721050  0.971834  0.956639  1
  Sn  Sn25  1  0.215798  0.531529  0.542497  1
  Sn  Sn26  1  0.285149  0.032713  0.457164  1
  Sn  Sn27  1  0.575285  0.620763  0.751715  1
  Sn  Sn28  1  0.074771  0.874481  0.749789  1
  Sn  Sn29  1  0.425945  0.378603  0.248025  1
  Sn  Sn30  1  0.926552  0.125103  0.248004  1
  Sn  Sn31  1  0.343549  0.145489  0.748639  1
  Sn  Sn32  1  0.841751  0.351440  0.751227  1
  Sn  Sn33  1  0.657739  0.853100  0.249763  1
  Sn  Sn34  1  0.154708  0.648583  0.249243  1
  Te  Te35  1  0.771761  0.478209  0.048140  1
