# generated using pymatgen
data_Ho2Tm2TcB12Ru
_symmetry_space_group_name_H-M   'P 1'
_cell_length_a   3.64172400
_cell_length_b   9.10255222
_cell_length_c   11.48730301
_cell_angle_alpha   89.86035080
_cell_angle_beta   90.00000000
_cell_angle_gamma   90.00000000
_symmetry_Int_Tables_number   1
_chemical_formula_structural   Ho2Tm2TcB12Ru
_chemical_formula_sum   'Ho4 Tm4 Tc2 B24 Ru2'
_cell_volume   380.79127988
_cell_formula_units_Z   2
loop_
 _symmetry_equiv_pos_site_id
 _symmetry_equiv_pos_as_xyz
  1  'x, y, z'
loop_
 _atom_site_type_symbol
 _atom_site_label
 _atom_site_symmetry_multiplicity
 _atom_site_fract_x
 _atom_site_fract_y
 _atom_site_fract_z
 _atom_site_occupancy
  Ho  Ho0  1  0.000000  0.324475  0.415553  1
  Ho  Ho1  1  0.000000  0.675525  0.584447  1
  Ho  Ho2  1  0.000000  0.820765  0.087375  1
  Ho  Ho3  1  0.000000  0.179235  0.912625  1
  Tm  Tm4  1  0.000000  0.942233  0.370774  1
  Tm  Tm5  1  0.000000  0.057767  0.629226  1
  Tm  Tm6  1  0.000000  0.443200  0.129900  1
  Tm  Tm7  1  0.000000  0.556800  0.870100  1
  Tc  Tc8  1  0.000000  0.638665  0.319833  1
  Tc  Tc9  1  0.000000  0.361335  0.680167  1
  B  B10  1  0.500000  0.553217  0.432997  1
  B  B11  1  0.500000  0.446783  0.567003  1
  B  B12  1  0.500000  0.053917  0.066910  1
  B  B13  1  0.500000  0.946083  0.933090  1
  B  B14  1  0.500000  0.749248  0.418937  1
  B  B15  1  0.500000  0.250752  0.581063  1
  B  B16  1  0.500000  0.249291  0.081155  1
  B  B17  1  0.500000  0.750709  0.918845  1
  B  B18  1  0.500000  0.792003  0.265063  1
  B  B19  1  0.500000  0.207997  0.734937  1
  B  B20  1  0.500000  0.291072  0.234449  1
  B  B21  1  0.500000  0.708928  0.765551  1
  B  B22  1  0.500000  0.630711  0.184721  1
  B  B23  1  0.500000  0.369289  0.815279  1
  B  B24  1  0.500000  0.130397  0.314534  1
  B  B25  1  0.500000  0.869603  0.685466  1
  B  B26  1  0.500000  0.982566  0.212130  1
  B  B27  1  0.500000  0.017434  0.787870  1
  B  B28  1  0.500000  0.481989  0.287382  1
  B  B29  1  0.500000  0.518011  0.712618  1
  B  B30  1  0.500000  0.602290  0.028065  1
  B  B31  1  0.500000  0.397710  0.971935  1
  B  B32  1  0.500000  0.102388  0.471490  1
  B  B33  1  0.500000  0.897612  0.528510  1
  Ru  Ru34  1  0.000000  0.137926  0.178884  1
  Ru  Ru35  1  0.000000  0.862074  0.821116  1
