# generated using pymatgen
data_Y4ErTm5In8Pd3Pt
_symmetry_space_group_name_H-M   'P 1'
_cell_length_a   3.60697700
_cell_length_b   8.13816308
_cell_length_c   18.16330000
_cell_angle_alpha   89.99188948
_cell_angle_beta   90.00000000
_cell_angle_gamma   90.00000000
_symmetry_Int_Tables_number   1
_chemical_formula_structural   Y4ErTm5In8Pd3Pt
_chemical_formula_sum   'Y4 Er1 Tm5 In8 Pd3 Pt1'
_cell_volume   533.16853717
_cell_formula_units_Z   1
loop_
 _symmetry_equiv_pos_site_id
 _symmetry_equiv_pos_as_xyz
  1  'x, y, z'
loop_
 _atom_site_type_symbol
 _atom_site_label
 _atom_site_symmetry_multiplicity
 _atom_site_fract_x
 _atom_site_fract_y
 _atom_site_fract_z
 _atom_site_occupancy
  Y  Y0  1  0.000000  0.760002  0.781983  1
  Y  Y1  1  0.000000  0.259978  0.717873  1
  Y  Y2  1  0.000000  0.999673  0.000381  1
  Y  Y3  1  0.000000  0.500184  0.499659  1
  Er  Er4  1  0.000000  0.738026  0.279865  1
  Tm  Tm5  1  0.000000  0.116977  0.414622  1
  Tm  Tm6  1  0.000000  0.881575  0.583581  1
  Tm  Tm7  1  0.000000  0.382087  0.916327  1
  Tm  Tm8  1  0.000000  0.616892  0.085840  1
  Tm  Tm9  1  0.000000  0.245899  0.219594  1
  In  In10  1  0.500000  0.419706  0.350975  1
  In  In11  1  0.500000  0.580707  0.650041  1
  In  In12  1  0.500000  0.080922  0.849789  1
  In  In13  1  0.500000  0.923068  0.150142  1
  In  In14  1  0.500000  0.293696  0.066755  1
  In  In15  1  0.500000  0.704227  0.934524  1
  In  In16  1  0.500000  0.204126  0.565387  1
  In  In17  1  0.500000  0.794884  0.432761  1
  Pd  Pd18  1  0.500000  0.025030  0.303609  1
  Pd  Pd19  1  0.500000  0.974190  0.694299  1
  Pd  Pd20  1  0.500000  0.474259  0.805556  1
  Pt  Pt21  1  0.500000  0.523889  0.196439  1
