# generated using pymatgen
data_Yb5Ho3(Si4Mo3)4
_symmetry_space_group_name_H-M   'P 1'
_cell_length_a   6.72990770
_cell_length_b   6.94678713
_cell_length_c   13.00063880
_cell_angle_alpha   89.93336618
_cell_angle_beta   89.97207703
_cell_angle_gamma   89.95806520
_symmetry_Int_Tables_number   1
_chemical_formula_structural   Yb5Ho3(Si4Mo3)4
_chemical_formula_sum   'Yb5 Ho3 Si16 Mo12'
_cell_volume   607.79528926
_cell_formula_units_Z   1
loop_
 _symmetry_equiv_pos_site_id
 _symmetry_equiv_pos_as_xyz
  1  'x, y, z'
loop_
 _atom_site_type_symbol
 _atom_site_label
 _atom_site_symmetry_multiplicity
 _atom_site_fract_x
 _atom_site_fract_y
 _atom_site_fract_z
 _atom_site_occupancy
  Yb  Yb0  1  0.497900  0.335099  0.090457  1
  Yb  Yb1  1  0.997877  0.167146  0.408143  1
  Yb  Yb2  1  0.501589  0.667559  0.591947  1
  Yb  Yb3  1  0.001721  0.831870  0.907818  1
  Yb  Yb4  1  0.501472  0.666685  0.909541  1
  Ho  Ho5  1  0.000045  0.829933  0.593959  1
  Ho  Ho6  1  0.499619  0.331122  0.406655  1
  Ho  Ho7  1  0.999428  0.168880  0.093049  1
  Si  Si8  1  0.659852  0.042054  0.545020  1
  Si  Si9  1  0.158707  0.457561  0.954490  1
  Si  Si10  1  0.340676  0.957690  0.045772  1
  Si  Si11  1  0.840527  0.542237  0.454493  1
  Si  Si12  1  0.339699  0.957221  0.454579  1
  Si  Si13  1  0.841268  0.543718  0.045630  1
  Si  Si14  1  0.659384  0.041868  0.954390  1
  Si  Si15  1  0.160208  0.456893  0.544949  1
  Si  Si16  1  0.534076  0.371948  0.750041  1
  Si  Si17  1  0.034607  0.127579  0.749531  1
  Si  Si18  1  0.465385  0.631412  0.249416  1
  Si  Si19  1  0.965806  0.870450  0.250162  1
  Si  Si20  1  0.799897  0.629076  0.751056  1
  Si  Si21  1  0.303441  0.869405  0.751123  1
  Si  Si22  1  0.197949  0.370415  0.249941  1
  Si  Si23  1  0.697518  0.130231  0.249762  1
  Mo  Mo24  1  0.832843  0.333223  0.625911  1
  Mo  Mo25  1  0.333145  0.167912  0.873084  1
  Mo  Mo26  1  0.166882  0.666343  0.126480  1
  Mo  Mo27  1  0.667752  0.833386  0.374357  1
  Mo  Mo28  1  0.167381  0.666941  0.373460  1
  Mo  Mo29  1  0.667708  0.834286  0.127222  1
  Mo  Mo30  1  0.834713  0.330950  0.872604  1
  Mo  Mo31  1  0.333554  0.167442  0.626055  1
  Mo  Mo32  1  0.662422  0.007082  0.749425  1
  Mo  Mo33  1  0.161827  0.492480  0.748982  1
  Mo  Mo34  1  0.336420  0.996282  0.250645  1
  Mo  Mo35  1  0.836703  0.505623  0.249849  1
