# generated using pymatgen
data_ErLu9(Ga2Sb)2
_symmetry_space_group_name_H-M   'P 1'
_cell_length_a   8.50811262
_cell_length_b   8.52562818
_cell_length_c   6.37561600
_cell_angle_alpha   90.00000000
_cell_angle_beta   90.00000000
_cell_angle_gamma   120.03191522
_symmetry_Int_Tables_number   1
_chemical_formula_structural   ErLu9(Ga2Sb)2
_chemical_formula_sum   'Er1 Lu9 Ga4 Sb2'
_cell_volume   400.38024705
_cell_formula_units_Z   1
loop_
 _symmetry_equiv_pos_site_id
 _symmetry_equiv_pos_as_xyz
  1  'x, y, z'
loop_
 _atom_site_type_symbol
 _atom_site_label
 _atom_site_symmetry_multiplicity
 _atom_site_fract_x
 _atom_site_fract_y
 _atom_site_fract_z
 _atom_site_occupancy
  Er  Er0  1  0.235553  0.986892  0.250000  1
  Lu  Lu1  1  0.986391  0.750634  0.750000  1
  Lu  Lu2  1  0.986512  0.235782  0.250000  1
  Lu  Lu3  1  0.766121  0.766658  0.250000  1
  Lu  Lu4  1  0.766832  0.999805  0.750000  1
  Lu  Lu5  1  0.235727  0.249204  0.750000  1
  Lu  Lu6  1  0.331740  0.665672  0.500184  1
  Lu  Lu7  1  0.685022  0.342618  0.999975  1
  Lu  Lu8  1  0.685022  0.342618  0.500025  1
  Lu  Lu9  1  0.331740  0.665672  0.999816  1
  Ga  Ga10  1  0.001063  0.600589  0.250000  1
  Ga  Ga11  1  0.001768  0.400104  0.750000  1
  Ga  Ga12  1  0.597877  0.601363  0.750000  1
  Ga  Ga13  1  0.598533  0.996585  0.250000  1
  Sb  Sb14  1  0.394818  0.004419  0.750000  1
  Sb  Sb15  1  0.395281  0.391385  0.250000  1
