# generated using pymatgen
data_AgPt2AuO6
_symmetry_space_group_name_H-M   'P 1'
_cell_length_a   3.22095500
_cell_length_b   6.46344525
_cell_length_c   6.46344588
_cell_angle_alpha   110.68311123
_cell_angle_beta   90.00000000
_cell_angle_gamma   90.00000000
_symmetry_Int_Tables_number   1
_chemical_formula_structural   AgPt2AuO6
_chemical_formula_sum   'Ag1 Pt2 Au1 O6'
_cell_volume   125.88645598
_cell_formula_units_Z   1
loop_
 _symmetry_equiv_pos_site_id
 _symmetry_equiv_pos_as_xyz
  1  'x, y, z'
loop_
 _atom_site_type_symbol
 _atom_site_label
 _atom_site_symmetry_multiplicity
 _atom_site_fract_x
 _atom_site_fract_y
 _atom_site_fract_z
 _atom_site_occupancy
  Ag  Ag0  1  0.000000  0.500000  0.500000  1
  Pt  Pt1  1  0.499999  0.500000  0.000000  1
  Pt  Pt2  1  0.499999  0.000001  0.500000  1
  Au  Au3  1  0.000000  0.000000  0.000000  1
  O  O4  1  0.000000  0.926098  0.660246  1
  O  O5  1  0.000000  0.073903  0.339754  1
  O  O6  1  0.000000  0.660246  0.926098  1
  O  O7  1  0.000000  0.339755  0.073903  1
  O  O8  1  0.499999  0.334946  0.665056  1
  O  O9  1  0.499999  0.665055  0.334945  1
