# generated using pymatgen
data_Dy18Tm2Ir11Ru
_symmetry_space_group_name_H-M   'P 1'
_cell_length_a   10.85444101
_cell_length_b   10.85487101
_cell_length_c   6.38598900
_cell_angle_alpha   90.00000000
_cell_angle_beta   90.00000000
_cell_angle_gamma   89.99572445
_symmetry_Int_Tables_number   1
_chemical_formula_structural   Dy18Tm2Ir11Ru
_chemical_formula_sum   'Dy18 Tm2 Ir11 Ru1'
_cell_volume   752.41993682
_cell_formula_units_Z   1
loop_
 _symmetry_equiv_pos_site_id
 _symmetry_equiv_pos_as_xyz
  1  'x, y, z'
loop_
 _atom_site_type_symbol
 _atom_site_label
 _atom_site_symmetry_multiplicity
 _atom_site_fract_x
 _atom_site_fract_y
 _atom_site_fract_z
 _atom_site_occupancy
  Dy  Dy0  1  0.292008  0.087290  0.377355  1
  Dy  Dy1  1  0.292295  0.912660  0.880144  1
  Dy  Dy2  1  0.707705  0.087340  0.880144  1
  Dy  Dy3  1  0.707992  0.912710  0.377355  1
  Dy  Dy4  1  0.587479  0.792742  0.880161  1
  Dy  Dy5  1  0.587437  0.207545  0.377366  1
  Dy  Dy6  1  0.412563  0.792455  0.377366  1
  Dy  Dy7  1  0.412521  0.207258  0.880161  1
  Dy  Dy8  1  0.209001  0.411495  0.621376  1
  Dy  Dy9  1  0.208982  0.588372  0.121067  1
  Dy  Dy10  1  0.791018  0.411628  0.121067  1
  Dy  Dy11  1  0.790999  0.588505  0.621376  1
  Dy  Dy12  1  0.911779  0.709420  0.121091  1
  Dy  Dy13  1  0.911652  0.290562  0.621380  1
  Dy  Dy14  1  0.088348  0.709438  0.621380  1
  Dy  Dy15  1  0.088221  0.290580  0.121091  1
  Dy  Dy16  1  0.500000  0.500000  0.999358  1
  Dy  Dy17  1  0.500000  0.500000  0.499390  1
  Tm  Tm18  1  0.000000  0.000000  0.499381  1
  Tm  Tm19  1  0.000000  0.000000  0.999344  1
  Ir  Ir20  1  0.847914  0.152875  0.250024  1
  Ir  Ir21  1  0.847998  0.847440  0.749776  1
  Ir  Ir22  1  0.152002  0.152560  0.749776  1
  Ir  Ir23  1  0.152086  0.847125  0.250024  1
  Ir  Ir24  1  0.653421  0.347140  0.749795  1
  Ir  Ir25  1  0.653744  0.652966  0.250055  1
  Ir  Ir26  1  0.346256  0.347034  0.250055  1
  Ir  Ir27  1  0.346579  0.652860  0.749795  1
  Ir  Ir28  1  0.500000  0.000000  0.624181  1
  Ir  Ir29  1  0.000000  0.500000  0.877031  1
  Ir  Ir30  1  0.000000  0.500000  0.377160  1
  Ru  Ru31  1  0.500000  0.000000  0.124981  1
