# generated using pymatgen
data_CaHoEr6(B6Ru)4
_symmetry_space_group_name_H-M   'P 1'
_cell_length_a   3.63865000
_cell_length_b   9.11003722
_cell_length_c   11.49644400
_cell_angle_alpha   89.90241122
_cell_angle_beta   90.00000000
_cell_angle_gamma   90.00000000
_symmetry_Int_Tables_number   1
_chemical_formula_structural   CaHoEr6(B6Ru)4
_chemical_formula_sum   'Ca1 Ho1 Er6 B24 Ru4'
_cell_volume   381.08629673
_cell_formula_units_Z   1
loop_
 _symmetry_equiv_pos_site_id
 _symmetry_equiv_pos_as_xyz
  1  'x, y, z'
loop_
 _atom_site_type_symbol
 _atom_site_label
 _atom_site_symmetry_multiplicity
 _atom_site_fract_x
 _atom_site_fract_y
 _atom_site_fract_z
 _atom_site_occupancy
  Ca  Ca0  1  0.000000  0.322540  0.413892  1
  Ho  Ho1  1  0.000000  0.676032  0.585053  1
  Er  Er2  1  0.000000  0.822541  0.086190  1
  Er  Er3  1  0.000000  0.178028  0.914699  1
  Er  Er4  1  0.000000  0.944004  0.371059  1
  Er  Er5  1  0.000000  0.057661  0.628301  1
  Er  Er6  1  0.000000  0.443132  0.129240  1
  Er  Er7  1  0.000000  0.556141  0.872395  1
  B  B8  1  0.500000  0.554833  0.432639  1
  B  B9  1  0.500000  0.446140  0.567934  1
  B  B10  1  0.500000  0.053162  0.066107  1
  B  B11  1  0.500000  0.945913  0.932823  1
  B  B12  1  0.500000  0.748964  0.419180  1
  B  B13  1  0.500000  0.251619  0.581654  1
  B  B14  1  0.500000  0.247850  0.079995  1
  B  B15  1  0.500000  0.751551  0.919835  1
  B  B16  1  0.500000  0.792083  0.265552  1
  B  B17  1  0.500000  0.209024  0.734839  1
  B  B18  1  0.500000  0.290054  0.233020  1
  B  B19  1  0.500000  0.708969  0.766310  1
  B  B20  1  0.500000  0.632277  0.185232  1
  B  B21  1  0.500000  0.368412  0.815765  1
  B  B22  1  0.500000  0.130637  0.313670  1
  B  B23  1  0.500000  0.868586  0.685077  1
  B  B24  1  0.500000  0.982812  0.211544  1
  B  B25  1  0.500000  0.016855  0.787481  1
  B  B26  1  0.500000  0.484265  0.287179  1
  B  B27  1  0.500000  0.516680  0.713161  1
  B  B28  1  0.500000  0.607803  0.029868  1
  B  B29  1  0.500000  0.392502  0.970720  1
  B  B30  1  0.500000  0.103084  0.471481  1
  B  B31  1  0.500000  0.895235  0.528911  1
  Ru  Ru32  1  0.000000  0.640407  0.319879  1
  Ru  Ru33  1  0.000000  0.361712  0.681217  1
  Ru  Ru34  1  0.000000  0.136334  0.176923  1
  Ru  Ru35  1  0.000000  0.862157  0.821173  1
