# generated using pymatgen
data_Tm8Tc2B24IrRu
_symmetry_space_group_name_H-M   'P 1'
_cell_length_a   3.62595900
_cell_length_b   9.06657595
_cell_length_c   11.44006385
_cell_angle_alpha   89.79946474
_cell_angle_beta   90.00000000
_cell_angle_gamma   90.00000000
_symmetry_Int_Tables_number   1
_chemical_formula_structural   Tm8Tc2B24IrRu
_chemical_formula_sum   'Tm8 Tc2 B24 Ir1 Ru1'
_cell_volume   376.09016921
_cell_formula_units_Z   1
loop_
 _symmetry_equiv_pos_site_id
 _symmetry_equiv_pos_as_xyz
  1  'x, y, z'
loop_
 _atom_site_type_symbol
 _atom_site_label
 _atom_site_symmetry_multiplicity
 _atom_site_fract_x
 _atom_site_fract_y
 _atom_site_fract_z
 _atom_site_occupancy
  Tm  Tm0  1  0.000000  0.326334  0.418636  1
  Tm  Tm1  1  0.000000  0.675681  0.584916  1
  Tm  Tm2  1  0.000000  0.816486  0.085921  1
  Tm  Tm3  1  0.000000  0.180894  0.909496  1
  Tm  Tm4  1  0.000000  0.940600  0.373569  1
  Tm  Tm5  1  0.000000  0.057091  0.627978  1
  Tm  Tm6  1  0.000000  0.445854  0.128600  1
  Tm  Tm7  1  0.000000  0.555947  0.871040  1
  Tc  Tc8  1  0.000000  0.638067  0.319812  1
  Tc  Tc9  1  0.000000  0.361768  0.679852  1
  B  B10  1  0.500000  0.552799  0.433211  1
  B  B11  1  0.500000  0.447182  0.566969  1
  B  B12  1  0.500000  0.054014  0.065480  1
  B  B13  1  0.500000  0.946112  0.933773  1
  B  B14  1  0.500000  0.748658  0.419476  1
  B  B15  1  0.500000  0.251326  0.580691  1
  B  B16  1  0.500000  0.249982  0.078940  1
  B  B17  1  0.500000  0.750904  0.919687  1
  B  B18  1  0.500000  0.792109  0.264876  1
  B  B19  1  0.500000  0.207917  0.734657  1
  B  B20  1  0.500000  0.291529  0.234648  1
  B  B21  1  0.500000  0.709233  0.765846  1
  B  B22  1  0.500000  0.631151  0.184317  1
  B  B23  1  0.500000  0.368825  0.815172  1
  B  B24  1  0.500000  0.130894  0.316634  1
  B  B25  1  0.500000  0.869527  0.685246  1
  B  B26  1  0.500000  0.981779  0.212483  1
  B  B27  1  0.500000  0.017837  0.787924  1
  B  B28  1  0.500000  0.481780  0.287461  1
  B  B29  1  0.500000  0.518377  0.712639  1
  B  B30  1  0.500000  0.605222  0.028747  1
  B  B31  1  0.500000  0.394157  0.971237  1
  B  B32  1  0.500000  0.105050  0.470664  1
  B  B33  1  0.500000  0.895105  0.529234  1
  Ir  Ir34  1  0.000000  0.137120  0.178305  1
  Ru  Ru35  1  0.000000  0.862687  0.821862  1
