# generated using pymatgen
data_NdSm2Th5Se12
_symmetry_space_group_name_H-M   'P 1'
_cell_length_a   4.10093500
_cell_length_b   11.30570684
_cell_length_c   11.37482104
_cell_angle_alpha   91.12758540
_cell_angle_beta   90.00000000
_cell_angle_gamma   90.00000000
_symmetry_Int_Tables_number   1
_chemical_formula_structural   NdSm2Th5Se12
_chemical_formula_sum   'Nd1 Sm2 Th5 Se12'
_cell_volume   527.27972286
_cell_formula_units_Z   1
loop_
 _symmetry_equiv_pos_site_id
 _symmetry_equiv_pos_as_xyz
  1  'x, y, z'
loop_
 _atom_site_type_symbol
 _atom_site_label
 _atom_site_symmetry_multiplicity
 _atom_site_fract_x
 _atom_site_fract_y
 _atom_site_fract_z
 _atom_site_occupancy
  Nd  Nd0  1  0.250000  0.997436  0.697747  1
  Sm  Sm1  1  0.750000  0.813434  0.979400  1
  Sm  Sm2  1  0.250000  0.187016  0.019361  1
  Th  Th3  1  0.750000  0.000586  0.304679  1
  Th  Th4  1  0.750000  0.488222  0.803836  1
  Th  Th5  1  0.250000  0.512956  0.195965  1
  Th  Th6  1  0.250000  0.315799  0.517551  1
  Th  Th7  1  0.750000  0.686222  0.483147  1
  Se  Se8  1  0.750000  0.053620  0.883515  1
  Se  Se9  1  0.250000  0.945667  0.118292  1
  Se  Se10  1  0.250000  0.557300  0.624194  1
  Se  Se11  1  0.750000  0.442926  0.375246  1
  Se  Se12  1  0.250000  0.874826  0.448797  1
  Se  Se13  1  0.750000  0.124679  0.546473  1
  Se  Se14  1  0.750000  0.376352  0.050571  1
  Se  Se15  1  0.250000  0.623551  0.950082  1
  Se  Se16  1  0.250000  0.295666  0.778869  1
  Se  Se17  1  0.750000  0.706838  0.221630  1
  Se  Se18  1  0.750000  0.799306  0.721349  1
  Se  Se19  1  0.250000  0.197601  0.279296  1
