# generated using pymatgen
data_LaPrZn5Si
_symmetry_space_group_name_H-M   'P 1'
_cell_length_a   8.43195128
_cell_length_b   8.43195170
_cell_length_c   8.87428800
_cell_angle_alpha   90.00000000
_cell_angle_beta   90.00000000
_cell_angle_gamma   149.14015240
_symmetry_Int_Tables_number   1
_chemical_formula_structural   LaPrZn5Si
_chemical_formula_sum   'La2 Pr2 Zn10 Si2'
_cell_volume   323.63547222
_cell_formula_units_Z   2
loop_
 _symmetry_equiv_pos_site_id
 _symmetry_equiv_pos_as_xyz
  1  'x, y, z'
loop_
 _atom_site_type_symbol
 _atom_site_label
 _atom_site_symmetry_multiplicity
 _atom_site_fract_x
 _atom_site_fract_y
 _atom_site_fract_z
 _atom_site_occupancy
  La  La0  1  0.000000  0.000000  0.500000  1
  La  La1  1  0.000000  0.000000  0.000000  1
  Pr  Pr2  1  0.204628  0.795372  0.250000  1
  Pr  Pr3  1  0.795372  0.204628  0.750000  1
  Zn  Zn4  1  0.814043  0.185957  0.392749  1
  Zn  Zn5  1  0.185957  0.814043  0.607251  1
  Zn  Zn6  1  0.814043  0.185957  0.107251  1
  Zn  Zn7  1  0.185957  0.814043  0.892749  1
  Zn  Zn8  1  0.650230  0.349770  0.477069  1
  Zn  Zn9  1  0.349770  0.650230  0.522931  1
  Zn  Zn10  1  0.650230  0.349770  0.022931  1
  Zn  Zn11  1  0.349770  0.650230  0.977069  1
  Zn  Zn12  1  0.406755  0.593245  0.250000  1
  Zn  Zn13  1  0.593245  0.406755  0.750000  1
  Si  Si14  1  0.559498  0.440502  0.250000  1
  Si  Si15  1  0.440502  0.559498  0.750000  1
