# generated using pymatgen
data_Ca2Eu(AgPb)3
_symmetry_space_group_name_H-M   'P 1'
_cell_length_a   4.98938500
_cell_length_b   4.98938511
_cell_length_c   11.19696600
_cell_angle_alpha   90.00000000
_cell_angle_beta   90.00000000
_cell_angle_gamma   120.00000589
_symmetry_Int_Tables_number   1
_chemical_formula_structural   Ca2Eu(AgPb)3
_chemical_formula_sum   'Ca2 Eu1 Ag3 Pb3'
_cell_volume   241.39318739
_cell_formula_units_Z   1
loop_
 _symmetry_equiv_pos_site_id
 _symmetry_equiv_pos_as_xyz
  1  'x, y, z'
loop_
 _atom_site_type_symbol
 _atom_site_label
 _atom_site_symmetry_multiplicity
 _atom_site_fract_x
 _atom_site_fract_y
 _atom_site_fract_z
 _atom_site_occupancy
  Ca  Ca0  1  0.666667  0.333333  0.830573  1
  Ca  Ca1  1  0.666667  0.333333  0.164767  1
  Eu  Eu2  1  0.666667  0.333333  0.497814  1
  Ag  Ag3  1  0.333333  0.666667  0.996208  1
  Ag  Ag4  1  0.000000  0.000000  0.694836  1
  Ag  Ag5  1  0.000000  0.000000  0.298555  1
  Pb  Pb6  1  0.333333  0.666667  0.653070  1
  Pb  Pb7  1  0.333333  0.666667  0.343227  1
  Pb  Pb8  1  0.000000  0.000000  0.998850  1
