# generated using pymatgen
data_Sm8Tl(PdPt7)3
_symmetry_space_group_name_H-M   'P 1'
_cell_length_a   8.50129300
_cell_length_b   8.50663000
_cell_length_c   8.52220400
_cell_angle_alpha   90.00000000
_cell_angle_beta   90.00000000
_cell_angle_gamma   90.00000000
_symmetry_Int_Tables_number   1
_chemical_formula_structural   Sm8Tl(PdPt7)3
_chemical_formula_sum   'Sm8 Tl1 Pd3 Pt21'
_cell_volume   616.30324415
_cell_formula_units_Z   1
loop_
 _symmetry_equiv_pos_site_id
 _symmetry_equiv_pos_as_xyz
  1  'x, y, z'
loop_
 _atom_site_type_symbol
 _atom_site_label
 _atom_site_symmetry_multiplicity
 _atom_site_fract_x
 _atom_site_fract_y
 _atom_site_fract_z
 _atom_site_occupancy
  Sm  Sm0  1  0.249299  0.249470  0.249313  1
  Sm  Sm1  1  0.750779  0.750719  0.750569  1
  Sm  Sm2  1  0.750779  0.750719  0.249431  1
  Sm  Sm3  1  0.750701  0.249470  0.750687  1
  Sm  Sm4  1  0.249299  0.249470  0.750687  1
  Sm  Sm5  1  0.249221  0.750719  0.249431  1
  Sm  Sm6  1  0.249221  0.750719  0.750569  1
  Sm  Sm7  1  0.750701  0.249470  0.249313  1
  Tl  Tl8  1  0.000000  0.000332  0.000000  1
  Pd  Pd9  1  0.500000  0.742595  0.500000  1
  Pd  Pd10  1  0.500000  0.499649  0.257163  1
  Pd  Pd11  1  0.500000  0.499649  0.742837  1
  Pt  Pt12  1  0.271648  0.500104  0.000000  1
  Pt  Pt13  1  0.728352  0.500104  0.000000  1
  Pt  Pt14  1  0.000000  0.270730  0.500000  1
  Pt  Pt15  1  0.500000  0.271265  0.000000  1
  Pt  Pt16  1  0.000000  0.728484  0.500000  1
  Pt  Pt17  1  0.500000  0.728396  0.000000  1
  Pt  Pt18  1  0.500000  0.000304  0.271016  1
  Pt  Pt19  1  0.271510  0.000547  0.500000  1
  Pt  Pt20  1  0.500000  0.000304  0.728984  1
  Pt  Pt21  1  0.728490  0.000547  0.500000  1
  Pt  Pt22  1  0.000000  0.500008  0.270877  1
  Pt  Pt23  1  0.000000  0.500008  0.729123  1
  Pt  Pt24  1  0.257006  0.499363  0.500000  1
  Pt  Pt25  1  0.742994  0.499363  0.500000  1
  Pt  Pt26  1  0.500000  0.257157  0.500000  1
  Pt  Pt27  1  0.327078  0.999897  0.000000  1
  Pt  Pt28  1  0.672922  0.999897  0.000000  1
  Pt  Pt29  1  0.000000  0.327263  0.000000  1
  Pt  Pt30  1  0.000000  0.673629  0.000000  1
  Pt  Pt31  1  0.000000  0.999826  0.326523  1
  Pt  Pt32  1  0.000000  0.999826  0.673477  1
