# generated using pymatgen
data_Yb3Ta(B4Ru5)2
_symmetry_space_group_name_H-M   'P 1'
_cell_length_a   2.98497200
_cell_length_b   8.67287037
_cell_length_c   10.15783875
_cell_angle_alpha   90.21975644
_cell_angle_beta   90.00000000
_cell_angle_gamma   90.00000000
_symmetry_Int_Tables_number   1
_chemical_formula_structural   Yb3Ta(B4Ru5)2
_chemical_formula_sum   'Yb3 Ta1 B8 Ru10'
_cell_volume   262.96699076
_cell_formula_units_Z   1
loop_
 _symmetry_equiv_pos_site_id
 _symmetry_equiv_pos_as_xyz
  1  'x, y, z'
loop_
 _atom_site_type_symbol
 _atom_site_label
 _atom_site_symmetry_multiplicity
 _atom_site_fract_x
 _atom_site_fract_y
 _atom_site_fract_z
 _atom_site_occupancy
  Yb  Yb0  1  0.500000  0.341566  0.182700  1
  Yb  Yb1  1  0.500000  0.158980  0.680951  1
  Yb  Yb2  1  0.500000  0.842559  0.318460  1
  Ta  Ta3  1  0.500000  0.656036  0.816919  1
  B  B4  1  0.500000  0.852996  0.597669  1
  B  B5  1  0.500000  0.145543  0.398522  1
  B  B6  1  0.500000  0.351752  0.901203  1
  B  B7  1  0.500000  0.648674  0.104371  1
  B  B8  1  0.500000  0.964769  0.910005  1
  B  B9  1  0.500000  0.034207  0.088820  1
  B  B10  1  0.500000  0.462883  0.588256  1
  B  B11  1  0.500000  0.533985  0.411596  1
  Ru  Ru12  1  0.000000  0.412529  0.741599  1
  Ru  Ru13  1  0.000000  0.594514  0.261245  1
  Ru  Ru14  1  0.000000  0.896275  0.761517  1
  Ru  Ru15  1  0.000000  0.093862  0.238220  1
  Ru  Ru16  1  0.000000  0.999923  0.501790  1
  Ru  Ru17  1  0.000000  0.509292  0.995358  1
  Ru  Ru18  1  0.000000  0.657589  0.553601  1
  Ru  Ru19  1  0.000000  0.343164  0.456323  1
  Ru  Ru20  1  0.000000  0.158806  0.950452  1
  Ru  Ru21  1  0.000000  0.840092  0.040423  1
