# generated using pymatgen
data_Lu2ScPa(Al3Rh)6
_symmetry_space_group_name_H-M   'P 1'
_cell_length_a   7.54054103
_cell_length_b   7.53313458
_cell_length_c   9.35037600
_cell_angle_alpha   90.00000000
_cell_angle_beta   90.00000000
_cell_angle_gamma   119.45098681
_symmetry_Int_Tables_number   1
_chemical_formula_structural   Lu2ScPa(Al3Rh)6
_chemical_formula_sum   'Lu2 Sc1 Pa1 Al18 Rh6'
_cell_volume   462.50248118
_cell_formula_units_Z   1
loop_
 _symmetry_equiv_pos_site_id
 _symmetry_equiv_pos_as_xyz
  1  'x, y, z'
loop_
 _atom_site_type_symbol
 _atom_site_label
 _atom_site_symmetry_multiplicity
 _atom_site_fract_x
 _atom_site_fract_y
 _atom_site_fract_z
 _atom_site_occupancy
  Lu  Lu0  1  0.674978  0.994103  0.250000  1
  Lu  Lu1  1  0.327566  0.004612  0.750000  1
  Sc  Sc2  1  0.004732  0.327266  0.750000  1
  Pa  Pa3  1  0.995457  0.673493  0.250000  1
  Al  Al4  1  0.133303  0.133036  0.250000  1
  Al  Al5  1  0.875540  0.878404  0.750000  1
  Al  Al6  1  0.999826  0.332692  0.072208  1
  Al  Al7  1  0.000040  0.660916  0.916465  1
  Al  Al8  1  0.000040  0.660916  0.583535  1
  Al  Al9  1  0.340355  0.003848  0.424706  1
  Al  Al10  1  0.999826  0.332692  0.427792  1
  Al  Al11  1  0.667220  0.003974  0.579904  1
  Al  Al12  1  0.667220  0.003974  0.920096  1
  Al  Al13  1  0.340355  0.003848  0.075294  1
  Al  Al14  1  0.328433  0.331175  0.559231  1
  Al  Al15  1  0.663107  0.665868  0.452104  1
  Al  Al16  1  0.663107  0.665868  0.047896  1
  Al  Al17  1  0.328433  0.331175  0.940769  1
  Al  Al18  1  0.340098  0.549050  0.250000  1
  Al  Al19  1  0.659714  0.445572  0.750000  1
  Al  Al20  1  0.549502  0.342096  0.250000  1
  Al  Al21  1  0.444071  0.658493  0.750000  1
  Rh  Rh22  1  0.673074  0.328423  0.000934  1
  Rh  Rh23  1  0.326070  0.672667  0.001370  1
  Rh  Rh24  1  0.326070  0.672667  0.498630  1
  Rh  Rh25  1  0.673074  0.328423  0.499066  1
  Rh  Rh26  1  0.999395  0.997376  0.002532  1
  Rh  Rh27  1  0.999395  0.997376  0.497468  1
