# generated using pymatgen
data_CaNd7(US5)4
_symmetry_space_group_name_H-M   'P 1'
_cell_length_a   7.49092007
_cell_length_b   8.01039742
_cell_length_c   11.83589100
_cell_angle_alpha   89.92316593
_cell_angle_beta   89.93331099
_cell_angle_gamma   90.01310725
_symmetry_Int_Tables_number   1
_chemical_formula_structural   CaNd7(US5)4
_chemical_formula_sum   'Ca1 Nd7 U4 S20'
_cell_volume   710.21442202
_cell_formula_units_Z   1
loop_
 _symmetry_equiv_pos_site_id
 _symmetry_equiv_pos_as_xyz
  1  'x, y, z'
loop_
 _atom_site_type_symbol
 _atom_site_label
 _atom_site_symmetry_multiplicity
 _atom_site_fract_x
 _atom_site_fract_y
 _atom_site_fract_z
 _atom_site_occupancy
  Ca  Ca0  1  0.524974  0.500173  0.322063  1
  Nd  Nd1  1  0.973368  0.000202  0.823249  1
  Nd  Nd2  1  0.473361  0.000163  0.675886  1
  Nd  Nd3  1  0.026412  0.499952  0.178960  1
  Nd  Nd4  1  0.473400  0.500235  0.674720  1
  Nd  Nd5  1  0.028961  0.999889  0.177545  1
  Nd  Nd6  1  0.526217  0.999456  0.323078  1
  Nd  Nd7  1  0.972298  0.500051  0.823936  1
  U  U8  1  0.071691  0.750030  0.489720  1
  U  U9  1  0.428629  0.749229  0.991875  1
  U  U10  1  0.926295  0.250768  0.507133  1
  U  U11  1  0.570582  0.250868  0.011006  1
  S  S12  1  0.837710  0.956566  0.593618  1
  S  S13  1  0.664414  0.544125  0.091011  1
  S  S14  1  0.161967  0.456848  0.407562  1
  S  S15  1  0.337661  0.042653  0.906280  1
  S  S16  1  0.164268  0.044240  0.407527  1
  S  S17  1  0.337185  0.457023  0.905916  1
  S  S18  1  0.837248  0.543710  0.594347  1
  S  S19  1  0.664147  0.955760  0.092905  1
  S  S20  1  0.835517  0.752527  0.314208  1
  S  S21  1  0.667473  0.750402  0.813931  1
  S  S22  1  0.166026  0.250314  0.685523  1
  S  S23  1  0.329821  0.246576  0.184965  1
  S  S24  1  0.453399  0.752275  0.500725  1
  S  S25  1  0.046117  0.749578  0.999529  1
  S  S26  1  0.546991  0.248317  0.501814  1
  S  S27  1  0.954141  0.249568  0.000437  1
  S  S28  1  0.192996  0.749645  0.714348  1
  S  S29  1  0.306411  0.750582  0.214390  1
  S  S30  1  0.806875  0.248032  0.284837  1
  S  S31  1  0.693445  0.250243  0.786956  1
