# generated using pymatgen
data_NaEuDyI6
_symmetry_space_group_name_H-M   'P 1'
_cell_length_a   8.81364424
_cell_length_b   8.81405031
_cell_length_c   8.81366900
_cell_angle_alpha   53.48171367
_cell_angle_beta   53.48031718
_cell_angle_gamma   53.47711562
_symmetry_Int_Tables_number   1
_chemical_formula_structural   NaEuDyI6
_chemical_formula_sum   'Na1 Eu1 Dy1 I6'
_cell_volume   410.27119158
_cell_formula_units_Z   1
loop_
 _symmetry_equiv_pos_site_id
 _symmetry_equiv_pos_as_xyz
  1  'x, y, z'
loop_
 _atom_site_type_symbol
 _atom_site_label
 _atom_site_symmetry_multiplicity
 _atom_site_fract_x
 _atom_site_fract_y
 _atom_site_fract_z
 _atom_site_occupancy
  Na  Na0  1  0.669706  0.669723  0.669754  1
  Eu  Eu1  1  0.330757  0.330811  0.330754  1
  Dy  Dy2  1  0.999943  0.999931  0.999938  1
  I  I3  1  0.234947  0.611717  0.916671  1
  I  I4  1  0.611729  0.916701  0.234922  1
  I  I5  1  0.916690  0.234922  0.611733  1
  I  I6  1  0.763562  0.386610  0.086051  1
  I  I7  1  0.386631  0.086026  0.763553  1
  I  I8  1  0.086037  0.763559  0.386624  1
