# generated using pymatgen
data_Ca3Eu(H6Pd)2
_symmetry_space_group_name_H-M   'P 1'
_cell_length_a   7.42860487
_cell_length_b   7.42860595
_cell_length_c   5.29536800
_cell_angle_alpha   90.02778171
_cell_angle_beta   90.02778172
_cell_angle_gamma   138.11965360
_symmetry_Int_Tables_number   1
_chemical_formula_structural   Ca3Eu(H6Pd)2
_chemical_formula_sum   'Ca3 Eu1 H12 Pd2'
_cell_volume   195.07958596
_cell_formula_units_Z   1
loop_
 _symmetry_equiv_pos_site_id
 _symmetry_equiv_pos_as_xyz
  1  'x, y, z'
loop_
 _atom_site_type_symbol
 _atom_site_label
 _atom_site_symmetry_multiplicity
 _atom_site_fract_x
 _atom_site_fract_y
 _atom_site_fract_z
 _atom_site_occupancy
  Ca  Ca0  1  0.652911  0.347089  0.000000  1
  Ca  Ca1  1  0.849456  0.150544  0.500000  1
  Ca  Ca2  1  0.350143  0.649857  0.000000  1
  Eu  Eu3  1  0.149716  0.850284  0.500000  1
  H  H4  1  0.999723  0.497832  0.751408  1
  H  H5  1  0.502168  0.000277  0.248592  1
  H  H6  1  0.000280  0.498272  0.248392  1
  H  H7  1  0.501728  0.999720  0.751608  1
  H  H8  1  0.376349  0.623651  0.500000  1
  H  H9  1  0.876899  0.123101  0.000000  1
  H  H10  1  0.622189  0.377811  0.500000  1
  H  H11  1  0.122060  0.877940  0.000000  1
  H  H12  1  0.253618  0.254489  0.743233  1
  H  H13  1  0.745511  0.746382  0.256767  1
  H  H14  1  0.243152  0.243978  0.247224  1
  H  H15  1  0.756022  0.756848  0.752776  1
  Pd  Pd16  1  0.498970  0.501030  0.500000  1
  Pd  Pd17  1  0.999108  0.000892  0.000000  1
