# generated using pymatgen
data_EuTc12Cl25
_symmetry_space_group_name_H-M   'P 1'
_cell_length_a   9.42337592
_cell_length_b   10.45977238
_cell_length_c   11.08143300
_cell_angle_alpha   84.41765611
_cell_angle_beta   74.30918756
_cell_angle_gamma   87.72466265
_symmetry_Int_Tables_number   1
_chemical_formula_structural   EuTc12Cl25
_chemical_formula_sum   'Eu1 Tc12 Cl25'
_cell_volume   1046.46446164
_cell_formula_units_Z   1
loop_
 _symmetry_equiv_pos_site_id
 _symmetry_equiv_pos_as_xyz
  1  'x, y, z'
loop_
 _atom_site_type_symbol
 _atom_site_label
 _atom_site_symmetry_multiplicity
 _atom_site_fract_x
 _atom_site_fract_y
 _atom_site_fract_z
 _atom_site_occupancy
  Eu  Eu0  1  0.500000  0.000000  0.000000  1
  Tc  Tc1  1  0.825708  0.251861  0.116844  1
  Tc  Tc2  1  0.174292  0.748139  0.883156  1
  Tc  Tc3  1  0.745107  0.114036  0.282908  1
  Tc  Tc4  1  0.254893  0.885964  0.717092  1
  Tc  Tc5  1  0.072227  0.270485  0.183337  1
  Tc  Tc6  1  0.927773  0.729515  0.816663  1
  Tc  Tc7  1  0.848009  0.430691  0.261665  1
  Tc  Tc8  1  0.151991  0.569309  0.738335  1
  Tc  Tc9  1  0.763676  0.294677  0.430672  1
  Tc  Tc10  1  0.236324  0.705323  0.569328  1
  Tc  Tc11  1  0.987884  0.137336  0.353194  1
  Tc  Tc12  1  0.012116  0.862664  0.646806  1
  Cl  Cl13  1  0.935030  0.957479  0.260293  1
  Cl  Cl14  1  0.064970  0.042521  0.739707  1
  Cl  Cl15  1  0.969248  0.275875  0.513472  1
  Cl  Cl16  1  0.030752  0.724125  0.486528  1
  Cl  Cl17  1  0.651398  0.420797  0.165936  1
  Cl  Cl18  1  0.348602  0.579203  0.834064  1
  Cl  Cl19  1  0.092849  0.460290  0.275598  1
  Cl  Cl20  1  0.907151  0.539710  0.724402  1
  Cl  Cl21  1  0.000000  0.500000  0.000000  1
  Cl  Cl22  1  0.587644  0.960336  0.230929  1
  Cl  Cl23  1  0.412356  0.039664  0.769071  1
  Cl  Cl24  1  0.190286  0.026145  0.411368  1
  Cl  Cl25  1  0.809714  0.973855  0.588632  1
  Cl  Cl26  1  0.540076  0.221454  0.404341  1
  Cl  Cl27  1  0.459924  0.778546  0.595659  1
  Cl  Cl28  1  0.052198  0.154744  0.017586  1
  Cl  Cl29  1  0.947802  0.845256  0.982414  1
  Cl  Cl30  1  0.782675  0.640913  0.309053  1
  Cl  Cl31  1  0.217325  0.359087  0.690947  1
  Cl  Cl32  1  0.723319  0.196123  0.947125  1
  Cl  Cl33  1  0.276681  0.803877  0.052875  1
  Cl  Cl34  1  0.337808  0.235997  0.107741  1
  Cl  Cl35  1  0.662192  0.764003  0.892259  1
  Cl  Cl36  1  0.634746  0.400286  0.602621  1
  Cl  Cl37  1  0.365254  0.599714  0.397379  1
