# generated using pymatgen
data_DyAl7Cu5
_symmetry_space_group_name_H-M   'P 1'
_cell_length_a   5.08088139
_cell_length_b   6.67073924
_cell_length_c   6.67073994
_cell_angle_alpha   97.57180881
_cell_angle_beta   112.38532254
_cell_angle_gamma   67.61467515
_symmetry_Int_Tables_number   1
_chemical_formula_structural   DyAl7Cu5
_chemical_formula_sum   'Dy1 Al7 Cu5'
_cell_volume   193.27847821
_cell_formula_units_Z   1
loop_
 _symmetry_equiv_pos_site_id
 _symmetry_equiv_pos_as_xyz
  1  'x, y, z'
loop_
 _atom_site_type_symbol
 _atom_site_label
 _atom_site_symmetry_multiplicity
 _atom_site_fract_x
 _atom_site_fract_y
 _atom_site_fract_z
 _atom_site_occupancy
  Dy  Dy0  1  0.000290  0.999710  0.000290  1
  Al  Al1  1  0.650177  0.349823  0.650177  1
  Al  Al2  1  0.345595  0.654405  0.345595  1
  Al  Al3  1  0.992618  0.355263  0.340499  1
  Al  Al4  1  0.992618  0.659501  0.644737  1
  Al  Al5  1  0.275492  0.224508  0.775492  1
  Al  Al6  1  0.506591  0.783557  0.796739  1
  Al  Al7  1  0.506591  0.203261  0.216443  1
  Cu  Cu8  1  0.499525  0.000585  0.503460  1
  Cu  Cu9  1  0.003350  0.000585  0.503460  1
  Cu  Cu10  1  0.499525  0.496540  0.999415  1
  Cu  Cu11  1  0.003350  0.496540  0.999415  1
  Cu  Cu12  1  0.724274  0.775726  0.224274  1
