# generated using pymatgen
data_Nd6Mn3TcC12
_symmetry_space_group_name_H-M   'P 1'
_cell_length_a   8.24186500
_cell_length_b   8.24186558
_cell_length_c   5.27064600
_cell_angle_alpha   90.00000000
_cell_angle_beta   90.00000000
_cell_angle_gamma   119.99998563
_symmetry_Int_Tables_number   1
_chemical_formula_structural   Nd6Mn3TcC12
_chemical_formula_sum   'Nd6 Mn3 Tc1 C12'
_cell_volume   310.05987410
_cell_formula_units_Z   1
loop_
 _symmetry_equiv_pos_site_id
 _symmetry_equiv_pos_as_xyz
  1  'x, y, z'
loop_
 _atom_site_type_symbol
 _atom_site_label
 _atom_site_symmetry_multiplicity
 _atom_site_fract_x
 _atom_site_fract_y
 _atom_site_fract_z
 _atom_site_occupancy
  Nd  Nd0  1  0.615802  0.686478  0.751087  1
  Nd  Nd1  1  0.929323  0.615802  0.248913  1
  Nd  Nd2  1  0.686478  0.070677  0.248913  1
  Nd  Nd3  1  0.313522  0.929323  0.751087  1
  Nd  Nd4  1  0.070677  0.384198  0.751087  1
  Nd  Nd5  1  0.384198  0.313522  0.248913  1
  Mn  Mn6  1  0.000000  0.000000  0.000000  1
  Mn  Mn7  1  0.666667  0.333333  0.748781  1
  Mn  Mn8  1  0.333333  0.666667  0.251219  1
  Tc  Tc9  1  0.000000  0.000000  0.500000  1
  C  C10  1  0.955820  0.769783  0.757175  1
  C  C11  1  0.186037  0.955820  0.242825  1
  C  C12  1  0.769783  0.813963  0.242825  1
  C  C13  1  0.230217  0.186037  0.757175  1
  C  C14  1  0.813963  0.044180  0.757175  1
  C  C15  1  0.044180  0.230217  0.242825  1
  C  C16  1  0.858634  0.577608  0.752115  1
  C  C17  1  0.281025  0.858634  0.247885  1
  C  C18  1  0.577608  0.718975  0.247885  1
  C  C19  1  0.422392  0.281025  0.752115  1
  C  C20  1  0.141366  0.422392  0.247885  1
  C  C21  1  0.718975  0.141366  0.752115  1
