# generated using pymatgen
data_Dy5HoCo4(P6Ru7)2
_symmetry_space_group_name_H-M   'P 1'
_cell_length_a   3.86850000
_cell_length_b   10.87400100
_cell_length_c   12.66510200
_cell_angle_alpha   89.99962483
_cell_angle_beta   90.00000000
_cell_angle_gamma   90.00000000
_symmetry_Int_Tables_number   1
_chemical_formula_structural   Dy5HoCo4(P6Ru7)2
_chemical_formula_sum   'Dy5 Ho1 Co4 P12 Ru14'
_cell_volume   532.77110361
_cell_formula_units_Z   1
loop_
 _symmetry_equiv_pos_site_id
 _symmetry_equiv_pos_as_xyz
  1  'x, y, z'
loop_
 _atom_site_type_symbol
 _atom_site_label
 _atom_site_symmetry_multiplicity
 _atom_site_fract_x
 _atom_site_fract_y
 _atom_site_fract_z
 _atom_site_occupancy
  Dy  Dy0  1  0.000000  0.499998  0.526094  1
  Dy  Dy1  1  0.500000  0.000016  0.473202  1
  Dy  Dy2  1  0.500000  0.821716  0.202981  1
  Dy  Dy3  1  0.000000  0.681210  0.797601  1
  Dy  Dy4  1  0.000000  0.318785  0.797601  1
  Ho  Ho5  1  0.500000  0.178341  0.202962  1
  Co  Co6  1  0.000000  0.499955  0.988439  1
  Co  Co7  1  0.500000  0.000098  0.012927  1
  Co  Co8  1  0.000000  0.162504  0.010157  1
  Co  Co9  1  0.000000  0.837543  0.010047  1
  P  P10  1  0.500000  0.306423  0.616709  1
  P  P11  1  0.500000  0.693572  0.616723  1
  P  P12  1  0.000000  0.193408  0.383716  1
  P  P13  1  0.000000  0.806570  0.383829  1
  P  P14  1  0.500000  0.499973  0.886209  1
  P  P15  1  0.000000  0.000161  0.112758  1
  P  P16  1  0.500000  0.851803  0.895930  1
  P  P17  1  0.500000  0.148207  0.895890  1
  P  P18  1  0.000000  0.655975  0.101565  1
  P  P19  1  0.000000  0.343860  0.101666  1
  P  P20  1  0.500000  0.500020  0.336945  1
  P  P21  1  0.000000  0.999998  0.662263  1
  Ru  Ru22  1  0.500000  0.300166  0.429313  1
  Ru  Ru23  1  0.500000  0.699797  0.429417  1
  Ru  Ru24  1  0.000000  0.199569  0.570845  1
  Ru  Ru25  1  0.000000  0.800442  0.570874  1
  Ru  Ru26  1  0.500000  0.877707  0.715482  1
  Ru  Ru27  1  0.500000  0.122284  0.715482  1
  Ru  Ru28  1  0.000000  0.623887  0.282656  1
  Ru  Ru29  1  0.000000  0.375853  0.282519  1
  Ru  Ru30  1  0.500000  0.326779  0.992678  1
  Ru  Ru31  1  0.500000  0.673109  0.992547  1
  Ru  Ru32  1  0.500000  0.500008  0.152113  1
  Ru  Ru33  1  0.000000  0.000012  0.851058  1
  Ru  Ru34  1  0.500000  0.500003  0.700214  1
  Ru  Ru35  1  0.000000  0.000249  0.298588  1
