# generated using pymatgen
data_Ho4ReOs6W
_symmetry_space_group_name_H-M   'P 1'
_cell_length_a   5.22655978
_cell_length_b   5.22655856
_cell_length_c   8.97452200
_cell_angle_alpha   90.00000000
_cell_angle_beta   90.00000000
_cell_angle_gamma   115.96265807
_symmetry_Int_Tables_number   1
_chemical_formula_structural   Ho4ReOs6W
_chemical_formula_sum   'Ho4 Re1 Os6 W1'
_cell_volume   220.41502413
_cell_formula_units_Z   1
loop_
 _symmetry_equiv_pos_site_id
 _symmetry_equiv_pos_as_xyz
  1  'x, y, z'
loop_
 _atom_site_type_symbol
 _atom_site_label
 _atom_site_symmetry_multiplicity
 _atom_site_fract_x
 _atom_site_fract_y
 _atom_site_fract_z
 _atom_site_occupancy
  Ho  Ho0  1  0.329141  0.670859  0.436889  1
  Ho  Ho1  1  0.667142  0.332858  0.565029  1
  Ho  Ho2  1  0.667142  0.332858  0.934971  1
  Ho  Ho3  1  0.329141  0.670859  0.063111  1
  Re  Re4  1  0.172405  0.827595  0.750000  1
  Os  Os5  1  0.996986  0.003014  0.502152  1
  Os  Os6  1  0.996986  0.003014  0.997848  1
  Os  Os7  1  0.826412  0.651044  0.250000  1
  Os  Os8  1  0.348956  0.173588  0.250000  1
  Os  Os9  1  0.170779  0.341951  0.750000  1
  Os  Os10  1  0.658049  0.829221  0.750000  1
  W  W11  1  0.836861  0.163139  0.250000  1
