# generated using pymatgen
data_La10SnBi5P2
_symmetry_space_group_name_H-M   'P 1'
_cell_length_a   9.72698608
_cell_length_b   9.72698511
_cell_length_c   6.99871200
_cell_angle_alpha   90.00000000
_cell_angle_beta   90.00000000
_cell_angle_gamma   119.83506871
_symmetry_Int_Tables_number   1
_chemical_formula_structural   La10SnBi5P2
_chemical_formula_sum   'La10 Sn1 Bi5 P2'
_cell_volume   574.41355753
_cell_formula_units_Z   1
loop_
 _symmetry_equiv_pos_site_id
 _symmetry_equiv_pos_as_xyz
  1  'x, y, z'
loop_
 _atom_site_type_symbol
 _atom_site_label
 _atom_site_symmetry_multiplicity
 _atom_site_fract_x
 _atom_site_fract_y
 _atom_site_fract_z
 _atom_site_occupancy
  La  La0  1  0.760014  0.760014  0.750000  1
  La  La1  1  0.239685  0.002537  0.750000  1
  La  La2  1  0.002537  0.239685  0.750000  1
  La  La3  1  0.239566  0.239566  0.250000  1
  La  La4  1  0.761497  0.000133  0.250000  1
  La  La5  1  0.000133  0.761497  0.250000  1
  La  La6  1  0.665135  0.333491  0.998999  1
  La  La7  1  0.333491  0.665135  0.998999  1
  La  La8  1  0.333491  0.665135  0.501001  1
  La  La9  1  0.665135  0.333491  0.501001  1
  Sn  Sn10  1  0.397186  0.397186  0.750000  1
  Bi  Bi11  1  0.603847  0.999940  0.750000  1
  Bi  Bi12  1  0.999940  0.603847  0.750000  1
  Bi  Bi13  1  0.603403  0.603403  0.250000  1
  Bi  Bi14  1  0.396010  0.999944  0.250000  1
  Bi  Bi15  1  0.999944  0.396010  0.250000  1
  P  P16  1  0.999494  0.999494  0.000188  1
  P  P17  1  0.999494  0.999494  0.499812  1
