# generated using pymatgen
data_TbDy3Sc4(B6Ir)4
_symmetry_space_group_name_H-M   'P 1'
_cell_length_a   3.55051500
_cell_length_b   9.01718800
_cell_length_c   11.38855000
_cell_angle_alpha   90.00223520
_cell_angle_beta   90.00000000
_cell_angle_gamma   90.00000000
_symmetry_Int_Tables_number   1
_chemical_formula_structural   TbDy3Sc4(B6Ir)4
_chemical_formula_sum   'Tb1 Dy3 Sc4 B24 Ir4'
_cell_volume   364.61195881
_cell_formula_units_Z   1
loop_
 _symmetry_equiv_pos_site_id
 _symmetry_equiv_pos_as_xyz
  1  'x, y, z'
loop_
 _atom_site_type_symbol
 _atom_site_label
 _atom_site_symmetry_multiplicity
 _atom_site_fract_x
 _atom_site_fract_y
 _atom_site_fract_z
 _atom_site_occupancy
  Tb  Tb0  1  0.500000  0.320039  0.414073  1
  Dy  Dy1  1  0.500000  0.680053  0.585920  1
  Dy  Dy2  1  0.500000  0.180048  0.914083  1
  Dy  Dy3  1  0.500000  0.819942  0.085911  1
  Sc  Sc4  1  0.500000  0.445158  0.124249  1
  Sc  Sc5  1  0.500000  0.554870  0.875721  1
  Sc  Sc6  1  0.500000  0.054810  0.624331  1
  Sc  Sc7  1  0.500000  0.945083  0.375720  1
  B  B8  1  0.000000  0.099955  0.472993  1
  B  B9  1  0.000000  0.899776  0.527083  1
  B  B10  1  0.000000  0.399775  0.972905  1
  B  B11  1  0.000000  0.600235  0.027078  1
  B  B12  1  0.000000  0.129707  0.318333  1
  B  B13  1  0.000000  0.870099  0.681554  1
  B  B14  1  0.000000  0.370104  0.818473  1
  B  B15  1  0.000000  0.629919  0.181519  1
  B  B16  1  0.000000  0.054740  0.065780  1
  B  B17  1  0.000000  0.945244  0.934200  1
  B  B18  1  0.000000  0.445374  0.565981  1
  B  B19  1  0.000000  0.554938  0.434199  1
  B  B20  1  0.000000  0.481993  0.284880  1
  B  B21  1  0.000000  0.518205  0.715013  1
  B  B22  1  0.000000  0.018169  0.785009  1
  B  B23  1  0.000000  0.981778  0.214982  1
  B  B24  1  0.000000  0.254046  0.080288  1
  B  B25  1  0.000000  0.745951  0.919678  1
  B  B26  1  0.000000  0.245867  0.580533  1
  B  B27  1  0.000000  0.754077  0.419692  1
  B  B28  1  0.000000  0.295635  0.235187  1
  B  B29  1  0.000000  0.704317  0.764622  1
  B  B30  1  0.000000  0.204290  0.735428  1
  B  B31  1  0.000000  0.795710  0.264593  1
  Ir  Ir32  1  0.500000  0.141355  0.181393  1
  Ir  Ir33  1  0.500000  0.858534  0.818502  1
  Ir  Ir34  1  0.500000  0.358528  0.681682  1
  Ir  Ir35  1  0.500000  0.641673  0.318411  1
