# generated using pymatgen
data_Tb2Y3Zr3(As3Rh4)4
_symmetry_space_group_name_H-M   'P 1'
_cell_length_a   13.33491700
_cell_length_b   13.33491735
_cell_length_c   4.01601400
_cell_angle_alpha   90.00000000
_cell_angle_beta   90.00000000
_cell_angle_gamma   120.00000160
_symmetry_Int_Tables_number   1
_chemical_formula_structural   Tb2Y3Zr3(As3Rh4)4
_chemical_formula_sum   'Tb2 Y3 Zr3 As12 Rh16'
_cell_volume   618.45269745
_cell_formula_units_Z   1
loop_
 _symmetry_equiv_pos_site_id
 _symmetry_equiv_pos_as_xyz
  1  'x, y, z'
loop_
 _atom_site_type_symbol
 _atom_site_label
 _atom_site_symmetry_multiplicity
 _atom_site_fract_x
 _atom_site_fract_y
 _atom_site_fract_z
 _atom_site_occupancy
  Tb  Tb0  1  0.333333  0.666667  0.000000  1
  Tb  Tb1  1  0.666667  0.333333  0.000000  1
  Y  Y2  1  0.187534  0.187534  0.500000  1
  Y  Y3  1  0.812466  0.000000  0.500000  1
  Y  Y4  1  0.000000  0.812466  0.500000  1
  Zr  Zr5  1  0.556504  0.556504  0.000000  1
  Zr  Zr6  1  0.443496  0.000000  0.000000  1
  Zr  Zr7  1  0.000000  0.443496  0.000000  1
  As  As8  1  0.824658  0.824658  0.000000  1
  As  As9  1  0.175342  0.000000  0.000000  1
  As  As10  1  0.000000  0.175342  0.000000  1
  As  As11  1  0.170559  0.485525  0.500000  1
  As  As12  1  0.514475  0.685035  0.500000  1
  As  As13  1  0.314965  0.829441  0.500000  1
  As  As14  1  0.685035  0.514475  0.500000  1
  As  As15  1  0.829441  0.314965  0.500000  1
  As  As16  1  0.485525  0.170559  0.500000  1
  As  As17  1  0.354481  0.354481  0.000000  1
  As  As18  1  0.645519  0.000000  0.000000  1
  As  As19  1  0.000000  0.645519  0.000000  1
  Rh  Rh20  1  0.719268  0.719268  0.500000  1
  Rh  Rh21  1  0.280732  0.000000  0.500000  1
  Rh  Rh22  1  0.000000  0.280732  0.500000  1
  Rh  Rh23  1  0.176468  0.373921  0.000000  1
  Rh  Rh24  1  0.626079  0.802547  0.000000  1
  Rh  Rh25  1  0.197453  0.823532  0.000000  1
  Rh  Rh26  1  0.802547  0.626079  0.000000  1
  Rh  Rh27  1  0.823532  0.197453  0.000000  1
  Rh  Rh28  1  0.373921  0.176468  0.000000  1
  Rh  Rh29  1  0.354901  0.482249  0.500000  1
  Rh  Rh30  1  0.517751  0.872653  0.500000  1
  Rh  Rh31  1  0.127347  0.645099  0.500000  1
  Rh  Rh32  1  0.872653  0.517751  0.500000  1
  Rh  Rh33  1  0.645099  0.127347  0.500000  1
  Rh  Rh34  1  0.482249  0.354901  0.500000  1
  Rh  Rh35  1  0.000000  0.000000  0.000000  1
