# generated using pymatgen
data_KDy(PS3)2
_symmetry_space_group_name_H-M   'P 1'
_cell_length_a   7.39114400
_cell_length_b   6.56598493
_cell_length_c   10.19339365
_cell_angle_alpha   86.71271099
_cell_angle_beta   90.00000000
_cell_angle_gamma   90.00000000
_symmetry_Int_Tables_number   1
_chemical_formula_structural   KDy(PS3)2
_chemical_formula_sum   'K2 Dy2 P4 S12'
_cell_volume   493.87284576
_cell_formula_units_Z   2
loop_
 _symmetry_equiv_pos_site_id
 _symmetry_equiv_pos_as_xyz
  1  'x, y, z'
loop_
 _atom_site_type_symbol
 _atom_site_label
 _atom_site_symmetry_multiplicity
 _atom_site_fract_x
 _atom_site_fract_y
 _atom_site_fract_z
 _atom_site_occupancy
  K  K0  1  0.474723  0.691993  0.501549  1
  K  K1  1  0.974723  0.308007  0.498451  1
  Dy  Dy2  1  0.202138  0.216514  0.998517  1
  Dy  Dy3  1  0.702138  0.783486  0.001483  1
  P  P4  1  0.686381  0.329688  0.833997  1
  P  P5  1  0.962479  0.800611  0.284694  1
  P  P6  1  0.186381  0.670312  0.166003  1
  P  P7  1  0.462479  0.199389  0.715306  1
  S  S8  1  0.775482  0.598277  0.753304  1
  S  S9  1  0.548040  0.168143  0.533219  1
  S  S10  1  0.757081  0.602500  0.262790  1
  S  S11  1  0.565650  0.375917  0.012463  1
  S  S12  1  0.397944  0.947500  0.837665  1
  S  S13  1  0.257081  0.397500  0.737210  1
  S  S14  1  0.065650  0.624083  0.987537  1
  S  S15  1  0.897944  0.052500  0.162335  1
  S  S16  1  0.048040  0.831857  0.466781  1
  S  S17  1  0.378972  0.898382  0.157655  1
  S  S18  1  0.878972  0.101618  0.842345  1
  S  S19  1  0.275482  0.401723  0.246696  1
