# generated using pymatgen
data_TbTm7(LuRu2)2
_symmetry_space_group_name_H-M   'P 1'
_cell_length_a   6.24899466
_cell_length_b   7.22858311
_cell_length_c   8.35201336
_cell_angle_alpha   96.94240091
_cell_angle_beta   111.98470095
_cell_angle_gamma   89.89752782
_symmetry_Int_Tables_number   1
_chemical_formula_structural   TbTm7(LuRu2)2
_chemical_formula_sum   'Tb1 Tm7 Lu2 Ru4'
_cell_volume   346.88592751
_cell_formula_units_Z   1
loop_
 _symmetry_equiv_pos_site_id
 _symmetry_equiv_pos_as_xyz
  1  'x, y, z'
loop_
 _atom_site_type_symbol
 _atom_site_label
 _atom_site_symmetry_multiplicity
 _atom_site_fract_x
 _atom_site_fract_y
 _atom_site_fract_z
 _atom_site_occupancy
  Tb  Tb0  1  0.523146  0.083254  0.813000  1
  Tm  Tm1  1  0.478073  0.915934  0.186796  1
  Tm  Tm2  1  0.707952  0.416270  0.186662  1
  Tm  Tm3  1  0.291126  0.583887  0.814530  1
  Tm  Tm4  1  0.296224  0.315307  0.433246  1
  Tm  Tm5  1  0.703758  0.685412  0.566102  1
  Tm  Tm6  1  0.863323  0.185646  0.565510  1
  Tm  Tm7  1  0.136659  0.813330  0.433248  1
  Lu  Lu8  1  0.079682  0.251099  0.000937  1
  Lu  Lu9  1  0.921040  0.748946  0.000271  1
  Ru  Ru10  1  0.321873  0.576641  0.218869  1
  Ru  Ru11  1  0.679235  0.424640  0.780038  1
  Ru  Ru12  1  0.099091  0.923193  0.780134  1
  Ru  Ru13  1  0.898819  0.076441  0.220658  1
