# generated using pymatgen
data_Ho8Co3Si12Rh
_symmetry_space_group_name_H-M   'P 1'
_cell_length_a   8.01237300
_cell_length_b   8.01237276
_cell_length_c   7.85707400
_cell_angle_alpha   90.00000000
_cell_angle_beta   90.00000000
_cell_angle_gamma   120.00000511
_symmetry_Int_Tables_number   1
_chemical_formula_structural   Ho8Co3Si12Rh
_chemical_formula_sum   'Ho8 Co3 Si12 Rh1'
_cell_volume   436.83130856
_cell_formula_units_Z   1
loop_
 _symmetry_equiv_pos_site_id
 _symmetry_equiv_pos_as_xyz
  1  'x, y, z'
loop_
 _atom_site_type_symbol
 _atom_site_label
 _atom_site_symmetry_multiplicity
 _atom_site_fract_x
 _atom_site_fract_y
 _atom_site_fract_z
 _atom_site_occupancy
  Ho  Ho0  1  0.000000  0.000000  0.251044  1
  Ho  Ho1  1  0.000000  0.000000  0.748711  1
  Ho  Ho2  1  0.508276  0.491724  0.251409  1
  Ho  Ho3  1  0.508276  0.016552  0.251409  1
  Ho  Ho4  1  0.983448  0.491724  0.251409  1
  Ho  Ho5  1  0.494385  0.505615  0.749755  1
  Ho  Ho6  1  0.494385  0.988770  0.749755  1
  Ho  Ho7  1  0.011230  0.505615  0.749755  1
  Co  Co8  1  0.333333  0.666667  0.467090  1
  Co  Co9  1  0.666667  0.333333  0.532496  1
  Co  Co10  1  0.666667  0.333333  0.967363  1
  Si  Si11  1  0.171748  0.828252  0.498654  1
  Si  Si12  1  0.171748  0.343495  0.498654  1
  Si  Si13  1  0.656505  0.828252  0.498654  1
  Si  Si14  1  0.828902  0.171098  0.501610  1
  Si  Si15  1  0.828902  0.657806  0.501610  1
  Si  Si16  1  0.342194  0.171098  0.501610  1
  Si  Si17  1  0.828083  0.171917  0.998569  1
  Si  Si18  1  0.828083  0.656166  0.998569  1
  Si  Si19  1  0.343834  0.171917  0.998569  1
  Si  Si20  1  0.166232  0.833768  0.999888  1
  Si  Si21  1  0.166232  0.332462  0.999888  1
  Si  Si22  1  0.667538  0.833768  0.999888  1
  Rh  Rh23  1  0.333333  0.666667  0.033640  1
