# generated using pymatgen
data_Yb3PrEr4(Si3Au)4
_symmetry_space_group_name_H-M   'P 1'
_cell_length_a   8.22108500
_cell_length_b   8.22108485
_cell_length_c   8.33120700
_cell_angle_alpha   90.00000000
_cell_angle_beta   90.00000000
_cell_angle_gamma   120.00000461
_symmetry_Int_Tables_number   1
_chemical_formula_structural   Yb3PrEr4(Si3Au)4
_chemical_formula_sum   'Yb3 Pr1 Er4 Si12 Au4'
_cell_volume   487.63717441
_cell_formula_units_Z   1
loop_
 _symmetry_equiv_pos_site_id
 _symmetry_equiv_pos_as_xyz
  1  'x, y, z'
loop_
 _atom_site_type_symbol
 _atom_site_label
 _atom_site_symmetry_multiplicity
 _atom_site_fract_x
 _atom_site_fract_y
 _atom_site_fract_z
 _atom_site_occupancy
  Yb  Yb0  1  0.500715  0.499285  0.250000  1
  Yb  Yb1  1  0.998569  0.499285  0.250000  1
  Yb  Yb2  1  0.500715  0.001431  0.250000  1
  Pr  Pr3  1  0.000000  0.000000  0.250000  1
  Er  Er4  1  0.499444  0.500556  0.750000  1
  Er  Er5  1  0.001112  0.500556  0.750000  1
  Er  Er6  1  0.499444  0.998888  0.750000  1
  Er  Er7  1  0.000000  0.000000  0.750000  1
  Si  Si8  1  0.836633  0.163367  0.990609  1
  Si  Si9  1  0.163433  0.836567  0.990046  1
  Si  Si10  1  0.326733  0.163367  0.990609  1
  Si  Si11  1  0.163433  0.836567  0.509954  1
  Si  Si12  1  0.673136  0.836567  0.990046  1
  Si  Si13  1  0.836633  0.163367  0.509391  1
  Si  Si14  1  0.836633  0.673267  0.990609  1
  Si  Si15  1  0.673136  0.836567  0.509954  1
  Si  Si16  1  0.163433  0.326864  0.990046  1
  Si  Si17  1  0.326733  0.163367  0.509391  1
  Si  Si18  1  0.163433  0.326864  0.509954  1
  Si  Si19  1  0.836633  0.673267  0.509391  1
  Au  Au20  1  0.666667  0.333333  0.993488  1
  Au  Au21  1  0.333333  0.666667  0.997063  1
  Au  Au22  1  0.333333  0.666667  0.502937  1
  Au  Au23  1  0.666667  0.333333  0.506512  1
