# generated using pymatgen
data_Y4PaHgPd14
_symmetry_space_group_name_H-M   'P 1'
_cell_length_a   4.18278900
_cell_length_b   4.11142900
_cell_length_c   21.01297700
_cell_angle_alpha   90.00000000
_cell_angle_beta   90.00000000
_cell_angle_gamma   90.00000000
_symmetry_Int_Tables_number   1
_chemical_formula_structural   Y4PaHgPd14
_chemical_formula_sum   'Y4 Pa1 Hg1 Pd14'
_cell_volume   361.36520849
_cell_formula_units_Z   1
loop_
 _symmetry_equiv_pos_site_id
 _symmetry_equiv_pos_as_xyz
  1  'x, y, z'
loop_
 _atom_site_type_symbol
 _atom_site_label
 _atom_site_symmetry_multiplicity
 _atom_site_fract_x
 _atom_site_fract_y
 _atom_site_fract_z
 _atom_site_occupancy
  Y  Y0  1  0.000000  0.000000  0.198865  1
  Y  Y1  1  0.000000  0.000000  0.389732  1
  Y  Y2  1  0.000000  0.000000  0.610268  1
  Y  Y3  1  0.000000  0.000000  0.801135  1
  Pa  Pa4  1  0.000000  0.000000  0.000000  1
  Hg  Hg5  1  0.500000  0.000000  0.500000  1
  Pd  Pd6  1  0.500000  0.500000  0.000000  1
  Pd  Pd7  1  0.500000  0.500000  0.197208  1
  Pd  Pd8  1  0.500000  0.500000  0.396345  1
  Pd  Pd9  1  0.500000  0.500000  0.603655  1
  Pd  Pd10  1  0.500000  0.500000  0.802792  1
  Pd  Pd11  1  0.500000  0.000000  0.095861  1
  Pd  Pd12  1  0.500000  0.000000  0.296110  1
  Pd  Pd13  1  0.500000  0.000000  0.703890  1
  Pd  Pd14  1  0.500000  0.000000  0.904139  1
  Pd  Pd15  1  0.000000  0.500000  0.095350  1
  Pd  Pd16  1  0.000000  0.500000  0.295889  1
  Pd  Pd17  1  0.000000  0.500000  0.500000  1
  Pd  Pd18  1  0.000000  0.500000  0.704111  1
  Pd  Pd19  1  0.000000  0.500000  0.904650  1
