# generated using pymatgen
data_Th5SnPb2Au
_symmetry_space_group_name_H-M   'P 1'
_cell_length_a   9.68142300
_cell_length_b   9.68142352
_cell_length_c   6.62132800
_cell_angle_alpha   90.00000000
_cell_angle_beta   90.00000000
_cell_angle_gamma   120.39352171
_symmetry_Int_Tables_number   1
_chemical_formula_structural   Th5SnPb2Au
_chemical_formula_sum   'Th10 Sn2 Pb4 Au2'
_cell_volume   535.32596548
_cell_formula_units_Z   2
loop_
 _symmetry_equiv_pos_site_id
 _symmetry_equiv_pos_as_xyz
  1  'x, y, z'
loop_
 _atom_site_type_symbol
 _atom_site_label
 _atom_site_symmetry_multiplicity
 _atom_site_fract_x
 _atom_site_fract_y
 _atom_site_fract_z
 _atom_site_occupancy
  Th  Th0  1  0.273598  0.003898  0.750000  1
  Th  Th1  1  0.726402  0.996102  0.250000  1
  Th  Th2  1  0.003898  0.273598  0.750000  1
  Th  Th3  1  0.996102  0.726402  0.250000  1
  Th  Th4  1  0.724899  0.724899  0.750000  1
  Th  Th5  1  0.275101  0.275101  0.250000  1
  Th  Th6  1  0.336059  0.663941  0.500000  1
  Th  Th7  1  0.663941  0.336059  0.500000  1
  Th  Th8  1  0.663941  0.336059  0.000000  1
  Th  Th9  1  0.336059  0.663941  0.000000  1
  Sn  Sn10  1  0.380365  0.380365  0.750000  1
  Sn  Sn11  1  0.619635  0.619635  0.250000  1
  Pb  Pb12  1  0.620081  0.001083  0.750000  1
  Pb  Pb13  1  0.379919  0.998917  0.250000  1
  Pb  Pb14  1  0.001083  0.620081  0.750000  1
  Pb  Pb15  1  0.998917  0.379919  0.250000  1
  Au  Au16  1  0.000000  0.000000  0.500000  1
  Au  Au17  1  0.000000  0.000000  0.000000  1
