# generated using pymatgen
data_Sc4Be2B4Ir9Ru
_symmetry_space_group_name_H-M   'P 1'
_cell_length_a   9.32174351
_cell_length_b   2.96041300
_cell_length_c   9.32174351
_cell_angle_alpha   90.00000000
_cell_angle_beta   89.41974654
_cell_angle_gamma   90.00000000
_symmetry_Int_Tables_number   1
_chemical_formula_structural   Sc4Be2B4Ir9Ru
_chemical_formula_sum   'Sc4 Be2 B4 Ir9 Ru1'
_cell_volume   257.23160582
_cell_formula_units_Z   1
loop_
 _symmetry_equiv_pos_site_id
 _symmetry_equiv_pos_as_xyz
  1  'x, y, z'
loop_
 _atom_site_type_symbol
 _atom_site_label
 _atom_site_symmetry_multiplicity
 _atom_site_fract_x
 _atom_site_fract_y
 _atom_site_fract_z
 _atom_site_occupancy
  Sc  Sc0  1  0.327605  0.000000  0.172393  1
  Sc  Sc1  1  0.822113  0.000000  0.322112  1
  Sc  Sc2  1  0.177886  0.000000  0.677887  1
  Sc  Sc3  1  0.672394  0.000000  0.827606  1
  Be  Be4  1  0.000000  0.000000  0.000000  1
  Be  Be5  1  0.500001  0.000000  0.500001  1
  B  B6  1  0.624800  0.000000  0.124801  1
  B  B7  1  0.129126  0.000000  0.370875  1
  B  B8  1  0.870875  0.000000  0.629125  1
  B  B9  1  0.375200  0.000000  0.875200  1
  Ir  Ir10  1  0.792145  0.499999  0.067305  1
  Ir  Ir11  1  0.067812  0.499999  0.208072  1
  Ir  Ir12  1  0.567307  0.499999  0.292145  1
  Ir  Ir13  1  0.291929  0.499999  0.432186  1
  Ir  Ir14  1  0.000000  0.499999  0.500001  1
  Ir  Ir15  1  0.708070  0.499999  0.567814  1
  Ir  Ir16  1  0.432693  0.499999  0.707854  1
  Ir  Ir17  1  0.932188  0.499999  0.791929  1
  Ir  Ir18  1  0.207856  0.499999  0.932695  1
  Ru  Ru19  1  0.500001  0.499999  0.000000  1
