# generated using pymatgen
data_TbNd4Ho(SiPd)6
_symmetry_space_group_name_H-M   'P 1'
_cell_length_a   4.41871900
_cell_length_b   7.51352300
_cell_length_c   21.57408500
_cell_angle_alpha   89.99996616
_cell_angle_beta   90.00000000
_cell_angle_gamma   90.00000000
_symmetry_Int_Tables_number   1
_chemical_formula_structural   TbNd4Ho(SiPd)6
_chemical_formula_sum   'Tb2 Nd8 Ho2 Si12 Pd12'
_cell_volume   716.26278987
_cell_formula_units_Z   2
loop_
 _symmetry_equiv_pos_site_id
 _symmetry_equiv_pos_as_xyz
  1  'x, y, z'
loop_
 _atom_site_type_symbol
 _atom_site_label
 _atom_site_symmetry_multiplicity
 _atom_site_fract_x
 _atom_site_fract_y
 _atom_site_fract_z
 _atom_site_occupancy
  Tb  Tb0  1  0.750000  0.210103  0.498571  1
  Tb  Tb1  1  0.250000  0.789897  0.501429  1
  Nd  Nd2  1  0.250000  0.705892  0.333659  1
  Nd  Nd3  1  0.750000  0.294108  0.666341  1
  Nd  Nd4  1  0.750000  0.205961  0.166246  1
  Nd  Nd5  1  0.250000  0.794039  0.833754  1
  Nd  Nd6  1  0.250000  0.794816  0.164942  1
  Nd  Nd7  1  0.750000  0.205184  0.835058  1
  Nd  Nd8  1  0.750000  0.294849  0.334888  1
  Nd  Nd9  1  0.250000  0.705151  0.665112  1
  Ho  Ho10  1  0.250000  0.710693  0.001402  1
  Ho  Ho11  1  0.750000  0.289307  0.998598  1
  Si  Si12  1  0.250000  0.089342  0.067770  1
  Si  Si13  1  0.750000  0.910658  0.932230  1
  Si  Si14  1  0.750000  0.589076  0.432047  1
  Si  Si15  1  0.250000  0.410924  0.567953  1
  Si  Si16  1  0.250000  0.083926  0.273173  1
  Si  Si17  1  0.750000  0.916074  0.726827  1
  Si  Si18  1  0.750000  0.583949  0.226788  1
  Si  Si19  1  0.250000  0.416051  0.773212  1
  Si  Si20  1  0.250000  0.085514  0.397412  1
  Si  Si21  1  0.750000  0.914486  0.602588  1
  Si  Si22  1  0.750000  0.585437  0.102180  1
  Si  Si23  1  0.250000  0.414563  0.897820  1
  Pd  Pd24  1  0.250000  0.416999  0.236397  1
  Pd  Pd25  1  0.750000  0.583001  0.763603  1
  Pd  Pd26  1  0.750000  0.917006  0.263533  1
  Pd  Pd27  1  0.250000  0.082994  0.736467  1
  Pd  Pd28  1  0.250000  0.415875  0.440404  1
  Pd  Pd29  1  0.750000  0.584125  0.559596  1
  Pd  Pd30  1  0.750000  0.915472  0.059238  1
  Pd  Pd31  1  0.250000  0.084528  0.940762  1
  Pd  Pd32  1  0.250000  0.420782  0.090025  1
  Pd  Pd33  1  0.750000  0.579218  0.909975  1
  Pd  Pd34  1  0.750000  0.920361  0.409362  1
  Pd  Pd35  1  0.250000  0.079639  0.590638  1
