# generated using pymatgen
data_Dy3CoNi7P6Ru
_symmetry_space_group_name_H-M   'P 1'
_cell_length_a   3.76435000
_cell_length_b   10.52421900
_cell_length_c   12.35507300
_cell_angle_alpha   90.00000000
_cell_angle_beta   90.00000000
_cell_angle_gamma   90.00000000
_symmetry_Int_Tables_number   1
_chemical_formula_structural   Dy3CoNi7P6Ru
_chemical_formula_sum   'Dy6 Co2 Ni14 P12 Ru2'
_cell_volume   489.46899709
_cell_formula_units_Z   2
loop_
 _symmetry_equiv_pos_site_id
 _symmetry_equiv_pos_as_xyz
  1  'x, y, z'
loop_
 _atom_site_type_symbol
 _atom_site_label
 _atom_site_symmetry_multiplicity
 _atom_site_fract_x
 _atom_site_fract_y
 _atom_site_fract_z
 _atom_site_occupancy
  Dy  Dy0  1  0.000000  0.500000  0.523827  1
  Dy  Dy1  1  0.500000  0.000000  0.476173  1
  Dy  Dy2  1  0.500000  0.815390  0.207412  1
  Dy  Dy3  1  0.500000  0.184610  0.207412  1
  Dy  Dy4  1  0.000000  0.684610  0.792588  1
  Dy  Dy5  1  0.000000  0.315390  0.792588  1
  Co  Co6  1  0.000000  0.500000  0.983696  1
  Co  Co7  1  0.500000  0.000000  0.016304  1
  Ni  Ni8  1  0.500000  0.500000  0.702271  1
  Ni  Ni9  1  0.000000  0.000000  0.297729  1
  Ni  Ni10  1  0.500000  0.330928  0.988814  1
  Ni  Ni11  1  0.500000  0.669072  0.988814  1
  Ni  Ni12  1  0.000000  0.169072  0.011186  1
  Ni  Ni13  1  0.000000  0.830928  0.011186  1
  Ni  Ni14  1  0.500000  0.302776  0.428908  1
  Ni  Ni15  1  0.500000  0.697224  0.428908  1
  Ni  Ni16  1  0.000000  0.197224  0.571092  1
  Ni  Ni17  1  0.000000  0.802776  0.571092  1
  Ni  Ni18  1  0.500000  0.879696  0.709691  1
  Ni  Ni19  1  0.500000  0.120304  0.709691  1
  Ni  Ni20  1  0.000000  0.620304  0.290309  1
  Ni  Ni21  1  0.000000  0.379696  0.290309  1
  P  P22  1  0.500000  0.500000  0.879051  1
  P  P23  1  0.000000  0.000000  0.120949  1
  P  P24  1  0.500000  0.500000  0.348338  1
  P  P25  1  0.000000  0.000000  0.651662  1
  P  P26  1  0.500000  0.313876  0.614642  1
  P  P27  1  0.500000  0.686124  0.614642  1
  P  P28  1  0.000000  0.186124  0.385358  1
  P  P29  1  0.000000  0.813876  0.385358  1
  P  P30  1  0.500000  0.850695  0.892790  1
  P  P31  1  0.500000  0.149305  0.892790  1
  P  P32  1  0.000000  0.649305  0.107210  1
  P  P33  1  0.000000  0.350695  0.107210  1
  Ru  Ru34  1  0.500000  0.500000  0.156195  1
  Ru  Ru35  1  0.000000  0.000000  0.843805  1
