# generated using pymatgen
data_Li6Si4Ni16P3
_symmetry_space_group_name_H-M   'P 1'
_cell_length_a   7.81382209
_cell_length_b   7.81382223
_cell_length_c   7.87656900
_cell_angle_alpha   59.73400902
_cell_angle_beta   59.73400842
_cell_angle_gamma   60.53197642
_symmetry_Int_Tables_number   1
_chemical_formula_structural   Li6Si4Ni16P3
_chemical_formula_sum   'Li6 Si4 Ni16 P3'
_cell_volume   340.01074591
_cell_formula_units_Z   1
loop_
 _symmetry_equiv_pos_site_id
 _symmetry_equiv_pos_as_xyz
  1  'x, y, z'
loop_
 _atom_site_type_symbol
 _atom_site_label
 _atom_site_symmetry_multiplicity
 _atom_site_fract_x
 _atom_site_fract_y
 _atom_site_fract_z
 _atom_site_occupancy
  Li  Li0  1  0.298024  0.701976  0.298024  1
  Li  Li1  1  0.298024  0.701976  0.701976  1
  Li  Li2  1  0.701976  0.298024  0.298024  1
  Li  Li3  1  0.700634  0.700634  0.299366  1
  Li  Li4  1  0.299366  0.299366  0.700634  1
  Li  Li5  1  0.701976  0.298024  0.701976  1
  Si  Si6  1  0.000000  0.500000  0.000000  1
  Si  Si7  1  0.500000  0.000000  0.000000  1
  Si  Si8  1  0.000000  0.500000  0.500000  1
  Si  Si9  1  0.500000  0.000000  0.500000  1
  Ni  Ni10  1  0.335555  0.335555  0.327459  1
  Ni  Ni11  1  0.998569  0.672541  0.664445  1
  Ni  Ni12  1  0.672541  0.998569  0.664445  1
  Ni  Ni13  1  0.664445  0.664445  0.998569  1
  Ni  Ni14  1  0.327459  0.001431  0.335555  1
  Ni  Ni15  1  0.335555  0.335555  0.001431  1
  Ni  Ni16  1  0.001431  0.327459  0.335555  1
  Ni  Ni17  1  0.664445  0.664445  0.672541  1
  Ni  Ni18  1  0.117050  0.117050  0.115823  1
  Ni  Ni19  1  0.349924  0.884177  0.882950  1
  Ni  Ni20  1  0.884177  0.349924  0.882950  1
  Ni  Ni21  1  0.882950  0.882950  0.349924  1
  Ni  Ni22  1  0.115823  0.650076  0.117050  1
  Ni  Ni23  1  0.117050  0.117050  0.650076  1
  Ni  Ni24  1  0.650076  0.115823  0.117050  1
  Ni  Ni25  1  0.882950  0.882950  0.884177  1
  P  P26  1  0.000000  0.000000  0.000000  1
  P  P27  1  0.000000  0.000000  0.500000  1
  P  P28  1  0.500000  0.500000  0.000000  1
