# generated using pymatgen
data_LuSc5TeO12
_symmetry_space_group_name_H-M   'P 1'
_cell_length_a   6.22104945
_cell_length_b   6.15744102
_cell_length_c   6.17720493
_cell_angle_alpha   98.86414065
_cell_angle_beta   98.64960109
_cell_angle_gamma   99.23299823
_symmetry_Int_Tables_number   1
_chemical_formula_structural   LuSc5TeO12
_chemical_formula_sum   'Lu1 Sc5 Te1 O12'
_cell_volume   227.01668921
_cell_formula_units_Z   1
loop_
 _symmetry_equiv_pos_site_id
 _symmetry_equiv_pos_as_xyz
  1  'x, y, z'
loop_
 _atom_site_type_symbol
 _atom_site_label
 _atom_site_symmetry_multiplicity
 _atom_site_fract_x
 _atom_site_fract_y
 _atom_site_fract_z
 _atom_site_occupancy
  Lu  Lu0  1  0.141197  0.317769  0.611777  1
  Sc  Sc1  1  0.854213  0.675553  0.388040  1
  Sc  Sc2  1  0.607003  0.145985  0.325171  1
  Sc  Sc3  1  0.673070  0.391439  0.854321  1
  Sc  Sc4  1  0.329878  0.611207  0.148001  1
  Sc  Sc5  1  0.394670  0.852748  0.672112  1
  Te  Te6  1  0.998668  0.998097  0.999993  1
  O  O7  1  0.951340  0.080902  0.304293  1
  O  O8  1  0.910077  0.690675  0.038612  1
  O  O9  1  0.815068  0.415621  0.575437  1
  O  O10  1  0.695841  0.041828  0.910220  1
  O  O11  1  0.588637  0.421118  0.176487  1
  O  O12  1  0.579437  0.820738  0.408463  1
  O  O13  1  0.430104  0.173432  0.590027  1
  O  O14  1  0.415599  0.580582  0.825017  1
  O  O15  1  0.303571  0.958025  0.090463  1
  O  O16  1  0.177751  0.597853  0.421209  1
  O  O17  1  0.089037  0.307909  0.966881  1
  O  O18  1  0.044840  0.918519  0.693478  1
