# generated using pymatgen
data_Ho7Tl(Sn11Os3)2
_symmetry_space_group_name_H-M   'P 1'
_cell_length_a   9.83573800
_cell_length_b   9.83573752
_cell_length_c   10.10887100
_cell_angle_alpha   90.00000000
_cell_angle_beta   90.00000000
_cell_angle_gamma   119.99999488
_symmetry_Int_Tables_number   1
_chemical_formula_structural   Ho7Tl(Sn11Os3)2
_chemical_formula_sum   'Ho7 Tl1 Sn22 Os6'
_cell_volume   846.92936466
_cell_formula_units_Z   1
loop_
 _symmetry_equiv_pos_site_id
 _symmetry_equiv_pos_as_xyz
  1  'x, y, z'
loop_
 _atom_site_type_symbol
 _atom_site_label
 _atom_site_symmetry_multiplicity
 _atom_site_fract_x
 _atom_site_fract_y
 _atom_site_fract_z
 _atom_site_occupancy
  Ho  Ho0  1  0.000000  0.000000  0.000000  1
  Ho  Ho1  1  0.515216  0.484784  0.693784  1
  Ho  Ho2  1  0.515216  0.030431  0.693784  1
  Ho  Ho3  1  0.969569  0.484784  0.693784  1
  Ho  Ho4  1  0.030431  0.515216  0.306216  1
  Ho  Ho5  1  0.484784  0.969569  0.306216  1
  Ho  Ho6  1  0.484784  0.515216  0.306216  1
  Tl  Tl7  1  0.000000  0.000000  0.500000  1
  Sn  Sn8  1  0.666667  0.333333  0.174375  1
  Sn  Sn9  1  0.666667  0.333333  0.869829  1
  Sn  Sn10  1  0.333333  0.666667  0.130171  1
  Sn  Sn11  1  0.349781  0.349781  0.000000  1
  Sn  Sn12  1  0.000000  0.650219  0.000000  1
  Sn  Sn13  1  0.650219  0.000000  0.000000  1
  Sn  Sn14  1  0.650219  0.650219  0.000000  1
  Sn  Sn15  1  0.333333  0.666667  0.825625  1
  Sn  Sn16  1  0.441859  0.220930  0.463126  1
  Sn  Sn17  1  0.220930  0.779070  0.536874  1
  Sn  Sn18  1  0.220930  0.441859  0.536874  1
  Sn  Sn19  1  0.558141  0.779070  0.536874  1
  Sn  Sn20  1  0.123910  0.876090  0.266590  1
  Sn  Sn21  1  0.779070  0.558141  0.463126  1
  Sn  Sn22  1  0.779070  0.220930  0.463126  1
  Sn  Sn23  1  0.349781  0.000000  0.000000  1
  Sn  Sn24  1  0.123910  0.247820  0.266590  1
  Sn  Sn25  1  0.752180  0.876090  0.266590  1
  Sn  Sn26  1  0.247820  0.123910  0.733410  1
  Sn  Sn27  1  0.876090  0.752180  0.733410  1
  Sn  Sn28  1  0.876090  0.123910  0.733410  1
  Sn  Sn29  1  0.000000  0.349781  0.000000  1
  Os  Os30  1  0.168868  0.831132  0.796177  1
  Os  Os31  1  0.168868  0.337733  0.796177  1
  Os  Os32  1  0.662267  0.831132  0.796177  1
  Os  Os33  1  0.337733  0.168868  0.203823  1
  Os  Os34  1  0.831132  0.662267  0.203823  1
  Os  Os35  1  0.831132  0.168868  0.203823  1
