# generated using pymatgen
data_La8YHoSn6
_symmetry_space_group_name_H-M   'P 1'
_cell_length_a   9.48508264
_cell_length_b   9.48508331
_cell_length_c   9.48508301
_cell_angle_alpha   96.24103647
_cell_angle_beta   96.24103529
_cell_angle_gamma   141.49714897
_symmetry_Int_Tables_number   1
_chemical_formula_structural   La8YHoSn6
_chemical_formula_sum   'La8 Y1 Ho1 Sn6'
_cell_volume   501.54434898
_cell_formula_units_Z   1
loop_
 _symmetry_equiv_pos_site_id
 _symmetry_equiv_pos_as_xyz
  1  'x, y, z'
loop_
 _atom_site_type_symbol
 _atom_site_label
 _atom_site_symmetry_multiplicity
 _atom_site_fract_x
 _atom_site_fract_y
 _atom_site_fract_z
 _atom_site_occupancy
  La  La0  1  0.911006  0.223024  0.134067  1
  La  La1  1  0.223060  0.088994  0.312018  1
  La  La2  1  0.776976  0.911042  0.687982  1
  La  La3  1  0.088958  0.776940  0.865933  1
  La  La4  1  0.723024  0.411006  0.134067  1
  La  La5  1  0.276940  0.588958  0.865933  1
  La  La6  1  0.588994  0.723060  0.312018  1
  La  La7  1  0.411042  0.276976  0.687982  1
  Y  Y8  1  0.750000  0.250000  0.500000  1
  Ho  Ho9  1  0.250000  0.750000  0.500000  1
  Sn  Sn10  1  0.750000  0.750000  0.000000  1
  Sn  Sn11  1  0.250000  0.250000  0.000000  1
  Sn  Sn12  1  0.845785  0.654366  0.500000  1
  Sn  Sn13  1  0.654215  0.154215  0.808583  1
  Sn  Sn14  1  0.345634  0.845634  0.191417  1
  Sn  Sn15  1  0.154366  0.345785  0.500000  1
