# generated using pymatgen
data_Dy7Lu3(Bi2Sb)2
_symmetry_space_group_name_H-M   'P 1'
_cell_length_a   8.16684500
_cell_length_b   9.38594711
_cell_length_c   11.96664602
_cell_angle_alpha   89.98804563
_cell_angle_beta   90.00000000
_cell_angle_gamma   90.00000000
_symmetry_Int_Tables_number   1
_chemical_formula_structural   Dy7Lu3(Bi2Sb)2
_chemical_formula_sum   'Dy14 Lu6 Bi8 Sb4'
_cell_volume   917.28618087
_cell_formula_units_Z   2
loop_
 _symmetry_equiv_pos_site_id
 _symmetry_equiv_pos_as_xyz
  1  'x, y, z'
loop_
 _atom_site_type_symbol
 _atom_site_label
 _atom_site_symmetry_multiplicity
 _atom_site_fract_x
 _atom_site_fract_y
 _atom_site_fract_z
 _atom_site_occupancy
  Dy  Dy0  1  0.352694  0.750072  0.213411  1
  Dy  Dy1  1  0.852694  0.749928  0.286589  1
  Dy  Dy2  1  0.647978  0.249664  0.786532  1
  Dy  Dy3  1  0.147978  0.250336  0.713468  1
  Dy  Dy4  1  0.688605  0.938030  0.057243  1
  Dy  Dy5  1  0.188605  0.561970  0.442757  1
  Dy  Dy6  1  0.473091  0.249704  0.488187  1
  Dy  Dy7  1  0.973091  0.250296  0.011813  1
  Dy  Dy8  1  0.527914  0.750256  0.512296  1
  Dy  Dy9  1  0.027914  0.749744  0.987704  1
  Dy  Dy10  1  0.315480  0.250018  0.217703  1
  Dy  Dy11  1  0.815480  0.249982  0.282297  1
  Dy  Dy12  1  0.684895  0.749700  0.782045  1
  Dy  Dy13  1  0.184895  0.750300  0.717955  1
  Lu  Lu14  1  0.688597  0.565594  0.057634  1
  Lu  Lu15  1  0.188597  0.934406  0.442366  1
  Lu  Lu16  1  0.311912  0.065413  0.942668  1
  Lu  Lu17  1  0.811912  0.434587  0.557332  1
  Lu  Lu18  1  0.310796  0.435163  0.942301  1
  Lu  Lu19  1  0.810796  0.064837  0.557699  1
  Bi  Bi20  1  0.565226  0.995549  0.325155  1
  Bi  Bi21  1  0.065226  0.504451  0.174845  1
  Bi  Bi22  1  0.434237  0.495341  0.675154  1
  Bi  Bi23  1  0.934237  0.004659  0.824846  1
  Bi  Bi24  1  0.434302  0.004743  0.674830  1
  Bi  Bi25  1  0.934302  0.495257  0.825170  1
  Bi  Bi26  1  0.565870  0.504587  0.325133  1
  Bi  Bi27  1  0.065870  0.995413  0.174867  1
  Sb  Sb28  1  0.406241  0.749075  0.957188  1
  Sb  Sb29  1  0.906241  0.750925  0.542812  1
  Sb  Sb30  1  0.592163  0.253892  0.041636  1
  Sb  Sb31  1  0.092163  0.246108  0.458364  1
