# generated using pymatgen
data_Sm2Er2Ni13C4
_symmetry_space_group_name_H-M   'P 1'
_cell_length_a   8.39171208
_cell_length_b   8.39171216
_cell_length_c   3.87228500
_cell_angle_alpha   90.00000000
_cell_angle_beta   90.00000000
_cell_angle_gamma   90.87179690
_symmetry_Int_Tables_number   1
_chemical_formula_structural   Sm2Er2Ni13C4
_chemical_formula_sum   'Sm2 Er2 Ni13 C4'
_cell_volume   272.65796709
_cell_formula_units_Z   1
loop_
 _symmetry_equiv_pos_site_id
 _symmetry_equiv_pos_as_xyz
  1  'x, y, z'
loop_
 _atom_site_type_symbol
 _atom_site_label
 _atom_site_symmetry_multiplicity
 _atom_site_fract_x
 _atom_site_fract_y
 _atom_site_fract_z
 _atom_site_occupancy
  Sm  Sm0  1  0.347416  0.347416  0.500000  1
  Sm  Sm1  1  0.652584  0.652584  0.500000  1
  Er  Er2  1  0.187261  0.812739  0.500000  1
  Er  Er3  1  0.812739  0.187261  0.500000  1
  Ni  Ni4  1  0.500000  0.000000  0.500000  1
  Ni  Ni5  1  0.000000  0.500000  0.500000  1
  Ni  Ni6  1  0.000000  0.000000  0.000000  1
  Ni  Ni7  1  0.428362  0.785651  0.000000  1
  Ni  Ni8  1  0.571638  0.214349  0.000000  1
  Ni  Ni9  1  0.785651  0.428362  0.000000  1
  Ni  Ni10  1  0.214349  0.571638  0.000000  1
  Ni  Ni11  1  0.710323  0.929718  0.000000  1
  Ni  Ni12  1  0.289677  0.070282  0.000000  1
  Ni  Ni13  1  0.929718  0.710323  0.000000  1
  Ni  Ni14  1  0.070282  0.289677  0.000000  1
  Ni  Ni15  1  0.879039  0.879039  0.500000  1
  Ni  Ni16  1  0.120961  0.120961  0.500000  1
  C  C17  1  0.000000  0.500000  0.000000  1
  C  C18  1  0.500000  0.000000  0.000000  1
  C  C19  1  0.557133  0.442867  0.000000  1
  C  C20  1  0.442867  0.557133  0.000000  1
