# generated using pymatgen
data_Dy2Fe3P4Rh3
_symmetry_space_group_name_H-M   'P 1'
_cell_length_a   3.77976800
_cell_length_b   10.98700626
_cell_length_c   12.39993323
_cell_angle_alpha   89.97650492
_cell_angle_beta   90.00000000
_cell_angle_gamma   90.00000000
_symmetry_Int_Tables_number   1
_chemical_formula_structural   Dy2Fe3P4Rh3
_chemical_formula_sum   'Dy6 Fe9 P12 Rh9'
_cell_volume   514.94853387
_cell_formula_units_Z   3
loop_
 _symmetry_equiv_pos_site_id
 _symmetry_equiv_pos_as_xyz
  1  'x, y, z'
loop_
 _atom_site_type_symbol
 _atom_site_label
 _atom_site_symmetry_multiplicity
 _atom_site_fract_x
 _atom_site_fract_y
 _atom_site_fract_z
 _atom_site_occupancy
  Dy  Dy0  1  0.000000  0.497504  0.521435  1
  Dy  Dy1  1  0.500000  0.003254  0.476695  1
  Dy  Dy2  1  0.500000  0.822002  0.197842  1
  Dy  Dy3  1  0.500000  0.178439  0.200743  1
  Dy  Dy4  1  0.000000  0.677477  0.802300  1
  Dy  Dy5  1  0.000000  0.322054  0.800706  1
  Fe  Fe6  1  0.000000  0.499393  0.992472  1
  Fe  Fe7  1  0.500000  0.999924  0.007975  1
  Fe  Fe8  1  0.500000  0.333663  0.995517  1
  Fe  Fe9  1  0.500000  0.665397  0.995099  1
  Fe  Fe10  1  0.000000  0.166552  0.005995  1
  Fe  Fe11  1  0.000000  0.834119  0.004776  1
  Fe  Fe12  1  0.500000  0.294811  0.430410  1
  Fe  Fe13  1  0.500000  0.703355  0.428145  1
  Fe  Fe14  1  0.000000  0.206559  0.570463  1
  P  P15  1  0.500000  0.499158  0.894210  1
  P  P16  1  0.000000  0.000285  0.106351  1
  P  P17  1  0.500000  0.499031  0.350088  1
  P  P18  1  0.000000  0.010514  0.651658  1
  P  P19  1  0.500000  0.308009  0.609986  1
  P  P20  1  0.500000  0.684614  0.611584  1
  P  P21  1  0.000000  0.192903  0.390234  1
  P  P22  1  0.000000  0.806104  0.380886  1
  P  P23  1  0.500000  0.839092  0.905736  1
  P  P24  1  0.500000  0.160915  0.906541  1
  P  P25  1  0.000000  0.660170  0.093950  1
  P  P26  1  0.000000  0.339672  0.095474  1
  Rh  Rh27  1  0.500000  0.498687  0.154995  1
  Rh  Rh28  1  0.000000  0.002115  0.845207  1
  Rh  Rh29  1  0.500000  0.498519  0.702592  1
  Rh  Rh30  1  0.000000  0.000580  0.298455  1
  Rh  Rh31  1  0.000000  0.795570  0.569603  1
  Rh  Rh32  1  0.500000  0.874083  0.716790  1
  Rh  Rh33  1  0.500000  0.127129  0.714884  1
  Rh  Rh34  1  0.000000  0.624886  0.283912  1
  Rh  Rh35  1  0.000000  0.373462  0.286291  1
