# generated using pymatgen
data_CsAl3S5
_symmetry_space_group_name_H-M   'P 1'
_cell_length_a   12.91359600
_cell_length_b   7.01195245
_cell_length_c   10.93287574
_cell_angle_alpha   88.55772223
_cell_angle_beta   90.00000000
_cell_angle_gamma   90.00000000
_symmetry_Int_Tables_number   1
_chemical_formula_structural   CsAl3S5
_chemical_formula_sum   'Cs4 Al12 S20'
_cell_volume   989.65303035
_cell_formula_units_Z   4
loop_
 _symmetry_equiv_pos_site_id
 _symmetry_equiv_pos_as_xyz
  1  'x, y, z'
loop_
 _atom_site_type_symbol
 _atom_site_label
 _atom_site_symmetry_multiplicity
 _atom_site_fract_x
 _atom_site_fract_y
 _atom_site_fract_z
 _atom_site_occupancy
  Cs  Cs0  1  0.415667  0.867248  0.359918  1
  Cs  Cs1  1  0.084333  0.367248  0.359918  1
  Cs  Cs2  1  0.915667  0.632752  0.640082  1
  Cs  Cs3  1  0.584333  0.132752  0.640082  1
  Al  Al4  1  0.799523  0.981063  0.327339  1
  Al  Al5  1  0.200477  0.018937  0.672661  1
  Al  Al6  1  0.299523  0.518937  0.672661  1
  Al  Al7  1  0.463405  0.398249  0.126061  1
  Al  Al8  1  0.700477  0.481063  0.327339  1
  Al  Al9  1  0.724829  0.266675  0.015135  1
  Al  Al10  1  0.963405  0.101751  0.873939  1
  Al  Al11  1  0.036595  0.898249  0.126061  1
  Al  Al12  1  0.775171  0.766675  0.015135  1
  Al  Al13  1  0.275171  0.733325  0.984865  1
  Al  Al14  1  0.536595  0.601751  0.873939  1
  Al  Al15  1  0.224829  0.233325  0.984865  1
  S  S16  1  0.285146  0.001030  0.862289  1
  S  S17  1  0.554023  0.293670  0.956930  1
  S  S18  1  0.714854  0.998970  0.137711  1
  S  S19  1  0.204132  0.741608  0.571476  1
  S  S20  1  0.704132  0.758392  0.428524  1
  S  S21  1  0.295868  0.241608  0.571476  1
  S  S22  1  0.785146  0.498970  0.137711  1
  S  S23  1  0.214854  0.501030  0.862289  1
  S  S24  1  0.964397  0.879806  0.310186  1
  S  S25  1  0.535603  0.379806  0.310186  1
  S  S26  1  0.035603  0.120194  0.689814  1
  S  S27  1  0.445977  0.706330  0.043070  1
  S  S28  1  0.945977  0.793670  0.956930  1
  S  S29  1  0.054023  0.206330  0.043070  1
  S  S30  1  0.795868  0.258392  0.428524  1
  S  S31  1  0.812899  0.249740  0.842258  1
  S  S32  1  0.687101  0.749740  0.842258  1
  S  S33  1  0.312899  0.250260  0.157742  1
  S  S34  1  0.187101  0.750260  0.157742  1
  S  S35  1  0.464397  0.620194  0.689814  1
