# generated using pymatgen
data_CuIrCl6
_symmetry_space_group_name_H-M   'P 1'
_cell_length_a   6.16826600
_cell_length_b   6.16826595
_cell_length_c   12.41338900
_cell_angle_alpha   90.00000000
_cell_angle_beta   90.00000000
_cell_angle_gamma   120.00000025
_symmetry_Int_Tables_number   1
_chemical_formula_structural   CuIrCl6
_chemical_formula_sum   'Cu2 Ir2 Cl12'
_cell_volume   409.02248261
_cell_formula_units_Z   2
loop_
 _symmetry_equiv_pos_site_id
 _symmetry_equiv_pos_as_xyz
  1  'x, y, z'
loop_
 _atom_site_type_symbol
 _atom_site_label
 _atom_site_symmetry_multiplicity
 _atom_site_fract_x
 _atom_site_fract_y
 _atom_site_fract_z
 _atom_site_occupancy
  Cu  Cu0  1  0.000000  0.000000  0.250000  1
  Cu  Cu1  1  0.000000  0.000000  0.750000  1
  Ir  Ir2  1  0.333333  0.666667  0.250000  1
  Ir  Ir3  1  0.666667  0.333333  0.750000  1
  Cl  Cl4  1  0.654912  0.971325  0.143815  1
  Cl  Cl5  1  0.028675  0.683590  0.143815  1
  Cl  Cl6  1  0.316410  0.345088  0.143815  1
  Cl  Cl7  1  0.028675  0.345088  0.356185  1
  Cl  Cl8  1  0.345088  0.316410  0.643815  1
  Cl  Cl9  1  0.683590  0.028675  0.643815  1
  Cl  Cl10  1  0.971325  0.654912  0.643815  1
  Cl  Cl11  1  0.683590  0.654912  0.856185  1
  Cl  Cl12  1  0.971325  0.316410  0.856185  1
  Cl  Cl13  1  0.345088  0.028675  0.856185  1
  Cl  Cl14  1  0.654912  0.683590  0.356185  1
  Cl  Cl15  1  0.316410  0.971325  0.356185  1
