# generated using pymatgen
data_Cs4Pr3Nd(SiSe4)4
_symmetry_space_group_name_H-M   'P 1'
_cell_length_a   7.15308124
_cell_length_b   9.99324312
_cell_length_c   13.67977569
_cell_angle_alpha   71.26642342
_cell_angle_beta   90.02206203
_cell_angle_gamma   90.02577666
_symmetry_Int_Tables_number   1
_chemical_formula_structural   Cs4Pr3Nd(SiSe4)4
_chemical_formula_sum   'Cs4 Pr3 Nd1 Si4 Se16'
_cell_volume   926.05909652
_cell_formula_units_Z   1
loop_
 _symmetry_equiv_pos_site_id
 _symmetry_equiv_pos_as_xyz
  1  'x, y, z'
loop_
 _atom_site_type_symbol
 _atom_site_label
 _atom_site_symmetry_multiplicity
 _atom_site_fract_x
 _atom_site_fract_y
 _atom_site_fract_z
 _atom_site_occupancy
  Cs  Cs0  1  0.253937  0.434544  0.386316  1
  Cs  Cs1  1  0.753931  0.565497  0.113656  1
  Cs  Cs2  1  0.745968  0.565398  0.613811  1
  Cs  Cs3  1  0.246081  0.434560  0.886271  1
  Pr  Pr4  1  0.196695  0.953653  0.365338  1
  Pr  Pr5  1  0.696632  0.046322  0.134587  1
  Pr  Pr6  1  0.803391  0.046276  0.634944  1
  Nd  Nd7  1  0.304477  0.953485  0.865407  1
  Si  Si8  1  0.743536  0.166677  0.354366  1
  Si  Si9  1  0.243540  0.833496  0.145331  1
  Si  Si10  1  0.256436  0.833559  0.645799  1
  Si  Si11  1  0.756587  0.166335  0.854463  1
  Se  Se12  1  0.028737  0.196880  0.759922  1
  Se  Se13  1  0.774968  0.934422  0.452808  1
  Se  Se14  1  0.525186  0.207988  0.731556  1
  Se  Se15  1  0.723202  0.934185  0.952682  1
  Se  Se16  1  0.758356  0.313023  0.451100  1
  Se  Se17  1  0.972266  0.801748  0.240669  1
  Se  Se18  1  0.258575  0.688597  0.047530  1
  Se  Se19  1  0.224980  0.065634  0.547011  1
  Se  Se20  1  0.741735  0.312984  0.951017  1
  Se  Se21  1  0.473790  0.790879  0.268943  1
  Se  Se22  1  0.027174  0.791703  0.769735  1
  Se  Se23  1  0.241649  0.687082  0.549050  1
  Se  Se24  1  0.472058  0.198220  0.259187  1
  Se  Se25  1  0.973969  0.209211  0.230958  1
  Se  Se26  1  0.527151  0.802440  0.741525  1
  Se  Se27  1  0.274991  0.065203  0.046017  1
