# generated using pymatgen
data_Sc2(NiAs)3
_symmetry_space_group_name_H-M   'P 1'
_cell_length_a   3.79542300
_cell_length_b   10.38811700
_cell_length_c   12.71002600
_cell_angle_alpha   90.00000000
_cell_angle_beta   90.00000000
_cell_angle_gamma   90.00000000
_symmetry_Int_Tables_number   1
_chemical_formula_structural   Sc2(NiAs)3
_chemical_formula_sum   'Sc8 Ni12 As12'
_cell_volume   501.12198509
_cell_formula_units_Z   4
loop_
 _symmetry_equiv_pos_site_id
 _symmetry_equiv_pos_as_xyz
  1  'x, y, z'
loop_
 _atom_site_type_symbol
 _atom_site_label
 _atom_site_symmetry_multiplicity
 _atom_site_fract_x
 _atom_site_fract_y
 _atom_site_fract_z
 _atom_site_occupancy
  Sc  Sc0  1  0.250000  0.338380  0.996041  1
  Sc  Sc1  1  0.250000  0.161620  0.496041  1
  Sc  Sc2  1  0.750000  0.661620  0.003959  1
  Sc  Sc3  1  0.750000  0.838380  0.503959  1
  Sc  Sc4  1  0.250000  0.429956  0.715026  1
  Sc  Sc5  1  0.250000  0.070044  0.215026  1
  Sc  Sc6  1  0.750000  0.570044  0.284974  1
  Sc  Sc7  1  0.750000  0.929956  0.784974  1
  Ni  Ni8  1  0.250000  0.906286  0.984743  1
  Ni  Ni9  1  0.250000  0.593714  0.484743  1
  Ni  Ni10  1  0.750000  0.093714  0.015257  1
  Ni  Ni11  1  0.750000  0.406286  0.515257  1
  Ni  Ni12  1  0.250000  0.138290  0.717299  1
  Ni  Ni13  1  0.250000  0.361710  0.217299  1
  Ni  Ni14  1  0.750000  0.861710  0.282701  1
  Ni  Ni15  1  0.750000  0.638290  0.782701  1
  Ni  Ni16  1  0.250000  0.774982  0.166135  1
  Ni  Ni17  1  0.250000  0.725018  0.666135  1
  Ni  Ni18  1  0.750000  0.225018  0.833865  1
  Ni  Ni19  1  0.750000  0.274982  0.333865  1
  As  As20  1  0.250000  0.102087  0.896721  1
  As  As21  1  0.250000  0.397913  0.396721  1
  As  As22  1  0.750000  0.897913  0.103279  1
  As  As23  1  0.750000  0.602087  0.603279  1
  As  As24  1  0.250000  0.738327  0.856967  1
  As  As25  1  0.250000  0.761673  0.356967  1
  As  As26  1  0.750000  0.261673  0.143033  1
  As  As27  1  0.750000  0.238327  0.643033  1
  As  As28  1  0.250000  0.554019  0.123642  1
  As  As29  1  0.250000  0.945981  0.623642  1
  As  As30  1  0.750000  0.445981  0.876358  1
  As  As31  1  0.750000  0.054019  0.376358  1
