# generated using pymatgen
data_LiErTm3Co19P12
_symmetry_space_group_name_H-M   'P 1'
_cell_length_a   3.64419100
_cell_length_b   10.24515490
_cell_length_c   11.75030812
_cell_angle_alpha   89.89091897
_cell_angle_beta   90.00000000
_cell_angle_gamma   90.00000000
_symmetry_Int_Tables_number   1
_chemical_formula_structural   LiErTm3Co19P12
_chemical_formula_sum   'Li1 Er1 Tm3 Co19 P12'
_cell_volume   438.70049857
_cell_formula_units_Z   1
loop_
 _symmetry_equiv_pos_site_id
 _symmetry_equiv_pos_as_xyz
  1  'x, y, z'
loop_
 _atom_site_type_symbol
 _atom_site_label
 _atom_site_symmetry_multiplicity
 _atom_site_fract_x
 _atom_site_fract_y
 _atom_site_fract_z
 _atom_site_occupancy
  Li  Li0  1  0.250000  0.703062  0.990054  1
  Er  Er1  1  0.250000  0.919755  0.203435  1
  Tm  Tm2  1  0.250000  0.581218  0.701504  1
  Tm  Tm3  1  0.750000  0.418557  0.297926  1
  Tm  Tm4  1  0.750000  0.080062  0.797147  1
  Co  Co5  1  0.250000  0.783400  0.493156  1
  Co  Co6  1  0.750000  0.288699  0.010190  1
  Co  Co7  1  0.750000  0.217126  0.506499  1
  Co  Co8  1  0.250000  0.406776  0.487201  1
  Co  Co9  1  0.250000  0.095373  0.986890  1
  Co  Co10  1  0.750000  0.592764  0.514160  1
  Co  Co11  1  0.750000  0.908472  0.013426  1
  Co  Co12  1  0.250000  0.223950  0.175899  1
  Co  Co13  1  0.250000  0.277822  0.675327  1
  Co  Co14  1  0.750000  0.779025  0.821616  1
  Co  Co15  1  0.750000  0.720854  0.327862  1
  Co  Co16  1  0.250000  0.883652  0.698023  1
  Co  Co17  1  0.250000  0.619601  0.200330  1
  Co  Co18  1  0.750000  0.118672  0.300020  1
  Co  Co19  1  0.750000  0.379785  0.800501  1
  Co  Co20  1  0.250000  0.464124  0.931729  1
  Co  Co21  1  0.250000  0.033651  0.431130  1
  Co  Co22  1  0.750000  0.534079  0.067276  1
  Co  Co23  1  0.750000  0.968063  0.567570  1
  P  P24  1  0.250000  0.422116  0.113314  1
  P  P25  1  0.250000  0.080922  0.612311  1
  P  P26  1  0.750000  0.577821  0.883287  1
  P  P27  1  0.750000  0.919577  0.387504  1
  P  P28  1  0.250000  0.267605  0.867711  1
  P  P29  1  0.250000  0.231377  0.368959  1
  P  P30  1  0.750000  0.731422  0.137086  1
  P  P31  1  0.750000  0.770086  0.630703  1
  P  P32  1  0.250000  0.600941  0.392763  1
  P  P33  1  0.250000  0.898836  0.891033  1
  P  P34  1  0.750000  0.398046  0.608835  1
  P  P35  1  0.750000  0.102704  0.107621  1
