# generated using pymatgen
data_La2TbY3IrI10
_symmetry_space_group_name_H-M   'P 1'
_cell_length_a   7.87343605
_cell_length_b   9.93122368
_cell_length_c   9.91458356
_cell_angle_alpha   106.77039069
_cell_angle_beta   95.72018957
_cell_angle_gamma   105.50321113
_symmetry_Int_Tables_number   1
_chemical_formula_structural   La2TbY3IrI10
_chemical_formula_sum   'La2 Tb1 Y3 Ir1 I10'
_cell_volume   702.01539576
_cell_formula_units_Z   1
loop_
 _symmetry_equiv_pos_site_id
 _symmetry_equiv_pos_as_xyz
  1  'x, y, z'
loop_
 _atom_site_type_symbol
 _atom_site_label
 _atom_site_symmetry_multiplicity
 _atom_site_fract_x
 _atom_site_fract_y
 _atom_site_fract_z
 _atom_site_occupancy
  La  La0  1  0.117753  0.043995  0.763721  1
  La  La1  1  0.882385  0.955855  0.236224  1
  Tb  Tb2  1  0.971325  0.287240  0.087228  1
  Y  Y3  1  0.028299  0.712601  0.912790  1
  Y  Y4  1  0.349428  0.127016  0.164242  1
  Y  Y5  1  0.650759  0.872706  0.835742  1
  Ir  Ir6  1  0.000030  0.000040  0.000009  1
  I  I7  1  0.347284  0.446436  0.269180  1
  I  I8  1  0.653216  0.553588  0.730974  1
  I  I9  1  0.269318  0.089222  0.455809  1
  I  I10  1  0.730701  0.910722  0.544239  1
  I  I11  1  0.082179  0.379866  0.825605  1
  I  I12  1  0.917948  0.621035  0.173974  1
  I  I13  1  0.445144  0.818314  0.087388  1
  I  I14  1  0.554647  0.181509  0.912460  1
  I  I15  1  0.771400  0.261875  0.340568  1
  I  I16  1  0.228185  0.737979  0.659848  1
