# generated using pymatgen
data_TmZr5Zn23C
_symmetry_space_group_name_H-M   'P 1'
_cell_length_a   8.74738557
_cell_length_b   8.73100182
_cell_length_c   8.73100240
_cell_angle_alpha   60.12417403
_cell_angle_beta   59.93791165
_cell_angle_gamma   59.93790565
_symmetry_Int_Tables_number   1
_chemical_formula_structural   TmZr5Zn23C
_chemical_formula_sum   'Tm1 Zr5 Zn23 C1'
_cell_volume   471.50724083
_cell_formula_units_Z   1
loop_
 _symmetry_equiv_pos_site_id
 _symmetry_equiv_pos_as_xyz
  1  'x, y, z'
loop_
 _atom_site_type_symbol
 _atom_site_label
 _atom_site_symmetry_multiplicity
 _atom_site_fract_x
 _atom_site_fract_y
 _atom_site_fract_z
 _atom_site_occupancy
  Tm  Tm0  1  0.697524  0.302476  0.302476  1
  Zr  Zr1  1  0.304004  0.695996  0.695996  1
  Zr  Zr2  1  0.310127  0.689873  0.315088  1
  Zr  Zr3  1  0.684912  0.315088  0.689873  1
  Zr  Zr4  1  0.310127  0.315088  0.689873  1
  Zr  Zr5  1  0.684912  0.689873  0.315088  1
  Zn  Zn6  1  0.126558  0.117658  0.117658  1
  Zn  Zn7  1  0.879207  0.879448  0.879448  1
  Zn  Zn8  1  0.120552  0.120793  0.638104  1
  Zn  Zn9  1  0.120552  0.638104  0.120793  1
  Zn  Zn10  1  0.882342  0.873442  0.361873  1
  Zn  Zn11  1  0.882342  0.361873  0.873442  1
  Zn  Zn12  1  0.638127  0.117658  0.117658  1
  Zn  Zn13  1  0.361896  0.879448  0.879448  1
  Zn  Zn14  1  0.499611  0.000389  0.000389  1
  Zn  Zn15  1  0.999611  0.500389  0.500389  1
  Zn  Zn16  1  0.000760  0.500424  0.999240  1
  Zn  Zn17  1  0.499576  0.999240  0.500424  1
  Zn  Zn18  1  0.000760  0.999240  0.500424  1
  Zn  Zn19  1  0.499576  0.500424  0.999240  1
  Zn  Zn20  1  0.328888  0.330906  0.330906  1
  Zn  Zn21  1  0.667307  0.669436  0.669436  1
  Zn  Zn22  1  0.330564  0.332693  0.006180  1
  Zn  Zn23  1  0.330564  0.006180  0.332693  1
  Zn  Zn24  1  0.669094  0.671112  0.990699  1
  Zn  Zn25  1  0.669094  0.990699  0.671112  1
  Zn  Zn26  1  0.009301  0.330906  0.330906  1
  Zn  Zn27  1  0.993820  0.669436  0.669436  1
  Zn  Zn28  1  0.000535  0.999465  0.999465  1
  C  C29  1  0.497756  0.502244  0.502244  1
