# generated using pymatgen
data_Hf2Cu4Ni3
_symmetry_space_group_name_H-M   'P 1'
_cell_length_a   4.75417875
_cell_length_b   4.75417877
_cell_length_c   6.33698815
_cell_angle_alpha   82.30917102
_cell_angle_beta   82.30916746
_cell_angle_gamma   119.77764850
_symmetry_Int_Tables_number   1
_chemical_formula_structural   Hf2Cu4Ni3
_chemical_formula_sum   'Hf2 Cu4 Ni3'
_cell_volume   119.81290604
_cell_formula_units_Z   1
loop_
 _symmetry_equiv_pos_site_id
 _symmetry_equiv_pos_as_xyz
  1  'x, y, z'
loop_
 _atom_site_type_symbol
 _atom_site_label
 _atom_site_symmetry_multiplicity
 _atom_site_fract_x
 _atom_site_fract_y
 _atom_site_fract_z
 _atom_site_occupancy
  Hf  Hf0  1  0.094200  0.094200  0.250328  1
  Hf  Hf1  1  0.905800  0.905800  0.749672  1
  Cu  Cu2  1  0.465703  0.790395  0.153284  1
  Cu  Cu3  1  0.534297  0.209605  0.846716  1
  Cu  Cu4  1  0.209605  0.534297  0.846716  1
  Cu  Cu5  1  0.790395  0.465703  0.153284  1
  Ni  Ni6  1  0.000000  0.500000  0.500000  1
  Ni  Ni7  1  0.500000  0.000000  0.500000  1
  Ni  Ni8  1  0.500000  0.500000  0.500000  1
