# generated using pymatgen
data_HoScB6Ir
_symmetry_space_group_name_H-M   'P 1'
_cell_length_a   3.54281600
_cell_length_b   9.00112400
_cell_length_c   11.36450300
_cell_angle_alpha   90.00000000
_cell_angle_beta   90.00000000
_cell_angle_gamma   90.00000000
_symmetry_Int_Tables_number   1
_chemical_formula_structural   HoScB6Ir
_chemical_formula_sum   'Ho4 Sc4 B24 Ir4'
_cell_volume   362.40634242
_cell_formula_units_Z   4
loop_
 _symmetry_equiv_pos_site_id
 _symmetry_equiv_pos_as_xyz
  1  'x, y, z'
loop_
 _atom_site_type_symbol
 _atom_site_label
 _atom_site_symmetry_multiplicity
 _atom_site_fract_x
 _atom_site_fract_y
 _atom_site_fract_z
 _atom_site_occupancy
  Ho  Ho0  1  0.500000  0.319827  0.413945  1
  Ho  Ho1  1  0.500000  0.680173  0.586055  1
  Ho  Ho2  1  0.500000  0.180173  0.913945  1
  Ho  Ho3  1  0.500000  0.819827  0.086055  1
  Sc  Sc4  1  0.500000  0.445167  0.124207  1
  Sc  Sc5  1  0.500000  0.554833  0.875793  1
  Sc  Sc6  1  0.500000  0.054833  0.624207  1
  Sc  Sc7  1  0.500000  0.945167  0.375793  1
  B  B8  1  0.000000  0.100459  0.472795  1
  B  B9  1  0.000000  0.899541  0.527205  1
  B  B10  1  0.000000  0.399541  0.972795  1
  B  B11  1  0.000000  0.600459  0.027205  1
  B  B12  1  0.000000  0.130042  0.318494  1
  B  B13  1  0.000000  0.869958  0.681506  1
  B  B14  1  0.000000  0.369958  0.818494  1
  B  B15  1  0.000000  0.630042  0.181506  1
  B  B16  1  0.000000  0.054586  0.065524  1
  B  B17  1  0.000000  0.945414  0.934476  1
  B  B18  1  0.000000  0.445414  0.565524  1
  B  B19  1  0.000000  0.554586  0.434476  1
  B  B20  1  0.000000  0.481596  0.285133  1
  B  B21  1  0.000000  0.518404  0.714867  1
  B  B22  1  0.000000  0.018404  0.785133  1
  B  B23  1  0.000000  0.981596  0.214867  1
  B  B24  1  0.000000  0.254035  0.079964  1
  B  B25  1  0.000000  0.745965  0.920036  1
  B  B26  1  0.000000  0.245965  0.579964  1
  B  B27  1  0.000000  0.754035  0.420036  1
  B  B28  1  0.000000  0.295799  0.235500  1
  B  B29  1  0.000000  0.704201  0.764500  1
  B  B30  1  0.000000  0.204201  0.735500  1
  B  B31  1  0.000000  0.795799  0.264500  1
  Ir  Ir32  1  0.500000  0.141408  0.181251  1
  Ir  Ir33  1  0.500000  0.858592  0.818749  1
  Ir  Ir34  1  0.500000  0.358592  0.681251  1
  Ir  Ir35  1  0.500000  0.641408  0.318749  1
