# generated using pymatgen
data_Ca5Yb(SnH2)2
_symmetry_space_group_name_H-M   'P 1'
_cell_length_a   7.20785603
_cell_length_b   7.20785500
_cell_length_c   5.26028800
_cell_angle_alpha   90.00000000
_cell_angle_beta   90.00000000
_cell_angle_gamma   104.14042175
_symmetry_Int_Tables_number   1
_chemical_formula_structural   Ca5Yb(SnH2)2
_chemical_formula_sum   'Ca5 Yb1 Sn2 H4'
_cell_volume   265.00802196
_cell_formula_units_Z   1
loop_
 _symmetry_equiv_pos_site_id
 _symmetry_equiv_pos_as_xyz
  1  'x, y, z'
loop_
 _atom_site_type_symbol
 _atom_site_label
 _atom_site_symmetry_multiplicity
 _atom_site_fract_x
 _atom_site_fract_y
 _atom_site_fract_z
 _atom_site_occupancy
  Ca  Ca0  1  0.407454  0.185802  0.250000  1
  Ca  Ca1  1  0.185740  0.407317  0.750000  1
  Ca  Ca2  1  0.814198  0.592546  0.250000  1
  Ca  Ca3  1  0.592683  0.814260  0.750000  1
  Ca  Ca4  1  0.109631  0.890369  0.750000  1
  Yb  Yb5  1  0.890061  0.109939  0.250000  1
  Sn  Sn6  1  0.692508  0.307492  0.750000  1
  Sn  Sn7  1  0.307653  0.692347  0.250000  1
  H  H8  1  0.151052  0.151015  0.000080  1
  H  H9  1  0.151052  0.151015  0.499920  1
  H  H10  1  0.848985  0.848948  0.000080  1
  H  H11  1  0.848985  0.848948  0.499920  1
