# generated using pymatgen
data_TmCuP2
_symmetry_space_group_name_H-M   'P 1'
_cell_length_a   3.68069300
_cell_length_b   3.71525300
_cell_length_c   19.26097600
_cell_angle_alpha   90.00000000
_cell_angle_beta   90.00000000
_cell_angle_gamma   90.00000000
_symmetry_Int_Tables_number   1
_chemical_formula_structural   TmCuP2
_chemical_formula_sum   'Tm4 Cu4 P8'
_cell_volume   263.38817849
_cell_formula_units_Z   4
loop_
 _symmetry_equiv_pos_site_id
 _symmetry_equiv_pos_as_xyz
  1  'x, y, z'
loop_
 _atom_site_type_symbol
 _atom_site_label
 _atom_site_symmetry_multiplicity
 _atom_site_fract_x
 _atom_site_fract_y
 _atom_site_fract_z
 _atom_site_occupancy
  Tm  Tm0  1  0.250000  0.724721  0.383221  1
  Tm  Tm1  1  0.250000  0.775279  0.883221  1
  Tm  Tm2  1  0.750000  0.275279  0.616779  1
  Tm  Tm3  1  0.750000  0.224721  0.116779  1
  Cu  Cu4  1  0.250000  0.228190  0.249965  1
  Cu  Cu5  1  0.750000  0.771810  0.750035  1
  Cu  Cu6  1  0.250000  0.271810  0.749965  1
  Cu  Cu7  1  0.750000  0.728190  0.250035  1
  P  P8  1  0.750000  0.793936  0.501020  1
  P  P9  1  0.750000  0.706064  0.001020  1
  P  P10  1  0.250000  0.206064  0.498980  1
  P  P11  1  0.250000  0.293936  0.998980  1
  P  P12  1  0.250000  0.726546  0.169731  1
  P  P13  1  0.750000  0.226546  0.330269  1
  P  P14  1  0.750000  0.273454  0.830269  1
  P  P15  1  0.250000  0.773454  0.669731  1
