# generated using pymatgen
data_ScVP4Ru5
_symmetry_space_group_name_H-M   'P 1'
_cell_length_a   7.01411500
_cell_length_b   6.96497014
_cell_length_c   3.63607200
_cell_angle_alpha   90.00000000
_cell_angle_beta   90.00000000
_cell_angle_gamma   120.23369127
_symmetry_Int_Tables_number   1
_chemical_formula_structural   ScVP4Ru5
_chemical_formula_sum   'Sc1 V1 P4 Ru5'
_cell_volume   153.47149875
_cell_formula_units_Z   1
loop_
 _symmetry_equiv_pos_site_id
 _symmetry_equiv_pos_as_xyz
  1  'x, y, z'
loop_
 _atom_site_type_symbol
 _atom_site_label
 _atom_site_symmetry_multiplicity
 _atom_site_fract_x
 _atom_site_fract_y
 _atom_site_fract_z
 _atom_site_occupancy
  Sc  Sc0  1  0.995980  0.991960  0.000000  1
  V  V1  1  0.458750  0.917498  0.000000  1
  P  P2  1  0.185418  0.370835  0.500000  1
  P  P3  1  0.633465  0.812588  0.500000  1
  P  P4  1  0.179123  0.812588  0.500000  1
  P  P5  1  0.667037  0.334074  0.000000  1
  Ru  Ru6  1  0.798639  0.597279  0.500000  1
  Ru  Ru7  1  0.394116  0.195269  0.500000  1
  Ru  Ru8  1  0.801153  0.195269  0.500000  1
  Ru  Ru9  1  0.080971  0.552987  0.000000  1
  Ru  Ru10  1  0.472016  0.552987  0.000000  1
