# generated using pymatgen
data_Hf6Ga6Ir5Rh
_symmetry_space_group_name_H-M   'P 1'
_cell_length_a   7.19514400
_cell_length_b   7.19514408
_cell_length_c   6.89563600
_cell_angle_alpha   90.00000000
_cell_angle_beta   90.00000000
_cell_angle_gamma   120.00000884
_symmetry_Int_Tables_number   1
_chemical_formula_structural   Hf6Ga6Ir5Rh
_chemical_formula_sum   'Hf6 Ga6 Ir5 Rh1'
_cell_volume   309.16043253
_cell_formula_units_Z   1
loop_
 _symmetry_equiv_pos_site_id
 _symmetry_equiv_pos_as_xyz
  1  'x, y, z'
loop_
 _atom_site_type_symbol
 _atom_site_label
 _atom_site_symmetry_multiplicity
 _atom_site_fract_x
 _atom_site_fract_y
 _atom_site_fract_z
 _atom_site_occupancy
  Hf  Hf0  1  0.407847  0.397222  0.250000  1
  Hf  Hf1  1  0.599843  0.990121  0.750000  1
  Hf  Hf2  1  0.390278  0.400157  0.750000  1
  Hf  Hf3  1  0.009879  0.609722  0.750000  1
  Hf  Hf4  1  0.989375  0.592153  0.250000  1
  Hf  Hf5  1  0.602778  0.010625  0.250000  1
  Ga  Ga6  1  0.267014  0.999873  0.001037  1
  Ga  Ga7  1  0.267014  0.999873  0.498963  1
  Ga  Ga8  1  0.000127  0.267141  0.498963  1
  Ga  Ga9  1  0.000127  0.267141  0.001037  1
  Ga  Ga10  1  0.732859  0.732986  0.001037  1
  Ga  Ga11  1  0.732859  0.732986  0.498963  1
  Ir  Ir12  1  0.666667  0.333333  0.513476  1
  Ir  Ir13  1  0.000000  0.000000  0.750000  1
  Ir  Ir14  1  0.666667  0.333333  0.986524  1
  Ir  Ir15  1  0.333333  0.666667  0.012432  1
  Ir  Ir16  1  0.333333  0.666667  0.487568  1
  Rh  Rh17  1  0.000000  0.000000  0.250000  1
