# generated using pymatgen
data_AcTh5H8I15
_symmetry_space_group_name_H-M   'P 1'
_cell_length_a   10.68865291
_cell_length_b   10.68864248
_cell_length_c   10.68858500
_cell_angle_alpha   110.08347817
_cell_angle_beta   110.08368603
_cell_angle_gamma   108.25322347
_symmetry_Int_Tables_number   1
_chemical_formula_structural   AcTh5H8I15
_chemical_formula_sum   'Ac1 Th5 H8 I15'
_cell_volume   939.71798111
_cell_formula_units_Z   1
loop_
 _symmetry_equiv_pos_site_id
 _symmetry_equiv_pos_as_xyz
  1  'x, y, z'
loop_
 _atom_site_type_symbol
 _atom_site_label
 _atom_site_symmetry_multiplicity
 _atom_site_fract_x
 _atom_site_fract_y
 _atom_site_fract_z
 _atom_site_occupancy
  Ac  Ac0  1  0.240043  0.240044  0.999998  1
  Th  Th1  1  0.775444  0.775444  0.000002  1
  Th  Th2  1  0.229863  0.001327  0.228539  1
  Th  Th3  1  0.001324  0.229854  0.228531  1
  Th  Th4  1  0.772789  0.001327  0.771462  1
  Th  Th5  1  0.001324  0.772794  0.771469  1
  H  H6  1  0.174901  0.993323  0.000002  1
  H  H7  1  0.825263  0.001458  0.999998  1
  H  H8  1  0.993322  0.174901  0.999998  1
  H  H9  1  0.001460  0.825263  0.000002  1
  H  H10  1  0.001461  0.001459  0.176198  1
  H  H11  1  0.174900  0.174899  0.181578  1
  H  H12  1  0.993321  0.993324  0.818421  1
  H  H13  1  0.825262  0.825264  0.823804  1
  I  I14  1  0.740507  0.253365  0.999999  1
  I  I15  1  0.518205  0.518204  0.000001  1
  I  I16  1  0.253366  0.740509  0.000000  1
  I  I17  1  0.749746  0.004579  0.254834  1
  I  I18  1  0.004584  0.749748  0.254838  1
  I  I19  1  0.515952  0.247042  0.268910  1
  I  I20  1  0.247045  0.515952  0.268913  1
  I  I21  1  0.740508  0.740509  0.487141  1
  I  I22  1  0.498107  0.998107  0.500000  1
  I  I23  1  0.998106  0.498107  0.500000  1
  I  I24  1  0.253367  0.253366  0.512858  1
  I  I25  1  0.247041  0.978132  0.731087  1
  I  I26  1  0.978131  0.247045  0.731086  1
  I  I27  1  0.749747  0.494914  0.745166  1
  I  I28  1  0.494914  0.749748  0.745166  1
