# generated using pymatgen
data_Tb4Al5Tc3
_symmetry_space_group_name_H-M   'P 1'
_cell_length_a   5.52501514
_cell_length_b   5.61779323
_cell_length_c   8.79319600
_cell_angle_alpha   90.00000000
_cell_angle_beta   90.00000000
_cell_angle_gamma   120.55706020
_symmetry_Int_Tables_number   1
_chemical_formula_structural   Tb4Al5Tc3
_chemical_formula_sum   'Tb4 Al5 Tc3'
_cell_volume   235.02350954
_cell_formula_units_Z   1
loop_
 _symmetry_equiv_pos_site_id
 _symmetry_equiv_pos_as_xyz
  1  'x, y, z'
loop_
 _atom_site_type_symbol
 _atom_site_label
 _atom_site_symmetry_multiplicity
 _atom_site_fract_x
 _atom_site_fract_y
 _atom_site_fract_z
 _atom_site_occupancy
  Tb  Tb0  1  0.337856  0.668928  0.443909  1
  Tb  Tb1  1  0.664730  0.332364  0.554422  1
  Tb  Tb2  1  0.664730  0.332364  0.945578  1
  Tb  Tb3  1  0.337856  0.668928  0.056091  1
  Al  Al4  1  0.837905  0.161530  0.250000  1
  Al  Al5  1  0.837905  0.676375  0.250000  1
  Al  Al6  1  0.322567  0.161283  0.250000  1
  Al  Al7  1  0.182561  0.841552  0.750000  1
  Al  Al8  1  0.182561  0.341009  0.750000  1
  Tc  Tc9  1  0.976498  0.988249  0.510567  1
  Tc  Tc10  1  0.976498  0.988249  0.989433  1
  Tc  Tc11  1  0.678334  0.839167  0.750000  1
