# generated using pymatgen
data_Tb2YLu7Cd3Tc
_symmetry_space_group_name_H-M   'P 1'
_cell_length_a   9.42316200
_cell_length_b   9.42316236
_cell_length_c   9.79827200
_cell_angle_alpha   90.00000000
_cell_angle_beta   90.00000000
_cell_angle_gamma   120.00088144
_symmetry_Int_Tables_number   1
_chemical_formula_structural   Tb2YLu7Cd3Tc
_chemical_formula_sum   'Tb4 Y2 Lu14 Cd6 Tc2'
_cell_volume   753.47630055
_cell_formula_units_Z   2
loop_
 _symmetry_equiv_pos_site_id
 _symmetry_equiv_pos_as_xyz
  1  'x, y, z'
loop_
 _atom_site_type_symbol
 _atom_site_label
 _atom_site_symmetry_multiplicity
 _atom_site_fract_x
 _atom_site_fract_y
 _atom_site_fract_z
 _atom_site_occupancy
  Tb  Tb0  1  0.538628  0.461372  0.250000  1
  Tb  Tb1  1  0.538856  0.077417  0.250000  1
  Tb  Tb2  1  0.922583  0.461144  0.250000  1
  Tb  Tb3  1  0.461593  0.538407  0.750000  1
  Y  Y4  1  0.461151  0.922240  0.750000  1
  Y  Y5  1  0.077760  0.538849  0.750000  1
  Lu  Lu6  1  0.999908  0.000092  0.499815  1
  Lu  Lu7  1  0.999908  0.000092  0.000185  1
  Lu  Lu8  1  0.210259  0.789741  0.441702  1
  Lu  Lu9  1  0.210127  0.420416  0.441840  1
  Lu  Lu10  1  0.579584  0.789873  0.441840  1
  Lu  Lu11  1  0.789465  0.210535  0.557990  1
  Lu  Lu12  1  0.789939  0.579617  0.557765  1
  Lu  Lu13  1  0.420383  0.210061  0.557765  1
  Lu  Lu14  1  0.789465  0.210535  0.942010  1
  Lu  Lu15  1  0.789939  0.579617  0.942235  1
  Lu  Lu16  1  0.420383  0.210061  0.942235  1
  Lu  Lu17  1  0.210259  0.789741  0.058298  1
  Lu  Lu18  1  0.210127  0.420416  0.058160  1
  Lu  Lu19  1  0.579584  0.789873  0.058160  1
  Cd  Cd20  1  0.886277  0.113723  0.250000  1
  Cd  Cd21  1  0.886290  0.772702  0.250000  1
  Cd  Cd22  1  0.227298  0.113710  0.250000  1
  Cd  Cd23  1  0.113739  0.886261  0.750000  1
  Cd  Cd24  1  0.113480  0.226826  0.750000  1
  Cd  Cd25  1  0.773174  0.886520  0.750000  1
  Tc  Tc26  1  0.333507  0.666493  0.250000  1
  Tc  Tc27  1  0.666332  0.333668  0.750000  1
