# generated using pymatgen
data_Gd2Er3(SnPb)2
_symmetry_space_group_name_H-M   'P 1'
_cell_length_a   8.26223100
_cell_length_b   8.39044200
_cell_length_c   15.86397100
_cell_angle_alpha   90.00000000
_cell_angle_beta   90.00000000
_cell_angle_gamma   90.00000000
_symmetry_Int_Tables_number   1
_chemical_formula_structural   Gd2Er3(SnPb)2
_chemical_formula_sum   'Gd8 Er12 Sn8 Pb8'
_cell_volume   1099.75027683
_cell_formula_units_Z   4
loop_
 _symmetry_equiv_pos_site_id
 _symmetry_equiv_pos_as_xyz
  1  'x, y, z'
loop_
 _atom_site_type_symbol
 _atom_site_label
 _atom_site_symmetry_multiplicity
 _atom_site_fract_x
 _atom_site_fract_y
 _atom_site_fract_z
 _atom_site_occupancy
  Gd  Gd0  1  0.523737  0.321378  0.899737  1
  Gd  Gd1  1  0.023737  0.178622  0.600263  1
  Gd  Gd2  1  0.476263  0.678622  0.399737  1
  Gd  Gd3  1  0.976263  0.821378  0.100263  1
  Gd  Gd4  1  0.476263  0.678622  0.100263  1
  Gd  Gd5  1  0.976263  0.821378  0.399737  1
  Gd  Gd6  1  0.523737  0.321378  0.600263  1
  Gd  Gd7  1  0.023737  0.178622  0.899737  1
  Er  Er8  1  0.367197  0.838288  0.874905  1
  Er  Er9  1  0.867197  0.661712  0.625095  1
  Er  Er10  1  0.632803  0.161712  0.374905  1
  Er  Er11  1  0.132803  0.338288  0.125095  1
  Er  Er12  1  0.632803  0.161712  0.125095  1
  Er  Er13  1  0.132803  0.338288  0.374905  1
  Er  Er14  1  0.367197  0.838288  0.625095  1
  Er  Er15  1  0.867197  0.661712  0.874905  1
  Er  Er16  1  0.199254  0.502914  0.750000  1
  Er  Er17  1  0.699254  0.997086  0.750000  1
  Er  Er18  1  0.800746  0.497086  0.250000  1
  Er  Er19  1  0.300746  0.002914  0.250000  1
  Sn  Sn20  1  0.562589  0.622638  0.750000  1
  Sn  Sn21  1  0.062589  0.877362  0.750000  1
  Sn  Sn22  1  0.437411  0.377362  0.250000  1
  Sn  Sn23  1  0.937411  0.122638  0.250000  1
  Sn  Sn24  1  0.332129  0.147709  0.750000  1
  Sn  Sn25  1  0.832129  0.352291  0.750000  1
  Sn  Sn26  1  0.667871  0.852291  0.250000  1
  Sn  Sn27  1  0.167871  0.647709  0.250000  1
  Pb  Pb28  1  0.292640  0.037450  0.041459  1
  Pb  Pb29  1  0.792640  0.462550  0.458541  1
  Pb  Pb30  1  0.707360  0.962550  0.541459  1
  Pb  Pb31  1  0.207360  0.537450  0.958541  1
  Pb  Pb32  1  0.707360  0.962550  0.958541  1
  Pb  Pb33  1  0.207360  0.537450  0.541459  1
  Pb  Pb34  1  0.292640  0.037450  0.458541  1
  Pb  Pb35  1  0.792640  0.462550  0.041459  1
