# generated using pymatgen
data_MnV5P3
_symmetry_space_group_name_H-M   'P 1'
_cell_length_a   6.33051425
_cell_length_b   6.30345461
_cell_length_c   3.20883800
_cell_angle_alpha   90.00000000
_cell_angle_beta   90.00000000
_cell_angle_gamma   119.85870570
_symmetry_Int_Tables_number   1
_chemical_formula_structural   MnV5P3
_chemical_formula_sum   'Mn1 V5 P3'
_cell_volume   111.04848113
_cell_formula_units_Z   1
loop_
 _symmetry_equiv_pos_site_id
 _symmetry_equiv_pos_as_xyz
  1  'x, y, z'
loop_
 _atom_site_type_symbol
 _atom_site_label
 _atom_site_symmetry_multiplicity
 _atom_site_fract_x
 _atom_site_fract_y
 _atom_site_fract_z
 _atom_site_occupancy
  Mn  Mn0  1  0.000000  0.738879  0.000000  1
  V  V1  1  0.255633  0.254919  0.000000  1
  V  V2  1  0.744367  0.999286  0.000000  1
  V  V3  1  0.577959  0.600522  0.500000  1
  V  V4  1  0.422041  0.022562  0.500000  1
  V  V5  1  0.000000  0.384938  0.500000  1
  P  P6  1  0.320945  0.670951  0.000000  1
  P  P7  1  0.000000  0.977938  0.500000  1
  P  P8  1  0.679055  0.350005  0.000000  1
