# generated using pymatgen
data_Lu8Nb9Si9Ge7Mo3
_symmetry_space_group_name_H-M   'P 1'
_cell_length_a   6.79244786
_cell_length_b   7.02572387
_cell_length_c   13.40321224
_cell_angle_alpha   89.93661121
_cell_angle_beta   90.06593711
_cell_angle_gamma   89.90000505
_symmetry_Int_Tables_number   1
_chemical_formula_structural   Lu8Nb9Si9Ge7Mo3
_chemical_formula_sum   'Lu8 Nb9 Si9 Ge7 Mo3'
_cell_volume   639.62446856
_cell_formula_units_Z   1
loop_
 _symmetry_equiv_pos_site_id
 _symmetry_equiv_pos_as_xyz
  1  'x, y, z'
loop_
 _atom_site_type_symbol
 _atom_site_label
 _atom_site_symmetry_multiplicity
 _atom_site_fract_x
 _atom_site_fract_y
 _atom_site_fract_z
 _atom_site_occupancy
  Lu  Lu0  1  0.498187  0.325135  0.096711  1
  Lu  Lu1  1  0.998929  0.175542  0.403770  1
  Lu  Lu2  1  0.498353  0.673154  0.596357  1
  Lu  Lu3  1  0.001059  0.825099  0.903153  1
  Lu  Lu4  1  0.501502  0.675066  0.902766  1
  Lu  Lu5  1  0.001277  0.824126  0.596541  1
  Lu  Lu6  1  0.497423  0.326361  0.404411  1
  Lu  Lu7  1  0.998011  0.174856  0.096916  1
  Nb  Nb8  1  0.837551  0.331898  0.627883  1
  Nb  Nb9  1  0.334722  0.168743  0.871448  1
  Nb  Nb10  1  0.164891  0.667524  0.129145  1
  Nb  Nb11  1  0.666256  0.832307  0.370488  1
  Nb  Nb12  1  0.166293  0.665299  0.372755  1
  Nb  Nb13  1  0.666453  0.832654  0.129956  1
  Nb  Nb14  1  0.836004  0.331713  0.871575  1
  Nb  Nb15  1  0.332624  0.172142  0.626911  1
  Nb  Nb16  1  0.661784  0.007207  0.749789  1
  Si  Si17  1  0.169759  0.461372  0.542498  1
  Si  Si18  1  0.533569  0.382812  0.749625  1
  Si  Si19  1  0.037746  0.119225  0.749895  1
  Si  Si20  1  0.465570  0.618651  0.250216  1
  Si  Si21  1  0.967918  0.881243  0.250778  1
  Si  Si22  1  0.798576  0.633139  0.749803  1
  Si  Si23  1  0.294639  0.863397  0.749478  1
  Si  Si24  1  0.201095  0.363423  0.250175  1
  Si  Si25  1  0.701026  0.137193  0.250445  1
  Ge  Ge26  1  0.674396  0.036964  0.541491  1
  Ge  Ge27  1  0.174906  0.462342  0.957469  1
  Ge  Ge28  1  0.326115  0.961876  0.042973  1
  Ge  Ge29  1  0.828530  0.537598  0.458103  1
  Ge  Ge30  1  0.326549  0.962171  0.456889  1
  Ge  Ge31  1  0.825255  0.538315  0.042553  1
  Ge  Ge32  1  0.674713  0.037289  0.958755  1
  Mo  Mo33  1  0.162837  0.494411  0.748012  1
  Mo  Mo34  1  0.338513  0.994051  0.250081  1
  Mo  Mo35  1  0.836972  0.505704  0.250186  1
