# generated using pymatgen
data_Ce2Dy2CdNi4Hg
_symmetry_space_group_name_H-M   'P 1'
_cell_length_a   7.49699600
_cell_length_b   7.41821271
_cell_length_c   3.62830800
_cell_angle_alpha   90.00000000
_cell_angle_beta   90.00000000
_cell_angle_gamma   90.02503239
_symmetry_Int_Tables_number   1
_chemical_formula_structural   Ce2Dy2CdNi4Hg
_chemical_formula_sum   'Ce2 Dy2 Cd1 Ni4 Hg1'
_cell_volume   201.78583025
_cell_formula_units_Z   1
loop_
 _symmetry_equiv_pos_site_id
 _symmetry_equiv_pos_as_xyz
  1  'x, y, z'
loop_
 _atom_site_type_symbol
 _atom_site_label
 _atom_site_symmetry_multiplicity
 _atom_site_fract_x
 _atom_site_fract_y
 _atom_site_fract_z
 _atom_site_occupancy
  Ce  Ce0  1  0.826020  0.673089  0.500000  1
  Ce  Ce1  1  0.323597  0.831066  0.500000  1
  Dy  Dy2  1  0.676350  0.171005  0.500000  1
  Dy  Dy3  1  0.170581  0.324513  0.500000  1
  Cd  Cd4  1  0.496846  0.492572  0.000000  1
  Ni  Ni5  1  0.876952  0.395383  0.000000  1
  Ni  Ni6  1  0.620249  0.862847  0.000000  1
  Ni  Ni7  1  0.128217  0.629789  0.000000  1
  Ni  Ni8  1  0.384129  0.112187  0.000000  1
  Hg  Hg9  1  0.997058  0.007551  0.000000  1
