# generated using pymatgen
data_La2Ga2Ru2C
_symmetry_space_group_name_H-M   'P 1'
_cell_length_a   6.13341334
_cell_length_b   6.13341222
_cell_length_c   7.46087600
_cell_angle_alpha   126.03861917
_cell_angle_beta   126.03861160
_cell_angle_gamma   40.33635221
_symmetry_Int_Tables_number   1
_chemical_formula_structural   La2Ga2Ru2C
_chemical_formula_sum   'La2 Ga2 Ru2 C1'
_cell_volume   141.55907585
_cell_formula_units_Z   1
loop_
 _symmetry_equiv_pos_site_id
 _symmetry_equiv_pos_as_xyz
  1  'x, y, z'
loop_
 _atom_site_type_symbol
 _atom_site_label
 _atom_site_symmetry_multiplicity
 _atom_site_fract_x
 _atom_site_fract_y
 _atom_site_fract_z
 _atom_site_occupancy
  La  La0  1  0.556820  0.556820  0.289251  1
  La  La1  1  0.443181  0.443181  0.710748  1
  Ga  Ga2  1  0.834548  0.834548  0.281442  1
  Ga  Ga3  1  0.165452  0.165452  0.718559  1
  Ru  Ru4  1  0.192088  0.192088  0.084409  1
  Ru  Ru5  1  0.807912  0.807912  0.915590  1
  C  C6  1  0.000000  0.000000  0.000000  1
