# generated using pymatgen
data_Er2LuIn3HgPt2
_symmetry_space_group_name_H-M   'P 1'
_cell_length_a   7.85807149
_cell_length_b   7.85375628
_cell_length_c   3.74519700
_cell_angle_alpha   90.00000000
_cell_angle_beta   90.00000000
_cell_angle_gamma   119.89565238
_symmetry_Int_Tables_number   1
_chemical_formula_structural   Er2LuIn3HgPt2
_chemical_formula_sum   'Er2 Lu1 In3 Hg1 Pt2'
_cell_volume   200.38000560
_cell_formula_units_Z   1
loop_
 _symmetry_equiv_pos_site_id
 _symmetry_equiv_pos_as_xyz
  1  'x, y, z'
loop_
 _atom_site_type_symbol
 _atom_site_label
 _atom_site_symmetry_multiplicity
 _atom_site_fract_x
 _atom_site_fract_y
 _atom_site_fract_z
 _atom_site_occupancy
  Er  Er0  1  0.023876  0.614040  0.500000  1
  Er  Er1  1  0.590354  0.976166  0.500000  1
  Lu  Lu2  1  0.384062  0.409339  0.500000  1
  In  In3  1  0.997644  0.260294  0.000000  1
  In  In4  1  0.262991  0.003042  0.000000  1
  In  In5  1  0.740270  0.737530  0.000000  1
  Hg  Hg6  1  0.665477  0.334006  0.000000  1
  Pt  Pt7  1  0.001277  0.001389  0.500000  1
  Pt  Pt8  1  0.334049  0.664194  0.000000  1
