# generated using pymatgen
data_NaLa2Pr2Y2RhBr12
_symmetry_space_group_name_H-M   'P 1'
_cell_length_a   9.50296334
_cell_length_b   9.56173105
_cell_length_c   9.54521175
_cell_angle_alpha   106.17299552
_cell_angle_beta   107.49811568
_cell_angle_gamma   107.68402558
_symmetry_Int_Tables_number   1
_chemical_formula_structural   NaLa2Pr2Y2RhBr12
_chemical_formula_sum   'Na1 La2 Pr2 Y2 Rh1 Br12'
_cell_volume   719.85549655
_cell_formula_units_Z   1
loop_
 _symmetry_equiv_pos_site_id
 _symmetry_equiv_pos_as_xyz
  1  'x, y, z'
loop_
 _atom_site_type_symbol
 _atom_site_label
 _atom_site_symmetry_multiplicity
 _atom_site_fract_x
 _atom_site_fract_y
 _atom_site_fract_z
 _atom_site_occupancy
  Na  Na0  1  0.500013  0.500480  0.501039  1
  La  La1  1  0.111820  0.317482  0.027193  1
  La  La2  1  0.322058  0.032340  0.113435  1
  Pr  Pr3  1  0.682032  0.968642  0.886997  1
  Pr  Pr4  1  0.887257  0.685185  0.972111  1
  Y  Y5  1  0.032633  0.113508  0.325246  1
  Y  Y6  1  0.966912  0.883983  0.673761  1
  Rh  Rh7  1  0.004749  0.003604  0.001113  1
  Br  Br8  1  0.218743  0.682151  0.073663  1
  Br  Br9  1  0.463681  0.379221  0.161329  1
  Br  Br10  1  0.694065  0.074624  0.223430  1
  Br  Br11  1  0.930786  0.793489  0.325479  1
  Br  Br12  1  0.150200  0.444050  0.374719  1
  Br  Br13  1  0.364237  0.156709  0.458647  1
  Br  Br14  1  0.635064  0.843733  0.543272  1
  Br  Br15  1  0.848883  0.554440  0.628141  1
  Br  Br16  1  0.066974  0.202549  0.670428  1
  Br  Br17  1  0.305563  0.923443  0.773426  1
  Br  Br18  1  0.538886  0.624737  0.841531  1
  Br  Br19  1  0.775446  0.315633  0.925041  1
