# generated using pymatgen
data_Li8Sm8SiPb7
_symmetry_space_group_name_H-M   'P 1'
_cell_length_a   9.51429900
_cell_length_b   9.51430043
_cell_length_c   7.56550500
_cell_angle_alpha   90.00000000
_cell_angle_beta   90.00000000
_cell_angle_gamma   119.99999849
_symmetry_Int_Tables_number   1
_chemical_formula_structural   Li8Sm8SiPb7
_chemical_formula_sum   'Li8 Sm8 Si1 Pb7'
_cell_volume   593.09220695
_cell_formula_units_Z   1
loop_
 _symmetry_equiv_pos_site_id
 _symmetry_equiv_pos_as_xyz
  1  'x, y, z'
loop_
 _atom_site_type_symbol
 _atom_site_label
 _atom_site_symmetry_multiplicity
 _atom_site_fract_x
 _atom_site_fract_y
 _atom_site_fract_z
 _atom_site_occupancy
  Li  Li0  1  0.831794  0.168206  0.706393  1
  Li  Li1  1  0.831794  0.663590  0.706393  1
  Li  Li2  1  0.336410  0.168206  0.706393  1
  Li  Li3  1  0.172381  0.827619  0.208903  1
  Li  Li4  1  0.172381  0.344761  0.208903  1
  Li  Li5  1  0.655239  0.827619  0.208903  1
  Li  Li6  1  0.666667  0.333333  0.331334  1
  Li  Li7  1  0.333333  0.666667  0.840482  1
  Sm  Sm8  1  0.481233  0.518767  0.498485  1
  Sm  Sm9  1  0.481233  0.962467  0.498485  1
  Sm  Sm10  1  0.037533  0.518767  0.498485  1
  Sm  Sm11  1  0.510170  0.489830  0.006145  1
  Sm  Sm12  1  0.510170  0.020341  0.006145  1
  Sm  Sm13  1  0.979659  0.489830  0.006145  1
  Sm  Sm14  1  0.000000  0.000000  0.500251  1
  Sm  Sm15  1  0.000000  0.000000  0.001735  1
  Si  Si16  1  0.333333  0.666667  0.240659  1
  Pb  Pb17  1  0.833152  0.166848  0.274614  1
  Pb  Pb18  1  0.833152  0.666303  0.274614  1
  Pb  Pb19  1  0.333697  0.166848  0.274614  1
  Pb  Pb20  1  0.166505  0.833495  0.773136  1
  Pb  Pb21  1  0.166505  0.333011  0.773136  1
  Pb  Pb22  1  0.666989  0.833495  0.773136  1
  Pb  Pb23  1  0.666667  0.333333  0.740531  1
