# generated using pymatgen
data_Tb3ZnSn3Rh2
_symmetry_space_group_name_H-M   'P 1'
_cell_length_a   7.58280400
_cell_length_b   7.58280359
_cell_length_c   3.94532800
_cell_angle_alpha   90.00000000
_cell_angle_beta   90.00000000
_cell_angle_gamma   119.99999306
_symmetry_Int_Tables_number   1
_chemical_formula_structural   Tb3ZnSn3Rh2
_chemical_formula_sum   'Tb3 Zn1 Sn3 Rh2'
_cell_volume   196.45967184
_cell_formula_units_Z   1
loop_
 _symmetry_equiv_pos_site_id
 _symmetry_equiv_pos_as_xyz
  1  'x, y, z'
loop_
 _atom_site_type_symbol
 _atom_site_label
 _atom_site_symmetry_multiplicity
 _atom_site_fract_x
 _atom_site_fract_y
 _atom_site_fract_z
 _atom_site_occupancy
  Tb  Tb0  1  0.409318  0.013608  0.500000  1
  Tb  Tb1  1  0.986392  0.395711  0.500000  1
  Tb  Tb2  1  0.604289  0.590682  0.500000  1
  Zn  Zn3  1  0.333333  0.666667  0.000000  1
  Sn  Sn4  1  0.742734  0.000309  0.000000  1
  Sn  Sn5  1  0.999691  0.742425  0.000000  1
  Sn  Sn6  1  0.257575  0.257266  0.000000  1
  Rh  Rh7  1  0.666667  0.333333  0.000000  1
  Rh  Rh8  1  0.000000  0.000000  0.500000  1
