# generated using pymatgen
data_CeZr(TlCl3)4
_symmetry_space_group_name_H-M   'P 1'
_cell_length_a   7.25289100
_cell_length_b   7.25289100
_cell_length_c   10.35239400
_cell_angle_alpha   90.00000000
_cell_angle_beta   90.00000000
_cell_angle_gamma   90.00000000
_symmetry_Int_Tables_number   1
_chemical_formula_structural   CeZr(TlCl3)4
_chemical_formula_sum   'Ce1 Zr1 Tl4 Cl12'
_cell_volume   544.58176333
_cell_formula_units_Z   1
loop_
 _symmetry_equiv_pos_site_id
 _symmetry_equiv_pos_as_xyz
  1  'x, y, z'
loop_
 _atom_site_type_symbol
 _atom_site_label
 _atom_site_symmetry_multiplicity
 _atom_site_fract_x
 _atom_site_fract_y
 _atom_site_fract_z
 _atom_site_occupancy
  Ce  Ce0  1  0.500000  0.500000  0.500000  1
  Zr  Zr1  1  0.000000  0.000000  0.000000  1
  Tl  Tl2  1  0.500000  0.000000  0.752815  1
  Tl  Tl3  1  0.500000  0.000000  0.247185  1
  Tl  Tl4  1  0.000000  0.500000  0.247185  1
  Tl  Tl5  1  0.000000  0.500000  0.752815  1
  Cl  Cl6  1  0.792425  0.273007  0.000000  1
  Cl  Cl7  1  0.207575  0.726993  0.000000  1
  Cl  Cl8  1  0.500000  0.500000  0.246519  1
  Cl  Cl9  1  0.283432  0.211098  0.500000  1
  Cl  Cl10  1  0.273007  0.207575  0.000000  1
  Cl  Cl11  1  0.788902  0.283432  0.500000  1
  Cl  Cl12  1  0.000000  0.000000  0.239602  1
  Cl  Cl13  1  0.716568  0.788902  0.500000  1
  Cl  Cl14  1  0.211098  0.716568  0.500000  1
  Cl  Cl15  1  0.500000  0.500000  0.753481  1
  Cl  Cl16  1  0.726993  0.792425  0.000000  1
  Cl  Cl17  1  0.000000  0.000000  0.760398  1
