# generated using pymatgen
data_Cs4Rb4Zn3CoBr16
_symmetry_space_group_name_H-M   'P 1'
_cell_length_a   7.84807900
_cell_length_b   10.25331318
_cell_length_c   13.68107826
_cell_angle_alpha   89.97799553
_cell_angle_beta   90.00000000
_cell_angle_gamma   90.00000000
_symmetry_Int_Tables_number   1
_chemical_formula_structural   Cs4Rb4Zn3CoBr16
_chemical_formula_sum   'Cs4 Rb4 Zn3 Co1 Br16'
_cell_volume   1100.90003155
_cell_formula_units_Z   1
loop_
 _symmetry_equiv_pos_site_id
 _symmetry_equiv_pos_as_xyz
  1  'x, y, z'
loop_
 _atom_site_type_symbol
 _atom_site_label
 _atom_site_symmetry_multiplicity
 _atom_site_fract_x
 _atom_site_fract_y
 _atom_site_fract_z
 _atom_site_occupancy
  Cs  Cs0  1  0.250000  0.639529  0.909822  1
  Cs  Cs1  1  0.750000  0.360503  0.090065  1
  Cs  Cs2  1  0.750000  0.860696  0.409811  1
  Cs  Cs3  1  0.250000  0.139322  0.590427  1
  Rb  Rb4  1  0.250000  0.984712  0.172442  1
  Rb  Rb5  1  0.750000  0.015692  0.827387  1
  Rb  Rb6  1  0.750000  0.515395  0.672935  1
  Rb  Rb7  1  0.250000  0.484365  0.327130  1
  Zn  Zn8  1  0.250000  0.732410  0.578150  1
  Zn  Zn9  1  0.750000  0.267640  0.421863  1
  Zn  Zn10  1  0.750000  0.767657  0.078143  1
  Co  Co11  1  0.250000  0.232590  0.922332  1
  Br  Br12  1  0.995262  0.816048  0.657593  1
  Br  Br13  1  0.004778  0.184000  0.342422  1
  Br  Br14  1  0.004807  0.683879  0.157513  1
  Br  Br15  1  0.495222  0.184000  0.342422  1
  Br  Br16  1  0.999528  0.314521  0.843583  1
  Br  Br17  1  0.504738  0.816048  0.657593  1
  Br  Br18  1  0.500472  0.314521  0.843583  1
  Br  Br19  1  0.495193  0.683879  0.157513  1
  Br  Br20  1  0.250000  0.495828  0.587249  1
  Br  Br21  1  0.750000  0.504154  0.412849  1
  Br  Br22  1  0.750000  0.004080  0.087172  1
  Br  Br23  1  0.250000  0.999472  0.912689  1
  Br  Br24  1  0.250000  0.312736  0.087424  1
  Br  Br25  1  0.750000  0.686174  0.909747  1
  Br  Br26  1  0.750000  0.186438  0.590365  1
  Br  Br27  1  0.250000  0.813711  0.409778  1
