# generated using pymatgen
data_Dy5Sc2Ir3
_symmetry_space_group_name_H-M   'P 1'
_cell_length_a   8.54573715
_cell_length_b   8.56262546
_cell_length_c   8.56262500
_cell_angle_alpha   109.51438149
_cell_angle_beta   109.67868365
_cell_angle_gamma   109.30081241
_symmetry_Int_Tables_number   1
_chemical_formula_structural   Dy5Sc2Ir3
_chemical_formula_sum   'Dy10 Sc4 Ir6'
_cell_volume   481.84490188
_cell_formula_units_Z   2
loop_
 _symmetry_equiv_pos_site_id
 _symmetry_equiv_pos_as_xyz
  1  'x, y, z'
loop_
 _atom_site_type_symbol
 _atom_site_label
 _atom_site_symmetry_multiplicity
 _atom_site_fract_x
 _atom_site_fract_y
 _atom_site_fract_z
 _atom_site_occupancy
  Dy  Dy0  1  0.250000  0.660093  0.410093  1
  Dy  Dy1  1  0.750000  0.839494  0.089494  1
  Dy  Dy2  1  0.410890  0.249883  0.660673  1
  Dy  Dy3  1  0.660740  0.410759  0.250024  1
  Dy  Dy4  1  0.089110  0.749783  0.838993  1
  Dy  Dy5  1  0.839260  0.089284  0.750019  1
  Dy  Dy6  1  0.206103  0.205919  0.206320  1
  Dy  Dy7  1  0.499913  0.999853  0.293797  1
  Dy  Dy8  1  0.293897  0.500218  0.999816  1
  Dy  Dy9  1  0.000087  0.293883  0.499940  1
  Sc  Sc10  1  0.623939  0.623949  0.624281  1
  Sc  Sc11  1  0.499408  0.999886  0.875819  1
  Sc  Sc12  1  0.876061  0.500341  0.000010  1
  Sc  Sc13  1  0.000592  0.876411  0.500476  1
  Ir  Ir14  1  0.250000  0.128838  0.878838  1
  Ir  Ir15  1  0.750000  0.371090  0.621090  1
  Ir  Ir16  1  0.878700  0.250385  0.128473  1
  Ir  Ir17  1  0.128728  0.878607  0.250277  1
  Ir  Ir18  1  0.621299  0.749773  0.371685  1
  Ir  Ir19  1  0.371272  0.621549  0.749880  1
