# generated using pymatgen
data_Sr2HoB2IO6
_symmetry_space_group_name_H-M   'P 1'
_cell_length_a   6.60555388
_cell_length_b   5.27136100
_cell_length_c   11.58274400
_cell_angle_alpha   90.00000000
_cell_angle_beta   86.45753760
_cell_angle_gamma   90.00000000
_symmetry_Int_Tables_number   1
_chemical_formula_structural   Sr2HoB2IO6
_chemical_formula_sum   'Sr4 Ho2 B4 I2 O12'
_cell_volume   402.54352726
_cell_formula_units_Z   2
loop_
 _symmetry_equiv_pos_site_id
 _symmetry_equiv_pos_as_xyz
  1  'x, y, z'
loop_
 _atom_site_type_symbol
 _atom_site_label
 _atom_site_symmetry_multiplicity
 _atom_site_fract_x
 _atom_site_fract_y
 _atom_site_fract_z
 _atom_site_occupancy
  Sr  Sr0  1  0.353478  0.250000  0.086035  1
  Sr  Sr1  1  0.968937  0.750001  0.338183  1
  Sr  Sr2  1  0.031062  0.250000  0.661817  1
  Sr  Sr3  1  0.646523  0.750001  0.913966  1
  Ho  Ho4  1  0.374656  0.250000  0.411066  1
  Ho  Ho5  1  0.625344  0.750001  0.588934  1
  B  B6  1  0.373188  0.750001  0.213505  1
  B  B7  1  0.801622  0.250000  0.433149  1
  B  B8  1  0.198378  0.750001  0.566851  1
  B  B9  1  0.626811  0.250000  0.786494  1
  I  I10  1  0.856373  0.250000  0.135475  1
  I  I11  1  0.143627  0.750001  0.864524  1
  O  O12  1  0.451779  0.750001  0.101204  1
  O  O13  1  0.317036  0.524792  0.270422  1
  O  O14  1  0.317036  0.975209  0.270422  1
  O  O15  1  0.009088  0.250000  0.432652  1
  O  O16  1  0.686753  0.027221  0.434509  1
  O  O17  1  0.686753  0.472780  0.434509  1
  O  O18  1  0.313246  0.527220  0.565490  1
  O  O19  1  0.313246  0.972779  0.565490  1
  O  O20  1  0.990913  0.750001  0.567348  1
  O  O21  1  0.682964  0.024791  0.729577  1
  O  O22  1  0.682964  0.475208  0.729577  1
  O  O23  1  0.548220  0.250000  0.898796  1
