# generated using pymatgen
data_DyY3(Si2Pt3)2
_symmetry_space_group_name_H-M   'P 1'
_cell_length_a   4.20150100
_cell_length_b   6.71005806
_cell_length_c   8.93302708
_cell_angle_alpha   90.01523210
_cell_angle_beta   90.00000000
_cell_angle_gamma   90.00000000
_symmetry_Int_Tables_number   1
_chemical_formula_structural   DyY3(Si2Pt3)2
_chemical_formula_sum   'Dy1 Y3 Si4 Pt6'
_cell_volume   251.84271018
_cell_formula_units_Z   1
loop_
 _symmetry_equiv_pos_site_id
 _symmetry_equiv_pos_as_xyz
  1  'x, y, z'
loop_
 _atom_site_type_symbol
 _atom_site_label
 _atom_site_symmetry_multiplicity
 _atom_site_fract_x
 _atom_site_fract_y
 _atom_site_fract_z
 _atom_site_occupancy
  Dy  Dy0  1  0.000000  0.611952  0.829307  1
  Y  Y1  1  0.000000  0.887971  0.329222  1
  Y  Y2  1  0.000000  0.112021  0.670822  1
  Y  Y3  1  0.000000  0.387937  0.170797  1
  Si  Si4  1  0.500000  0.574184  0.357554  1
  Si  Si5  1  0.500000  0.425915  0.642469  1
  Si  Si6  1  0.500000  0.074112  0.142454  1
  Si  Si7  1  0.500000  0.925745  0.857530  1
  Pt  Pt8  1  0.500000  0.695335  0.090588  1
  Pt  Pt9  1  0.500000  0.305134  0.909070  1
  Pt  Pt10  1  0.500000  0.195431  0.409141  1
  Pt  Pt11  1  0.500000  0.804423  0.590958  1
  Pt  Pt12  1  0.000000  0.500072  0.500189  1
  Pt  Pt13  1  0.000000  0.999768  0.999898  1
