# generated using pymatgen
data_Yb7Y9(ZrIr3)4
_symmetry_space_group_name_H-M   'P 1'
_cell_length_a   10.87740828
_cell_length_b   10.86165467
_cell_length_c   6.31176857
_cell_angle_alpha   90.10347782
_cell_angle_beta   89.99617032
_cell_angle_gamma   90.11265306
_symmetry_Int_Tables_number   1
_chemical_formula_structural   Yb7Y9(ZrIr3)4
_chemical_formula_sum   'Yb7 Y9 Zr4 Ir12'
_cell_volume   745.71166852
_cell_formula_units_Z   1
loop_
 _symmetry_equiv_pos_site_id
 _symmetry_equiv_pos_as_xyz
  1  'x, y, z'
loop_
 _atom_site_type_symbol
 _atom_site_label
 _atom_site_symmetry_multiplicity
 _atom_site_fract_x
 _atom_site_fract_y
 _atom_site_fract_z
 _atom_site_occupancy
  Yb  Yb0  1  0.291981  0.083081  0.370823  1
  Yb  Yb1  1  0.293372  0.915032  0.870381  1
  Yb  Yb2  1  0.709048  0.080820  0.870444  1
  Yb  Yb3  1  0.707511  0.918718  0.370639  1
  Yb  Yb4  1  0.582217  0.794504  0.869848  1
  Yb  Yb5  1  0.584270  0.207874  0.370205  1
  Yb  Yb6  1  0.415666  0.793247  0.369906  1
  Y  Y7  1  0.419314  0.203639  0.872202  1
  Y  Y8  1  0.212380  0.414549  0.633491  1
  Y  Y9  1  0.212040  0.584949  0.131886  1
  Y  Y10  1  0.787095  0.414749  0.132384  1
  Y  Y11  1  0.786786  0.585434  0.633120  1
  Y  Y12  1  0.914106  0.713009  0.134380  1
  Y  Y13  1  0.914780  0.287113  0.633762  1
  Y  Y14  1  0.084915  0.712386  0.633673  1
  Y  Y15  1  0.085824  0.287380  0.131706  1
  Zr  Zr16  1  0.000716  0.999800  0.494062  1
  Zr  Zr17  1  0.001161  0.999637  0.993489  1
  Zr  Zr18  1  0.499600  0.501485  0.993985  1
  Zr  Zr19  1  0.499910  0.499155  0.494269  1
  Ir  Ir20  1  0.865503  0.147262  0.247043  1
  Ir  Ir21  1  0.864556  0.852158  0.745894  1
  Ir  Ir22  1  0.139214  0.147909  0.749196  1
  Ir  Ir23  1  0.135630  0.851338  0.246522  1
  Ir  Ir24  1  0.643853  0.361542  0.750404  1
  Ir  Ir25  1  0.646987  0.636918  0.248861  1
  Ir  Ir26  1  0.352640  0.363211  0.242376  1
  Ir  Ir27  1  0.352621  0.636545  0.745350  1
  Ir  Ir28  1  0.498732  0.003555  0.125218  1
  Ir  Ir29  1  0.499239  0.002973  0.620899  1
  Ir  Ir30  1  0.999069  0.500224  0.886647  1
  Ir  Ir31  1  0.999263  0.499805  0.386936  1
