# generated using pymatgen
data_TiCr3Cl16
_symmetry_space_group_name_H-M   'P 1'
_cell_length_a   7.00696206
_cell_length_b   10.50425971
_cell_length_c   10.51660085
_cell_angle_alpha   77.98941059
_cell_angle_beta   90.00183956
_cell_angle_gamma   89.98596341
_symmetry_Int_Tables_number   1
_chemical_formula_structural   TiCr3Cl16
_chemical_formula_sum   'Ti1 Cr3 Cl16'
_cell_volume   757.10814419
_cell_formula_units_Z   1
loop_
 _symmetry_equiv_pos_site_id
 _symmetry_equiv_pos_as_xyz
  1  'x, y, z'
loop_
 _atom_site_type_symbol
 _atom_site_label
 _atom_site_symmetry_multiplicity
 _atom_site_fract_x
 _atom_site_fract_y
 _atom_site_fract_z
 _atom_site_occupancy
  Ti  Ti0  1  0.923558  0.251152  0.866240  1
  Cr  Cr1  1  0.576462  0.251148  0.366179  1
  Cr  Cr2  1  0.076595  0.748746  0.133796  1
  Cr  Cr3  1  0.423428  0.748864  0.633680  1
  Cl  Cl4  1  0.575382  0.413591  0.208690  1
  Cl  Cl5  1  0.075374  0.586500  0.291398  1
  Cl  Cl6  1  0.424611  0.586507  0.791389  1
  Cl  Cl7  1  0.924688  0.418788  0.703546  1
  Cl  Cl8  1  0.629552  0.193996  0.919406  1
  Cl  Cl9  1  0.138838  0.804202  0.582262  1
  Cl  Cl10  1  0.361252  0.804179  0.082367  1
  Cl  Cl11  1  0.861142  0.195790  0.417699  1
  Cl  Cl12  1  0.072418  0.089502  0.808331  1
  Cl  Cl13  1  0.567820  0.905382  0.689818  1
  Cl  Cl14  1  0.932237  0.905389  0.189876  1
  Cl  Cl15  1  0.432212  0.094506  0.310204  1
  Cl  Cl16  1  0.068998  0.302899  0.032117  1
  Cl  Cl17  1  0.564452  0.698809  0.473102  1
  Cl  Cl18  1  0.935456  0.698780  0.973082  1
  Cl  Cl19  1  0.435524  0.301268  0.526818  1
