# generated using pymatgen
data_LaPr4TaRuO12
_symmetry_space_group_name_H-M   'P 1'
_cell_length_a   7.12477618
_cell_length_b   7.12477628
_cell_length_c   7.83148355
_cell_angle_alpha   74.12215394
_cell_angle_beta   74.12215557
_cell_angle_gamma   50.23048181
_symmetry_Int_Tables_number   1
_chemical_formula_structural   LaPr4TaRuO12
_chemical_formula_sum   'La1 Pr4 Ta1 Ru1 O12'
_cell_volume   291.28046339
_cell_formula_units_Z   1
loop_
 _symmetry_equiv_pos_site_id
 _symmetry_equiv_pos_as_xyz
  1  'x, y, z'
loop_
 _atom_site_type_symbol
 _atom_site_label
 _atom_site_symmetry_multiplicity
 _atom_site_fract_x
 _atom_site_fract_y
 _atom_site_fract_z
 _atom_site_occupancy
  La  La0  1  0.001121  0.998879  0.500000  1
  Pr  Pr1  1  0.304147  0.310081  0.358042  1
  Pr  Pr2  1  0.689919  0.695853  0.641958  1
  Pr  Pr3  1  0.686934  0.695186  0.168351  1
  Pr  Pr4  1  0.304814  0.313066  0.831649  1
  Ta  Ta5  1  0.782463  0.217537  0.000000  1
  Ru  Ru6  1  0.246181  0.753819  0.000000  1
  O  O7  1  0.092592  0.594737  0.578279  1
  O  O8  1  0.996029  0.001906  0.187641  1
  O  O9  1  0.405263  0.907408  0.421721  1
  O  O10  1  0.507213  0.493793  0.170993  1
  O  O11  1  0.095544  0.587644  0.078571  1
  O  O12  1  0.903368  0.408980  0.420784  1
  O  O13  1  0.998094  0.003971  0.812359  1
  O  O14  1  0.591020  0.096631  0.579216  1
  O  O15  1  0.506207  0.492787  0.829007  1
  O  O16  1  0.578630  0.101895  0.078475  1
  O  O17  1  0.412356  0.904456  0.921429  1
  O  O18  1  0.898105  0.421370  0.921525  1
