# generated using pymatgen
data_Pr16MgIn3Co4
_symmetry_space_group_name_H-M   'P 1'
_cell_length_a   9.91960393
_cell_length_b   9.92061204
_cell_length_c   9.91948862
_cell_angle_alpha   60.15474116
_cell_angle_beta   60.14773584
_cell_angle_gamma   60.15862231
_symmetry_Int_Tables_number   1
_chemical_formula_structural   Pr16MgIn3Co4
_chemical_formula_sum   'Pr16 Mg1 In3 Co4'
_cell_volume   692.65406696
_cell_formula_units_Z   1
loop_
 _symmetry_equiv_pos_site_id
 _symmetry_equiv_pos_as_xyz
  1  'x, y, z'
loop_
 _atom_site_type_symbol
 _atom_site_label
 _atom_site_symmetry_multiplicity
 _atom_site_fract_x
 _atom_site_fract_y
 _atom_site_fract_z
 _atom_site_occupancy
  Pr  Pr0  1  0.289149  0.903506  0.903504  1
  Pr  Pr1  1  0.689261  0.689258  0.307181  1
  Pr  Pr2  1  0.903509  0.903505  0.289157  1
  Pr  Pr3  1  0.308974  0.692083  0.308975  1
  Pr  Pr4  1  0.692080  0.308988  0.308983  1
  Pr  Pr5  1  0.061178  0.439127  0.439142  1
  Pr  Pr6  1  0.441226  0.059407  0.059416  1
  Pr  Pr7  1  0.059416  0.059414  0.441227  1
  Pr  Pr8  1  0.308981  0.308984  0.692083  1
  Pr  Pr9  1  0.439129  0.061176  0.439138  1
  Pr  Pr10  1  0.903948  0.903939  0.903931  1
  Pr  Pr11  1  0.439143  0.439126  0.061178  1
  Pr  Pr12  1  0.307176  0.689256  0.689265  1
  Pr  Pr13  1  0.689247  0.307192  0.689246  1
  Pr  Pr14  1  0.059414  0.441231  0.059421  1
  Pr  Pr15  1  0.903509  0.289150  0.903500  1
  Mg  Mg16  1  0.674274  0.674271  0.674274  1
  In  In17  1  0.670125  0.670097  0.990869  1
  In  In18  1  0.990875  0.670104  0.670115  1
  In  In19  1  0.670107  0.990887  0.670108  1
  Co  Co20  1  0.109025  0.109034  0.109026  1
  Co  Co21  1  0.109661  0.109666  0.670933  1
  Co  Co22  1  0.670932  0.109667  0.109663  1
  Co  Co23  1  0.109662  0.670931  0.109665  1
