# generated using pymatgen
data_Na2Si4WO11
_symmetry_space_group_name_H-M   'P 1'
_cell_length_a   7.53147081
_cell_length_b   7.53147172
_cell_length_c   8.58338627
_cell_angle_alpha   82.52766735
_cell_angle_beta   82.52766810
_cell_angle_gamma   84.13260899
_symmetry_Int_Tables_number   1
_chemical_formula_structural   Na2Si4WO11
_chemical_formula_sum   'Na4 Si8 W2 O22'
_cell_volume   476.83597359
_cell_formula_units_Z   2
loop_
 _symmetry_equiv_pos_site_id
 _symmetry_equiv_pos_as_xyz
  1  'x, y, z'
loop_
 _atom_site_type_symbol
 _atom_site_label
 _atom_site_symmetry_multiplicity
 _atom_site_fract_x
 _atom_site_fract_y
 _atom_site_fract_z
 _atom_site_occupancy
  Na  Na0  1  0.922014  0.077986  0.250000  1
  Na  Na1  1  0.077986  0.922014  0.750000  1
  Na  Na2  1  0.605938  0.394062  0.250000  1
  Na  Na3  1  0.394062  0.605938  0.750000  1
  Si  Si4  1  0.806241  0.665539  0.641665  1
  Si  Si5  1  0.193759  0.334461  0.358335  1
  Si  Si6  1  0.665539  0.806241  0.141665  1
  Si  Si7  1  0.267090  0.830422  0.071399  1
  Si  Si8  1  0.169578  0.732910  0.428601  1
  Si  Si9  1  0.732910  0.169578  0.928601  1
  Si  Si10  1  0.830422  0.267090  0.571399  1
  Si  Si11  1  0.334461  0.193759  0.858335  1
  W  W12  1  0.500000  0.000000  0.500000  1
  W  W13  1  0.000000  0.500000  0.000000  1
  O  O14  1  0.376541  0.201169  0.353055  1
  O  O15  1  0.798831  0.623459  0.146945  1
  O  O16  1  0.623459  0.798831  0.646945  1
  O  O17  1  0.201169  0.376541  0.853055  1
  O  O18  1  0.368737  0.109277  0.692539  1
  O  O19  1  0.890723  0.631263  0.807461  1
  O  O20  1  0.631263  0.890723  0.307461  1
  O  O21  1  0.109277  0.368737  0.192539  1
  O  O22  1  0.289105  0.822278  0.535239  1
  O  O23  1  0.177722  0.710895  0.964761  1
  O  O24  1  0.710895  0.177722  0.464761  1
  O  O25  1  0.822278  0.289105  0.035239  1
  O  O26  1  0.476412  0.753087  0.086286  1
  O  O27  1  0.246913  0.523588  0.413714  1
  O  O28  1  0.841020  0.158980  0.750000  1
  O  O29  1  0.158980  0.841020  0.250000  1
  O  O30  1  0.039713  0.246932  0.491789  1
  O  O31  1  0.753068  0.960287  0.008211  1
  O  O32  1  0.960287  0.753068  0.508211  1
  O  O33  1  0.246932  0.039713  0.991789  1
  O  O34  1  0.753087  0.476412  0.586286  1
  O  O35  1  0.523588  0.246913  0.913714  1
