# generated using pymatgen
data_Ca8Cr3GeO16
_symmetry_space_group_name_H-M   'P 1'
_cell_length_a   5.34522410
_cell_length_b   6.82676200
_cell_length_c   11.46225201
_cell_angle_alpha   90.00000000
_cell_angle_beta   89.99137077
_cell_angle_gamma   90.00000000
_symmetry_Int_Tables_number   1
_chemical_formula_structural   Ca8Cr3GeO16
_chemical_formula_sum   'Ca8 Cr3 Ge1 O16'
_cell_volume   418.26413645
_cell_formula_units_Z   1
loop_
 _symmetry_equiv_pos_site_id
 _symmetry_equiv_pos_as_xyz
  1  'x, y, z'
loop_
 _atom_site_type_symbol
 _atom_site_label
 _atom_site_symmetry_multiplicity
 _atom_site_fract_x
 _atom_site_fract_y
 _atom_site_fract_z
 _atom_site_occupancy
  Ca  Ca0  1  0.004473  0.750000  0.720056  1
  Ca  Ca1  1  0.994940  0.250000  0.279258  1
  Ca  Ca2  1  0.505501  0.250000  0.780293  1
  Ca  Ca3  1  0.495397  0.750000  0.220131  1
  Ca  Ca4  1  0.501120  0.500215  0.500230  1
  Ca  Ca5  1  0.999962  0.999995  0.999708  1
  Ca  Ca6  1  0.999962  0.500005  0.999708  1
  Ca  Ca7  1  0.501120  0.999785  0.500230  1
  Cr  Cr8  1  0.434081  0.250000  0.096718  1
  Cr  Cr9  1  0.934289  0.750000  0.403317  1
  Cr  Cr10  1  0.565461  0.750000  0.903513  1
  Ge  Ge11  1  0.070026  0.250000  0.595883  1
  O  O12  1  0.781518  0.750000  0.546278  1
  O  O13  1  0.778550  0.542815  0.336777  1
  O  O14  1  0.720067  0.542662  0.836801  1
  O  O15  1  0.738971  0.250000  0.593304  1
  O  O16  1  0.717522  0.750000  0.046646  1
  O  O17  1  0.278815  0.457305  0.163391  1
  O  O18  1  0.217407  0.457004  0.663809  1
  O  O19  1  0.269550  0.750000  0.406604  1
  O  O20  1  0.778550  0.957185  0.336777  1
  O  O21  1  0.230317  0.750000  0.906339  1
  O  O22  1  0.214038  0.250000  0.452969  1
  O  O23  1  0.720067  0.957338  0.836801  1
  O  O24  1  0.217407  0.042996  0.663809  1
  O  O25  1  0.282845  0.250000  0.953545  1
  O  O26  1  0.278815  0.042695  0.163391  1
  O  O27  1  0.769233  0.250000  0.093712  1
