# generated using pymatgen
data_TbHo3Er4(ReB6)4
_symmetry_space_group_name_H-M   'P 1'
_cell_length_a   3.66750400
_cell_length_b   9.14742800
_cell_length_c   11.53137700
_cell_angle_alpha   89.99904697
_cell_angle_beta   90.00000000
_cell_angle_gamma   90.00000000
_symmetry_Int_Tables_number   1
_chemical_formula_structural   TbHo3Er4(ReB6)4
_chemical_formula_sum   'Tb1 Ho3 Er4 Re4 B24'
_cell_volume   386.85727371
_cell_formula_units_Z   1
loop_
 _symmetry_equiv_pos_site_id
 _symmetry_equiv_pos_as_xyz
  1  'x, y, z'
loop_
 _atom_site_type_symbol
 _atom_site_label
 _atom_site_symmetry_multiplicity
 _atom_site_fract_x
 _atom_site_fract_y
 _atom_site_fract_z
 _atom_site_occupancy
  Tb  Tb0  1  0.000000  0.323369  0.413826  1
  Ho  Ho1  1  0.000000  0.676545  0.586169  1
  Ho  Ho2  1  0.000000  0.823483  0.086134  1
  Ho  Ho3  1  0.000000  0.176497  0.913856  1
  Er  Er4  1  0.000000  0.943281  0.370138  1
  Er  Er5  1  0.000000  0.056538  0.629925  1
  Er  Er6  1  0.000000  0.443402  0.129730  1
  Er  Er7  1  0.000000  0.556686  0.870225  1
  Re  Re8  1  0.000000  0.639194  0.320580  1
  Re  Re9  1  0.000000  0.361093  0.679606  1
  Re  Re10  1  0.000000  0.138745  0.179134  1
  Re  Re11  1  0.000000  0.861110  0.820658  1
  B  B12  1  0.500000  0.553662  0.432977  1
  B  B13  1  0.500000  0.446711  0.567225  1
  B  B14  1  0.500000  0.053338  0.066958  1
  B  B15  1  0.500000  0.946633  0.933020  1
  B  B16  1  0.500000  0.749761  0.418879  1
  B  B17  1  0.500000  0.250234  0.581468  1
  B  B18  1  0.500000  0.249723  0.081102  1
  B  B19  1  0.500000  0.750293  0.918857  1
  B  B20  1  0.500000  0.792644  0.265539  1
  B  B21  1  0.500000  0.207332  0.734490  1
  B  B22  1  0.500000  0.292522  0.234205  1
  B  B23  1  0.500000  0.707345  0.765554  1
  B  B24  1  0.500000  0.630938  0.185399  1
  B  B25  1  0.500000  0.369108  0.814585  1
  B  B26  1  0.500000  0.130680  0.314372  1
  B  B27  1  0.500000  0.869086  0.685450  1
  B  B28  1  0.500000  0.982099  0.212073  1
  B  B29  1  0.500000  0.017869  0.787919  1
  B  B30  1  0.500000  0.482465  0.287725  1
  B  B31  1  0.500000  0.517926  0.712133  1
  B  B32  1  0.500000  0.599786  0.027902  1
  B  B33  1  0.500000  0.400235  0.972094  1
  B  B34  1  0.500000  0.099426  0.472193  1
  B  B35  1  0.500000  0.900244  0.527900  1
