# generated using pymatgen
data_YLu3Fe4(Co4P3)4
_symmetry_space_group_name_H-M   'P 1'
_cell_length_a   3.64194900
_cell_length_b   10.21968791
_cell_length_c   11.73746305
_cell_angle_alpha   90.04840726
_cell_angle_beta   90.00000000
_cell_angle_gamma   90.00000000
_symmetry_Int_Tables_number   1
_chemical_formula_structural   YLu3Fe4(Co4P3)4
_chemical_formula_sum   'Y1 Lu3 Fe4 Co16 P12'
_cell_volume   436.86331445
_cell_formula_units_Z   1
loop_
 _symmetry_equiv_pos_site_id
 _symmetry_equiv_pos_as_xyz
  1  'x, y, z'
loop_
 _atom_site_type_symbol
 _atom_site_label
 _atom_site_symmetry_multiplicity
 _atom_site_fract_x
 _atom_site_fract_y
 _atom_site_fract_z
 _atom_site_occupancy
  Y  Y0  1  0.250000  0.581015  0.703597  1
  Lu  Lu1  1  0.250000  0.919569  0.203237  1
  Lu  Lu2  1  0.750000  0.419215  0.296815  1
  Lu  Lu3  1  0.750000  0.080464  0.796773  1
  Fe  Fe4  1  0.250000  0.710707  0.987909  1
  Fe  Fe5  1  0.250000  0.789877  0.487027  1
  Fe  Fe6  1  0.750000  0.289058  0.012914  1
  Fe  Fe7  1  0.750000  0.210079  0.511627  1
  Co  Co8  1  0.250000  0.405741  0.485498  1
  Co  Co9  1  0.250000  0.093392  0.986181  1
  Co  Co10  1  0.750000  0.593298  0.511374  1
  Co  Co11  1  0.750000  0.906553  0.014044  1
  Co  Co12  1  0.250000  0.221799  0.176748  1
  Co  Co13  1  0.250000  0.277410  0.676501  1
  Co  Co14  1  0.750000  0.779141  0.823785  1
  Co  Co15  1  0.750000  0.722568  0.322890  1
  Co  Co16  1  0.250000  0.883316  0.698938  1
  Co  Co17  1  0.250000  0.618106  0.199459  1
  Co  Co18  1  0.750000  0.117892  0.300716  1
  Co  Co19  1  0.750000  0.380138  0.802075  1
  Co  Co20  1  0.250000  0.465171  0.934057  1
  Co  Co21  1  0.250000  0.034213  0.432214  1
  Co  Co22  1  0.750000  0.533946  0.068621  1
  Co  Co23  1  0.750000  0.966986  0.566969  1
  P  P24  1  0.250000  0.419454  0.115057  1
  P  P25  1  0.250000  0.080580  0.613973  1
  P  P26  1  0.750000  0.580502  0.887875  1
  P  P27  1  0.750000  0.919869  0.385469  1
  P  P28  1  0.250000  0.267185  0.867865  1
  P  P29  1  0.250000  0.232370  0.367485  1
  P  P30  1  0.750000  0.732866  0.132252  1
  P  P31  1  0.750000  0.769471  0.631035  1
  P  P32  1  0.250000  0.601084  0.391535  1
  P  P33  1  0.250000  0.898915  0.891657  1
  P  P34  1  0.750000  0.397120  0.607461  1
  P  P35  1  0.750000  0.100927  0.108368  1
