# generated using pymatgen
data_Pr3NdAl18(Pt2Rh)2
_symmetry_space_group_name_H-M   'P 1'
_cell_length_a   7.67381204
_cell_length_b   7.67406741
_cell_length_c   9.59624500
_cell_angle_alpha   90.00000000
_cell_angle_beta   90.00000000
_cell_angle_gamma   119.60738431
_symmetry_Int_Tables_number   1
_chemical_formula_structural   Pr3NdAl18(Pt2Rh)2
_chemical_formula_sum   'Pr3 Nd1 Al18 Pt4 Rh2'
_cell_volume   491.33007289
_cell_formula_units_Z   1
loop_
 _symmetry_equiv_pos_site_id
 _symmetry_equiv_pos_as_xyz
  1  'x, y, z'
loop_
 _atom_site_type_symbol
 _atom_site_label
 _atom_site_symmetry_multiplicity
 _atom_site_fract_x
 _atom_site_fract_y
 _atom_site_fract_z
 _atom_site_occupancy
  Pr  Pr0  1  0.993874  0.666719  0.750000  1
  Pr  Pr1  1  0.006133  0.333255  0.250000  1
  Pr  Pr2  1  0.666719  0.993861  0.750000  1
  Nd  Nd3  1  0.333237  0.006133  0.250000  1
  Al  Al4  1  0.127741  0.127730  0.750000  1
  Al  Al5  1  0.872473  0.872348  0.250000  1
  Al  Al6  1  0.001630  0.330308  0.573472  1
  Al  Al7  1  0.998527  0.669846  0.426429  1
  Al  Al8  1  0.998527  0.669846  0.073571  1
  Al  Al9  1  0.330302  0.001620  0.926643  1
  Al  Al10  1  0.001630  0.330308  0.926528  1
  Al  Al11  1  0.669554  0.998379  0.073572  1
  Al  Al12  1  0.669554  0.998379  0.426428  1
  Al  Al13  1  0.330302  0.001620  0.573357  1
  Al  Al14  1  0.330754  0.330619  0.052076  1
  Al  Al15  1  0.669243  0.669244  0.948029  1
  Al  Al16  1  0.669243  0.669244  0.551971  1
  Al  Al17  1  0.330754  0.330619  0.447924  1
  Al  Al18  1  0.340017  0.543614  0.750000  1
  Al  Al19  1  0.659850  0.456190  0.250000  1
  Al  Al20  1  0.543607  0.340008  0.750000  1
  Al  Al21  1  0.456332  0.660093  0.250000  1
  Pt  Pt22  1  0.671091  0.328758  0.499946  1
  Pt  Pt23  1  0.328840  0.671248  0.499947  1
  Pt  Pt24  1  0.328840  0.671248  0.000053  1
  Pt  Pt25  1  0.671091  0.328758  0.000054  1
  Rh  Rh26  1  0.000067  0.000003  0.499953  1
  Rh  Rh27  1  0.000067  0.000003  0.000047  1
