# generated using pymatgen
data_DyTh3(MoN2)4
_symmetry_space_group_name_H-M   'P 1'
_cell_length_a   3.30514200
_cell_length_b   5.81635605
_cell_length_c   11.00837063
_cell_angle_alpha   89.63840106
_cell_angle_beta   90.00000000
_cell_angle_gamma   90.00000000
_symmetry_Int_Tables_number   1
_chemical_formula_structural   DyTh3(MoN2)4
_chemical_formula_sum   'Dy1 Th3 Mo4 N8'
_cell_volume   211.61941097
_cell_formula_units_Z   1
loop_
 _symmetry_equiv_pos_site_id
 _symmetry_equiv_pos_as_xyz
  1  'x, y, z'
loop_
 _atom_site_type_symbol
 _atom_site_label
 _atom_site_symmetry_multiplicity
 _atom_site_fract_x
 _atom_site_fract_y
 _atom_site_fract_z
 _atom_site_occupancy
  Dy  Dy0  1  0.750000  0.423281  0.350362  1
  Th  Th1  1  0.250000  0.073714  0.854431  1
  Th  Th2  1  0.250000  0.574728  0.641973  1
  Th  Th3  1  0.750000  0.922091  0.151585  1
  Mo  Mo4  1  0.250000  0.433166  0.098619  1
  Mo  Mo5  1  0.250000  0.940716  0.410131  1
  Mo  Mo6  1  0.750000  0.563870  0.906055  1
  Mo  Mo7  1  0.750000  0.067540  0.588737  1
  N  N8  1  0.250000  0.167682  0.251095  1
  N  N9  1  0.250000  0.664953  0.256246  1
  N  N10  1  0.750000  0.833741  0.748656  1
  N  N11  1  0.750000  0.330151  0.745651  1
  N  N12  1  0.250000  0.744365  0.996599  1
  N  N13  1  0.250000  0.255668  0.502478  1
  N  N14  1  0.750000  0.253548  0.007739  1
  N  N15  1  0.750000  0.750786  0.489641  1
