# generated using pymatgen
data_PrZnNi4
_symmetry_space_group_name_H-M   'P 1'
_cell_length_a   5.03594244
_cell_length_b   5.03594169
_cell_length_c   4.03594400
_cell_angle_alpha   90.00000000
_cell_angle_beta   90.00000000
_cell_angle_gamma   120.08671116
_symmetry_Int_Tables_number   1
_chemical_formula_structural   PrZnNi4
_chemical_formula_sum   'Pr1 Zn1 Ni4'
_cell_volume   88.56397108
_cell_formula_units_Z   1
loop_
 _symmetry_equiv_pos_site_id
 _symmetry_equiv_pos_as_xyz
  1  'x, y, z'
loop_
 _atom_site_type_symbol
 _atom_site_label
 _atom_site_symmetry_multiplicity
 _atom_site_fract_x
 _atom_site_fract_y
 _atom_site_fract_z
 _atom_site_occupancy
  Pr  Pr0  1  0.000000  0.000000  0.000000  1
  Zn  Zn1  1  0.500000  0.500000  0.500000  1
  Ni  Ni2  1  0.324731  0.675269  0.000000  1
  Ni  Ni3  1  0.675269  0.324731  0.000000  1
  Ni  Ni4  1  0.500000  0.000000  0.500000  1
  Ni  Ni5  1  0.000000  0.500000  0.500000  1
