# generated using pymatgen
data_Tm16In4OsRh3
_symmetry_space_group_name_H-M   'P 1'
_cell_length_a   9.50902593
_cell_length_b   9.50902572
_cell_length_c   9.53230620
_cell_angle_alpha   60.08075958
_cell_angle_beta   60.08075785
_cell_angle_gamma   60.00000111
_symmetry_Int_Tables_number   1
_chemical_formula_structural   Tm16In4OsRh3
_chemical_formula_sum   'Tm16 In4 Os1 Rh3'
_cell_volume   610.21670979
_cell_formula_units_Z   1
loop_
 _symmetry_equiv_pos_site_id
 _symmetry_equiv_pos_as_xyz
  1  'x, y, z'
loop_
 _atom_site_type_symbol
 _atom_site_label
 _atom_site_symmetry_multiplicity
 _atom_site_fract_x
 _atom_site_fract_y
 _atom_site_fract_z
 _atom_site_occupancy
  Tm  Tm0  1  0.058745  0.058745  0.436421  1
  Tm  Tm1  1  0.446090  0.058745  0.436421  1
  Tm  Tm2  1  0.062708  0.437689  0.061915  1
  Tm  Tm3  1  0.051521  0.648980  0.650519  1
  Tm  Tm4  1  0.437689  0.437689  0.061915  1
  Tm  Tm5  1  0.648980  0.051521  0.650519  1
  Tm  Tm6  1  0.187019  0.810875  0.191231  1
  Tm  Tm7  1  0.189135  0.189135  0.810497  1
  Tm  Tm8  1  0.810875  0.810875  0.191231  1
  Tm  Tm9  1  0.437689  0.062708  0.061915  1
  Tm  Tm10  1  0.810875  0.187019  0.191231  1
  Tm  Tm11  1  0.058745  0.446090  0.436421  1
  Tm  Tm12  1  0.811234  0.189135  0.810497  1
  Tm  Tm13  1  0.189135  0.811234  0.810497  1
  Tm  Tm14  1  0.650373  0.650373  0.048882  1
  Tm  Tm15  1  0.648980  0.648980  0.650519  1
  In  In16  1  0.416913  0.416913  0.414842  1
  In  In17  1  0.751332  0.416913  0.414842  1
  In  In18  1  0.416913  0.751332  0.414842  1
  In  In19  1  0.416782  0.416782  0.749654  1
  Os  Os20  1  0.856228  0.856228  0.431315  1
  Rh  Rh21  1  0.857764  0.857764  0.857960  1
  Rh  Rh22  1  0.426513  0.857764  0.857960  1
  Rh  Rh23  1  0.857764  0.426513  0.857960  1
