# generated using pymatgen
data_Dy14Lu2In4RuRh3
_symmetry_space_group_name_H-M   'P 1'
_cell_length_a   9.63686337
_cell_length_b   9.63433582
_cell_length_c   9.63714184
_cell_angle_alpha   59.74875283
_cell_angle_beta   59.96079426
_cell_angle_gamma   59.75146281
_symmetry_Int_Tables_number   1
_chemical_formula_structural   Dy14Lu2In4RuRh3
_chemical_formula_sum   'Dy14 Lu2 In4 Ru1 Rh3'
_cell_volume   630.10383089
_cell_formula_units_Z   1
loop_
 _symmetry_equiv_pos_site_id
 _symmetry_equiv_pos_as_xyz
  1  'x, y, z'
loop_
 _atom_site_type_symbol
 _atom_site_label
 _atom_site_symmetry_multiplicity
 _atom_site_fract_x
 _atom_site_fract_y
 _atom_site_fract_z
 _atom_site_occupancy
  Dy  Dy0  1  0.313160  0.687176  0.310425  1
  Dy  Dy1  1  0.935624  0.937767  0.562623  1
  Dy  Dy2  1  0.149029  0.151635  0.547317  1
  Dy  Dy3  1  0.559852  0.942614  0.557731  1
  Dy  Dy4  1  0.149853  0.151007  0.152559  1
  Dy  Dy5  1  0.310986  0.310098  0.687937  1
  Dy  Dy6  1  0.938344  0.561888  0.560664  1
  Dy  Dy7  1  0.559887  0.559386  0.942483  1
  Dy  Dy8  1  0.562409  0.936753  0.939592  1
  Dy  Dy9  1  0.935031  0.563143  0.939376  1
  Dy  Dy10  1  0.149392  0.547269  0.152228  1
  Dy  Dy11  1  0.311897  0.690377  0.689152  1
  Dy  Dy12  1  0.689268  0.312596  0.688077  1
  Dy  Dy13  1  0.551674  0.149368  0.149438  1
  Lu  Lu14  1  0.688546  0.311643  0.309823  1
  Lu  Lu15  1  0.689812  0.689445  0.310987  1
  In  In16  1  0.918893  0.917033  0.247854  1
  In  In17  1  0.248512  0.917156  0.917815  1
  In  In18  1  0.918174  0.248212  0.917739  1
  In  In19  1  0.917874  0.917038  0.917418  1
  Ru  Ru20  1  0.361040  0.355736  0.357976  1
  Rh  Rh21  1  0.921479  0.360255  0.357292  1
  Rh  Rh22  1  0.357844  0.357546  0.926276  1
  Rh  Rh23  1  0.361416  0.924860  0.357222  1
