# generated using pymatgen
data_Nd3CdCu(HgPd)2
_symmetry_space_group_name_H-M   'P 1'
_cell_length_a   7.87957007
_cell_length_b   7.87956927
_cell_length_c   3.84874900
_cell_angle_alpha   90.00000000
_cell_angle_beta   90.00000000
_cell_angle_gamma   120.28906820
_symmetry_Int_Tables_number   1
_chemical_formula_structural   Nd3CdCu(HgPd)2
_chemical_formula_sum   'Nd3 Cd1 Cu1 Hg2 Pd2'
_cell_volume   206.33970486
_cell_formula_units_Z   1
loop_
 _symmetry_equiv_pos_site_id
 _symmetry_equiv_pos_as_xyz
  1  'x, y, z'
loop_
 _atom_site_type_symbol
 _atom_site_label
 _atom_site_symmetry_multiplicity
 _atom_site_fract_x
 _atom_site_fract_y
 _atom_site_fract_z
 _atom_site_occupancy
  Nd  Nd0  1  0.588396  0.001922  0.000000  1
  Nd  Nd1  1  0.001922  0.588396  0.000000  1
  Nd  Nd2  1  0.406494  0.406494  0.000000  1
  Cd  Cd3  1  0.750228  0.750228  0.500000  1
  Cu  Cu4  1  0.998031  0.998031  0.000000  1
  Hg  Hg5  1  0.251164  0.998549  0.500000  1
  Hg  Hg6  1  0.998549  0.251164  0.500000  1
  Pd  Pd7  1  0.337718  0.667496  0.500000  1
  Pd  Pd8  1  0.667496  0.337718  0.500000  1
