# generated using pymatgen
data_Sr3Li2MgAu3
_symmetry_space_group_name_H-M   'P 1'
_cell_length_a   7.92767400
_cell_length_b   7.92767436
_cell_length_c   4.25332200
_cell_angle_alpha   90.00000000
_cell_angle_beta   90.00000000
_cell_angle_gamma   120.11199839
_symmetry_Int_Tables_number   1
_chemical_formula_structural   Sr3Li2MgAu3
_chemical_formula_sum   'Sr3 Li2 Mg1 Au3'
_cell_volume   231.23801922
_cell_formula_units_Z   1
loop_
 _symmetry_equiv_pos_site_id
 _symmetry_equiv_pos_as_xyz
  1  'x, y, z'
loop_
 _atom_site_type_symbol
 _atom_site_label
 _atom_site_symmetry_multiplicity
 _atom_site_fract_x
 _atom_site_fract_y
 _atom_site_fract_z
 _atom_site_occupancy
  Sr  Sr0  1  0.589082  0.005542  0.000000  1
  Sr  Sr1  1  0.005542  0.589082  0.000000  1
  Sr  Sr2  1  0.403382  0.403382  0.000000  1
  Li  Li3  1  0.230010  0.001116  0.500000  1
  Li  Li4  1  0.001116  0.230010  0.500000  1
  Mg  Mg5  1  0.764865  0.764865  0.500000  1
  Au  Au6  1  0.342336  0.667936  0.500000  1
  Au  Au7  1  0.667936  0.342336  0.500000  1
  Au  Au8  1  0.995733  0.995733  0.000000  1
