# generated using pymatgen
data_Dy8Cu3Si12Au
_symmetry_space_group_name_H-M   'P 1'
_cell_length_a   8.05099200
_cell_length_b   8.05099271
_cell_length_c   8.12713800
_cell_angle_alpha   90.00000000
_cell_angle_beta   90.00000000
_cell_angle_gamma   119.99998885
_symmetry_Int_Tables_number   1
_chemical_formula_structural   Dy8Cu3Si12Au
_chemical_formula_sum   'Dy8 Cu3 Si12 Au1'
_cell_volume   456.21246101
_cell_formula_units_Z   1
loop_
 _symmetry_equiv_pos_site_id
 _symmetry_equiv_pos_as_xyz
  1  'x, y, z'
loop_
 _atom_site_type_symbol
 _atom_site_label
 _atom_site_symmetry_multiplicity
 _atom_site_fract_x
 _atom_site_fract_y
 _atom_site_fract_z
 _atom_site_occupancy
  Dy  Dy0  1  0.000000  0.000000  0.247269  1
  Dy  Dy1  1  0.000000  0.000000  0.752587  1
  Dy  Dy2  1  0.003961  0.501980  0.247497  1
  Dy  Dy3  1  0.498020  0.501980  0.247497  1
  Dy  Dy4  1  0.498987  0.997974  0.752563  1
  Dy  Dy5  1  0.498020  0.996039  0.247497  1
  Dy  Dy6  1  0.498987  0.501013  0.752563  1
  Dy  Dy7  1  0.002026  0.501013  0.752563  1
  Cu  Cu8  1  0.333333  0.666667  0.997920  1
  Cu  Cu9  1  0.333333  0.666667  0.501854  1
  Cu  Cu10  1  0.666667  0.333333  0.001983  1
  Si  Si11  1  0.169047  0.338094  0.000017  1
  Si  Si12  1  0.661906  0.830953  0.000017  1
  Si  Si13  1  0.170541  0.341081  0.500490  1
  Si  Si14  1  0.339549  0.169775  0.999926  1
  Si  Si15  1  0.169047  0.830953  0.000017  1
  Si  Si16  1  0.658919  0.829459  0.500490  1
  Si  Si17  1  0.830225  0.660451  0.999926  1
  Si  Si18  1  0.324447  0.162224  0.499458  1
  Si  Si19  1  0.170541  0.829459  0.500490  1
  Si  Si20  1  0.837776  0.675553  0.499458  1
  Si  Si21  1  0.830225  0.169775  0.999926  1
  Si  Si22  1  0.837776  0.162224  0.499458  1
  Au  Au23  1  0.666667  0.333333  0.498532  1
