# generated using pymatgen
data_PrEr2SbO7
_symmetry_space_group_name_H-M   'P 1'
_cell_length_a   6.46396500
_cell_length_b   6.46396437
_cell_length_c   7.54441700
_cell_angle_alpha   90.00000000
_cell_angle_beta   90.00000000
_cell_angle_gamma   108.81603120
_symmetry_Int_Tables_number   1
_chemical_formula_structural   PrEr2SbO7
_chemical_formula_sum   'Pr2 Er4 Sb2 O14'
_cell_volume   298.38112643
_cell_formula_units_Z   2
loop_
 _symmetry_equiv_pos_site_id
 _symmetry_equiv_pos_as_xyz
  1  'x, y, z'
loop_
 _atom_site_type_symbol
 _atom_site_label
 _atom_site_symmetry_multiplicity
 _atom_site_fract_x
 _atom_site_fract_y
 _atom_site_fract_z
 _atom_site_occupancy
  Pr  Pr0  1  0.500000  0.500000  0.500000  1
  Pr  Pr1  1  0.500000  0.500000  0.000000  1
  Er  Er2  1  0.531219  0.000721  0.750000  1
  Er  Er3  1  0.000721  0.531219  0.250000  1
  Er  Er4  1  0.468781  0.999279  0.250000  1
  Er  Er5  1  0.999279  0.468781  0.750000  1
  Sb  Sb6  1  0.000000  0.000000  0.500000  1
  Sb  Sb7  1  0.000000  0.000000  0.000000  1
  O  O8  1  0.678522  0.932790  0.469786  1
  O  O9  1  0.932790  0.678522  0.530214  1
  O  O10  1  0.678522  0.932790  0.030214  1
  O  O11  1  0.932790  0.678522  0.969786  1
  O  O12  1  0.321478  0.067210  0.530214  1
  O  O13  1  0.067210  0.321478  0.469786  1
  O  O14  1  0.321478  0.067210  0.969786  1
  O  O15  1  0.067210  0.321478  0.030214  1
  O  O16  1  0.929828  0.070172  0.750000  1
  O  O17  1  0.070172  0.929828  0.250000  1
  O  O18  1  0.360351  0.639649  0.750000  1
  O  O19  1  0.639649  0.360351  0.250000  1
  O  O20  1  0.644812  0.355188  0.750000  1
  O  O21  1  0.355188  0.644812  0.250000  1
