# generated using pymatgen
data_Tb10In8CoPd3
_symmetry_space_group_name_H-M   'P 1'
_cell_length_a   8.15353298
_cell_length_b   18.30293871
_cell_length_c   3.63064700
_cell_angle_alpha   90.00000000
_cell_angle_beta   90.00000000
_cell_angle_gamma   90.08102023
_symmetry_Int_Tables_number   1
_chemical_formula_structural   Tb10In8CoPd3
_chemical_formula_sum   'Tb10 In8 Co1 Pd3'
_cell_volume   541.81403263
_cell_formula_units_Z   1
loop_
 _symmetry_equiv_pos_site_id
 _symmetry_equiv_pos_as_xyz
  1  'x, y, z'
loop_
 _atom_site_type_symbol
 _atom_site_label
 _atom_site_symmetry_multiplicity
 _atom_site_fract_x
 _atom_site_fract_y
 _atom_site_fract_z
 _atom_site_occupancy
  Tb  Tb0  1  0.500122  0.498861  0.000000  1
  Tb  Tb1  1  0.000272  0.001654  0.000000  1
  Tb  Tb2  1  0.728873  0.275903  0.000000  1
  Tb  Tb3  1  0.258737  0.719470  0.000000  1
  Tb  Tb4  1  0.757339  0.780315  0.000000  1
  Tb  Tb5  1  0.261069  0.219460  0.000000  1
  Tb  Tb6  1  0.613343  0.090156  0.000000  1
  Tb  Tb7  1  0.381923  0.918183  0.000000  1
  Tb  Tb8  1  0.880868  0.582220  0.000000  1
  Tb  Tb9  1  0.119318  0.414625  0.000000  1
  In  In10  1  0.708026  0.933552  0.500000  1
  In  In11  1  0.293726  0.071184  0.500000  1
  In  In12  1  0.791921  0.429541  0.500000  1
  In  In13  1  0.207572  0.567597  0.500000  1
  In  In14  1  0.576887  0.649858  0.500000  1
  In  In15  1  0.426558  0.347784  0.500000  1
  In  In16  1  0.924471  0.150918  0.500000  1
  In  In17  1  0.077272  0.850280  0.500000  1
  Co  Co18  1  0.519330  0.194886  0.500000  1
  Pd  Pd19  1  0.474575  0.804776  0.500000  1
  Pd  Pd20  1  0.974971  0.695744  0.500000  1
  Pd  Pd21  1  0.022827  0.303031  0.500000  1
