# generated using pymatgen
data_Yb4Zn5Ag8Ir
_symmetry_space_group_name_H-M   'P 1'
_cell_length_a   5.26299217
_cell_length_b   5.26299227
_cell_length_c   14.04886600
_cell_angle_alpha   90.00000000
_cell_angle_beta   90.00000000
_cell_angle_gamma   118.16594487
_symmetry_Int_Tables_number   1
_chemical_formula_structural   Yb4Zn5Ag8Ir
_chemical_formula_sum   'Yb4 Zn5 Ag8 Ir1'
_cell_volume   343.06033574
_cell_formula_units_Z   1
loop_
 _symmetry_equiv_pos_site_id
 _symmetry_equiv_pos_as_xyz
  1  'x, y, z'
loop_
 _atom_site_type_symbol
 _atom_site_label
 _atom_site_symmetry_multiplicity
 _atom_site_fract_x
 _atom_site_fract_y
 _atom_site_fract_z
 _atom_site_occupancy
  Yb  Yb0  1  0.817103  0.817103  0.121343  1
  Yb  Yb1  1  0.179732  0.179732  0.885440  1
  Yb  Yb2  1  0.817103  0.817103  0.378657  1
  Yb  Yb3  1  0.179732  0.179732  0.614560  1
  Zn  Zn4  1  0.169909  0.672200  0.750000  1
  Zn  Zn5  1  0.672200  0.169909  0.750000  1
  Zn  Zn6  1  0.670282  0.670282  0.750000  1
  Zn  Zn7  1  0.327008  0.829157  0.250000  1
  Zn  Zn8  1  0.829157  0.327008  0.250000  1
  Ag  Ag9  1  0.160480  0.495042  0.077514  1
  Ag  Ag10  1  0.509033  0.841171  0.918651  1
  Ag  Ag11  1  0.495042  0.160480  0.077514  1
  Ag  Ag12  1  0.841171  0.509033  0.581349  1
  Ag  Ag13  1  0.495042  0.160480  0.422486  1
  Ag  Ag14  1  0.841171  0.509033  0.918651  1
  Ag  Ag15  1  0.509033  0.841171  0.581349  1
  Ag  Ag16  1  0.160480  0.495042  0.422486  1
  Ir  Ir17  1  0.326322  0.326322  0.250000  1
