# generated using pymatgen
data_Ba5SrNd2Co4O15
_symmetry_space_group_name_H-M   'P 1'
_cell_length_a   11.80229031
_cell_length_b   11.80229001
_cell_length_c   6.99881699
_cell_angle_alpha   89.85679765
_cell_angle_beta   89.85679108
_cell_angle_gamma   119.65331752
_symmetry_Int_Tables_number   1
_chemical_formula_structural   Ba5SrNd2Co4O15
_chemical_formula_sum   'Ba10 Sr2 Nd4 Co8 O30'
_cell_volume   847.20608165
_cell_formula_units_Z   2
loop_
 _symmetry_equiv_pos_site_id
 _symmetry_equiv_pos_as_xyz
  1  'x, y, z'
loop_
 _atom_site_type_symbol
 _atom_site_label
 _atom_site_symmetry_multiplicity
 _atom_site_fract_x
 _atom_site_fract_y
 _atom_site_fract_z
 _atom_site_occupancy
  Ba  Ba0  1  0.000243  0.000784  0.494920  1
  Ba  Ba1  1  0.000784  0.000243  0.994920  1
  Ba  Ba2  1  0.824517  0.648401  0.828644  1
  Ba  Ba3  1  0.356016  0.180346  0.836659  1
  Ba  Ba4  1  0.819065  0.178368  0.831442  1
  Ba  Ba5  1  0.180346  0.356016  0.336659  1
  Ba  Ba6  1  0.648401  0.824517  0.328644  1
  Ba  Ba7  1  0.178368  0.819065  0.331442  1
  Ba  Ba8  1  0.334076  0.665931  0.022074  1
  Ba  Ba9  1  0.665931  0.334076  0.522074  1
  Sr  Sr10  1  0.525904  0.050081  0.167105  1
  Sr  Sr11  1  0.050081  0.525904  0.667105  1
  Nd  Nd12  1  0.950954  0.477516  0.162421  1
  Nd  Nd13  1  0.523840  0.475910  0.165206  1
  Nd  Nd14  1  0.477516  0.950954  0.662421  1
  Nd  Nd15  1  0.475910  0.523840  0.665206  1
  Co  Co16  1  0.665363  0.333496  0.988849  1
  Co  Co17  1  0.333496  0.665363  0.488849  1
  Co  Co18  1  0.180220  0.823176  0.834458  1
  Co  Co19  1  0.174311  0.355896  0.839360  1
  Co  Co20  1  0.644819  0.823064  0.831376  1
  Co  Co21  1  0.823176  0.180220  0.334458  1
  Co  Co22  1  0.823064  0.644819  0.331376  1
  Co  Co23  1  0.355896  0.174311  0.339360  1
  O  O24  1  0.932814  0.329711  0.458721  1
  O  O25  1  0.662595  0.598936  0.459023  1
  O  O26  1  0.395597  0.068918  0.480930  1
  O  O27  1  0.930941  0.599770  0.451707  1
  O  O28  1  0.669713  0.065715  0.479441  1
  O  O29  1  0.400967  0.335893  0.465952  1
  O  O30  1  0.065715  0.669713  0.979441  1
  O  O31  1  0.335893  0.400967  0.965952  1
  O  O32  1  0.599770  0.930941  0.951707  1
  O  O33  1  0.068918  0.395597  0.980930  1
  O  O34  1  0.329711  0.932814  0.958721  1
  O  O35  1  0.598936  0.662595  0.959023  1
  O  O36  1  0.104935  0.197360  0.730653  1
  O  O37  1  0.807259  0.892814  0.733865  1
  O  O38  1  0.084949  0.887819  0.727117  1
  O  O39  1  0.892814  0.807259  0.233865  1
  O  O40  1  0.197360  0.104935  0.230653  1
  O  O41  1  0.887819  0.084949  0.227117  1
  O  O42  1  0.752900  0.258301  0.158018  1
  O  O43  1  0.747015  0.498478  0.153205  1
  O  O44  1  0.503111  0.259143  0.161326  1
  O  O45  1  0.258301  0.752900  0.658018  1
  O  O46  1  0.259143  0.503111  0.661326  1
  O  O47  1  0.498478  0.747015  0.653205  1
  O  O48  1  0.414733  0.585004  0.337373  1
  O  O49  1  0.413774  0.826278  0.343445  1
  O  O50  1  0.175091  0.587168  0.332809  1
  O  O51  1  0.585004  0.414733  0.837373  1
  O  O52  1  0.587168  0.175091  0.832809  1
  O  O53  1  0.826278  0.413774  0.843445  1
