# generated using pymatgen
data_Ho6Sc4Si5Ge
_symmetry_space_group_name_H-M   'P 1'
_cell_length_a   8.25802800
_cell_length_b   8.26013956
_cell_length_c   6.03268800
_cell_angle_alpha   90.00000000
_cell_angle_beta   90.00000000
_cell_angle_gamma   119.99156010
_symmetry_Int_Tables_number   1
_chemical_formula_structural   Ho6Sc4Si5Ge
_chemical_formula_sum   'Ho6 Sc4 Si5 Ge1'
_cell_volume   356.40366532
_cell_formula_units_Z   1
loop_
 _symmetry_equiv_pos_site_id
 _symmetry_equiv_pos_as_xyz
  1  'x, y, z'
loop_
 _atom_site_type_symbol
 _atom_site_label
 _atom_site_symmetry_multiplicity
 _atom_site_fract_x
 _atom_site_fract_y
 _atom_site_fract_z
 _atom_site_occupancy
  Ho  Ho0  1  0.244543  0.000000  0.250000  1
  Ho  Ho1  1  0.244769  0.246366  0.750000  1
  Ho  Ho2  1  0.998403  0.753634  0.750000  1
  Ho  Ho3  1  0.999803  0.245065  0.250000  1
  Ho  Ho4  1  0.754738  0.754935  0.250000  1
  Ho  Ho5  1  0.756047  0.000000  0.750000  1
  Sc  Sc6  1  0.333057  0.665173  0.000996  1
  Sc  Sc7  1  0.667885  0.334827  0.499004  1
  Sc  Sc8  1  0.667885  0.334827  0.000996  1
  Sc  Sc9  1  0.333057  0.665173  0.499004  1
  Si  Si10  1  0.601964  0.000000  0.250000  1
  Si  Si11  1  0.601432  0.601676  0.750000  1
  Si  Si12  1  0.999756  0.398324  0.750000  1
  Si  Si13  1  0.000071  0.601833  0.250000  1
  Si  Si14  1  0.398239  0.398167  0.250000  1
  Ge  Ge15  1  0.398349  0.000000  0.750000  1
