# generated using pymatgen
data_Dy3Er5Cd2RuPt
_symmetry_space_group_name_H-M   'P 1'
_cell_length_a   9.59322855
_cell_length_b   9.59322868
_cell_length_c   9.62979100
_cell_angle_alpha   59.87384068
_cell_angle_beta   59.87384023
_cell_angle_gamma   59.79506356
_symmetry_Int_Tables_number   1
_chemical_formula_structural   Dy3Er5Cd2RuPt
_chemical_formula_sum   'Dy6 Er10 Cd4 Ru2 Pt2'
_cell_volume   624.49083693
_cell_formula_units_Z   2
loop_
 _symmetry_equiv_pos_site_id
 _symmetry_equiv_pos_as_xyz
  1  'x, y, z'
loop_
 _atom_site_type_symbol
 _atom_site_label
 _atom_site_symmetry_multiplicity
 _atom_site_fract_x
 _atom_site_fract_y
 _atom_site_fract_z
 _atom_site_occupancy
  Dy  Dy0  1  0.937842  0.558781  0.565716  1
  Dy  Dy1  1  0.558781  0.937842  0.937661  1
  Dy  Dy2  1  0.558781  0.937842  0.565716  1
  Dy  Dy3  1  0.937842  0.558780  0.937661  1
  Dy  Dy4  1  0.563279  0.563279  0.936721  1
  Dy  Dy5  1  0.938860  0.938860  0.561139  1
  Er  Er6  1  0.349196  0.349196  0.351672  1
  Er  Er7  1  0.349196  0.349196  0.949937  1
  Er  Er8  1  0.346369  0.954556  0.349539  1
  Er  Er9  1  0.954556  0.346369  0.349539  1
  Er  Er10  1  0.815733  0.187256  0.189216  1
  Er  Er11  1  0.187256  0.815733  0.807795  1
  Er  Er12  1  0.187256  0.815733  0.189216  1
  Er  Er13  1  0.815733  0.187256  0.807795  1
  Er  Er14  1  0.187277  0.187277  0.812723  1
  Er  Er15  1  0.809432  0.809432  0.190568  1
  Cd  Cd16  1  0.580017  0.580017  0.581254  1
  Cd  Cd17  1  0.580017  0.580017  0.258712  1
  Cd  Cd18  1  0.581090  0.255785  0.581562  1
  Cd  Cd19  1  0.255785  0.581090  0.581562  1
  Ru  Ru20  1  0.144008  0.144008  0.138607  1
  Ru  Ru21  1  0.144008  0.144008  0.573378  1
  Pt  Pt22  1  0.144002  0.573685  0.141157  1
  Pt  Pt23  1  0.573685  0.144002  0.141157  1
