# generated using pymatgen
data_PuSb5O14
_symmetry_space_group_name_H-M   'P 1'
_cell_length_a   7.39124869
_cell_length_b   7.38367789
_cell_length_c   7.38357011
_cell_angle_alpha   120.19270743
_cell_angle_beta   120.33863791
_cell_angle_gamma   89.51153043
_symmetry_Int_Tables_number   1
_chemical_formula_structural   PuSb5O14
_chemical_formula_sum   'Pu1 Sb5 O14'
_cell_volume   283.84891291
_cell_formula_units_Z   1
loop_
 _symmetry_equiv_pos_site_id
 _symmetry_equiv_pos_as_xyz
  1  'x, y, z'
loop_
 _atom_site_type_symbol
 _atom_site_label
 _atom_site_symmetry_multiplicity
 _atom_site_fract_x
 _atom_site_fract_y
 _atom_site_fract_z
 _atom_site_occupancy
  Pu  Pu0  1  0.500000  0.500000  0.000000  1
  Sb  Sb1  1  0.000000  0.500000  0.500000  1
  Sb  Sb2  1  0.000000  0.500000  0.000000  1
  Sb  Sb3  1  0.000000  0.000000  0.500000  1
  Sb  Sb4  1  0.000000  0.000000  0.000000  1
  Sb  Sb5  1  0.500000  0.000000  0.500000  1
  O  O6  1  0.064233  0.333211  0.159493  1
  O  O7  1  0.064235  0.904740  0.731023  1
  O  O8  1  0.317449  0.068258  0.249191  1
  O  O9  1  0.677195  0.911043  0.349693  1
  O  O10  1  0.677194  0.327500  0.766148  1
  O  O11  1  0.633114  0.411018  0.222098  1
  O  O12  1  0.935767  0.666789  0.840507  1
  O  O13  1  0.935765  0.095260  0.268977  1
  O  O14  1  0.682551  0.931742  0.750809  1
  O  O15  1  0.322805  0.088957  0.650307  1
  O  O16  1  0.322806  0.672500  0.233852  1
  O  O17  1  0.366886  0.588982  0.777902  1
  O  O18  1  0.917912  0.677842  0.240069  1
  O  O19  1  0.082088  0.322158  0.759931  1
