# generated using pymatgen
data_TbUTeN2
_symmetry_space_group_name_H-M   'P 1'
_cell_length_a   6.91910959
_cell_length_b   6.91910878
_cell_length_c   6.91910983
_cell_angle_alpha   147.11836254
_cell_angle_beta   147.11834737
_cell_angle_gamma   47.18857020
_symmetry_Int_Tables_number   1
_chemical_formula_structural   TbUTeN2
_chemical_formula_sum   'Tb1 U1 Te1 N2'
_cell_volume   97.26266523
_cell_formula_units_Z   1
loop_
 _symmetry_equiv_pos_site_id
 _symmetry_equiv_pos_as_xyz
  1  'x, y, z'
loop_
 _atom_site_type_symbol
 _atom_site_label
 _atom_site_symmetry_multiplicity
 _atom_site_fract_x
 _atom_site_fract_y
 _atom_site_fract_z
 _atom_site_occupancy
  Tb  Tb0  1  0.340621  0.340621  0.000000  1
  U  U1  1  0.667665  0.667665  0.000000  1
  Te  Te2  1  0.005518  0.005518  0.000000  1
  N  N3  1  0.743098  0.243098  0.500000  1
  N  N4  1  0.243098  0.743098  0.500000  1
