# generated using pymatgen
data_Ca12AlSi7Pd8
_symmetry_space_group_name_H-M   'P 1'
_cell_length_a   5.70066700
_cell_length_b   8.10171846
_cell_length_c   13.38885261
_cell_angle_alpha   90.17502954
_cell_angle_beta   90.00000000
_cell_angle_gamma   90.00000000
_symmetry_Int_Tables_number   1
_chemical_formula_structural   Ca12AlSi7Pd8
_chemical_formula_sum   'Ca12 Al1 Si7 Pd8'
_cell_volume   618.36393744
_cell_formula_units_Z   1
loop_
 _symmetry_equiv_pos_site_id
 _symmetry_equiv_pos_as_xyz
  1  'x, y, z'
loop_
 _atom_site_type_symbol
 _atom_site_label
 _atom_site_symmetry_multiplicity
 _atom_site_fract_x
 _atom_site_fract_y
 _atom_site_fract_z
 _atom_site_occupancy
  Ca  Ca0  1  0.131583  0.614594  0.105624  1
  Ca  Ca1  1  0.131583  0.885406  0.894376  1
  Ca  Ca2  1  0.866576  0.114132  0.395024  1
  Ca  Ca3  1  0.866576  0.385868  0.604976  1
  Ca  Ca4  1  0.864879  0.391542  0.893115  1
  Ca  Ca5  1  0.864879  0.108458  0.106885  1
  Ca  Ca6  1  0.133288  0.886190  0.605392  1
  Ca  Ca7  1  0.133288  0.613810  0.394608  1
  Ca  Ca8  1  0.351035  0.256407  0.253319  1
  Ca  Ca9  1  0.351035  0.243593  0.746681  1
  Ca  Ca10  1  0.648348  0.756947  0.251851  1
  Ca  Ca11  1  0.648348  0.743053  0.748149  1
  Al  Al12  1  0.384741  0.250000  0.000000  1
  Si  Si13  1  0.605612  0.750000  0.500000  1
  Si  Si14  1  0.615614  0.750000  0.000000  1
  Si  Si15  1  0.393732  0.250000  0.500000  1
  Si  Si16  1  0.835424  0.404201  0.250284  1
  Si  Si17  1  0.835424  0.095799  0.749716  1
  Si  Si18  1  0.164182  0.905483  0.251537  1
  Si  Si19  1  0.164182  0.594517  0.748463  1
  Pd  Pd20  1  0.630328  0.476890  0.090880  1
  Pd  Pd21  1  0.630328  0.023110  0.909120  1
  Pd  Pd22  1  0.373325  0.972552  0.411503  1
  Pd  Pd23  1  0.373325  0.527448  0.588497  1
  Pd  Pd24  1  0.373587  0.534453  0.909563  1
  Pd  Pd25  1  0.373587  0.965547  0.090437  1
  Pd  Pd26  1  0.627595  0.027157  0.588776  1
  Pd  Pd27  1  0.627595  0.472843  0.411224  1
