# generated using pymatgen
data_Tb19Dy(SiBi2)4
_symmetry_space_group_name_H-M   'P 1'
_cell_length_a   12.14655661
_cell_length_b   9.20465400
_cell_length_c   8.09019841
_cell_angle_alpha   90.00000000
_cell_angle_beta   89.96364780
_cell_angle_gamma   90.00000000
_symmetry_Int_Tables_number   1
_chemical_formula_structural   Tb19Dy(SiBi2)4
_chemical_formula_sum   'Tb19 Dy1 Si4 Bi8'
_cell_volume   904.52324458
_cell_formula_units_Z   1
loop_
 _symmetry_equiv_pos_site_id
 _symmetry_equiv_pos_as_xyz
  1  'x, y, z'
loop_
 _atom_site_type_symbol
 _atom_site_label
 _atom_site_symmetry_multiplicity
 _atom_site_fract_x
 _atom_site_fract_y
 _atom_site_fract_z
 _atom_site_occupancy
  Tb  Tb0  1  0.063451  0.551784  0.819718  1
  Tb  Tb1  1  0.563477  0.948269  0.680062  1
  Tb  Tb2  1  0.936579  0.051608  0.180291  1
  Tb  Tb3  1  0.436493  0.448252  0.319908  1
  Tb  Tb4  1  0.936579  0.448392  0.180291  1
  Tb  Tb5  1  0.436493  0.051748  0.319908  1
  Tb  Tb6  1  0.063451  0.948216  0.819718  1
  Tb  Tb7  1  0.563477  0.551731  0.680062  1
  Tb  Tb8  1  0.500990  0.750000  0.040015  1
  Tb  Tb9  1  0.999006  0.250000  0.540044  1
  Tb  Tb10  1  0.499015  0.250000  0.959936  1
  Tb  Tb11  1  0.211454  0.750000  0.164420  1
  Tb  Tb12  1  0.711646  0.750000  0.335624  1
  Tb  Tb13  1  0.788500  0.250000  0.835623  1
  Tb  Tb14  1  0.288377  0.250000  0.664358  1
  Tb  Tb15  1  0.295298  0.750000  0.634958  1
  Tb  Tb16  1  0.795543  0.750000  0.864939  1
  Tb  Tb17  1  0.704618  0.250000  0.364964  1
  Tb  Tb18  1  0.204536  0.250000  0.135043  1
  Dy  Dy19  1  0.000989  0.750000  0.459624  1
  Si  Si20  1  0.480097  0.750000  0.414640  1
  Si  Si21  1  0.980103  0.750000  0.086239  1
  Si  Si22  1  0.519904  0.250000  0.585439  1
  Si  Si23  1  0.019864  0.250000  0.914617  1
  Bi  Bi24  1  0.325853  0.510804  0.931399  1
  Bi  Bi25  1  0.826233  0.988829  0.568340  1
  Bi  Bi26  1  0.674144  0.010810  0.068601  1
  Bi  Bi27  1  0.173800  0.489555  0.431439  1
  Bi  Bi28  1  0.674144  0.489190  0.068601  1
  Bi  Bi29  1  0.173800  0.010445  0.431439  1
  Bi  Bi30  1  0.325853  0.989196  0.931399  1
  Bi  Bi31  1  0.826233  0.511171  0.568340  1
