# generated using pymatgen
data_Cs2MgGe3O8
_symmetry_space_group_name_H-M   'P 1'
_cell_length_a   5.65208252
_cell_length_b   7.24691148
_cell_length_c   7.38947500
_cell_angle_alpha   79.93475606
_cell_angle_beta   67.74450421
_cell_angle_gamma   67.45638524
_symmetry_Int_Tables_number   1
_chemical_formula_structural   Cs2MgGe3O8
_chemical_formula_sum   'Cs2 Mg1 Ge3 O8'
_cell_volume   258.56618176
_cell_formula_units_Z   1
loop_
 _symmetry_equiv_pos_site_id
 _symmetry_equiv_pos_as_xyz
  1  'x, y, z'
loop_
 _atom_site_type_symbol
 _atom_site_label
 _atom_site_symmetry_multiplicity
 _atom_site_fract_x
 _atom_site_fract_y
 _atom_site_fract_z
 _atom_site_occupancy
  Cs  Cs0  1  0.960876  0.300147  0.817617  1
  Cs  Cs1  1  0.047703  0.693757  0.192920  1
  Mg  Mg2  1  0.684817  0.885438  0.775583  1
  Ge  Ge3  1  0.323775  0.080778  0.250720  1
  Ge  Ge4  1  0.657199  0.274193  0.409489  1
  Ge  Ge5  1  0.347743  0.713037  0.605169  1
  O  O6  1  0.998298  0.278615  0.271553  1
  O  O7  1  0.621154  0.684643  0.672393  1
  O  O8  1  0.569484  0.192836  0.231357  1
  O  O9  1  0.045707  0.716972  0.791460  1
  O  O10  1  0.244968  0.953180  0.479895  1
  O  O11  1  0.609265  0.148492  0.632782  1
  O  O12  1  0.437750  0.946251  0.046561  1
  O  O13  1  0.451259  0.533664  0.420503  1
