# generated using pymatgen
data_YbDy3Y3Co6Sn23
_symmetry_space_group_name_H-M   'P 1'
_cell_length_a   9.73127200
_cell_length_b   9.73127271
_cell_length_c   9.96256900
_cell_angle_alpha   90.00000000
_cell_angle_beta   90.00000000
_cell_angle_gamma   120.00000440
_symmetry_Int_Tables_number   1
_chemical_formula_structural   YbDy3Y3Co6Sn23
_chemical_formula_sum   'Yb1 Dy3 Y3 Co6 Sn23'
_cell_volume   817.03603196
_cell_formula_units_Z   1
loop_
 _symmetry_equiv_pos_site_id
 _symmetry_equiv_pos_as_xyz
  1  'x, y, z'
loop_
 _atom_site_type_symbol
 _atom_site_label
 _atom_site_symmetry_multiplicity
 _atom_site_fract_x
 _atom_site_fract_y
 _atom_site_fract_z
 _atom_site_occupancy
  Yb  Yb0  1  0.000000  0.000000  0.999997  1
  Dy  Dy1  1  0.043236  0.521618  0.305978  1
  Dy  Dy2  1  0.478382  0.956764  0.305978  1
  Dy  Dy3  1  0.478382  0.521618  0.305978  1
  Y  Y4  1  0.956680  0.478340  0.693977  1
  Y  Y5  1  0.521660  0.043320  0.693977  1
  Y  Y6  1  0.521660  0.478340  0.693977  1
  Co  Co7  1  0.167944  0.832056  0.801949  1
  Co  Co8  1  0.664112  0.832056  0.801949  1
  Co  Co9  1  0.167944  0.335888  0.801949  1
  Co  Co10  1  0.832016  0.167984  0.198087  1
  Co  Co11  1  0.335968  0.167984  0.198087  1
  Co  Co12  1  0.832016  0.664032  0.198087  1
  Sn  Sn13  1  0.000000  0.000000  0.499987  1
  Sn  Sn14  1  0.116982  0.883018  0.273903  1
  Sn  Sn15  1  0.766034  0.883018  0.273903  1
  Sn  Sn16  1  0.116982  0.233966  0.273903  1
  Sn  Sn17  1  0.883064  0.116936  0.726126  1
  Sn  Sn18  1  0.233875  0.116936  0.726126  1
  Sn  Sn19  1  0.883064  0.766125  0.726126  1
  Sn  Sn20  1  0.345364  0.999981  0.000027  1
  Sn  Sn21  1  0.654617  0.654636  0.000027  1
  Sn  Sn22  1  0.000019  0.345383  0.000027  1
  Sn  Sn23  1  0.345364  0.345383  0.000027  1
  Sn  Sn24  1  0.000019  0.654636  0.000027  1
  Sn  Sn25  1  0.654617  0.999981  0.000027  1
  Sn  Sn26  1  0.781195  0.562390  0.451134  1
  Sn  Sn27  1  0.781195  0.218805  0.451134  1
  Sn  Sn28  1  0.437610  0.218805  0.451134  1
  Sn  Sn29  1  0.218817  0.437634  0.548755  1
  Sn  Sn30  1  0.218817  0.781183  0.548755  1
  Sn  Sn31  1  0.562366  0.781183  0.548755  1
  Sn  Sn32  1  0.666667  0.333333  0.183992  1
  Sn  Sn33  1  0.333333  0.666667  0.816015  1
  Sn  Sn34  1  0.666667  0.333333  0.883615  1
  Sn  Sn35  1  0.333333  0.666667  0.116501  1
