# generated using pymatgen
data_Hf8Ti7Si16W5
_symmetry_space_group_name_H-M   'P 1'
_cell_length_a   6.54889183
_cell_length_b   6.71823746
_cell_length_c   12.89811511
_cell_angle_alpha   90.01715366
_cell_angle_beta   89.99568065
_cell_angle_gamma   89.94851170
_symmetry_Int_Tables_number   1
_chemical_formula_structural   Hf8Ti7Si16W5
_chemical_formula_sum   'Hf8 Ti7 Si16 W5'
_cell_volume   567.47824898
_cell_formula_units_Z   1
loop_
 _symmetry_equiv_pos_site_id
 _symmetry_equiv_pos_as_xyz
  1  'x, y, z'
loop_
 _atom_site_type_symbol
 _atom_site_label
 _atom_site_symmetry_multiplicity
 _atom_site_fract_x
 _atom_site_fract_y
 _atom_site_fract_z
 _atom_site_occupancy
  Hf  Hf0  1  0.996314  0.173392  0.091605  1
  Hf  Hf1  1  0.004738  0.827128  0.907509  1
  Hf  Hf2  1  0.504642  0.672550  0.907728  1
  Hf  Hf3  1  0.004398  0.828079  0.591862  1
  Hf  Hf4  1  0.494511  0.328799  0.092026  1
  Hf  Hf5  1  0.994472  0.171931  0.408327  1
  Hf  Hf6  1  0.494580  0.328253  0.408130  1
  Hf  Hf7  1  0.504208  0.672254  0.592513  1
  Ti  Ti8  1  0.335824  0.168532  0.624897  1
  Ti  Ti9  1  0.667084  0.831682  0.374596  1
  Ti  Ti10  1  0.164367  0.668424  0.374843  1
  Ti  Ti11  1  0.664389  0.832055  0.124869  1
  Ti  Ti12  1  0.834893  0.331597  0.624673  1
  Ti  Ti13  1  0.334981  0.166444  0.876390  1
  Ti  Ti14  1  0.834643  0.333153  0.875998  1
  Si  Si15  1  0.035494  0.116693  0.750318  1
  Si  Si16  1  0.965932  0.884553  0.249254  1
  Si  Si17  1  0.464140  0.617144  0.250907  1
  Si  Si18  1  0.535046  0.383706  0.750424  1
  Si  Si19  1  0.296970  0.860119  0.749606  1
  Si  Si20  1  0.702683  0.140604  0.249804  1
  Si  Si21  1  0.201767  0.359261  0.251413  1
  Si  Si22  1  0.797127  0.639975  0.749455  1
  Si  Si23  1  0.170986  0.460094  0.538817  1
  Si  Si24  1  0.828176  0.539474  0.461374  1
  Si  Si25  1  0.329502  0.960461  0.460657  1
  Si  Si26  1  0.829387  0.539579  0.039140  1
  Si  Si27  1  0.670580  0.039361  0.538698  1
  Si  Si28  1  0.170659  0.457731  0.959848  1
  Si  Si29  1  0.671930  0.039332  0.961317  1
  Si  Si30  1  0.329245  0.959755  0.039461  1
  W  W31  1  0.161094  0.495542  0.750714  1
  W  W32  1  0.837199  0.505908  0.249581  1
  W  W33  1  0.339641  0.996431  0.249495  1
  W  W34  1  0.661093  0.005680  0.750606  1
  W  W35  1  0.167300  0.664322  0.123148  1
