# generated using pymatgen
data_Gd20(PtRh3)3
_symmetry_space_group_name_H-M   'P 1'
_cell_length_a   11.08971143
_cell_length_b   11.08971149
_cell_length_c   6.43222000
_cell_angle_alpha   89.98410763
_cell_angle_beta   89.98410763
_cell_angle_gamma   90.19625849
_symmetry_Int_Tables_number   1
_chemical_formula_structural   Gd20(PtRh3)3
_chemical_formula_sum   'Gd20 Pt3 Rh9'
_cell_volume   791.04064992
_cell_formula_units_Z   1
loop_
 _symmetry_equiv_pos_site_id
 _symmetry_equiv_pos_as_xyz
  1  'x, y, z'
loop_
 _atom_site_type_symbol
 _atom_site_label
 _atom_site_symmetry_multiplicity
 _atom_site_fract_x
 _atom_site_fract_y
 _atom_site_fract_z
 _atom_site_occupancy
  Gd  Gd0  1  0.292939  0.088924  0.374321  1
  Gd  Gd1  1  0.292256  0.908374  0.878984  1
  Gd  Gd2  1  0.706776  0.089813  0.875908  1
  Gd  Gd3  1  0.704994  0.909557  0.376938  1
  Gd  Gd4  1  0.587639  0.790175  0.881469  1
  Gd  Gd5  1  0.588338  0.208785  0.380316  1
  Gd  Gd6  1  0.409400  0.790687  0.381248  1
  Gd  Gd7  1  0.411522  0.209343  0.879669  1
  Gd  Gd8  1  0.209825  0.412361  0.618531  1
  Gd  Gd9  1  0.209313  0.590600  0.118752  1
  Gd  Gd10  1  0.791215  0.411662  0.119684  1
  Gd  Gd11  1  0.790657  0.588478  0.620331  1
  Gd  Gd12  1  0.911076  0.707061  0.125679  1
  Gd  Gd13  1  0.910187  0.293224  0.624092  1
  Gd  Gd14  1  0.091626  0.707744  0.621016  1
  Gd  Gd15  1  0.090443  0.295006  0.123062  1
  Gd  Gd16  1  0.000613  0.998225  0.499101  1
  Gd  Gd17  1  0.001775  0.999387  0.000899  1
  Gd  Gd18  1  0.499819  0.499446  0.000359  1
  Gd  Gd19  1  0.500554  0.500181  0.499641  1
  Pt  Pt20  1  0.845544  0.154456  0.250000  1
  Pt  Pt21  1  0.844792  0.845331  0.750627  1
  Pt  Pt22  1  0.154669  0.155208  0.749373  1
  Rh  Rh23  1  0.153580  0.846420  0.250000  1
  Rh  Rh24  1  0.654205  0.345795  0.750000  1
  Rh  Rh25  1  0.655016  0.654500  0.249847  1
  Rh  Rh26  1  0.345500  0.344984  0.250153  1
  Rh  Rh27  1  0.346101  0.653899  0.750000  1
  Rh  Rh28  1  0.499711  0.999799  0.121229  1
  Rh  Rh29  1  0.499617  0.999897  0.623219  1
  Rh  Rh30  1  0.000103  0.500383  0.876781  1
  Rh  Rh31  1  0.000201  0.500289  0.378771  1
