# generated using pymatgen
data_Cs4K3Pa4TlTe12
_symmetry_space_group_name_H-M   'P 1'
_cell_length_a   15.28137766
_cell_length_b   7.31018049
_cell_length_c   9.96107799
_cell_angle_alpha   69.23940527
_cell_angle_beta   90.28681518
_cell_angle_gamma   90.34991202
_symmetry_Int_Tables_number   1
_chemical_formula_structural   Cs4K3Pa4TlTe12
_chemical_formula_sum   'Cs4 K3 Pa4 Tl1 Te12'
_cell_volume   1040.47301399
_cell_formula_units_Z   1
loop_
 _symmetry_equiv_pos_site_id
 _symmetry_equiv_pos_as_xyz
  1  'x, y, z'
loop_
 _atom_site_type_symbol
 _atom_site_label
 _atom_site_symmetry_multiplicity
 _atom_site_fract_x
 _atom_site_fract_y
 _atom_site_fract_z
 _atom_site_occupancy
  Cs  Cs0  1  0.951504  0.650149  0.679678  1
  Cs  Cs1  1  0.447566  0.836565  0.329389  1
  Cs  Cs2  1  0.050936  0.338626  0.329128  1
  Cs  Cs3  1  0.548448  0.162166  0.668726  1
  K  K4  1  0.369457  0.441285  0.102500  1
  K  K5  1  0.129339  0.943182  0.099024  1
  K  K6  1  0.632507  0.562014  0.892198  1
  Pa  Pa7  1  0.748164  0.649861  0.285169  1
  Pa  Pa8  1  0.250874  0.850299  0.716535  1
  Pa  Pa9  1  0.251658  0.350343  0.716311  1
  Pa  Pa10  1  0.750203  0.154903  0.281873  1
  Tl  Tl11  1  0.860980  0.032983  0.918934  1
  Te  Te12  1  0.912361  0.911378  0.263788  1
  Te  Te13  1  0.414893  0.595893  0.734477  1
  Te  Te14  1  0.089411  0.092915  0.731393  1
  Te  Te15  1  0.586016  0.407244  0.261585  1
  Te  Te16  1  0.819513  0.287402  0.520454  1
  Te  Te17  1  0.321398  0.216389  0.477328  1
  Te  Te18  1  0.180143  0.714133  0.477756  1
  Te  Te19  1  0.678516  0.791102  0.518145  1
  Te  Te20  1  0.839993  0.514793  0.057302  1
  Te  Te21  1  0.340432  0.993898  0.943885  1
  Te  Te22  1  0.162143  0.491162  0.943184  1
  Te  Te23  1  0.663543  0.011316  0.051240  1
