# generated using pymatgen
data_Dy9Y11(CoBi2)4
_symmetry_space_group_name_H-M   'P 1'
_cell_length_a   8.02894102
_cell_length_b   8.87103500
_cell_length_c   12.45573903
_cell_angle_alpha   90.00000000
_cell_angle_beta   90.00822992
_cell_angle_gamma   90.00000000
_symmetry_Int_Tables_number   1
_chemical_formula_structural   Dy9Y11(CoBi2)4
_chemical_formula_sum   'Dy9 Y11 Co4 Bi8'
_cell_volume   887.16021276
_cell_formula_units_Z   1
loop_
 _symmetry_equiv_pos_site_id
 _symmetry_equiv_pos_as_xyz
  1  'x, y, z'
loop_
 _atom_site_type_symbol
 _atom_site_label
 _atom_site_symmetry_multiplicity
 _atom_site_fract_x
 _atom_site_fract_y
 _atom_site_fract_z
 _atom_site_occupancy
  Dy  Dy0  1  0.547566  0.750000  0.002431  1
  Dy  Dy1  1  0.675116  0.034948  0.563734  1
  Dy  Dy2  1  0.324876  0.965053  0.436251  1
  Dy  Dy3  1  0.175334  0.964950  0.936325  1
  Dy  Dy4  1  0.324876  0.534947  0.436251  1
  Dy  Dy5  1  0.824727  0.034846  0.063716  1
  Dy  Dy6  1  0.675116  0.465052  0.563734  1
  Dy  Dy7  1  0.824727  0.465154  0.063716  1
  Dy  Dy8  1  0.175334  0.535050  0.936325  1
  Y  Y9  1  0.845742  0.750000  0.800360  1
  Y  Y10  1  0.154167  0.250000  0.199711  1
  Y  Y11  1  0.345881  0.250000  0.699661  1
  Y  Y12  1  0.654110  0.750000  0.300313  1
  Y  Y13  1  0.377513  0.750000  0.689719  1
  Y  Y14  1  0.622417  0.250000  0.310268  1
  Y  Y15  1  0.877567  0.250000  0.810198  1
  Y  Y16  1  0.122558  0.750000  0.189744  1
  Y  Y17  1  0.952908  0.750000  0.502504  1
  Y  Y18  1  0.047082  0.250000  0.497517  1
  Y  Y19  1  0.452915  0.250000  0.997519  1
  Co  Co20  1  0.561261  0.750000  0.508215  1
  Co  Co21  1  0.438759  0.250000  0.491773  1
  Co  Co22  1  0.061196  0.250000  0.991712  1
  Co  Co23  1  0.938241  0.750000  0.008357  1
  Bi  Bi24  1  0.568852  0.492435  0.826033  1
  Bi  Bi25  1  0.431130  0.507590  0.173954  1
  Bi  Bi26  1  0.068866  0.507595  0.673995  1
  Bi  Bi27  1  0.431130  0.992410  0.173954  1
  Bi  Bi28  1  0.931157  0.492392  0.325992  1
  Bi  Bi29  1  0.568852  0.007565  0.826033  1
  Bi  Bi30  1  0.931157  0.007608  0.325992  1
  Bi  Bi31  1  0.068866  0.992405  0.673995  1
