# generated using pymatgen
data_Y2MgPa(Co4P3)2
_symmetry_space_group_name_H-M   'P 1'
_cell_length_a   3.75333200
_cell_length_b   10.65754400
_cell_length_c   12.23838100
_cell_angle_alpha   90.00000000
_cell_angle_beta   90.00000000
_cell_angle_gamma   90.00000000
_symmetry_Int_Tables_number   1
_chemical_formula_structural   Y2MgPa(Co4P3)2
_chemical_formula_sum   'Y4 Mg2 Pa2 Co16 P12'
_cell_volume   489.55116136
_cell_formula_units_Z   2
loop_
 _symmetry_equiv_pos_site_id
 _symmetry_equiv_pos_as_xyz
  1  'x, y, z'
loop_
 _atom_site_type_symbol
 _atom_site_label
 _atom_site_symmetry_multiplicity
 _atom_site_fract_x
 _atom_site_fract_y
 _atom_site_fract_z
 _atom_site_occupancy
  Y  Y0  1  0.500000  0.818317  0.205060  1
  Y  Y1  1  0.500000  0.181683  0.205060  1
  Y  Y2  1  0.000000  0.681683  0.794940  1
  Y  Y3  1  0.000000  0.318317  0.794940  1
  Mg  Mg4  1  0.500000  0.500000  0.154143  1
  Mg  Mg5  1  0.000000  0.000000  0.845857  1
  Pa  Pa6  1  0.000000  0.500000  0.532261  1
  Pa  Pa7  1  0.500000  0.000000  0.467739  1
  Co  Co8  1  0.500000  0.500000  0.695488  1
  Co  Co9  1  0.000000  0.000000  0.304512  1
  Co  Co10  1  0.000000  0.500000  0.987214  1
  Co  Co11  1  0.500000  0.000000  0.012786  1
  Co  Co12  1  0.500000  0.333606  0.994581  1
  Co  Co13  1  0.500000  0.666394  0.994581  1
  Co  Co14  1  0.000000  0.166394  0.005419  1
  Co  Co15  1  0.000000  0.833606  0.005419  1
  Co  Co16  1  0.500000  0.299401  0.433606  1
  Co  Co17  1  0.500000  0.700599  0.433606  1
  Co  Co18  1  0.000000  0.200599  0.566394  1
  Co  Co19  1  0.000000  0.799401  0.566394  1
  Co  Co20  1  0.500000  0.878673  0.705750  1
  Co  Co21  1  0.500000  0.121327  0.705750  1
  Co  Co22  1  0.000000  0.621327  0.294250  1
  Co  Co23  1  0.000000  0.378673  0.294250  1
  P  P24  1  0.500000  0.500000  0.879684  1
  P  P25  1  0.000000  0.000000  0.120316  1
  P  P26  1  0.500000  0.500000  0.354167  1
  P  P27  1  0.000000  0.000000  0.645833  1
  P  P28  1  0.500000  0.306486  0.616421  1
  P  P29  1  0.500000  0.693514  0.616421  1
  P  P30  1  0.000000  0.193514  0.383579  1
  P  P31  1  0.000000  0.806486  0.383579  1
  P  P32  1  0.500000  0.840078  0.895134  1
  P  P33  1  0.500000  0.159922  0.895134  1
  P  P34  1  0.000000  0.659922  0.104866  1
  P  P35  1  0.000000  0.340078  0.104866  1
