# generated using pymatgen
data_Ta9V4Ge
_symmetry_space_group_name_H-M   'P 1'
_cell_length_a   5.12128160
_cell_length_b   9.93442521
_cell_length_c   9.93442535
_cell_angle_alpha   86.19061491
_cell_angle_beta   75.06314562
_cell_angle_gamma   75.06315033
_symmetry_Int_Tables_number   1
_chemical_formula_structural   Ta9V4Ge
_chemical_formula_sum   'Ta18 V8 Ge2'
_cell_volume   471.85401212
_cell_formula_units_Z   2
loop_
 _symmetry_equiv_pos_site_id
 _symmetry_equiv_pos_as_xyz
  1  'x, y, z'
loop_
 _atom_site_type_symbol
 _atom_site_label
 _atom_site_symmetry_multiplicity
 _atom_site_fract_x
 _atom_site_fract_y
 _atom_site_fract_z
 _atom_site_occupancy
  Ta  Ta0  1  0.750000  0.500000  0.500000  1
  Ta  Ta1  1  0.250000  0.500000  0.500000  1
  Ta  Ta2  1  0.793720  0.771697  0.640861  1
  Ta  Ta3  1  0.206280  0.228303  0.359139  1
  Ta  Ta4  1  0.706280  0.359139  0.228303  1
  Ta  Ta5  1  0.293720  0.640861  0.771697  1
  Ta  Ta6  1  0.565419  0.640861  0.228303  1
  Ta  Ta7  1  0.434581  0.359139  0.771697  1
  Ta  Ta8  1  0.065419  0.228303  0.640861  1
  Ta  Ta9  1  0.934581  0.771697  0.359139  1
  Ta  Ta10  1  0.586010  0.074306  0.753674  1
  Ta  Ta11  1  0.413990  0.925694  0.246326  1
  Ta  Ta12  1  0.913990  0.246326  0.925694  1
  Ta  Ta13  1  0.086010  0.753674  0.074306  1
  Ta  Ta14  1  0.660317  0.753674  0.925694  1
  Ta  Ta15  1  0.339683  0.246326  0.074306  1
  Ta  Ta16  1  0.160317  0.925694  0.753674  1
  Ta  Ta17  1  0.839683  0.074306  0.246326  1
  V  V18  1  0.500000  0.000000  0.500000  1
  V  V19  1  0.000000  0.000000  0.500000  1
  V  V20  1  0.500000  0.500000  0.000000  1
  V  V21  1  0.000000  0.500000  0.000000  1
  V  V22  1  0.133534  0.500000  0.232932  1
  V  V23  1  0.866466  0.500000  0.767068  1
  V  V24  1  0.366466  0.767068  0.500000  1
  V  V25  1  0.633534  0.232932  0.500000  1
  Ge  Ge26  1  0.250000  0.000000  0.000000  1
  Ge  Ge27  1  0.750000  0.000000  0.000000  1
