# generated using pymatgen
data_SmY3(ScPt)4
_symmetry_space_group_name_H-M   'P 1'
_cell_length_a   4.63445600
_cell_length_b   7.02568351
_cell_length_c   8.46120200
_cell_angle_alpha   90.14177811
_cell_angle_beta   90.00000000
_cell_angle_gamma   90.00000000
_symmetry_Int_Tables_number   1
_chemical_formula_structural   SmY3(ScPt)4
_chemical_formula_sum   'Sm1 Y3 Sc4 Pt4'
_cell_volume   275.49776439
_cell_formula_units_Z   1
loop_
 _symmetry_equiv_pos_site_id
 _symmetry_equiv_pos_as_xyz
  1  'x, y, z'
loop_
 _atom_site_type_symbol
 _atom_site_label
 _atom_site_symmetry_multiplicity
 _atom_site_fract_x
 _atom_site_fract_y
 _atom_site_fract_z
 _atom_site_occupancy
  Sm  Sm0  1  0.750000  0.514900  0.822828  1
  Y  Y1  1  0.250000  0.984577  0.322370  1
  Y  Y2  1  0.750000  0.016546  0.676140  1
  Y  Y3  1  0.250000  0.483862  0.178508  1
  Sc  Sc4  1  0.750000  0.640625  0.426091  1
  Sc  Sc5  1  0.250000  0.360108  0.571607  1
  Sc  Sc6  1  0.750000  0.139693  0.073776  1
  Sc  Sc7  1  0.250000  0.859144  0.926181  1
  Pt  Pt8  1  0.250000  0.240506  0.905180  1
  Pt  Pt9  1  0.750000  0.757800  0.098715  1
  Pt  Pt10  1  0.250000  0.744669  0.594976  1
  Pt  Pt11  1  0.750000  0.257572  0.403627  1
