# generated using pymatgen
data_CdReF6
_symmetry_space_group_name_H-M   'P 1'
_cell_length_a   5.94958113
_cell_length_b   5.94958107
_cell_length_c   5.94958030
_cell_angle_alpha   54.75348818
_cell_angle_beta   54.75348173
_cell_angle_gamma   54.75348754
_symmetry_Int_Tables_number   1
_chemical_formula_structural   CdReF6
_chemical_formula_sum   'Cd1 Re1 F6'
_cell_volume   130.72044393
_cell_formula_units_Z   1
loop_
 _symmetry_equiv_pos_site_id
 _symmetry_equiv_pos_as_xyz
  1  'x, y, z'
loop_
 _atom_site_type_symbol
 _atom_site_label
 _atom_site_symmetry_multiplicity
 _atom_site_fract_x
 _atom_site_fract_y
 _atom_site_fract_z
 _atom_site_occupancy
  Cd  Cd0  1  0.000000  0.000000  0.000000  1
  Re  Re1  1  0.500000  0.500000  0.500000  1
  F  F2  1  0.385095  0.150398  0.735017  1
  F  F3  1  0.735017  0.385095  0.150398  1
  F  F4  1  0.849602  0.264983  0.614905  1
  F  F5  1  0.264983  0.614905  0.849602  1
  F  F6  1  0.614905  0.849602  0.264983  1
  F  F7  1  0.150398  0.735017  0.385095  1
