# generated using pymatgen
data_Sc3SeS3
_symmetry_space_group_name_H-M   'P 1'
_cell_length_a   6.48605198
_cell_length_b   3.70869700
_cell_length_c   6.43011832
_cell_angle_alpha   73.44646938
_cell_angle_beta   99.49612851
_cell_angle_gamma   89.72685283
_symmetry_Int_Tables_number   1
_chemical_formula_structural   Sc3SeS3
_chemical_formula_sum   'Sc3 Se1 S3'
_cell_volume   146.01341468
_cell_formula_units_Z   1
loop_
 _symmetry_equiv_pos_site_id
 _symmetry_equiv_pos_as_xyz
  1  'x, y, z'
loop_
 _atom_site_type_symbol
 _atom_site_label
 _atom_site_symmetry_multiplicity
 _atom_site_fract_x
 _atom_site_fract_y
 _atom_site_fract_z
 _atom_site_occupancy
  Sc  Sc0  1  0.634684  0.008676  0.542213  1
  Sc  Sc1  1  0.395081  0.760488  0.044090  1
  Sc  Sc2  1  0.126824  0.525072  0.525572  1
  Se  Se3  1  0.010060  0.892812  0.795934  1
  S  S4  1  0.265920  0.139998  0.288114  1
  S  S5  1  0.499312  0.390406  0.784350  1
  S  S6  1  0.751866  0.626913  0.300128  1
