# generated using pymatgen
data_Mn5In6FeRh12
_symmetry_space_group_name_H-M   'P 1'
_cell_length_a   4.47105500
_cell_length_b   6.26171700
_cell_length_c   13.39903200
_cell_angle_alpha   90.00000000
_cell_angle_beta   90.00053423
_cell_angle_gamma   90.00000000
_symmetry_Int_Tables_number   1
_chemical_formula_structural   Mn5In6FeRh12
_chemical_formula_sum   'Mn5 In6 Fe1 Rh12'
_cell_volume   375.12574616
_cell_formula_units_Z   1
loop_
 _symmetry_equiv_pos_site_id
 _symmetry_equiv_pos_as_xyz
  1  'x, y, z'
loop_
 _atom_site_type_symbol
 _atom_site_label
 _atom_site_symmetry_multiplicity
 _atom_site_fract_x
 _atom_site_fract_y
 _atom_site_fract_z
 _atom_site_occupancy
  Mn  Mn0  1  0.499782  0.000000  0.166987  1
  Mn  Mn1  1  0.999797  0.500001  0.333378  1
  Mn  Mn2  1  0.500000  0.000000  0.500000  1
  Mn  Mn3  1  0.000203  0.500001  0.666622  1
  Mn  Mn4  1  0.500217  0.000000  0.833014  1
  In  In5  1  0.000000  0.000000  0.000000  1
  In  In6  1  0.499843  0.500001  0.167361  1
  In  In7  1  0.999918  0.000000  0.333232  1
  In  In8  1  0.500000  0.500001  0.500000  1
  In  In9  1  0.000084  0.000000  0.666767  1
  In  In10  1  0.500157  0.500001  0.832639  1
  Fe  Fe11  1  0.000000  0.500001  0.000000  1
  Rh  Rh12  1  0.500000  0.253381  0.000000  1
  Rh  Rh13  1  0.500000  0.746618  0.000000  1
  Rh  Rh14  1  0.999785  0.252520  0.165148  1
  Rh  Rh15  1  0.999785  0.747480  0.165148  1
  Rh  Rh16  1  0.499806  0.249089  0.332900  1
  Rh  Rh17  1  0.499806  0.750911  0.332900  1
  Rh  Rh18  1  0.000000  0.251265  0.500000  1
  Rh  Rh19  1  0.000000  0.748735  0.500000  1
  Rh  Rh20  1  0.500196  0.249089  0.667100  1
  Rh  Rh21  1  0.500196  0.750911  0.667100  1
  Rh  Rh22  1  0.000215  0.252520  0.834851  1
  Rh  Rh23  1  0.000215  0.747480  0.834851  1
