# generated using pymatgen
data_Sm5Th5(Sn3C)2
_symmetry_space_group_name_H-M   'P 1'
_cell_length_a   9.30295500
_cell_length_b   9.27864620
_cell_length_c   6.61553800
_cell_angle_alpha   90.00000000
_cell_angle_beta   90.00000000
_cell_angle_gamma   120.08669877
_symmetry_Int_Tables_number   1
_chemical_formula_structural   Sm5Th5(Sn3C)2
_chemical_formula_sum   'Sm5 Th5 Sn6 C2'
_cell_volume   494.10728563
_cell_formula_units_Z   1
loop_
 _symmetry_equiv_pos_site_id
 _symmetry_equiv_pos_as_xyz
  1  'x, y, z'
loop_
 _atom_site_type_symbol
 _atom_site_label
 _atom_site_symmetry_multiplicity
 _atom_site_fract_x
 _atom_site_fract_y
 _atom_site_fract_z
 _atom_site_occupancy
  Sm  Sm0  1  0.333313  0.666303  0.499712  1
  Sm  Sm1  1  0.667011  0.333697  0.499712  1
  Sm  Sm2  1  0.667011  0.333697  0.000288  1
  Sm  Sm3  1  0.333313  0.666303  0.000288  1
  Sm  Sm4  1  0.223433  0.000000  0.750000  1
  Th  Th5  1  0.779755  0.000000  0.250000  1
  Th  Th6  1  0.001698  0.218857  0.750000  1
  Th  Th7  1  0.999932  0.780839  0.250000  1
  Th  Th8  1  0.782841  0.781143  0.750000  1
  Th  Th9  1  0.219093  0.219161  0.250000  1
  Sn  Sn10  1  0.596238  0.000000  0.750000  1
  Sn  Sn11  1  0.403989  0.000000  0.250000  1
  Sn  Sn12  1  0.001683  0.598197  0.750000  1
  Sn  Sn13  1  0.000216  0.404918  0.250000  1
  Sn  Sn14  1  0.403487  0.401803  0.750000  1
  Sn  Sn15  1  0.595299  0.595082  0.250000  1
  C  C16  1  0.995845  0.000000  0.496916  1
  C  C17  1  0.995845  0.000000  0.003084  1
