# generated using pymatgen
data_LiY16Co4Ag3
_symmetry_space_group_name_H-M   'P 1'
_cell_length_a   9.46911192
_cell_length_b   9.50032671
_cell_length_c   9.50032700
_cell_angle_alpha   60.00000248
_cell_angle_beta   59.89089557
_cell_angle_gamma   59.89089333
_symmetry_Int_Tables_number   1
_chemical_formula_structural   LiY16Co4Ag3
_chemical_formula_sum   'Li1 Y16 Co4 Ag3'
_cell_volume   603.32757423
_cell_formula_units_Z   1
loop_
 _symmetry_equiv_pos_site_id
 _symmetry_equiv_pos_as_xyz
  1  'x, y, z'
loop_
 _atom_site_type_symbol
 _atom_site_label
 _atom_site_symmetry_multiplicity
 _atom_site_fract_x
 _atom_site_fract_y
 _atom_site_fract_z
 _atom_site_occupancy
  Li  Li0  1  0.298762  0.567079  0.567079  1
  Y  Y1  1  0.347782  0.346548  0.346548  1
  Y  Y2  1  0.347782  0.346548  0.959121  1
  Y  Y3  1  0.347782  0.959121  0.346548  1
  Y  Y4  1  0.947509  0.350830  0.350830  1
  Y  Y5  1  0.808654  0.189373  0.189373  1
  Y  Y6  1  0.186114  0.813963  0.813963  1
  Y  Y7  1  0.186114  0.813963  0.185961  1
  Y  Y8  1  0.808654  0.189373  0.812600  1
  Y  Y9  1  0.186114  0.185961  0.813963  1
  Y  Y10  1  0.808654  0.812600  0.189373  1
  Y  Y11  1  0.935538  0.561975  0.561975  1
  Y  Y12  1  0.561479  0.937274  0.937274  1
  Y  Y13  1  0.561479  0.937274  0.563972  1
  Y  Y14  1  0.935538  0.561975  0.940512  1
  Y  Y15  1  0.561479  0.563972  0.937274  1
  Y  Y16  1  0.935538  0.940512  0.561975  1
  Co  Co17  1  0.137764  0.143366  0.143366  1
  Co  Co18  1  0.137764  0.143366  0.575505  1
  Co  Co19  1  0.137764  0.575505  0.143366  1
  Co  Co20  1  0.574630  0.141790  0.141790  1
  Ag  Ag21  1  0.582368  0.582818  0.582818  1
  Ag  Ag22  1  0.582368  0.582818  0.251996  1
  Ag  Ag23  1  0.582368  0.251996  0.582818  1
