# generated using pymatgen
data_Sc2Tc(OsO4)3
_symmetry_space_group_name_H-M   'P 1'
_cell_length_a   4.82036771
_cell_length_b   5.63030883
_cell_length_c   7.61656654
_cell_angle_alpha   83.28136572
_cell_angle_beta   90.05479220
_cell_angle_gamma   90.03542868
_symmetry_Int_Tables_number   1
_chemical_formula_structural   Sc2Tc(OsO4)3
_chemical_formula_sum   'Sc2 Tc1 Os3 O12'
_cell_volume   205.29512295
_cell_formula_units_Z   1
loop_
 _symmetry_equiv_pos_site_id
 _symmetry_equiv_pos_as_xyz
  1  'x, y, z'
loop_
 _atom_site_type_symbol
 _atom_site_label
 _atom_site_symmetry_multiplicity
 _atom_site_fract_x
 _atom_site_fract_y
 _atom_site_fract_z
 _atom_site_occupancy
  Sc  Sc0  1  0.499392  0.000838  0.499185  1
  Sc  Sc1  1  0.000185  0.499793  0.499503  1
  Tc  Tc2  1  0.489748  0.366995  0.152956  1
  Os  Os3  1  0.991949  0.133912  0.847783  1
  Os  Os4  1  0.008976  0.866524  0.152222  1
  Os  Os5  1  0.509270  0.633491  0.848447  1
  O  O6  1  0.324354  0.675257  0.616857  1
  O  O7  1  0.227225  0.846266  0.930437  1
  O  O8  1  0.213344  0.575265  0.249416  1
  O  O9  1  0.824543  0.824911  0.382274  1
  O  O10  1  0.714437  0.926593  0.749610  1
  O  O11  1  0.785679  0.426237  0.750243  1
  O  O12  1  0.675620  0.323248  0.383412  1
  O  O13  1  0.284976  0.072302  0.250696  1
  O  O14  1  0.273707  0.345427  0.931349  1
  O  O15  1  0.174684  0.175818  0.617118  1
  O  O16  1  0.774462  0.153713  0.068689  1
  O  O17  1  0.727449  0.653410  0.069803  1
