# generated using pymatgen
data_Y7Er3(Ga2Bi)2
_symmetry_space_group_name_H-M   'P 1'
_cell_length_a   8.74247611
_cell_length_b   8.78277873
_cell_length_c   6.58055005
_cell_angle_alpha   90.01478048
_cell_angle_beta   89.99257706
_cell_angle_gamma   120.15260914
_symmetry_Int_Tables_number   1
_chemical_formula_structural   Y7Er3(Ga2Bi)2
_chemical_formula_sum   'Y7 Er3 Ga4 Bi2'
_cell_volume   436.90729824
_cell_formula_units_Z   1
loop_
 _symmetry_equiv_pos_site_id
 _symmetry_equiv_pos_as_xyz
  1  'x, y, z'
loop_
 _atom_site_type_symbol
 _atom_site_label
 _atom_site_symmetry_multiplicity
 _atom_site_fract_x
 _atom_site_fract_y
 _atom_site_fract_z
 _atom_site_occupancy
  Y  Y0  1  0.982661  0.748467  0.750172  1
  Y  Y1  1  0.982661  0.234195  0.249828  1
  Y  Y2  1  0.767341  0.767830  0.249844  1
  Y  Y3  1  0.767341  0.999511  0.750156  1
  Y  Y4  1  0.234401  0.250930  0.750187  1
  Y  Y5  1  0.234401  0.983471  0.249813  1
  Y  Y6  1  0.329761  0.664881  0.500000  1
  Er  Er7  1  0.692149  0.346074  0.000000  1
  Er  Er8  1  0.692475  0.346237  0.500000  1
  Er  Er9  1  0.329805  0.664903  0.000000  1
  Ga  Ga10  1  0.001263  0.600845  0.249740  1
  Ga  Ga11  1  0.001263  0.400418  0.750260  1
  Ga  Ga12  1  0.596392  0.601001  0.750154  1
  Ga  Ga13  1  0.596392  0.995390  0.249846  1
  Bi  Bi14  1  0.395848  0.006586  0.750558  1
  Bi  Bi15  1  0.395848  0.389262  0.249442  1
