# generated using pymatgen
data_Y20Fe3NiBi8
_symmetry_space_group_name_H-M   'P 1'
_cell_length_a   8.02007061
_cell_length_b   8.94412500
_cell_length_c   12.40502863
_cell_angle_alpha   90.00000000
_cell_angle_beta   90.04933447
_cell_angle_gamma   90.00000000
_symmetry_Int_Tables_number   1
_chemical_formula_structural   Y20Fe3NiBi8
_chemical_formula_sum   'Y20 Fe3 Ni1 Bi8'
_cell_volume   889.84356079
_cell_formula_units_Z   1
loop_
 _symmetry_equiv_pos_site_id
 _symmetry_equiv_pos_as_xyz
  1  'x, y, z'
loop_
 _atom_site_type_symbol
 _atom_site_label
 _atom_site_symmetry_multiplicity
 _atom_site_fract_x
 _atom_site_fract_y
 _atom_site_fract_z
 _atom_site_occupancy
  Y  Y0  1  0.844247  0.750000  0.795421  1
  Y  Y1  1  0.152455  0.250000  0.200185  1
  Y  Y2  1  0.348763  0.250000  0.700542  1
  Y  Y3  1  0.651196  0.750000  0.300111  1
  Y  Y4  1  0.380326  0.750000  0.692221  1
  Y  Y5  1  0.615392  0.250000  0.311178  1
  Y  Y6  1  0.882146  0.250000  0.810813  1
  Y  Y7  1  0.122101  0.750000  0.191868  1
  Y  Y8  1  0.949648  0.750000  0.503410  1
  Y  Y9  1  0.055021  0.250000  0.495074  1
  Y  Y10  1  0.450834  0.250000  0.996580  1
  Y  Y11  1  0.545007  0.750000  0.003250  1
  Y  Y12  1  0.674230  0.033944  0.562256  1
  Y  Y13  1  0.324573  0.963949  0.437384  1
  Y  Y14  1  0.176431  0.968427  0.935695  1
  Y  Y15  1  0.324573  0.536051  0.437384  1
  Y  Y16  1  0.822666  0.040361  0.063796  1
  Y  Y17  1  0.674230  0.466056  0.562256  1
  Y  Y18  1  0.822666  0.459639  0.063796  1
  Y  Y19  1  0.176431  0.531573  0.935695  1
  Fe  Fe20  1  0.571550  0.750000  0.512147  1
  Fe  Fe21  1  0.431822  0.250000  0.491189  1
  Fe  Fe22  1  0.067502  0.250000  0.990694  1
  Ni  Ni23  1  0.934462  0.750000  0.008864  1
  Bi  Bi24  1  0.572469  0.492418  0.827325  1
  Bi  Bi25  1  0.429151  0.507517  0.172926  1
  Bi  Bi26  1  0.070896  0.507032  0.672668  1
  Bi  Bi27  1  0.429151  0.992483  0.172926  1
  Bi  Bi28  1  0.928347  0.492310  0.326175  1
  Bi  Bi29  1  0.572469  0.007582  0.827325  1
  Bi  Bi30  1  0.928347  0.007690  0.326175  1
  Bi  Bi31  1  0.070896  0.992968  0.672668  1
