# generated using pymatgen
data_Ti3Be2Nb7Sn6
_symmetry_space_group_name_H-M   'P 1'
_cell_length_a   8.22411100
_cell_length_b   8.22410984
_cell_length_c   5.49392900
_cell_angle_alpha   90.00000000
_cell_angle_beta   90.00000000
_cell_angle_gamma   120.00000064
_symmetry_Int_Tables_number   1
_chemical_formula_structural   Ti3Be2Nb7Sn6
_chemical_formula_sum   'Ti3 Be2 Nb7 Sn6'
_cell_volume   321.80407326
_cell_formula_units_Z   1
loop_
 _symmetry_equiv_pos_site_id
 _symmetry_equiv_pos_as_xyz
  1  'x, y, z'
loop_
 _atom_site_type_symbol
 _atom_site_label
 _atom_site_symmetry_multiplicity
 _atom_site_fract_x
 _atom_site_fract_y
 _atom_site_fract_z
 _atom_site_occupancy
  Ti  Ti0  1  0.666667  0.333333  0.500000  1
  Ti  Ti1  1  0.666667  0.333333  0.000000  1
  Ti  Ti2  1  0.333333  0.666667  0.000000  1
  Be  Be3  1  0.000000  0.000000  0.500000  1
  Be  Be4  1  0.000000  0.000000  0.000000  1
  Nb  Nb5  1  0.247534  0.999163  0.748093  1
  Nb  Nb6  1  0.751629  0.999163  0.251907  1
  Nb  Nb7  1  0.000837  0.248371  0.748093  1
  Nb  Nb8  1  0.000837  0.752466  0.251907  1
  Nb  Nb9  1  0.751629  0.752466  0.748093  1
  Nb  Nb10  1  0.247534  0.248371  0.251907  1
  Nb  Nb11  1  0.333333  0.666667  0.500000  1
  Sn  Sn12  1  0.605843  0.002436  0.752115  1
  Sn  Sn13  1  0.396593  0.002436  0.247885  1
  Sn  Sn14  1  0.997564  0.603407  0.752115  1
  Sn  Sn15  1  0.997564  0.394157  0.247885  1
  Sn  Sn16  1  0.396593  0.394157  0.752115  1
  Sn  Sn17  1  0.605843  0.603407  0.247885  1
