# generated using pymatgen
data_NdLuSi3(AsRh3)4
_symmetry_space_group_name_H-M   'P 1'
_cell_length_a   9.89571200
_cell_length_b   9.89571338
_cell_length_c   3.90288600
_cell_angle_alpha   90.00000000
_cell_angle_beta   90.00000000
_cell_angle_gamma   120.00000206
_symmetry_Int_Tables_number   1
_chemical_formula_structural   NdLuSi3(AsRh3)4
_chemical_formula_sum   'Nd1 Lu1 Si3 As4 Rh12'
_cell_volume   330.98677709
_cell_formula_units_Z   1
loop_
 _symmetry_equiv_pos_site_id
 _symmetry_equiv_pos_as_xyz
  1  'x, y, z'
loop_
 _atom_site_type_symbol
 _atom_site_label
 _atom_site_symmetry_multiplicity
 _atom_site_fract_x
 _atom_site_fract_y
 _atom_site_fract_z
 _atom_site_occupancy
  Nd  Nd0  1  0.333333  0.666667  0.244611  1
  Lu  Lu1  1  0.666667  0.333333  0.743471  1
  Si  Si2  1  0.405173  0.113708  0.242356  1
  Si  Si3  1  0.708533  0.594827  0.242356  1
  Si  Si4  1  0.886292  0.291467  0.242356  1
  As  As5  1  0.000000  0.000000  0.635251  1
  As  As6  1  0.598136  0.884125  0.745498  1
  As  As7  1  0.285988  0.401864  0.745498  1
  As  As8  1  0.115875  0.714012  0.745498  1
  Rh  Rh9  1  0.451221  0.377751  0.242107  1
  Rh  Rh10  1  0.926530  0.548779  0.242107  1
  Rh  Rh11  1  0.622249  0.073470  0.242107  1
  Rh  Rh12  1  0.559814  0.612824  0.744341  1
  Rh  Rh13  1  0.053010  0.440186  0.744341  1
  Rh  Rh14  1  0.387176  0.946990  0.744341  1
  Rh  Rh15  1  0.147051  0.888530  0.244118  1
  Rh  Rh16  1  0.741479  0.852949  0.244118  1
  Rh  Rh17  1  0.111470  0.258521  0.244118  1
  Rh  Rh18  1  0.848181  0.125162  0.740470  1
  Rh  Rh19  1  0.276980  0.151819  0.740470  1
  Rh  Rh20  1  0.874838  0.723020  0.740470  1
