# generated using pymatgen
data_YLu4In4RuPt
_symmetry_space_group_name_H-M   'P 1'
_cell_length_a   3.56718300
_cell_length_b   7.98693252
_cell_length_c   18.15819936
_cell_angle_alpha   89.90598835
_cell_angle_beta   90.00000000
_cell_angle_gamma   90.00000000
_symmetry_Int_Tables_number   1
_chemical_formula_structural   YLu4In4RuPt
_chemical_formula_sum   'Y2 Lu8 In8 Ru2 Pt2'
_cell_volume   517.34183618
_cell_formula_units_Z   2
loop_
 _symmetry_equiv_pos_site_id
 _symmetry_equiv_pos_as_xyz
  1  'x, y, z'
loop_
 _atom_site_type_symbol
 _atom_site_label
 _atom_site_symmetry_multiplicity
 _atom_site_fract_x
 _atom_site_fract_y
 _atom_site_fract_z
 _atom_site_occupancy
  Y  Y0  1  0.000000  0.000000  0.000000  1
  Y  Y1  1  0.000000  0.500000  0.500000  1
  Lu  Lu2  1  0.000000  0.115545  0.411817  1
  Lu  Lu3  1  0.000000  0.884455  0.588183  1
  Lu  Lu4  1  0.000000  0.382430  0.913724  1
  Lu  Lu5  1  0.000000  0.617570  0.086276  1
  Lu  Lu6  1  0.000000  0.237284  0.222688  1
  Lu  Lu7  1  0.000000  0.762716  0.777312  1
  Lu  Lu8  1  0.000000  0.247847  0.720158  1
  Lu  Lu9  1  0.000000  0.752153  0.279842  1
  In  In10  1  0.500000  0.423845  0.351616  1
  In  In11  1  0.500000  0.576155  0.648384  1
  In  In12  1  0.500000  0.070078  0.849838  1
  In  In13  1  0.500000  0.929922  0.150162  1
  In  In14  1  0.500000  0.293254  0.065850  1
  In  In15  1  0.500000  0.706746  0.934150  1
  In  In16  1  0.500000  0.204910  0.567926  1
  In  In17  1  0.500000  0.795090  0.432074  1
  Ru  Ru18  1  0.500000  0.023240  0.303685  1
  Ru  Ru19  1  0.500000  0.976760  0.696315  1
  Pt  Pt20  1  0.500000  0.475243  0.803756  1
  Pt  Pt21  1  0.500000  0.524757  0.196244  1
