# generated using pymatgen
data_Tm3Cd3Hg2Pt
_symmetry_space_group_name_H-M   'P 1'
_cell_length_a   3.67818600
_cell_length_b   8.08059018
_cell_length_c   8.08059000
_cell_angle_alpha   119.99999818
_cell_angle_beta   90.00000000
_cell_angle_gamma   90.00000000
_symmetry_Int_Tables_number   1
_chemical_formula_structural   Tm3Cd3Hg2Pt
_chemical_formula_sum   'Tm3 Cd3 Hg2 Pt1'
_cell_volume   207.99384322
_cell_formula_units_Z   1
loop_
 _symmetry_equiv_pos_site_id
 _symmetry_equiv_pos_as_xyz
  1  'x, y, z'
loop_
 _atom_site_type_symbol
 _atom_site_label
 _atom_site_symmetry_multiplicity
 _atom_site_fract_x
 _atom_site_fract_y
 _atom_site_fract_z
 _atom_site_occupancy
  Tm  Tm0  1  0.000000  0.416794  0.382400  1
  Tm  Tm1  1  0.000000  0.965606  0.583206  1
  Tm  Tm2  1  0.000000  0.617600  0.034394  1
  Cd  Cd3  1  0.500000  0.715774  0.722953  1
  Cd  Cd4  1  0.500000  0.007177  0.284226  1
  Cd  Cd5  1  0.500000  0.277047  0.992823  1
  Hg  Hg6  1  0.500000  0.333333  0.666667  1
  Hg  Hg7  1  0.000000  0.000000  0.000000  1
  Pt  Pt8  1  0.500000  0.666667  0.333333  1
