# generated using pymatgen
data_CaEu(BrO3)4
_symmetry_space_group_name_H-M   'P 1'
_cell_length_a   7.14630165
_cell_length_b   7.00488196
_cell_length_c   7.31212787
_cell_angle_alpha   77.02094722
_cell_angle_beta   73.16607625
_cell_angle_gamma   116.62745750
_symmetry_Int_Tables_number   1
_chemical_formula_structural   CaEu(BrO3)4
_chemical_formula_sum   'Ca1 Eu1 Br4 O12'
_cell_volume   285.06695618
_cell_formula_units_Z   1
loop_
 _symmetry_equiv_pos_site_id
 _symmetry_equiv_pos_as_xyz
  1  'x, y, z'
loop_
 _atom_site_type_symbol
 _atom_site_label
 _atom_site_symmetry_multiplicity
 _atom_site_fract_x
 _atom_site_fract_y
 _atom_site_fract_z
 _atom_site_occupancy
  Ca  Ca0  1  0.616783  0.386045  0.995824  1
  Eu  Eu1  1  0.380387  0.624905  0.490286  1
  Br  Br2  1  0.417726  0.799307  0.949446  1
  Br  Br3  1  0.758219  0.393122  0.455709  1
  Br  Br4  1  0.985809  0.108443  0.028250  1
  Br  Br5  1  0.093496  0.956882  0.527596  1
  O  O6  1  0.474701  0.631578  0.104142  1
  O  O7  1  0.615896  0.464616  0.631493  1
  O  O8  1  0.742116  0.524370  0.241663  1
  O  O9  1  0.542646  0.810854  0.711013  1
  O  O10  1  0.609133  0.070482  0.920757  1
  O  O11  1  0.040902  0.566569  0.402506  1
  O  O12  1  0.061849  0.386060  0.900150  1
  O  O13  1  0.364907  0.013921  0.392863  1
  O  O14  1  0.995885  0.750375  0.765254  1
  O  O15  1  0.777697  0.016356  0.269694  1
  O  O16  1  0.214583  0.141066  0.073278  1
  O  O17  1  0.149866  0.197649  0.572680  1
