# generated using pymatgen
data_ZrMn4Al
_symmetry_space_group_name_H-M   'P 1'
_cell_length_a   4.80105000
_cell_length_b   4.80104890
_cell_length_c   7.98328000
_cell_angle_alpha   90.00000000
_cell_angle_beta   90.00000000
_cell_angle_gamma   120.00000755
_symmetry_Int_Tables_number   1
_chemical_formula_structural   ZrMn4Al
_chemical_formula_sum   'Zr2 Mn8 Al2'
_cell_volume   159.36183397
_cell_formula_units_Z   2
loop_
 _symmetry_equiv_pos_site_id
 _symmetry_equiv_pos_as_xyz
  1  'x, y, z'
loop_
 _atom_site_type_symbol
 _atom_site_label
 _atom_site_symmetry_multiplicity
 _atom_site_fract_x
 _atom_site_fract_y
 _atom_site_fract_z
 _atom_site_occupancy
  Zr  Zr0  1  0.666667  0.333333  0.934783  1
  Zr  Zr1  1  0.333333  0.666667  0.434783  1
  Mn  Mn2  1  0.000000  0.000000  0.505523  1
  Mn  Mn3  1  0.000000  0.000000  0.005523  1
  Mn  Mn4  1  0.173617  0.347232  0.748237  1
  Mn  Mn5  1  0.826383  0.173617  0.248237  1
  Mn  Mn6  1  0.826383  0.652768  0.248237  1
  Mn  Mn7  1  0.173617  0.826383  0.748237  1
  Mn  Mn8  1  0.652768  0.826383  0.748237  1
  Mn  Mn9  1  0.347232  0.173617  0.248237  1
  Al  Al10  1  0.333333  0.666667  0.064983  1
  Al  Al11  1  0.666667  0.333333  0.564983  1
