# generated using pymatgen
data_SrBi2Rh4PbO14
_symmetry_space_group_name_H-M   'P 1'
_cell_length_a   7.41563449
_cell_length_b   7.31076238
_cell_length_c   7.38032716
_cell_angle_alpha   59.34737136
_cell_angle_beta   59.84162110
_cell_angle_gamma   59.52432752
_symmetry_Int_Tables_number   1
_chemical_formula_structural   SrBi2Rh4PbO14
_chemical_formula_sum   'Sr1 Bi2 Rh4 Pb1 O14'
_cell_volume   280.15580937
_cell_formula_units_Z   1
loop_
 _symmetry_equiv_pos_site_id
 _symmetry_equiv_pos_as_xyz
  1  'x, y, z'
loop_
 _atom_site_type_symbol
 _atom_site_label
 _atom_site_symmetry_multiplicity
 _atom_site_fract_x
 _atom_site_fract_y
 _atom_site_fract_z
 _atom_site_occupancy
  Sr  Sr0  1  0.125000  0.625000  0.125000  1
  Bi  Bi1  1  0.125000  0.125000  0.125000  1
  Bi  Bi2  1  0.625000  0.125000  0.125000  1
  Rh  Rh3  1  0.625000  0.625000  0.625000  1
  Rh  Rh4  1  0.625000  0.625000  0.125000  1
  Rh  Rh5  1  0.125000  0.625000  0.625000  1
  Rh  Rh6  1  0.625000  0.125000  0.625000  1
  Pb  Pb7  1  0.125000  0.125000  0.625000  1
  O  O8  1  0.257876  0.226830  0.257419  1
  O  O9  1  0.294846  0.712611  0.294721  1
  O  O10  1  0.954187  0.958375  0.544004  1
  O  O11  1  0.543435  0.958375  0.544004  1
  O  O12  1  0.697824  0.712611  0.294721  1
  O  O13  1  0.953899  0.536796  0.555406  1
  O  O14  1  0.706565  0.291625  0.705996  1
  O  O15  1  0.295813  0.291625  0.705996  1
  O  O16  1  0.706227  0.292209  0.295337  1
  O  O17  1  0.296101  0.713204  0.694594  1
  O  O18  1  0.955154  0.537389  0.955279  1
  O  O19  1  0.552176  0.537389  0.955279  1
  O  O20  1  0.992124  0.023170  0.992581  1
  O  O21  1  0.543773  0.957791  0.954663  1
