# generated using pymatgen
data_Pr3Nd4Pa(ZnRh)8
_symmetry_space_group_name_H-M   'P 1'
_cell_length_a   3.98480700
_cell_length_b   7.37918264
_cell_length_c   16.66549511
_cell_angle_alpha   89.48005918
_cell_angle_beta   90.00000000
_cell_angle_gamma   90.00000000
_symmetry_Int_Tables_number   1
_chemical_formula_structural   Pr3Nd4Pa(ZnRh)8
_chemical_formula_sum   'Pr3 Nd4 Pa1 Zn8 Rh8'
_cell_volume   490.02235065
_cell_formula_units_Z   1
loop_
 _symmetry_equiv_pos_site_id
 _symmetry_equiv_pos_as_xyz
  1  'x, y, z'
loop_
 _atom_site_type_symbol
 _atom_site_label
 _atom_site_symmetry_multiplicity
 _atom_site_fract_x
 _atom_site_fract_y
 _atom_site_fract_z
 _atom_site_occupancy
  Pr  Pr0  1  0.750000  0.946245  0.283620  1
  Pr  Pr1  1  0.750000  0.821115  0.059629  1
  Pr  Pr2  1  0.750000  0.334786  0.440923  1
  Nd  Nd3  1  0.250000  0.051276  0.715731  1
  Nd  Nd4  1  0.250000  0.169240  0.938845  1
  Nd  Nd5  1  0.250000  0.550277  0.784330  1
  Nd  Nd6  1  0.250000  0.673772  0.561513  1
  Pa  Pa7  1  0.750000  0.441804  0.213820  1
  Zn  Zn8  1  0.250000  0.004108  0.439886  1
  Zn  Zn9  1  0.750000  0.501311  0.939087  1
  Zn  Zn10  1  0.750000  0.005000  0.561076  1
  Zn  Zn11  1  0.250000  0.622549  0.351125  1
  Zn  Zn12  1  0.750000  0.381072  0.651973  1
  Zn  Zn13  1  0.750000  0.881997  0.848073  1
  Zn  Zn14  1  0.250000  0.496675  0.056553  1
  Zn  Zn15  1  0.250000  0.115045  0.151326  1
  Rh  Rh16  1  0.250000  0.248881  0.566053  1
  Rh  Rh17  1  0.750000  0.265963  0.074909  1
  Rh  Rh18  1  0.250000  0.265539  0.299974  1
  Rh  Rh19  1  0.750000  0.255209  0.815572  1
  Rh  Rh20  1  0.250000  0.749158  0.933619  1
  Rh  Rh21  1  0.750000  0.755904  0.686759  1
  Rh  Rh22  1  0.750000  0.763534  0.435563  1
  Rh  Rh23  1  0.250000  0.699538  0.190043  1
