# generated using pymatgen
data_Dy7ErTi12Si15P
_symmetry_space_group_name_H-M   'P 1'
_cell_length_a   7.03642611
_cell_length_b   7.04274848
_cell_length_c   12.93772206
_cell_angle_alpha   90.01236888
_cell_angle_beta   89.91326113
_cell_angle_gamma   90.04540316
_symmetry_Int_Tables_number   1
_chemical_formula_structural   Dy7ErTi12Si15P
_chemical_formula_sum   'Dy7 Er1 Ti12 Si15 P1'
_cell_volume   641.13794861
_cell_formula_units_Z   1
loop_
 _symmetry_equiv_pos_site_id
 _symmetry_equiv_pos_as_xyz
  1  'x, y, z'
loop_
 _atom_site_type_symbol
 _atom_site_label
 _atom_site_symmetry_multiplicity
 _atom_site_fract_x
 _atom_site_fract_y
 _atom_site_fract_z
 _atom_site_occupancy
  Dy  Dy0  1  0.003478  0.344645  0.532097  1
  Dy  Dy1  1  0.659930  0.996965  0.966658  1
  Dy  Dy2  1  0.159706  0.503328  0.782824  1
  Dy  Dy3  1  0.842152  0.498549  0.284589  1
  Dy  Dy4  1  0.502932  0.160136  0.217091  1
  Dy  Dy5  1  0.497123  0.841140  0.716569  1
  Dy  Dy6  1  0.338499  0.000203  0.467078  1
  Er  Er7  1  0.997551  0.659339  0.033595  1
  Ti  Ti8  1  0.343284  0.510658  0.374956  1
  Ti  Ti9  1  0.850066  0.988156  0.377291  1
  Ti  Ti10  1  0.007950  0.152110  0.124000  1
  Ti  Ti11  1  0.993167  0.845517  0.620616  1
  Ti  Ti12  1  0.508605  0.346342  0.625701  1
  Ti  Ti13  1  0.151773  0.007840  0.876374  1
  Ti  Ti14  1  0.674577  0.673626  0.499429  1
  Ti  Ti15  1  0.827022  0.173375  0.749672  1
  Ti  Ti16  1  0.172138  0.825696  0.251705  1
  Ti  Ti17  1  0.326691  0.326817  0.000047  1
  Ti  Ti18  1  0.491936  0.652251  0.126446  1
  Ti  Ti19  1  0.652510  0.492132  0.873874  1
  Si  Si20  1  0.953186  0.291640  0.935294  1
  Si  Si21  1  0.709574  0.047704  0.564645  1
  Si  Si22  1  0.208720  0.452872  0.185087  1
  Si  Si23  1  0.791043  0.547057  0.685209  1
  Si  Si24  1  0.452590  0.209192  0.814685  1
  Si  Si25  1  0.546660  0.790979  0.314728  1
  Si  Si26  1  0.290696  0.952527  0.065186  1
  Si  Si27  1  0.797268  0.870263  0.184225  1
  Si  Si28  1  0.301839  0.628862  0.567419  1
  Si  Si29  1  0.702977  0.370190  0.065716  1
  Si  Si30  1  0.628930  0.297471  0.434025  1
  Si  Si31  1  0.369468  0.702567  0.934575  1
  Si  Si32  1  0.130193  0.202280  0.315690  1
  Si  Si33  1  0.201040  0.130330  0.683855  1
  Si  Si34  1  0.870352  0.797496  0.814885  1
  P  P35  1  0.044373  0.709744  0.434161  1
