# generated using pymatgen
data_Y4HgPd
_symmetry_space_group_name_H-M   'P 1'
_cell_length_a   9.70154438
_cell_length_b   9.70154373
_cell_length_c   9.70154400
_cell_angle_alpha   59.99999906
_cell_angle_beta   60.00000130
_cell_angle_gamma   59.99999666
_symmetry_Int_Tables_number   1
_chemical_formula_structural   Y4HgPd
_chemical_formula_sum   'Y16 Hg4 Pd4'
_cell_volume   645.66548369
_cell_formula_units_Z   4
loop_
 _symmetry_equiv_pos_site_id
 _symmetry_equiv_pos_as_xyz
  1  'x, y, z'
loop_
 _atom_site_type_symbol
 _atom_site_label
 _atom_site_symmetry_multiplicity
 _atom_site_fract_x
 _atom_site_fract_y
 _atom_site_fract_z
 _atom_site_occupancy
  Y  Y0  1  0.356922  0.356922  0.356922  1
  Y  Y1  1  0.356922  0.356922  0.929235  1
  Y  Y2  1  0.356922  0.929235  0.356922  1
  Y  Y3  1  0.929235  0.356922  0.356922  1
  Y  Y4  1  0.810962  0.189038  0.189038  1
  Y  Y5  1  0.189038  0.810962  0.810962  1
  Y  Y6  1  0.189038  0.810962  0.189038  1
  Y  Y7  1  0.810962  0.189038  0.810962  1
  Y  Y8  1  0.189038  0.189038  0.810962  1
  Y  Y9  1  0.810962  0.810962  0.189038  1
  Y  Y10  1  0.934845  0.565155  0.565155  1
  Y  Y11  1  0.565155  0.934845  0.934845  1
  Y  Y12  1  0.565155  0.934845  0.565155  1
  Y  Y13  1  0.934845  0.565155  0.934845  1
  Y  Y14  1  0.565155  0.565155  0.934845  1
  Y  Y15  1  0.934845  0.934845  0.565155  1
  Hg  Hg16  1  0.587305  0.587305  0.587305  1
  Hg  Hg17  1  0.587305  0.587305  0.238086  1
  Hg  Hg18  1  0.587305  0.238086  0.587305  1
  Hg  Hg19  1  0.238086  0.587305  0.587305  1
  Pd  Pd20  1  0.145525  0.145525  0.145525  1
  Pd  Pd21  1  0.145525  0.145525  0.563425  1
  Pd  Pd22  1  0.145525  0.563425  0.145525  1
  Pd  Pd23  1  0.563425  0.145525  0.145525  1
