# generated using pymatgen
data_RbDy6InF20
_symmetry_space_group_name_H-M   'P 1'
_cell_length_a   8.27772686
_cell_length_b   8.27772693
_cell_length_c   8.27772700
_cell_angle_alpha   60.00000372
_cell_angle_beta   60.00000346
_cell_angle_gamma   60.00000257
_symmetry_Int_Tables_number   1
_chemical_formula_structural   RbDy6InF20
_chemical_formula_sum   'Rb1 Dy6 In1 F20'
_cell_volume   401.06828523
_cell_formula_units_Z   1
loop_
 _symmetry_equiv_pos_site_id
 _symmetry_equiv_pos_as_xyz
  1  'x, y, z'
loop_
 _atom_site_type_symbol
 _atom_site_label
 _atom_site_symmetry_multiplicity
 _atom_site_fract_x
 _atom_site_fract_y
 _atom_site_fract_z
 _atom_site_occupancy
  Rb  Rb0  1  0.250000  0.250000  0.250000  1
  Dy  Dy1  1  0.759513  0.240487  0.240487  1
  Dy  Dy2  1  0.240487  0.759513  0.759513  1
  Dy  Dy3  1  0.240487  0.759513  0.240487  1
  Dy  Dy4  1  0.759513  0.240487  0.759513  1
  Dy  Dy5  1  0.240487  0.240487  0.759513  1
  Dy  Dy6  1  0.759513  0.759513  0.240487  1
  In  In7  1  0.750000  0.750000  0.750000  1
  F  F8  1  0.829822  0.499491  0.499491  1
  F  F9  1  0.171197  0.499491  0.499491  1
  F  F10  1  0.499491  0.829822  0.171197  1
  F  F11  1  0.499491  0.171197  0.829822  1
  F  F12  1  0.499491  0.829822  0.499491  1
  F  F13  1  0.171197  0.499491  0.829822  1
  F  F14  1  0.499491  0.171197  0.499491  1
  F  F15  1  0.829822  0.499491  0.171197  1
  F  F16  1  0.499491  0.499491  0.829822  1
  F  F17  1  0.499491  0.499491  0.171197  1
  F  F18  1  0.171197  0.829822  0.499491  1
  F  F19  1  0.829822  0.171197  0.499491  1
  F  F20  1  0.109805  0.109805  0.109805  1
  F  F21  1  0.888513  0.888513  0.888513  1
  F  F22  1  0.109805  0.109805  0.670586  1
  F  F23  1  0.109805  0.670586  0.109805  1
  F  F24  1  0.888513  0.888513  0.334461  1
  F  F25  1  0.888513  0.334461  0.888513  1
  F  F26  1  0.670586  0.109805  0.109805  1
  F  F27  1  0.334461  0.888513  0.888513  1
