# generated using pymatgen
data_CaNd(Zn9Cu2)2
_symmetry_space_group_name_H-M   'P 1'
_cell_length_a   8.21571331
_cell_length_b   8.21566977
_cell_length_c   8.21570310
_cell_angle_alpha   99.66826690
_cell_angle_beta   99.66688938
_cell_angle_gamma   131.61714591
_symmetry_Int_Tables_number   1
_chemical_formula_structural   CaNd(Zn9Cu2)2
_chemical_formula_sum   'Ca1 Nd1 Zn18 Cu4'
_cell_volume   378.16360252
_cell_formula_units_Z   1
loop_
 _symmetry_equiv_pos_site_id
 _symmetry_equiv_pos_as_xyz
  1  'x, y, z'
loop_
 _atom_site_type_symbol
 _atom_site_label
 _atom_site_symmetry_multiplicity
 _atom_site_fract_x
 _atom_site_fract_y
 _atom_site_fract_z
 _atom_site_occupancy
  Ca  Ca0  1  0.250000  0.750001  0.500000  1
  Nd  Nd1  1  0.999990  0.999990  0.000000  1
  Zn  Zn2  1  0.429754  0.104681  0.918338  1
  Zn  Zn3  1  0.186340  0.511413  0.081661  1
  Zn  Zn4  1  0.500003  0.500000  0.999999  1
  Zn  Zn5  1  0.749998  0.250001  0.500001  1
  Zn  Zn6  1  0.186344  0.104681  0.674928  1
  Zn  Zn7  1  0.761815  0.936024  0.582204  1
  Zn  Zn8  1  0.353822  0.179611  0.417798  1
  Zn  Zn9  1  0.429752  0.511412  0.325073  1
  Zn  Zn10  1  0.895322  0.813658  0.325073  1
  Zn  Zn11  1  0.488588  0.570249  0.674929  1
  Zn  Zn12  1  0.063980  0.238189  0.417799  1
  Zn  Zn13  1  0.820388  0.646179  0.582202  1
  Zn  Zn14  1  0.063976  0.646179  0.825790  1
  Zn  Zn15  1  0.488585  0.813659  0.918336  1
  Zn  Zn16  1  0.895321  0.570249  0.081662  1
  Zn  Zn17  1  0.820390  0.238190  0.174210  1
  Zn  Zn18  1  0.353820  0.936025  0.174210  1
  Zn  Zn19  1  0.761812  0.179611  0.825789  1
  Cu  Cu20  1  0.625247  0.374712  0.749465  1
  Cu  Cu21  1  0.124219  0.374755  0.749465  1
  Cu  Cu22  1  0.625288  0.374754  0.250534  1
  Cu  Cu23  1  0.625246  0.875780  0.250535  1
