# generated using pymatgen
data_DyTm4ReOsC7
_symmetry_space_group_name_H-M   'P 1'
_cell_length_a   8.17652527
_cell_length_b   8.17652574
_cell_length_c   3.43280600
_cell_angle_alpha   90.00000000
_cell_angle_beta   90.00000000
_cell_angle_gamma   121.86697805
_symmetry_Int_Tables_number   1
_chemical_formula_structural   DyTm4ReOsC7
_chemical_formula_sum   'Dy1 Tm4 Re1 Os1 C7'
_cell_volume   194.91073469
_cell_formula_units_Z   1
loop_
 _symmetry_equiv_pos_site_id
 _symmetry_equiv_pos_as_xyz
  1  'x, y, z'
loop_
 _atom_site_type_symbol
 _atom_site_label
 _atom_site_symmetry_multiplicity
 _atom_site_fract_x
 _atom_site_fract_y
 _atom_site_fract_z
 _atom_site_occupancy
  Dy  Dy0  1  0.500788  0.499212  0.000000  1
  Tm  Tm1  1  0.076801  0.337949  0.500000  1
  Tm  Tm2  1  0.921560  0.661282  0.500000  1
  Tm  Tm3  1  0.662051  0.923199  0.500000  1
  Tm  Tm4  1  0.338718  0.078440  0.500000  1
  Re  Re5  1  0.283856  0.716144  0.000000  1
  Os  Os6  1  0.714487  0.285513  0.000000  1
  C  C7  1  0.631077  0.368923  0.500000  1
  C  C8  1  0.373909  0.626091  0.500000  1
  C  C9  1  0.999392  0.000608  0.000000  1
  C  C10  1  0.170297  0.171029  0.000000  1
  C  C11  1  0.828971  0.829703  0.000000  1
  C  C12  1  0.999224  0.501132  0.000000  1
  C  C13  1  0.498868  0.000776  0.000000  1
