# generated using pymatgen
data_GdHoTm2(WO6)2
_symmetry_space_group_name_H-M   'P 1'
_cell_length_a   5.38977400
_cell_length_b   7.68431084
_cell_length_c   11.41877914
_cell_angle_alpha   75.44246018
_cell_angle_beta   90.00000000
_cell_angle_gamma   90.00000000
_symmetry_Int_Tables_number   1
_chemical_formula_structural   GdHoTm2(WO6)2
_chemical_formula_sum   'Gd2 Ho2 Tm4 W4 O24'
_cell_volume   457.74511199
_cell_formula_units_Z   2
loop_
 _symmetry_equiv_pos_site_id
 _symmetry_equiv_pos_as_xyz
  1  'x, y, z'
loop_
 _atom_site_type_symbol
 _atom_site_label
 _atom_site_symmetry_multiplicity
 _atom_site_fract_x
 _atom_site_fract_y
 _atom_site_fract_z
 _atom_site_occupancy
  Gd  Gd0  1  0.684581  0.500000  0.750000  1
  Gd  Gd1  1  0.315419  0.500000  0.250000  1
  Ho  Ho2  1  0.741877  0.000000  0.750000  1
  Ho  Ho3  1  0.258123  0.000000  0.250000  1
  Tm  Tm4  1  0.184537  0.795575  0.578249  1
  Tm  Tm5  1  0.815463  0.795575  0.078249  1
  Tm  Tm6  1  0.184537  0.204425  0.921751  1
  Tm  Tm7  1  0.815463  0.204425  0.421751  1
  W  W8  1  0.255170  0.725028  0.885617  1
  W  W9  1  0.744830  0.725028  0.385617  1
  W  W10  1  0.255170  0.274972  0.614383  1
  W  W11  1  0.744830  0.274972  0.114383  1
  O  O12  1  0.043833  0.941400  0.896634  1
  O  O13  1  0.536348  0.845405  0.931861  1
  O  O14  1  0.956167  0.941400  0.396634  1
  O  O15  1  0.456638  0.793225  0.726183  1
  O  O16  1  0.463652  0.845405  0.431861  1
  O  O17  1  0.983570  0.715039  0.769785  1
  O  O18  1  0.543362  0.793225  0.226183  1
  O  O19  1  0.855149  0.636903  0.548322  1
  O  O20  1  0.355241  0.489297  0.887426  1
  O  O21  1  0.016430  0.715039  0.269785  1
  O  O22  1  0.355241  0.510703  0.612574  1
  O  O23  1  0.855149  0.363097  0.951678  1
  O  O24  1  0.144851  0.636903  0.048322  1
  O  O25  1  0.644759  0.489297  0.387426  1
  O  O26  1  0.983570  0.284961  0.730215  1
  O  O27  1  0.644759  0.510703  0.112574  1
  O  O28  1  0.144851  0.363097  0.451678  1
  O  O29  1  0.456638  0.206775  0.773817  1
  O  O30  1  0.016430  0.284961  0.230215  1
  O  O31  1  0.536348  0.154595  0.568139  1
  O  O32  1  0.543362  0.206775  0.273817  1
  O  O33  1  0.043833  0.058600  0.603366  1
  O  O34  1  0.463652  0.154595  0.068139  1
  O  O35  1  0.956167  0.058600  0.103366  1
