# generated using pymatgen
data_Er3Mg3Si2Pd
_symmetry_space_group_name_H-M   'P 1'
_cell_length_a   7.20768300
_cell_length_b   7.20768361
_cell_length_c   4.23262900
_cell_angle_alpha   90.00000000
_cell_angle_beta   90.00000000
_cell_angle_gamma   120.00000177
_symmetry_Int_Tables_number   1
_chemical_formula_structural   Er3Mg3Si2Pd
_chemical_formula_sum   'Er3 Mg3 Si2 Pd1'
_cell_volume   190.42861974
_cell_formula_units_Z   1
loop_
 _symmetry_equiv_pos_site_id
 _symmetry_equiv_pos_as_xyz
  1  'x, y, z'
loop_
 _atom_site_type_symbol
 _atom_site_label
 _atom_site_symmetry_multiplicity
 _atom_site_fract_x
 _atom_site_fract_y
 _atom_site_fract_z
 _atom_site_occupancy
  Er  Er0  1  0.418327  0.418327  0.500000  1
  Er  Er1  1  0.581673  0.000000  0.500000  1
  Er  Er2  1  0.000000  0.581673  0.500000  1
  Mg  Mg3  1  0.756557  0.756557  0.000000  1
  Mg  Mg4  1  0.243443  0.000000  0.000000  1
  Mg  Mg5  1  0.000000  0.243443  0.000000  1
  Si  Si6  1  0.666667  0.333333  0.000000  1
  Si  Si7  1  0.333333  0.666667  0.000000  1
  Pd  Pd8  1  0.000000  0.000000  0.500000  1
