# generated using pymatgen
data_LaMg4(Sn3Rh)6
_symmetry_space_group_name_H-M   'P 1'
_cell_length_a   9.80420337
_cell_length_b   9.80420399
_cell_length_c   9.80420400
_cell_angle_alpha   59.99999997
_cell_angle_beta   59.99999787
_cell_angle_gamma   59.99999873
_symmetry_Int_Tables_number   1
_chemical_formula_structural   LaMg4(Sn3Rh)6
_chemical_formula_sum   'La1 Mg4 Sn18 Rh6'
_cell_volume   666.38003989
_cell_formula_units_Z   1
loop_
 _symmetry_equiv_pos_site_id
 _symmetry_equiv_pos_as_xyz
  1  'x, y, z'
loop_
 _atom_site_type_symbol
 _atom_site_label
 _atom_site_symmetry_multiplicity
 _atom_site_fract_x
 _atom_site_fract_y
 _atom_site_fract_z
 _atom_site_occupancy
  La  La0  1  0.500000  0.500000  0.500000  1
  Mg  Mg1  1  0.871893  0.871893  0.384321  1
  Mg  Mg2  1  0.871893  0.384321  0.871893  1
  Mg  Mg3  1  0.384321  0.871893  0.871893  1
  Mg  Mg4  1  0.871893  0.871893  0.871893  1
  Sn  Sn5  1  0.084146  0.084146  0.747562  1
  Sn  Sn6  1  0.084146  0.747562  0.084146  1
  Sn  Sn7  1  0.747562  0.084146  0.084146  1
  Sn  Sn8  1  0.084146  0.084146  0.084146  1
  Sn  Sn9  1  0.250000  0.250000  0.250000  1
  Sn  Sn10  1  0.493083  0.861141  0.152692  1
  Sn  Sn11  1  0.493083  0.493083  0.152692  1
  Sn  Sn12  1  0.861141  0.493083  0.152692  1
  Sn  Sn13  1  0.493083  0.152692  0.861141  1
  Sn  Sn14  1  0.861141  0.152692  0.493083  1
  Sn  Sn15  1  0.493083  0.152692  0.493083  1
  Sn  Sn16  1  0.152692  0.493083  0.493083  1
  Sn  Sn17  1  0.152692  0.861141  0.493083  1
  Sn  Sn18  1  0.152692  0.493083  0.861141  1
  Sn  Sn19  1  0.861141  0.493083  0.493083  1
  Sn  Sn20  1  0.493083  0.493083  0.861141  1
  Sn  Sn21  1  0.493083  0.861141  0.493083  1
  Sn  Sn22  1  0.750000  0.750000  0.750000  1
  Rh  Rh23  1  0.755600  0.755600  0.244400  1
  Rh  Rh24  1  0.244400  0.755600  0.244400  1
  Rh  Rh25  1  0.755600  0.244400  0.244400  1
  Rh  Rh26  1  0.244400  0.244400  0.755600  1
  Rh  Rh27  1  0.755600  0.244400  0.755600  1
  Rh  Rh28  1  0.244400  0.755600  0.755600  1
