# generated using pymatgen
data_Ho5Lu3Ti3Si16Mo9
_symmetry_space_group_name_H-M   'P 1'
_cell_length_a   6.89180767
_cell_length_b   6.89251902
_cell_length_c   12.75282102
_cell_angle_alpha   89.97598455
_cell_angle_beta   90.02283799
_cell_angle_gamma   89.74378185
_symmetry_Int_Tables_number   1
_chemical_formula_structural   Ho5Lu3Ti3Si16Mo9
_chemical_formula_sum   'Ho5 Lu3 Ti3 Si16 Mo9'
_cell_volume   605.77726704
_cell_formula_units_Z   1
loop_
 _symmetry_equiv_pos_site_id
 _symmetry_equiv_pos_as_xyz
  1  'x, y, z'
loop_
 _atom_site_type_symbol
 _atom_site_label
 _atom_site_symmetry_multiplicity
 _atom_site_fract_x
 _atom_site_fract_y
 _atom_site_fract_z
 _atom_site_occupancy
  Ho  Ho0  1  0.838862  0.496846  0.280928  1
  Ho  Ho1  1  0.161968  0.499173  0.781990  1
  Ho  Ho2  1  0.659429  0.999676  0.968841  1
  Ho  Ho3  1  0.002169  0.339600  0.531227  1
  Ho  Ho4  1  0.999649  0.659195  0.031319  1
  Lu  Lu5  1  0.340227  0.001106  0.468961  1
  Lu  Lu6  1  0.497921  0.839380  0.719433  1
  Lu  Lu7  1  0.498425  0.161174  0.217899  1
  Ti  Ti8  1  0.170212  0.831818  0.248821  1
  Ti  Ti9  1  0.831607  0.169462  0.750935  1
  Ti  Ti10  1  0.668751  0.669591  0.500026  1
  Si  Si11  1  0.202043  0.127979  0.682565  1
  Si  Si12  1  0.373728  0.697578  0.933571  1
  Si  Si13  1  0.627863  0.297865  0.433054  1
  Si  Si14  1  0.696196  0.372798  0.066754  1
  Si  Si15  1  0.299929  0.631770  0.566983  1
  Si  Si16  1  0.795953  0.872824  0.184287  1
  Si  Si17  1  0.132124  0.199809  0.317196  1
  Si  Si18  1  0.870464  0.796513  0.815523  1
  Si  Si19  1  0.288279  0.964257  0.062125  1
  Si  Si20  1  0.538604  0.793905  0.313970  1
  Si  Si21  1  0.458654  0.209024  0.814339  1
  Si  Si22  1  0.790314  0.539532  0.686236  1
  Si  Si23  1  0.211888  0.457412  0.185362  1
  Si  Si24  1  0.707461  0.040395  0.564070  1
  Si  Si25  1  0.963667  0.287348  0.938134  1
  Si  Si26  1  0.041967  0.710767  0.436152  1
  Mo  Mo27  1  0.331764  0.330770  0.000324  1
  Mo  Mo28  1  0.156661  0.000384  0.872303  1
  Mo  Mo29  1  0.496231  0.667129  0.125000  1
  Mo  Mo30  1  0.504378  0.340375  0.623850  1
  Mo  Mo31  1  0.665829  0.496165  0.875162  1
  Mo  Mo32  1  0.341495  0.505934  0.375457  1
  Mo  Mo33  1  0.840332  0.994835  0.374348  1
  Mo  Mo34  1  0.001259  0.156429  0.127504  1
  Mo  Mo35  1  0.993699  0.841179  0.625353  1
