# generated using pymatgen
data_InSb(SeO3)4
_symmetry_space_group_name_H-M   'P 1'
_cell_length_a   8.38275200
_cell_length_b   8.41918121
_cell_length_c   8.38118058
_cell_angle_alpha   89.23364193
_cell_angle_beta   90.00000000
_cell_angle_gamma   90.00000000
_symmetry_Int_Tables_number   1
_chemical_formula_structural   InSb(SeO3)4
_chemical_formula_sum   'In2 Sb2 Se8 O24'
_cell_volume   591.45651951
_cell_formula_units_Z   2
loop_
 _symmetry_equiv_pos_site_id
 _symmetry_equiv_pos_as_xyz
  1  'x, y, z'
loop_
 _atom_site_type_symbol
 _atom_site_label
 _atom_site_symmetry_multiplicity
 _atom_site_fract_x
 _atom_site_fract_y
 _atom_site_fract_z
 _atom_site_occupancy
  In  In0  1  0.000000  0.500000  0.000000  1
  In  In1  1  0.500000  0.500000  0.500000  1
  Sb  Sb2  1  0.000000  0.000000  0.500000  1
  Sb  Sb3  1  0.500000  0.000000  0.000000  1
  Se  Se4  1  0.337731  0.667082  0.161649  1
  Se  Se5  1  0.837731  0.332918  0.338351  1
  Se  Se6  1  0.672900  0.835809  0.673285  1
  Se  Se7  1  0.172900  0.164191  0.826715  1
  Se  Se8  1  0.662269  0.332918  0.838351  1
  Se  Se9  1  0.162269  0.667082  0.661649  1
  Se  Se10  1  0.327100  0.164191  0.326715  1
  Se  Se11  1  0.827100  0.835809  0.173285  1
  O  O12  1  0.252278  0.545317  0.025217  1
  O  O13  1  0.752278  0.454683  0.474783  1
  O  O14  1  0.763179  0.978691  0.543480  1
  O  O15  1  0.263179  0.021309  0.956520  1
  O  O16  1  0.542541  0.975190  0.763337  1
  O  O17  1  0.473705  0.541846  0.247159  1
  O  O18  1  0.973705  0.458154  0.252841  1
  O  O19  1  0.042541  0.024810  0.736663  1
  O  O20  1  0.976983  0.234011  0.473594  1
  O  O21  1  0.544939  0.755208  0.542788  1
  O  O22  1  0.476983  0.765989  0.026406  1
  O  O23  1  0.044939  0.244792  0.957212  1
  O  O24  1  0.747722  0.454683  0.974783  1
  O  O25  1  0.247722  0.545317  0.525217  1
  O  O26  1  0.236821  0.021309  0.456520  1
  O  O27  1  0.736821  0.978691  0.043480  1
  O  O28  1  0.457459  0.024810  0.236663  1
  O  O29  1  0.526295  0.458154  0.752841  1
  O  O30  1  0.026295  0.541846  0.747159  1
  O  O31  1  0.957459  0.975190  0.263337  1
  O  O32  1  0.023017  0.765989  0.526406  1
  O  O33  1  0.455061  0.244792  0.457212  1
  O  O34  1  0.523017  0.234011  0.973594  1
  O  O35  1  0.955061  0.755208  0.042788  1
