# generated using pymatgen
data_Sr5La3(Si3Pd)4
_symmetry_space_group_name_H-M   'P 1'
_cell_length_a   8.42901400
_cell_length_b   8.41866690
_cell_length_c   8.83722100
_cell_angle_alpha   90.00000000
_cell_angle_beta   90.00000000
_cell_angle_gamma   120.04066553
_symmetry_Int_Tables_number   1
_chemical_formula_structural   Sr5La3(Si3Pd)4
_chemical_formula_sum   'Sr5 La3 Si12 Pd4'
_cell_volume   542.86062315
_cell_formula_units_Z   1
loop_
 _symmetry_equiv_pos_site_id
 _symmetry_equiv_pos_as_xyz
  1  'x, y, z'
loop_
 _atom_site_type_symbol
 _atom_site_label
 _atom_site_symmetry_multiplicity
 _atom_site_fract_x
 _atom_site_fract_y
 _atom_site_fract_z
 _atom_site_occupancy
  Sr  Sr0  1  0.499003  0.500920  0.750000  1
  Sr  Sr1  1  0.501171  0.499078  0.250000  1
  Sr  Sr2  1  0.001917  0.500920  0.750000  1
  Sr  Sr3  1  0.997907  0.499078  0.250000  1
  Sr  Sr4  1  0.499030  0.998061  0.750000  1
  La  La5  1  0.500765  0.001531  0.250000  1
  La  La6  1  0.000086  0.000172  0.750000  1
  La  La7  1  0.999994  0.999989  0.250000  1
  Si  Si8  1  0.836372  0.163354  0.002873  1
  Si  Si9  1  0.163550  0.836625  0.003954  1
  Si  Si10  1  0.326982  0.163354  0.002873  1
  Si  Si11  1  0.163550  0.836625  0.496046  1
  Si  Si12  1  0.673075  0.836625  0.003954  1
  Si  Si13  1  0.836372  0.163354  0.497127  1
  Si  Si14  1  0.836075  0.672151  0.000306  1
  Si  Si15  1  0.673075  0.836625  0.496046  1
  Si  Si16  1  0.163957  0.327916  0.001826  1
  Si  Si17  1  0.326982  0.163354  0.497127  1
  Si  Si18  1  0.163957  0.327916  0.498174  1
  Si  Si19  1  0.836075  0.672151  0.499694  1
  Pd  Pd20  1  0.665641  0.331281  0.001869  1
  Pd  Pd21  1  0.334409  0.668819  0.006643  1
  Pd  Pd22  1  0.334409  0.668819  0.493357  1
  Pd  Pd23  1  0.665641  0.331281  0.498131  1
