# generated using pymatgen
data_Bi3Sb13Te3
_symmetry_space_group_name_H-M   'P 1'
_cell_length_a   4.42227799
_cell_length_b   4.42195500
_cell_length_c   37.11924055
_cell_angle_alpha   86.63419152
_cell_angle_beta   93.35879915
_cell_angle_gamma   119.86955228
_symmetry_Int_Tables_number   1
_chemical_formula_structural   Bi3Sb13Te3
_chemical_formula_sum   'Bi3 Sb13 Te3'
_cell_volume   628.00039132
_cell_formula_units_Z   1
loop_
 _symmetry_equiv_pos_site_id
 _symmetry_equiv_pos_as_xyz
  1  'x, y, z'
loop_
 _atom_site_type_symbol
 _atom_site_label
 _atom_site_symmetry_multiplicity
 _atom_site_fract_x
 _atom_site_fract_y
 _atom_site_fract_z
 _atom_site_occupancy
  Bi  Bi0  1  0.682989  0.317206  0.050811  1
  Bi  Bi1  1  0.055678  0.944870  0.165585  1
  Bi  Bi2  1  0.736780  0.263830  0.211306  1
  Sb  Sb3  1  0.426226  0.574564  0.275648  1
  Sb  Sb4  1  0.105381  0.895382  0.315680  1
  Sb  Sb5  1  0.792645  0.207338  0.376764  1
  Sb  Sb6  1  0.471603  0.528451  0.416838  1
  Sb  Sb7  1  0.160057  0.839457  0.479684  1
  Sb  Sb8  1  0.839253  0.160259  0.519892  1
  Sb  Sb9  1  0.527359  0.471542  0.583743  1
  Sb  Sb10  1  0.206564  0.792219  0.624056  1
  Sb  Sb11  1  0.895609  0.103992  0.688057  1
  Sb  Sb12  1  0.574870  0.424681  0.728350  1
  Sb  Sb13  1  0.264735  0.734911  0.792201  1
  Sb  Sb14  1  0.944108  0.055554  0.832743  1
  Sb  Sb15  1  0.316467  0.684128  0.944513  1
  Te  Te16  1  0.999287  0.000563  0.996448  1
  Te  Te17  1  0.365496  0.635783  0.097889  1
  Te  Te18  1  0.634880  0.365268  0.899794  1
