# generated using pymatgen
data_Rb2Pr10Ru2Br17
_symmetry_space_group_name_H-M   'P 1'
_cell_length_a   9.61002855
_cell_length_b   11.24044923
_cell_length_c   11.24045700
_cell_angle_alpha   107.67447858
_cell_angle_beta   93.69626398
_cell_angle_gamma   93.69532576
_symmetry_Int_Tables_number   1
_chemical_formula_structural   Rb2Pr10Ru2Br17
_chemical_formula_sum   'Rb2 Pr10 Ru2 Br17'
_cell_volume   1149.96821873
_cell_formula_units_Z   1
loop_
 _symmetry_equiv_pos_site_id
 _symmetry_equiv_pos_as_xyz
  1  'x, y, z'
loop_
 _atom_site_type_symbol
 _atom_site_label
 _atom_site_symmetry_multiplicity
 _atom_site_fract_x
 _atom_site_fract_y
 _atom_site_fract_z
 _atom_site_occupancy
  Rb  Rb0  1  0.993040  0.798937  0.194996  1
  Rb  Rb1  1  0.993037  0.195110  0.799008  1
  Pr  Pr2  1  0.436131  0.161632  0.161631  1
  Pr  Pr3  1  0.574289  0.509152  0.204392  1
  Pr  Pr4  1  0.832987  0.288460  0.288468  1
  Pr  Pr5  1  0.308065  0.437249  0.437252  1
  Pr  Pr6  1  0.425989  0.804635  0.486901  1
  Pr  Pr7  1  0.574278  0.204351  0.509120  1
  Pr  Pr8  1  0.691674  0.569854  0.569877  1
  Pr  Pr9  1  0.173815  0.709372  0.709340  1
  Pr  Pr10  1  0.425926  0.486889  0.804646  1
  Pr  Pr11  1  0.562723  0.835629  0.835651  1
  Ru  Ru12  1  0.571893  0.358022  0.358025  1
  Ru  Ru13  1  0.430397  0.642692  0.642705  1
  Br  Br14  1  0.585296  0.685358  0.023146  1
  Br  Br15  1  0.712503  0.066792  0.066784  1
  Br  Br16  1  0.858047  0.451330  0.120057  1
  Br  Br17  1  0.133405  0.206556  0.206589  1
  Br  Br18  1  0.283377  0.606069  0.254863  1
  Br  Br19  1  0.417323  0.980113  0.311674  1
  Br  Br20  1  0.717107  0.746568  0.396295  1
  Br  Br21  1  0.858042  0.120047  0.451288  1
  Br  Br22  1  0.000024  0.500232  0.500208  1
  Br  Br23  1  0.140994  0.878729  0.545731  1
  Br  Br24  1  0.283371  0.254834  0.606024  1
  Br  Br25  1  0.585236  0.023172  0.685438  1
  Br  Br26  1  0.717040  0.396246  0.746561  1
  Br  Br27  1  0.867811  0.793092  0.793123  1
  Br  Br28  1  0.140970  0.545864  0.878768  1
  Br  Br29  1  0.288049  0.931283  0.931271  1
  Br  Br30  1  0.417165  0.311730  0.980170  1
