# generated using pymatgen
data_Tb3Dy14Lu3Pb16
_symmetry_space_group_name_H-M   'P 1'
_cell_length_a   8.18581460
_cell_length_b   8.26039663
_cell_length_c   15.63627965
_cell_angle_alpha   90.02190971
_cell_angle_beta   90.26350882
_cell_angle_gamma   90.10879912
_symmetry_Int_Tables_number   1
_chemical_formula_structural   Tb3Dy14Lu3Pb16
_chemical_formula_sum   'Tb3 Dy14 Lu3 Pb16'
_cell_volume   1057.28196638
_cell_formula_units_Z   1
loop_
 _symmetry_equiv_pos_site_id
 _symmetry_equiv_pos_as_xyz
  1  'x, y, z'
loop_
 _atom_site_type_symbol
 _atom_site_label
 _atom_site_symmetry_multiplicity
 _atom_site_fract_x
 _atom_site_fract_y
 _atom_site_fract_z
 _atom_site_occupancy
  Tb  Tb0  1  0.965434  0.823090  0.401000  1
  Tb  Tb1  1  0.534092  0.323817  0.598806  1
  Tb  Tb2  1  0.035107  0.176375  0.900465  1
  Dy  Dy3  1  0.376859  0.842252  0.878664  1
  Dy  Dy4  1  0.875898  0.657836  0.620976  1
  Dy  Dy5  1  0.624269  0.157943  0.378983  1
  Dy  Dy6  1  0.123216  0.342249  0.120718  1
  Dy  Dy7  1  0.623638  0.157830  0.120871  1
  Dy  Dy8  1  0.123174  0.342401  0.379022  1
  Dy  Dy9  1  0.376682  0.842440  0.621483  1
  Dy  Dy10  1  0.876776  0.657636  0.879168  1
  Dy  Dy11  1  0.535574  0.324009  0.900592  1
  Dy  Dy12  1  0.035393  0.176471  0.599918  1
  Dy  Dy13  1  0.465163  0.675677  0.400682  1
  Dy  Dy14  1  0.964108  0.823244  0.099474  1
  Dy  Dy15  1  0.465223  0.675304  0.099259  1
  Dy  Dy16  1  0.291463  0.004099  0.250003  1
  Lu  Lu17  1  0.208678  0.504823  0.749995  1
  Lu  Lu18  1  0.708913  0.995210  0.750125  1
  Lu  Lu19  1  0.791198  0.495096  0.249795  1
  Pb  Pb20  1  0.281730  0.032760  0.043329  1
  Pb  Pb21  1  0.781901  0.466097  0.455928  1
  Pb  Pb22  1  0.718430  0.967126  0.544292  1
  Pb  Pb23  1  0.218882  0.533839  0.956103  1
  Pb  Pb24  1  0.717847  0.966294  0.956103  1
  Pb  Pb25  1  0.216920  0.535237  0.543599  1
  Pb  Pb26  1  0.282482  0.034817  0.457347  1
  Pb  Pb27  1  0.781622  0.465997  0.043596  1
  Pb  Pb28  1  0.571287  0.625303  0.749994  1
  Pb  Pb29  1  0.071218  0.874495  0.750086  1
  Pb  Pb30  1  0.429352  0.375483  0.249990  1
  Pb  Pb31  1  0.927289  0.126632  0.249825  1
  Pb  Pb32  1  0.347949  0.156100  0.750149  1
  Pb  Pb33  1  0.847400  0.344971  0.749776  1
  Pb  Pb34  1  0.652739  0.843833  0.250126  1
  Pb  Pb35  1  0.152096  0.653214  0.249758  1
