# generated using pymatgen
data_Nd4Dy3Y(ReB6)4
_symmetry_space_group_name_H-M   'P 1'
_cell_length_a   3.73427400
_cell_length_b   9.25944000
_cell_length_c   11.71625900
_cell_angle_alpha   90.00305905
_cell_angle_beta   90.00000000
_cell_angle_gamma   90.00000000
_symmetry_Int_Tables_number   1
_chemical_formula_structural   Nd4Dy3Y(ReB6)4
_chemical_formula_sum   'Nd4 Dy3 Y1 Re4 B24'
_cell_volume   405.11643855
_cell_formula_units_Z   1
loop_
 _symmetry_equiv_pos_site_id
 _symmetry_equiv_pos_as_xyz
  1  'x, y, z'
loop_
 _atom_site_type_symbol
 _atom_site_label
 _atom_site_symmetry_multiplicity
 _atom_site_fract_x
 _atom_site_fract_y
 _atom_site_fract_z
 _atom_site_occupancy
  Nd  Nd0  1  0.000000  0.323046  0.414159  1
  Nd  Nd1  1  0.000000  0.676973  0.585866  1
  Nd  Nd2  1  0.000000  0.822990  0.085834  1
  Nd  Nd3  1  0.000000  0.177009  0.914158  1
  Dy  Dy4  1  0.000000  0.057059  0.630716  1
  Dy  Dy5  1  0.000000  0.442947  0.130667  1
  Dy  Dy6  1  0.000000  0.557048  0.869308  1
  Y  Y7  1  0.000000  0.943036  0.369450  1
  Re  Re8  1  0.000000  0.639142  0.319545  1
  Re  Re9  1  0.000000  0.360629  0.680425  1
  Re  Re10  1  0.000000  0.139480  0.180300  1
  Re  Re11  1  0.000000  0.860625  0.819563  1
  B  B12  1  0.500000  0.555034  0.430637  1
  B  B13  1  0.500000  0.444960  0.569374  1
  B  B14  1  0.500000  0.055035  0.069364  1
  B  B15  1  0.500000  0.944964  0.930624  1
  B  B16  1  0.500000  0.749467  0.416114  1
  B  B17  1  0.500000  0.250484  0.583988  1
  B  B18  1  0.500000  0.249530  0.083973  1
  B  B19  1  0.500000  0.750476  0.916033  1
  B  B20  1  0.500000  0.791206  0.266158  1
  B  B21  1  0.500000  0.208747  0.733736  1
  B  B22  1  0.500000  0.291275  0.233729  1
  B  B23  1  0.500000  0.708739  0.766267  1
  B  B24  1  0.500000  0.629992  0.186745  1
  B  B25  1  0.500000  0.369999  0.813247  1
  B  B26  1  0.500000  0.130119  0.313266  1
  B  B27  1  0.500000  0.870002  0.686783  1
  B  B28  1  0.500000  0.984328  0.212766  1
  B  B29  1  0.500000  0.015638  0.787118  1
  B  B30  1  0.500000  0.484343  0.287110  1
  B  B31  1  0.500000  0.515637  0.712889  1
  B  B32  1  0.500000  0.596638  0.026783  1
  B  B33  1  0.500000  0.403361  0.973207  1
  B  B34  1  0.500000  0.096781  0.473239  1
  B  B35  1  0.500000  0.903262  0.526859  1
