# generated using pymatgen
data_SrTb(Al5Ru)4
_symmetry_space_group_name_H-M   'P 1'
_cell_length_a   6.89514143
_cell_length_b   6.89514135
_cell_length_c   9.20804700
_cell_angle_alpha   90.00000000
_cell_angle_beta   90.00000000
_cell_angle_gamma   96.76710883
_symmetry_Int_Tables_number   1
_chemical_formula_structural   SrTb(Al5Ru)4
_chemical_formula_sum   'Sr1 Tb1 Al20 Ru4'
_cell_volume   434.72808556
_cell_formula_units_Z   1
loop_
 _symmetry_equiv_pos_site_id
 _symmetry_equiv_pos_as_xyz
  1  'x, y, z'
loop_
 _atom_site_type_symbol
 _atom_site_label
 _atom_site_symmetry_multiplicity
 _atom_site_fract_x
 _atom_site_fract_y
 _atom_site_fract_z
 _atom_site_occupancy
  Sr  Sr0  1  0.877812  0.122188  0.750000  1
  Tb  Tb1  1  0.123637  0.876363  0.250000  1
  Al  Al2  1  0.623005  0.376995  0.544514  1
  Al  Al3  1  0.376903  0.623097  0.447890  1
  Al  Al4  1  0.376903  0.623097  0.052110  1
  Al  Al5  1  0.623005  0.376995  0.955486  1
  Al  Al6  1  0.226793  0.228075  0.497464  1
  Al  Al7  1  0.771925  0.773207  0.497464  1
  Al  Al8  1  0.771925  0.773207  0.002536  1
  Al  Al9  1  0.226793  0.228075  0.002536  1
  Al  Al10  1  0.843778  0.156222  0.101177  1
  Al  Al11  1  0.162365  0.837635  0.900239  1
  Al  Al12  1  0.162365  0.837635  0.599761  1
  Al  Al13  1  0.843778  0.156222  0.398823  1
  Al  Al14  1  0.860082  0.590931  0.750000  1
  Al  Al15  1  0.139450  0.415325  0.250000  1
  Al  Al16  1  0.409069  0.139918  0.750000  1
  Al  Al17  1  0.584675  0.860550  0.250000  1
  Al  Al18  1  0.222340  0.480682  0.750000  1
  Al  Al19  1  0.780443  0.520282  0.250000  1
  Al  Al20  1  0.519318  0.777660  0.750000  1
  Al  Al21  1  0.479718  0.219557  0.250000  1
  Ru  Ru22  1  0.999613  0.502654  0.497861  1
  Ru  Ru23  1  0.999613  0.502654  0.002139  1
  Ru  Ru24  1  0.497346  0.000387  0.002139  1
  Ru  Ru25  1  0.497346  0.000387  0.497861  1
