# generated using pymatgen
data_ErLu4GaCo5
_symmetry_space_group_name_H-M   'P 1'
_cell_length_a   5.37315738
_cell_length_b   5.37315746
_cell_length_c   20.26619914
_cell_angle_alpha   90.01128723
_cell_angle_beta   89.98871347
_cell_angle_gamma   136.61369527
_symmetry_Int_Tables_number   1
_chemical_formula_structural   ErLu4GaCo5
_chemical_formula_sum   'Er2 Lu8 Ga2 Co10'
_cell_volume   401.91450395
_cell_formula_units_Z   2
loop_
 _symmetry_equiv_pos_site_id
 _symmetry_equiv_pos_as_xyz
  1  'x, y, z'
loop_
 _atom_site_type_symbol
 _atom_site_label
 _atom_site_symmetry_multiplicity
 _atom_site_fract_x
 _atom_site_fract_y
 _atom_site_fract_z
 _atom_site_occupancy
  Er  Er0  1  0.295153  0.704847  0.066669  1
  Er  Er1  1  0.993831  0.006169  0.841689  1
  Lu  Lu2  1  0.295048  0.704952  0.251013  1
  Lu  Lu3  1  0.705218  0.294782  0.748590  1
  Lu  Lu4  1  0.705212  0.294788  0.565538  1
  Lu  Lu5  1  0.007390  0.992610  0.342872  1
  Lu  Lu6  1  0.992128  0.007872  0.656623  1
  Lu  Lu7  1  0.706382  0.293618  0.933836  1
  Lu  Lu8  1  0.007702  0.992298  0.159036  1
  Lu  Lu9  1  0.294426  0.705574  0.433886  1
  Ga  Ga10  1  0.000027  0.999973  0.499633  1
  Ga  Ga11  1  0.000939  0.999061  0.000098  1
  Co  Co12  1  0.286404  0.713596  0.653674  1
  Co  Co13  1  0.585487  0.414513  0.441440  1
  Co  Co14  1  0.407150  0.592850  0.748839  1
  Co  Co15  1  0.415015  0.584985  0.941315  1
  Co  Co16  1  0.590399  0.409601  0.250968  1
  Co  Co17  1  0.414398  0.585602  0.558139  1
  Co  Co18  1  0.712860  0.287140  0.345898  1
  Co  Co19  1  0.711158  0.288842  0.155915  1
  Co  Co20  1  0.585734  0.414266  0.059059  1
  Co  Co21  1  0.287939  0.712061  0.845267  1
