# generated using pymatgen
data_Er16In3HgPt4
_symmetry_space_group_name_H-M   'P 1'
_cell_length_a   9.62632749
_cell_length_b   9.62915975
_cell_length_c   9.62632700
_cell_angle_alpha   60.00972763
_cell_angle_beta   59.99999823
_cell_angle_gamma   60.00973020
_symmetry_Int_Tables_number   1
_chemical_formula_structural   Er16In3HgPt4
_chemical_formula_sum   'Er16 In3 Hg1 Pt4'
_cell_volume   631.04231044
_cell_formula_units_Z   1
loop_
 _symmetry_equiv_pos_site_id
 _symmetry_equiv_pos_as_xyz
  1  'x, y, z'
loop_
 _atom_site_type_symbol
 _atom_site_label
 _atom_site_symmetry_multiplicity
 _atom_site_fract_x
 _atom_site_fract_y
 _atom_site_fract_z
 _atom_site_occupancy
  Er  Er0  1  0.189271  0.189212  0.810759  1
  Er  Er1  1  0.437545  0.059437  0.065473  1
  Er  Er2  1  0.437545  0.059437  0.437545  1
  Er  Er3  1  0.063602  0.435209  0.063602  1
  Er  Er4  1  0.648443  0.054671  0.648443  1
  Er  Er5  1  0.188955  0.809938  0.812150  1
  Er  Er6  1  0.065473  0.059437  0.437545  1
  Er  Er7  1  0.810759  0.189212  0.189271  1
  Er  Er8  1  0.812150  0.809938  0.188955  1
  Er  Er9  1  0.647581  0.648658  0.056181  1
  Er  Er10  1  0.647581  0.648658  0.647581  1
  Er  Er11  1  0.063602  0.435209  0.437586  1
  Er  Er12  1  0.056181  0.648658  0.647581  1
  Er  Er13  1  0.810759  0.189212  0.810759  1
  Er  Er14  1  0.437586  0.435209  0.063602  1
  Er  Er15  1  0.188955  0.809938  0.188955  1
  In  In16  1  0.416099  0.418802  0.749002  1
  In  In17  1  0.749002  0.418802  0.416099  1
  In  In18  1  0.416099  0.418802  0.416099  1
  Hg  Hg19  1  0.412827  0.761518  0.412827  1
  Pt  Pt20  1  0.856553  0.430340  0.856553  1
  Pt  Pt21  1  0.856756  0.856569  0.429919  1
  Pt  Pt22  1  0.429919  0.856569  0.856756  1
  Pt  Pt23  1  0.856756  0.856569  0.856756  1
