# generated using pymatgen
data_La10Tc2IrPt
_symmetry_space_group_name_H-M   'P 1'
_cell_length_a   9.19632510
_cell_length_b   9.21411412
_cell_length_c   7.50217234
_cell_angle_alpha   84.75478086
_cell_angle_beta   84.73835720
_cell_angle_gamma   42.90482152
_symmetry_Int_Tables_number   1
_chemical_formula_structural   La10Tc2IrPt
_chemical_formula_sum   'La10 Tc2 Ir1 Pt1'
_cell_volume   430.67684073
_cell_formula_units_Z   1
loop_
 _symmetry_equiv_pos_site_id
 _symmetry_equiv_pos_as_xyz
  1  'x, y, z'
loop_
 _atom_site_type_symbol
 _atom_site_label
 _atom_site_symmetry_multiplicity
 _atom_site_fract_x
 _atom_site_fract_y
 _atom_site_fract_z
 _atom_site_occupancy
  La  La0  1  0.016728  0.799507  0.905825  1
  La  La1  1  0.206742  0.975716  0.596022  1
  La  La2  1  0.001212  0.184678  0.080799  1
  La  La3  1  0.810257  0.001662  0.412179  1
  La  La4  1  0.352369  0.214149  0.817609  1
  La  La5  1  0.787532  0.649786  0.685387  1
  La  La6  1  0.634705  0.791926  0.175266  1
  La  La7  1  0.216705  0.362064  0.322042  1
  La  La8  1  0.573106  0.423681  0.753389  1
  La  La9  1  0.429045  0.568992  0.249204  1
  Tc  Tc10  1  0.168690  0.613867  0.571676  1
  Tc  Tc11  1  0.386407  0.831959  0.927917  1
  Ir  Ir12  1  0.595757  0.176787  0.080510  1
  Pt  Pt13  1  0.820745  0.405227  0.422175  1
