# generated using pymatgen
data_Cs3Rb2BaPaAs4
_symmetry_space_group_name_H-M   'P 1'
_cell_length_a   11.45859386
_cell_length_b   11.45859399
_cell_length_c   8.46163436
_cell_angle_alpha   88.39336553
_cell_angle_beta   88.39337329
_cell_angle_gamma   119.52754675
_symmetry_Int_Tables_number   1
_chemical_formula_structural   Cs3Rb2BaPaAs4
_chemical_formula_sum   'Cs6 Rb4 Ba2 Pa2 As8'
_cell_volume   965.20883814
_cell_formula_units_Z   2
loop_
 _symmetry_equiv_pos_site_id
 _symmetry_equiv_pos_as_xyz
  1  'x, y, z'
loop_
 _atom_site_type_symbol
 _atom_site_label
 _atom_site_symmetry_multiplicity
 _atom_site_fract_x
 _atom_site_fract_y
 _atom_site_fract_z
 _atom_site_occupancy
  Cs  Cs0  1  0.864773  0.136492  0.682342  1
  Cs  Cs1  1  0.288671  0.149590  0.726763  1
  Cs  Cs2  1  0.857337  0.722503  0.661555  1
  Cs  Cs3  1  0.136492  0.864773  0.182342  1
  Cs  Cs4  1  0.722503  0.857337  0.161555  1
  Cs  Cs5  1  0.149590  0.288671  0.226763  1
  Rb  Rb6  1  0.463606  0.531422  0.496825  1
  Rb  Rb7  1  0.061264  0.531353  0.497798  1
  Rb  Rb8  1  0.531422  0.463606  0.996825  1
  Rb  Rb9  1  0.531353  0.061264  0.997798  1
  Ba  Ba10  1  0.456736  0.926709  0.486653  1
  Ba  Ba11  1  0.926709  0.456736  0.986653  1
  Pa  Pa12  1  0.668526  0.331305  0.394766  1
  Pa  Pa13  1  0.331305  0.668526  0.894766  1
  As  As14  1  0.693906  0.344935  0.718225  1
  As  As15  1  0.344935  0.693906  0.218225  1
  As  As16  1  0.793738  0.198775  0.274629  1
  As  As17  1  0.404311  0.187007  0.319364  1
  As  As18  1  0.801795  0.585250  0.255369  1
  As  As19  1  0.198775  0.793738  0.774629  1
  As  As20  1  0.585250  0.801795  0.755369  1
  As  As21  1  0.187007  0.404311  0.819364  1
