# generated using pymatgen
data_Sr4TbSc7Se16
_symmetry_space_group_name_H-M   'P 1'
_cell_length_a   4.00105400
_cell_length_b   12.36759225
_cell_length_c   14.45182288
_cell_angle_alpha   90.17455055
_cell_angle_beta   90.00000000
_cell_angle_gamma   90.00000000
_symmetry_Int_Tables_number   1
_chemical_formula_structural   Sr4TbSc7Se16
_chemical_formula_sum   'Sr4 Tb1 Sc7 Se16'
_cell_volume   715.12207799
_cell_formula_units_Z   1
loop_
 _symmetry_equiv_pos_site_id
 _symmetry_equiv_pos_as_xyz
  1  'x, y, z'
loop_
 _atom_site_type_symbol
 _atom_site_label
 _atom_site_symmetry_multiplicity
 _atom_site_fract_x
 _atom_site_fract_y
 _atom_site_fract_z
 _atom_site_occupancy
  Sr  Sr0  1  0.750000  0.738759  0.169199  1
  Sr  Sr1  1  0.750000  0.237884  0.335849  1
  Sr  Sr2  1  0.250000  0.257640  0.826626  1
  Sr  Sr3  1  0.250000  0.762070  0.667598  1
  Tb  Tb4  1  0.250000  0.414586  0.095396  1
  Sc  Sc5  1  0.750000  0.054076  0.111488  1
  Sc  Sc6  1  0.750000  0.559148  0.393141  1
  Sc  Sc7  1  0.250000  0.942914  0.889208  1
  Sc  Sc8  1  0.250000  0.443703  0.611385  1
  Sc  Sc9  1  0.750000  0.081779  0.597020  1
  Sc  Sc10  1  0.750000  0.585758  0.900051  1
  Sc  Sc11  1  0.250000  0.916823  0.403296  1
  Se  Se12  1  0.750000  0.297629  0.658075  1
  Se  Se13  1  0.750000  0.799508  0.838156  1
  Se  Se14  1  0.250000  0.703027  0.341960  1
  Se  Se15  1  0.250000  0.194759  0.165878  1
  Se  Se16  1  0.750000  0.375851  0.959079  1
  Se  Se17  1  0.750000  0.877193  0.529234  1
  Se  Se18  1  0.250000  0.630116  0.024415  1
  Se  Se19  1  0.250000  0.122271  0.471953  1
  Se  Se20  1  0.750000  0.473358  0.222061  1
  Se  Se21  1  0.750000  0.967374  0.285788  1
  Se  Se22  1  0.250000  0.533552  0.783344  1
  Se  Se23  1  0.250000  0.030409  0.714812  1
  Se  Se24  1  0.750000  0.087658  0.926879  1
  Se  Se25  1  0.750000  0.589157  0.576202  1
  Se  Se26  1  0.250000  0.910691  0.073794  1
  Se  Se27  1  0.250000  0.412308  0.428114  1
