# generated using pymatgen
data_Li8Dy8TlBi2Pb5
_symmetry_space_group_name_H-M   'P 1'
_cell_length_a   9.53365387
_cell_length_b   9.52839737
_cell_length_c   7.32305205
_cell_angle_alpha   90.00012503
_cell_angle_beta   90.07477128
_cell_angle_gamma   119.97851237
_symmetry_Int_Tables_number   1
_chemical_formula_structural   Li8Dy8TlBi2Pb5
_chemical_formula_sum   'Li8 Dy8 Tl1 Bi2 Pb5'
_cell_volume   576.22950808
_cell_formula_units_Z   1
loop_
 _symmetry_equiv_pos_site_id
 _symmetry_equiv_pos_as_xyz
  1  'x, y, z'
loop_
 _atom_site_type_symbol
 _atom_site_label
 _atom_site_symmetry_multiplicity
 _atom_site_fract_x
 _atom_site_fract_y
 _atom_site_fract_z
 _atom_site_occupancy
  Li  Li0  1  0.167354  0.334037  0.283517  1
  Li  Li1  1  0.167388  0.833352  0.283539  1
  Li  Li2  1  0.665191  0.832574  0.285776  1
  Li  Li3  1  0.829765  0.663018  0.785575  1
  Li  Li4  1  0.829775  0.166781  0.785619  1
  Li  Li5  1  0.338817  0.169410  0.789910  1
  Li  Li6  1  0.335992  0.667999  0.671947  1
  Li  Li7  1  0.666283  0.333119  0.176028  1
  Dy  Dy8  1  0.517072  0.029074  0.495383  1
  Dy  Dy9  1  0.517088  0.487989  0.495425  1
  Dy  Dy10  1  0.970503  0.485228  0.493339  1
  Dy  Dy11  1  0.492794  0.980102  0.995667  1
  Dy  Dy12  1  0.492818  0.512737  0.995720  1
  Dy  Dy13  1  0.016367  0.508199  0.997307  1
  Dy  Dy14  1  0.996461  0.998228  0.496437  1
  Dy  Dy15  1  0.996830  0.998410  0.004158  1
  Tl  Tl16  1  0.667168  0.333618  0.758992  1
  Bi  Bi17  1  0.166369  0.332994  0.733248  1
  Bi  Bi18  1  0.166351  0.833367  0.733262  1
  Pb  Pb19  1  0.667033  0.833526  0.730708  1
  Pb  Pb20  1  0.833836  0.666813  0.231162  1
  Pb  Pb21  1  0.833865  0.167002  0.231391  1
  Pb  Pb22  1  0.332951  0.166518  0.230738  1
  Pb  Pb23  1  0.331926  0.665904  0.257144  1
