# generated using pymatgen
data_La3(ReN3)2
_symmetry_space_group_name_H-M   'P 1'
_cell_length_a   3.96873297
_cell_length_b   3.96873265
_cell_length_c   10.18968300
_cell_angle_alpha   101.22969749
_cell_angle_beta   101.22969657
_cell_angle_gamma   89.99999869
_symmetry_Int_Tables_number   1
_chemical_formula_structural   La3(ReN3)2
_chemical_formula_sum   'La3 Re2 N6'
_cell_volume   154.28927917
_cell_formula_units_Z   1
loop_
 _symmetry_equiv_pos_site_id
 _symmetry_equiv_pos_as_xyz
  1  'x, y, z'
loop_
 _atom_site_type_symbol
 _atom_site_label
 _atom_site_symmetry_multiplicity
 _atom_site_fract_x
 _atom_site_fract_y
 _atom_site_fract_z
 _atom_site_occupancy
  La  La0  1  0.000000  0.000000  0.000000  1
  La  La1  1  0.183745  0.183745  0.367489  1
  La  La2  1  0.816255  0.816255  0.632511  1
  Re  Re3  1  0.593409  0.593409  0.186818  1
  Re  Re4  1  0.406591  0.406591  0.813182  1
  N  N5  1  0.587590  0.087590  0.175180  1
  N  N6  1  0.087590  0.587590  0.175180  1
  N  N7  1  0.696907  0.696907  0.393813  1
  N  N8  1  0.303093  0.303093  0.606187  1
  N  N9  1  0.912411  0.412411  0.824821  1
  N  N10  1  0.412411  0.912411  0.824821  1
