# generated using pymatgen
data_Y3Ho(ScPt)4
_symmetry_space_group_name_H-M   'P 1'
_cell_length_a   4.63930700
_cell_length_b   6.99981369
_cell_length_c   8.38341900
_cell_angle_alpha   90.10473135
_cell_angle_beta   90.00000000
_cell_angle_gamma   90.00000000
_symmetry_Int_Tables_number   1
_chemical_formula_structural   Y3Ho(ScPt)4
_chemical_formula_sum   'Y3 Ho1 Sc4 Pt4'
_cell_volume   272.24508029
_cell_formula_units_Z   1
loop_
 _symmetry_equiv_pos_site_id
 _symmetry_equiv_pos_as_xyz
  1  'x, y, z'
loop_
 _atom_site_type_symbol
 _atom_site_label
 _atom_site_symmetry_multiplicity
 _atom_site_fract_x
 _atom_site_fract_y
 _atom_site_fract_z
 _atom_site_occupancy
  Y  Y0  1  0.250000  0.017903  0.323820  1
  Y  Y1  1  0.250000  0.517187  0.176347  1
  Y  Y2  1  0.750000  0.982677  0.676964  1
  Ho  Ho3  1  0.750000  0.481636  0.824340  1
  Sc  Sc4  1  0.250000  0.642150  0.573816  1
  Sc  Sc5  1  0.250000  0.141232  0.926913  1
  Sc  Sc6  1  0.750000  0.359256  0.427587  1
  Sc  Sc7  1  0.750000  0.857123  0.072559  1
  Pt  Pt8  1  0.250000  0.259307  0.599508  1
  Pt  Pt9  1  0.250000  0.755819  0.900479  1
  Pt  Pt10  1  0.750000  0.743132  0.401198  1
  Pt  Pt11  1  0.750000  0.242580  0.096469  1
