# generated using pymatgen
data_Pr3Al12IrOsRh2
_symmetry_space_group_name_H-M   'P 1'
_cell_length_a   8.92100600
_cell_length_b   8.94364578
_cell_length_c   9.68342522
_cell_angle_alpha   90.04973867
_cell_angle_beta   90.00000000
_cell_angle_gamma   119.91629784
_symmetry_Int_Tables_number   1
_chemical_formula_structural   Pr3Al12IrOsRh2
_chemical_formula_sum   'Pr6 Al24 Ir2 Os2 Rh4'
_cell_volume   669.65870970
_cell_formula_units_Z   2
loop_
 _symmetry_equiv_pos_site_id
 _symmetry_equiv_pos_as_xyz
  1  'x, y, z'
loop_
 _atom_site_type_symbol
 _atom_site_label
 _atom_site_symmetry_multiplicity
 _atom_site_fract_x
 _atom_site_fract_y
 _atom_site_fract_z
 _atom_site_occupancy
  Pr  Pr0  1  0.190642  0.381285  0.250229  1
  Pr  Pr1  1  0.809358  0.618715  0.749771  1
  Pr  Pr2  1  0.620080  0.809523  0.250755  1
  Pr  Pr3  1  0.379920  0.190477  0.749245  1
  Pr  Pr4  1  0.189443  0.809523  0.250755  1
  Pr  Pr5  1  0.810557  0.190477  0.749245  1
  Al  Al6  1  0.333861  0.667723  0.020482  1
  Al  Al7  1  0.666139  0.332277  0.979518  1
  Al  Al8  1  0.666319  0.332637  0.520780  1
  Al  Al9  1  0.333681  0.667363  0.479220  1
  Al  Al10  1  0.163987  0.327973  0.573402  1
  Al  Al11  1  0.836013  0.672027  0.426598  1
  Al  Al12  1  0.672584  0.835422  0.575316  1
  Al  Al13  1  0.836493  0.672987  0.075196  1
  Al  Al14  1  0.327416  0.164578  0.424684  1
  Al  Al15  1  0.163507  0.327013  0.924804  1
  Al  Al16  1  0.162839  0.835422  0.575316  1
  Al  Al17  1  0.327367  0.164011  0.075706  1
  Al  Al18  1  0.837161  0.164578  0.424684  1
  Al  Al19  1  0.672633  0.835989  0.924294  1
  Al  Al20  1  0.836644  0.164011  0.075706  1
  Al  Al21  1  0.163356  0.835989  0.924294  1
  Al  Al22  1  0.562876  0.125753  0.250151  1
  Al  Al23  1  0.437124  0.874247  0.749849  1
  Al  Al24  1  0.873755  0.437144  0.249866  1
  Al  Al25  1  0.126245  0.562856  0.750134  1
  Al  Al26  1  0.563388  0.437144  0.249866  1
  Al  Al27  1  0.436612  0.562856  0.750134  1
  Al  Al28  1  0.000530  0.001059  0.250186  1
  Al  Al29  1  0.999470  0.998941  0.749814  1
  Ir  Ir30  1  0.000000  0.500000  0.500000  1
  Ir  Ir31  1  0.500000  0.500000  0.500000  1
  Os  Os32  1  0.000000  0.000000  0.000000  1
  Os  Os33  1  0.000000  0.000000  0.500000  1
  Rh  Rh34  1  0.500000  0.000000  0.000000  1
  Rh  Rh35  1  0.000000  0.500000  0.000000  1
  Rh  Rh36  1  0.500000  0.000000  0.500000  1
  Rh  Rh37  1  0.500000  0.500000  0.000000  1
