# generated using pymatgen
data_Ho5Al15(Si5Os4)2
_symmetry_space_group_name_H-M   'P 1'
_cell_length_a   8.65278707
_cell_length_b   8.68041374
_cell_length_c   9.27744500
_cell_angle_alpha   90.00000000
_cell_angle_beta   90.00000000
_cell_angle_gamma   119.84474862
_symmetry_Int_Tables_number   1
_chemical_formula_structural   Ho5Al15(Si5Os4)2
_chemical_formula_sum   'Ho5 Al15 Si10 Os8'
_cell_volume   604.41155174
_cell_formula_units_Z   1
loop_
 _symmetry_equiv_pos_site_id
 _symmetry_equiv_pos_as_xyz
  1  'x, y, z'
loop_
 _atom_site_type_symbol
 _atom_site_label
 _atom_site_symmetry_multiplicity
 _atom_site_fract_x
 _atom_site_fract_y
 _atom_site_fract_z
 _atom_site_occupancy
  Ho  Ho0  1  0.803528  0.608771  0.750000  1
  Ho  Ho1  1  0.638517  0.818061  0.250000  1
  Ho  Ho2  1  0.378915  0.186950  0.750000  1
  Ho  Ho3  1  0.177856  0.816583  0.250000  1
  Ho  Ho4  1  0.803278  0.189486  0.750000  1
  Al  Al5  1  0.277944  0.442189  0.250000  1
  Al  Al6  1  0.158168  0.320701  0.567993  1
  Al  Al7  1  0.829986  0.661611  0.419943  1
  Al  Al8  1  0.664151  0.826967  0.577978  1
  Al  Al9  1  0.829986  0.661611  0.080057  1
  Al  Al10  1  0.323801  0.161752  0.417575  1
  Al  Al11  1  0.158168  0.320701  0.932007  1
  Al  Al12  1  0.159439  0.831688  0.579509  1
  Al  Al13  1  0.323801  0.161752  0.082425  1
  Al  Al14  1  0.835427  0.166640  0.418548  1
  Al  Al15  1  0.664151  0.826967  0.922022  1
  Al  Al16  1  0.835427  0.166640  0.081452  1
  Al  Al17  1  0.159439  0.831688  0.920491  1
  Al  Al18  1  0.426243  0.555820  0.750000  1
  Al  Al19  1  0.995876  0.996609  0.750000  1
  Si  Si20  1  0.328016  0.662409  0.047344  1
  Si  Si21  1  0.660221  0.328109  0.957121  1
  Si  Si22  1  0.660221  0.328109  0.542879  1
  Si  Si23  1  0.328016  0.662409  0.452656  1
  Si  Si24  1  0.556467  0.118854  0.250000  1
  Si  Si25  1  0.431475  0.870496  0.750000  1
  Si  Si26  1  0.894791  0.437519  0.250000  1
  Si  Si27  1  0.122401  0.558563  0.750000  1
  Si  Si28  1  0.578278  0.434011  0.250000  1
  Si  Si29  1  0.054259  0.109306  0.250000  1
  Os  Os30  1  0.495926  0.996056  0.001297  1
  Os  Os31  1  0.994115  0.496557  0.996821  1
  Os  Os32  1  0.495926  0.996056  0.498703  1
  Os  Os33  1  0.492841  0.490988  0.009768  1
  Os  Os34  1  0.994115  0.496557  0.503179  1
  Os  Os35  1  0.492841  0.490988  0.490232  1
  Os  Os36  1  0.987995  0.984909  0.010297  1
  Os  Os37  1  0.987995  0.984909  0.489703  1
