# generated using pymatgen
data_Tb2Ho5Er13Sn16
_symmetry_space_group_name_H-M   'P 1'
_cell_length_a   8.00185901
_cell_length_b   8.13429793
_cell_length_c   15.37758600
_cell_angle_alpha   90.01556664
_cell_angle_beta   90.09925625
_cell_angle_gamma   89.95387190
_symmetry_Int_Tables_number   1
_chemical_formula_structural   Tb2Ho5Er13Sn16
_chemical_formula_sum   'Tb2 Ho5 Er13 Sn16'
_cell_volume   1000.91760081
_cell_formula_units_Z   1
loop_
 _symmetry_equiv_pos_site_id
 _symmetry_equiv_pos_as_xyz
  1  'x, y, z'
loop_
 _atom_site_type_symbol
 _atom_site_label
 _atom_site_symmetry_multiplicity
 _atom_site_fract_x
 _atom_site_fract_y
 _atom_site_fract_z
 _atom_site_occupancy
  Tb  Tb0  1  0.020329  0.179254  0.597078  1
  Tb  Tb1  1  0.479816  0.679050  0.403228  1
  Ho  Ho2  1  0.979348  0.820917  0.096883  1
  Ho  Ho3  1  0.479216  0.678786  0.096969  1
  Ho  Ho4  1  0.979836  0.820942  0.403341  1
  Ho  Ho5  1  0.519980  0.321282  0.596798  1
  Ho  Ho6  1  0.020632  0.179225  0.902948  1
  Er  Er7  1  0.367053  0.837468  0.877353  1
  Er  Er8  1  0.866186  0.662536  0.622739  1
  Er  Er9  1  0.633278  0.162587  0.377181  1
  Er  Er10  1  0.132704  0.337777  0.122496  1
  Er  Er11  1  0.632598  0.162355  0.122636  1
  Er  Er12  1  0.133417  0.337406  0.377215  1
  Er  Er13  1  0.366727  0.837563  0.622988  1
  Er  Er14  1  0.867313  0.662456  0.877465  1
  Er  Er15  1  0.521638  0.321351  0.902692  1
  Er  Er16  1  0.198362  0.503456  0.750162  1
  Er  Er17  1  0.698168  0.996601  0.750242  1
  Er  Er18  1  0.801971  0.496156  0.249761  1
  Er  Er19  1  0.301661  0.003539  0.249995  1
  Sn  Sn20  1  0.293189  0.037629  0.041773  1
  Sn  Sn21  1  0.794560  0.461282  0.458327  1
  Sn  Sn22  1  0.705393  0.961760  0.541134  1
  Sn  Sn23  1  0.207487  0.537007  0.958476  1
  Sn  Sn24  1  0.706405  0.962587  0.958654  1
  Sn  Sn25  1  0.205517  0.538488  0.541277  1
  Sn  Sn26  1  0.294226  0.038140  0.458203  1
  Sn  Sn27  1  0.792888  0.461952  0.041490  1
  Sn  Sn28  1  0.564257  0.618797  0.750200  1
  Sn  Sn29  1  0.064163  0.880857  0.750067  1
  Sn  Sn30  1  0.435619  0.380393  0.249796  1
  Sn  Sn31  1  0.935918  0.119130  0.249795  1
  Sn  Sn32  1  0.331323  0.149147  0.750467  1
  Sn  Sn33  1  0.829783  0.351758  0.750439  1
  Sn  Sn34  1  0.669958  0.851460  0.249719  1
  Sn  Sn35  1  0.169082  0.648908  0.250014  1
