# generated using pymatgen
data_SrNp(SeO4)2
_symmetry_space_group_name_H-M   'P 1'
_cell_length_a   5.68720812
_cell_length_b   6.72191282
_cell_length_c   11.23213500
_cell_angle_alpha   104.52694626
_cell_angle_beta   94.30193346
_cell_angle_gamma   109.39425356
_symmetry_Int_Tables_number   1
_chemical_formula_structural   SrNp(SeO4)2
_chemical_formula_sum   'Sr2 Np2 Se4 O16'
_cell_volume   386.14060279
_cell_formula_units_Z   2
loop_
 _symmetry_equiv_pos_site_id
 _symmetry_equiv_pos_as_xyz
  1  'x, y, z'
loop_
 _atom_site_type_symbol
 _atom_site_label
 _atom_site_symmetry_multiplicity
 _atom_site_fract_x
 _atom_site_fract_y
 _atom_site_fract_z
 _atom_site_occupancy
  Sr  Sr0  1  0.663929  0.254312  0.440039  1
  Sr  Sr1  1  0.336071  0.745687  0.559961  1
  Np  Np2  1  0.168785  0.262371  0.164400  1
  Np  Np3  1  0.831215  0.737629  0.835601  1
  Se  Se4  1  0.306346  0.804066  0.121614  1
  Se  Se5  1  0.732648  0.698370  0.337650  1
  Se  Se6  1  0.267350  0.301629  0.662351  1
  Se  Se7  1  0.693655  0.195935  0.878386  1
  O  O8  1  0.102070  0.867285  0.026647  1
  O  O9  1  0.440610  0.345205  0.090843  1
  O  O10  1  0.105853  0.577344  0.156270  1
  O  O11  1  0.900062  0.180730  0.242765  1
  O  O12  1  0.321468  0.016302  0.249206  1
  O  O13  1  0.439435  0.482998  0.343392  1
  O  O14  1  0.930006  0.621463  0.419784  1
  O  O15  1  0.687037  0.902470  0.445142  1
  O  O16  1  0.312962  0.097529  0.554859  1
  O  O17  1  0.069993  0.378537  0.580215  1
  O  O18  1  0.560566  0.517003  0.656609  1
  O  O19  1  0.678532  0.983699  0.750794  1
  O  O20  1  0.099938  0.819270  0.757235  1
  O  O21  1  0.894148  0.422657  0.843731  1
  O  O22  1  0.559390  0.654794  0.909157  1
  O  O23  1  0.897930  0.132716  0.973353  1
