# generated using pymatgen
data_Ba4AgSn8Au7
_symmetry_space_group_name_H-M   'P 1'
_cell_length_a   4.88340600
_cell_length_b   4.88340600
_cell_length_c   22.83271300
_cell_angle_alpha   90.00000000
_cell_angle_beta   90.00000000
_cell_angle_gamma   90.00000000
_symmetry_Int_Tables_number   1
_chemical_formula_structural   Ba4AgSn8Au7
_chemical_formula_sum   'Ba4 Ag1 Sn8 Au7'
_cell_volume   544.50664318
_cell_formula_units_Z   1
loop_
 _symmetry_equiv_pos_site_id
 _symmetry_equiv_pos_as_xyz
  1  'x, y, z'
loop_
 _atom_site_type_symbol
 _atom_site_label
 _atom_site_symmetry_multiplicity
 _atom_site_fract_x
 _atom_site_fract_y
 _atom_site_fract_z
 _atom_site_occupancy
  Ba  Ba0  1  0.500000  0.000000  0.876627  1
  Ba  Ba1  1  0.500000  0.000000  0.380218  1
  Ba  Ba2  1  0.000000  0.500000  0.123373  1
  Ba  Ba3  1  0.000000  0.500000  0.619782  1
  Ag  Ag4  1  0.500000  0.500000  0.000000  1
  Sn  Sn5  1  0.500000  0.000000  0.064364  1
  Sn  Sn6  1  0.500000  0.000000  0.562112  1
  Sn  Sn7  1  0.000000  0.500000  0.935636  1
  Sn  Sn8  1  0.000000  0.500000  0.437888  1
  Sn  Sn9  1  0.500000  0.500000  0.748149  1
  Sn  Sn10  1  0.500000  0.500000  0.251851  1
  Sn  Sn11  1  0.000000  0.000000  0.748364  1
  Sn  Sn12  1  0.000000  0.000000  0.251636  1
  Au  Au13  1  0.500000  0.000000  0.185575  1
  Au  Au14  1  0.500000  0.000000  0.682766  1
  Au  Au15  1  0.000000  0.500000  0.814425  1
  Au  Au16  1  0.000000  0.500000  0.317234  1
  Au  Au17  1  0.500000  0.500000  0.500000  1
  Au  Au18  1  0.000000  0.000000  0.000000  1
  Au  Au19  1  0.000000  0.000000  0.500000  1
