# generated using pymatgen
data_LuPaAl3Re
_symmetry_space_group_name_H-M   'P 1'
_cell_length_a   5.37357905
_cell_length_b   5.37357959
_cell_length_c   9.07937304
_cell_angle_alpha   89.99830414
_cell_angle_beta   90.00169481
_cell_angle_gamma   119.99437754
_symmetry_Int_Tables_number   1
_chemical_formula_structural   LuPaAl3Re
_chemical_formula_sum   'Lu2 Pa2 Al6 Re2'
_cell_volume   227.05884395
_cell_formula_units_Z   2
loop_
 _symmetry_equiv_pos_site_id
 _symmetry_equiv_pos_as_xyz
  1  'x, y, z'
loop_
 _atom_site_type_symbol
 _atom_site_label
 _atom_site_symmetry_multiplicity
 _atom_site_fract_x
 _atom_site_fract_y
 _atom_site_fract_z
 _atom_site_occupancy
  Lu  Lu0  1  0.333332  0.666668  0.061218  1
  Lu  Lu1  1  0.666668  0.333332  0.938782  1
  Pa  Pa2  1  0.666605  0.333395  0.533507  1
  Pa  Pa3  1  0.333395  0.666605  0.466493  1
  Al  Al4  1  0.164422  0.328887  0.755925  1
  Al  Al5  1  0.164435  0.835565  0.755913  1
  Al  Al6  1  0.671113  0.835578  0.755925  1
  Al  Al7  1  0.835578  0.671113  0.244075  1
  Al  Al8  1  0.835565  0.164435  0.244087  1
  Al  Al9  1  0.328887  0.164422  0.244075  1
  Re  Re10  1  0.000000  0.000000  0.500000  1
  Re  Re11  1  0.000000  0.000000  0.000000  1
