# generated using pymatgen
data_YbY6Co6Sn22Hg
_symmetry_space_group_name_H-M   'P 1'
_cell_length_a   9.68673900
_cell_length_b   9.68673970
_cell_length_c   10.02736900
_cell_angle_alpha   90.00000000
_cell_angle_beta   90.00000000
_cell_angle_gamma   120.00000784
_symmetry_Int_Tables_number   1
_chemical_formula_structural   YbY6Co6Sn22Hg
_chemical_formula_sum   'Yb1 Y6 Co6 Sn22 Hg1'
_cell_volume   814.84090482
_cell_formula_units_Z   1
loop_
 _symmetry_equiv_pos_site_id
 _symmetry_equiv_pos_as_xyz
  1  'x, y, z'
loop_
 _atom_site_type_symbol
 _atom_site_label
 _atom_site_symmetry_multiplicity
 _atom_site_fract_x
 _atom_site_fract_y
 _atom_site_fract_z
 _atom_site_occupancy
  Yb  Yb0  1  0.000000  0.000000  0.000000  1
  Y  Y1  1  0.043336  0.521668  0.307061  1
  Y  Y2  1  0.478332  0.956664  0.307061  1
  Y  Y3  1  0.478332  0.521668  0.307061  1
  Y  Y4  1  0.956664  0.478332  0.692939  1
  Y  Y5  1  0.521668  0.043336  0.692939  1
  Y  Y6  1  0.521668  0.478332  0.692939  1
  Co  Co7  1  0.168481  0.831519  0.802222  1
  Co  Co8  1  0.663040  0.831519  0.802222  1
  Co  Co9  1  0.168481  0.336960  0.802222  1
  Co  Co10  1  0.831519  0.168481  0.197778  1
  Co  Co11  1  0.336960  0.168481  0.197778  1
  Co  Co12  1  0.831519  0.663040  0.197778  1
  Sn  Sn13  1  0.116040  0.883960  0.269220  1
  Sn  Sn14  1  0.767919  0.883960  0.269220  1
  Sn  Sn15  1  0.116040  0.232081  0.269220  1
  Sn  Sn16  1  0.883960  0.116040  0.730780  1
  Sn  Sn17  1  0.232081  0.116040  0.730780  1
  Sn  Sn18  1  0.883960  0.767919  0.730780  1
  Sn  Sn19  1  0.345325  0.000000  0.000000  1
  Sn  Sn20  1  0.654675  0.654675  0.000000  1
  Sn  Sn21  1  0.000000  0.345325  0.000000  1
  Sn  Sn22  1  0.345325  0.345325  0.000000  1
  Sn  Sn23  1  0.000000  0.654675  0.000000  1
  Sn  Sn24  1  0.654675  0.000000  0.000000  1
  Sn  Sn25  1  0.782610  0.565220  0.452041  1
  Sn  Sn26  1  0.782610  0.217390  0.452041  1
  Sn  Sn27  1  0.434780  0.217390  0.452041  1
  Sn  Sn28  1  0.217390  0.434780  0.547959  1
  Sn  Sn29  1  0.217390  0.782610  0.547959  1
  Sn  Sn30  1  0.565220  0.782610  0.547959  1
  Sn  Sn31  1  0.666667  0.333333  0.183096  1
  Sn  Sn32  1  0.333333  0.666667  0.816904  1
  Sn  Sn33  1  0.666667  0.333333  0.883790  1
  Sn  Sn34  1  0.333333  0.666667  0.116210  1
  Hg  Hg35  1  0.000000  0.000000  0.500000  1
