# generated using pymatgen
data_Hf3MnGa3Cu2
_symmetry_space_group_name_H-M   'P 1'
_cell_length_a   7.15163700
_cell_length_b   7.15163697
_cell_length_c   3.27566100
_cell_angle_alpha   90.00000000
_cell_angle_beta   90.00000000
_cell_angle_gamma   120.00000475
_symmetry_Int_Tables_number   1
_chemical_formula_structural   Hf3MnGa3Cu2
_chemical_formula_sum   'Hf3 Mn1 Ga3 Cu2'
_cell_volume   145.09100350
_cell_formula_units_Z   1
loop_
 _symmetry_equiv_pos_site_id
 _symmetry_equiv_pos_as_xyz
  1  'x, y, z'
loop_
 _atom_site_type_symbol
 _atom_site_label
 _atom_site_symmetry_multiplicity
 _atom_site_fract_x
 _atom_site_fract_y
 _atom_site_fract_z
 _atom_site_occupancy
  Hf  Hf0  1  0.405568  0.382850  0.500000  1
  Hf  Hf1  1  0.617150  0.022719  0.500000  1
  Hf  Hf2  1  0.977281  0.594432  0.500000  1
  Mn  Mn3  1  0.666667  0.333333  0.000000  1
  Ga  Ga4  1  0.723781  0.729900  0.000000  1
  Ga  Ga5  1  0.270100  0.993881  0.000000  1
  Ga  Ga6  1  0.006119  0.276219  0.000000  1
  Cu  Cu7  1  0.333333  0.666667  0.000000  1
  Cu  Cu8  1  0.000000  0.000000  0.500000  1
