# generated using pymatgen
data_PrPu7(BeSi3)4
_symmetry_space_group_name_H-M   'P 1'
_cell_length_a   7.89510900
_cell_length_b   7.89510792
_cell_length_c   8.32107800
_cell_angle_alpha   90.00000000
_cell_angle_beta   90.00000000
_cell_angle_gamma   120.00000034
_symmetry_Int_Tables_number   1
_chemical_formula_structural   PrPu7(BeSi3)4
_chemical_formula_sum   'Pr1 Pu7 Be4 Si12'
_cell_volume   449.18621963
_cell_formula_units_Z   1
loop_
 _symmetry_equiv_pos_site_id
 _symmetry_equiv_pos_as_xyz
  1  'x, y, z'
loop_
 _atom_site_type_symbol
 _atom_site_label
 _atom_site_symmetry_multiplicity
 _atom_site_fract_x
 _atom_site_fract_y
 _atom_site_fract_z
 _atom_site_occupancy
  Pr  Pr0  1  0.000000  0.000000  0.250000  1
  Pu  Pu1  1  0.499773  0.500227  0.750000  1
  Pu  Pu2  1  0.500222  0.499778  0.250000  1
  Pu  Pu3  1  0.000454  0.500227  0.750000  1
  Pu  Pu4  1  0.999557  0.499778  0.250000  1
  Pu  Pu5  1  0.499773  0.999546  0.750000  1
  Pu  Pu6  1  0.500222  0.000443  0.250000  1
  Pu  Pu7  1  0.000000  0.000000  0.750000  1
  Be  Be8  1  0.666667  0.333333  0.998691  1
  Be  Be9  1  0.333333  0.666667  0.001873  1
  Be  Be10  1  0.333333  0.666667  0.498127  1
  Be  Be11  1  0.666667  0.333333  0.501309  1
  Si  Si12  1  0.827078  0.172922  0.996229  1
  Si  Si13  1  0.172883  0.827117  0.996197  1
  Si  Si14  1  0.345843  0.172922  0.996229  1
  Si  Si15  1  0.172883  0.827117  0.503803  1
  Si  Si16  1  0.654236  0.827117  0.996197  1
  Si  Si17  1  0.827078  0.172922  0.503771  1
  Si  Si18  1  0.827078  0.654157  0.996229  1
  Si  Si19  1  0.654236  0.827117  0.503803  1
  Si  Si20  1  0.172883  0.345764  0.996197  1
  Si  Si21  1  0.345843  0.172922  0.503771  1
  Si  Si22  1  0.172883  0.345764  0.503803  1
  Si  Si23  1  0.827078  0.654157  0.503771  1
