# generated using pymatgen
data_Er5TiRuO12
_symmetry_space_group_name_H-M   'P 1'
_cell_length_a   6.78939653
_cell_length_b   6.78939652
_cell_length_c   7.22436398
_cell_angle_alpha   74.49707135
_cell_angle_beta   74.49707233
_cell_angle_gamma   50.72401332
_symmetry_Int_Tables_number   1
_chemical_formula_structural   Er5TiRuO12
_chemical_formula_sum   'Er5 Ti1 Ru1 O12'
_cell_volume   246.25193143
_cell_formula_units_Z   1
loop_
 _symmetry_equiv_pos_site_id
 _symmetry_equiv_pos_as_xyz
  1  'x, y, z'
loop_
 _atom_site_type_symbol
 _atom_site_label
 _atom_site_symmetry_multiplicity
 _atom_site_fract_x
 _atom_site_fract_y
 _atom_site_fract_z
 _atom_site_occupancy
  Er  Er0  1  0.303590  0.299638  0.361101  1
  Er  Er1  1  0.700362  0.696410  0.638899  1
  Er  Er2  1  0.688338  0.696552  0.169157  1
  Er  Er3  1  0.303448  0.311662  0.830843  1
  Er  Er4  1  0.001149  0.998851  0.500000  1
  Ti  Ti5  1  0.765746  0.234254  0.000000  1
  Ru  Ru6  1  0.250595  0.749405  0.000000  1
  O  O7  1  0.096595  0.597512  0.573796  1
  O  O8  1  0.001363  0.997683  0.187092  1
  O  O9  1  0.402488  0.903405  0.426204  1
  O  O10  1  0.497962  0.502371  0.189997  1
  O  O11  1  0.095240  0.573463  0.084403  1
  O  O12  1  0.903127  0.402949  0.424699  1
  O  O13  1  0.002317  0.998637  0.812908  1
  O  O14  1  0.597051  0.096872  0.575301  1
  O  O15  1  0.497629  0.502038  0.810003  1
  O  O16  1  0.569978  0.103513  0.082658  1
  O  O17  1  0.426537  0.904760  0.915597  1
  O  O18  1  0.896487  0.430022  0.917342  1
