# generated using pymatgen
data_Tb19Er(SnBi)8
_symmetry_space_group_name_H-M   'P 1'
_cell_length_a   8.20656210
_cell_length_b   8.24288410
_cell_length_c   15.70147300
_cell_angle_alpha   90.00000000
_cell_angle_beta   90.00000000
_cell_angle_gamma   90.01758985
_symmetry_Int_Tables_number   1
_chemical_formula_structural   Tb19Er(SnBi)8
_chemical_formula_sum   'Tb19 Er1 Sn8 Bi8'
_cell_volume   1062.13771324
_cell_formula_units_Z   1
loop_
 _symmetry_equiv_pos_site_id
 _symmetry_equiv_pos_as_xyz
  1  'x, y, z'
loop_
 _atom_site_type_symbol
 _atom_site_label
 _atom_site_symmetry_multiplicity
 _atom_site_fract_x
 _atom_site_fract_y
 _atom_site_fract_z
 _atom_site_occupancy
  Tb  Tb0  1  0.386372  0.837976  0.876611  1
  Tb  Tb1  1  0.886630  0.661713  0.623363  1
  Tb  Tb2  1  0.613475  0.161946  0.376715  1
  Tb  Tb3  1  0.113360  0.338044  0.123261  1
  Tb  Tb4  1  0.613475  0.161946  0.123285  1
  Tb  Tb5  1  0.113360  0.338044  0.376739  1
  Tb  Tb6  1  0.386372  0.837976  0.623389  1
  Tb  Tb7  1  0.886630  0.661713  0.876637  1
  Tb  Tb8  1  0.552918  0.328097  0.889835  1
  Tb  Tb9  1  0.053113  0.172162  0.610189  1
  Tb  Tb10  1  0.447132  0.672166  0.389835  1
  Tb  Tb11  1  0.946972  0.827944  0.110126  1
  Tb  Tb12  1  0.447132  0.672166  0.110165  1
  Tb  Tb13  1  0.946972  0.827944  0.389874  1
  Tb  Tb14  1  0.552918  0.328097  0.610165  1
  Tb  Tb15  1  0.053113  0.172162  0.889811  1
  Tb  Tb16  1  0.717795  0.001878  0.750000  1
  Tb  Tb17  1  0.782347  0.501914  0.250000  1
  Tb  Tb18  1  0.282307  0.998044  0.250000  1
  Er  Er19  1  0.218227  0.497957  0.750000  1
  Sn  Sn20  1  0.582141  0.625852  0.750000  1
  Sn  Sn21  1  0.083205  0.873304  0.750000  1
  Sn  Sn22  1  0.416891  0.373957  0.250000  1
  Sn  Sn23  1  0.916965  0.126128  0.250000  1
  Sn  Sn24  1  0.356086  0.144443  0.750000  1
  Sn  Sn25  1  0.857163  0.356578  0.750000  1
  Sn  Sn26  1  0.643728  0.856333  0.250000  1
  Sn  Sn27  1  0.143752  0.643631  0.250000  1
  Bi  Bi28  1  0.270502  0.020742  0.044253  1
  Bi  Bi29  1  0.770360  0.479266  0.455723  1
  Bi  Bi30  1  0.729538  0.979276  0.544336  1
  Bi  Bi31  1  0.229325  0.520658  0.955094  1
  Bi  Bi32  1  0.729538  0.979276  0.955664  1
  Bi  Bi33  1  0.229325  0.520658  0.544906  1
  Bi  Bi34  1  0.270502  0.020742  0.455747  1
  Bi  Bi35  1  0.770360  0.479266  0.044277  1
