# generated using pymatgen
data_Er3ScFe16(MoP3)4
_symmetry_space_group_name_H-M   'P 1'
_cell_length_a   3.68521700
_cell_length_b   10.34128456
_cell_length_c   11.98832316
_cell_angle_alpha   89.74241742
_cell_angle_beta   90.00000000
_cell_angle_gamma   90.00000000
_symmetry_Int_Tables_number   1
_chemical_formula_structural   Er3ScFe16(MoP3)4
_chemical_formula_sum   'Er3 Sc1 Fe16 Mo4 P12'
_cell_volume   456.86891202
_cell_formula_units_Z   1
loop_
 _symmetry_equiv_pos_site_id
 _symmetry_equiv_pos_as_xyz
  1  'x, y, z'
loop_
 _atom_site_type_symbol
 _atom_site_label
 _atom_site_symmetry_multiplicity
 _atom_site_fract_x
 _atom_site_fract_y
 _atom_site_fract_z
 _atom_site_occupancy
  Er  Er0  1  0.250000  0.916405  0.209764  1
  Er  Er1  1  0.750000  0.417526  0.290371  1
  Er  Er2  1  0.750000  0.083618  0.790955  1
  Sc  Sc3  1  0.250000  0.582450  0.709354  1
  Fe  Fe4  1  0.250000  0.412097  0.493652  1
  Fe  Fe5  1  0.250000  0.089698  0.992546  1
  Fe  Fe6  1  0.750000  0.588567  0.509367  1
  Fe  Fe7  1  0.750000  0.911368  0.007393  1
  Fe  Fe8  1  0.250000  0.217652  0.176835  1
  Fe  Fe9  1  0.250000  0.283940  0.676648  1
  Fe  Fe10  1  0.750000  0.781977  0.822037  1
  Fe  Fe11  1  0.750000  0.717273  0.323547  1
  Fe  Fe12  1  0.250000  0.874525  0.701134  1
  Fe  Fe13  1  0.250000  0.621399  0.199333  1
  Fe  Fe14  1  0.750000  0.121873  0.300247  1
  Fe  Fe15  1  0.750000  0.380741  0.798517  1
  Fe  Fe16  1  0.250000  0.465413  0.930553  1
  Fe  Fe17  1  0.250000  0.035724  0.434295  1
  Fe  Fe18  1  0.750000  0.536667  0.064623  1
  Fe  Fe19  1  0.750000  0.961729  0.568458  1
  Mo  Mo20  1  0.250000  0.707166  0.988302  1
  Mo  Mo21  1  0.250000  0.791759  0.489852  1
  Mo  Mo22  1  0.750000  0.293763  0.010712  1
  Mo  Mo23  1  0.750000  0.207555  0.512417  1
  P  P24  1  0.250000  0.425228  0.112286  1
  P  P25  1  0.250000  0.074578  0.614381  1
  P  P26  1  0.750000  0.576704  0.882766  1
  P  P27  1  0.750000  0.923733  0.387321  1
  P  P28  1  0.250000  0.267061  0.864962  1
  P  P29  1  0.250000  0.233454  0.365590  1
  P  P30  1  0.750000  0.733018  0.135115  1
  P  P31  1  0.750000  0.760651  0.635069  1
  P  P32  1  0.250000  0.595481  0.385513  1
  P  P33  1  0.250000  0.905955  0.887190  1
  P  P34  1  0.750000  0.408091  0.615168  1
  P  P35  1  0.750000  0.095161  0.113728  1
