# generated using pymatgen
data_Tb2Sm6GaPd24
_symmetry_space_group_name_H-M   'P 1'
_cell_length_a   8.43440900
_cell_length_b   8.43980248
_cell_length_c   8.43980248
_cell_angle_alpha   89.96137196
_cell_angle_beta   90.00000000
_cell_angle_gamma   90.00000000
_symmetry_Int_Tables_number   1
_chemical_formula_structural   Tb2Sm6GaPd24
_chemical_formula_sum   'Tb2 Sm6 Ga1 Pd24'
_cell_volume   600.78505919
_cell_formula_units_Z   1
loop_
 _symmetry_equiv_pos_site_id
 _symmetry_equiv_pos_as_xyz
  1  'x, y, z'
loop_
 _atom_site_type_symbol
 _atom_site_label
 _atom_site_symmetry_multiplicity
 _atom_site_fract_x
 _atom_site_fract_y
 _atom_site_fract_z
 _atom_site_occupancy
  Tb  Tb0  1  0.252002  0.747864  0.747864  1
  Tb  Tb1  1  0.252002  0.252136  0.252136  1
  Sm  Sm2  1  0.252059  0.252008  0.747992  1
  Sm  Sm3  1  0.252059  0.747992  0.252008  1
  Sm  Sm4  1  0.748171  0.251977  0.251977  1
  Sm  Sm5  1  0.748171  0.748023  0.748023  1
  Sm  Sm6  1  0.747997  0.748041  0.251959  1
  Sm  Sm7  1  0.747997  0.251959  0.748041  1
  Ga  Ga8  1  0.999992  0.000000  0.000000  1
  Pd  Pd9  1  0.498935  0.501423  0.746958  1
  Pd  Pd10  1  0.498935  0.253042  0.498577  1
  Pd  Pd11  1  0.253021  0.500000  0.500000  1
  Pd  Pd12  1  0.498935  0.498577  0.253042  1
  Pd  Pd13  1  0.498935  0.746958  0.501423  1
  Pd  Pd14  1  0.746967  0.500000  0.500000  1
  Pd  Pd15  1  0.000942  0.998853  0.707634  1
  Pd  Pd16  1  0.000942  0.292366  0.001147  1
  Pd  Pd17  1  0.292169  0.000000  0.000000  1
  Pd  Pd18  1  0.000942  0.001147  0.292366  1
  Pd  Pd19  1  0.000942  0.707634  0.998853  1
  Pd  Pd20  1  0.707252  0.000000  0.000000  1
  Pd  Pd21  1  0.001076  0.501135  0.739733  1
  Pd  Pd22  1  0.499080  0.260296  0.001431  1
  Pd  Pd23  1  0.260249  0.000000  0.500000  1
  Pd  Pd24  1  0.001076  0.260267  0.498865  1
  Pd  Pd25  1  0.499080  0.998569  0.739704  1
  Pd  Pd26  1  0.260249  0.500000  0.000000  1
  Pd  Pd27  1  0.001076  0.498865  0.260267  1
  Pd  Pd28  1  0.499080  0.739704  0.998569  1
  Pd  Pd29  1  0.001076  0.739733  0.501135  1
  Pd  Pd30  1  0.499080  0.001431  0.260296  1
  Pd  Pd31  1  0.739757  0.000000  0.500000  1
  Pd  Pd32  1  0.739757  0.500000  0.000000  1
