# generated using pymatgen
data_LaEr6Sn23Ir6
_symmetry_space_group_name_H-M   'P 1'
_cell_length_a   9.86715400
_cell_length_b   9.86715398
_cell_length_c   10.11725600
_cell_angle_alpha   90.00000000
_cell_angle_beta   90.00000000
_cell_angle_gamma   120.00000008
_symmetry_Int_Tables_number   1
_chemical_formula_structural   LaEr6Sn23Ir6
_chemical_formula_sum   'La1 Er6 Sn23 Ir6'
_cell_volume   853.05529379
_cell_formula_units_Z   1
loop_
 _symmetry_equiv_pos_site_id
 _symmetry_equiv_pos_as_xyz
  1  'x, y, z'
loop_
 _atom_site_type_symbol
 _atom_site_label
 _atom_site_symmetry_multiplicity
 _atom_site_fract_x
 _atom_site_fract_y
 _atom_site_fract_z
 _atom_site_occupancy
  La  La0  1  0.000000  0.000000  0.000000  1
  Er  Er1  1  0.481273  0.518727  0.306805  1
  Er  Er2  1  0.518727  0.481273  0.693195  1
  Er  Er3  1  0.481273  0.962547  0.306805  1
  Er  Er4  1  0.518727  0.037453  0.693195  1
  Er  Er5  1  0.037453  0.518727  0.306805  1
  Er  Er6  1  0.962547  0.481273  0.693195  1
  Sn  Sn7  1  0.119951  0.880049  0.285750  1
  Sn  Sn8  1  0.880049  0.119951  0.714250  1
  Sn  Sn9  1  0.119951  0.239900  0.285750  1
  Sn  Sn10  1  0.880049  0.760100  0.714250  1
  Sn  Sn11  1  0.760100  0.880049  0.285750  1
  Sn  Sn12  1  0.239900  0.119951  0.714250  1
  Sn  Sn13  1  0.776822  0.223178  0.456712  1
  Sn  Sn14  1  0.223178  0.776822  0.543288  1
  Sn  Sn15  1  0.776822  0.553644  0.456712  1
  Sn  Sn16  1  0.223178  0.446356  0.543288  1
  Sn  Sn17  1  0.446356  0.223178  0.456712  1
  Sn  Sn18  1  0.553644  0.776822  0.543288  1
  Sn  Sn19  1  0.353414  0.000000  0.000000  1
  Sn  Sn20  1  0.646586  0.000000  0.000000  1
  Sn  Sn21  1  0.000000  0.353414  0.000000  1
  Sn  Sn22  1  0.000000  0.646586  0.000000  1
  Sn  Sn23  1  0.646586  0.646586  0.000000  1
  Sn  Sn24  1  0.353414  0.353414  0.000000  1
  Sn  Sn25  1  0.333333  0.666667  0.125355  1
  Sn  Sn26  1  0.666667  0.333333  0.874645  1
  Sn  Sn27  1  0.333333  0.666667  0.827951  1
  Sn  Sn28  1  0.666667  0.333333  0.172049  1
  Sn  Sn29  1  0.000000  0.000000  0.500000  1
  Ir  Ir30  1  0.830014  0.169986  0.199826  1
  Ir  Ir31  1  0.169986  0.830014  0.800174  1
  Ir  Ir32  1  0.830014  0.660029  0.199826  1
  Ir  Ir33  1  0.169986  0.339971  0.800174  1
  Ir  Ir34  1  0.339971  0.169986  0.199826  1
  Ir  Ir35  1  0.660029  0.830014  0.800174  1
