# generated using pymatgen
data_Ca4Tb3Ho(BO4)4
_symmetry_space_group_name_H-M   'P 1'
_cell_length_a   3.62414600
_cell_length_b   9.68864339
_cell_length_c   10.53730452
_cell_angle_alpha   89.93844716
_cell_angle_beta   90.00000000
_cell_angle_gamma   90.00000000
_symmetry_Int_Tables_number   1
_chemical_formula_structural   Ca4Tb3Ho(BO4)4
_chemical_formula_sum   'Ca4 Tb3 Ho1 B4 O16'
_cell_volume   369.99677354
_cell_formula_units_Z   1
loop_
 _symmetry_equiv_pos_site_id
 _symmetry_equiv_pos_as_xyz
  1  'x, y, z'
loop_
 _atom_site_type_symbol
 _atom_site_label
 _atom_site_symmetry_multiplicity
 _atom_site_fract_x
 _atom_site_fract_y
 _atom_site_fract_z
 _atom_site_occupancy
  Ca  Ca0  1  0.250000  0.670095  0.083263  1
  Ca  Ca1  1  0.750000  0.330018  0.916112  1
  Ca  Ca2  1  0.750000  0.170653  0.417155  1
  Ca  Ca3  1  0.250000  0.829459  0.583502  1
  Tb  Tb4  1  0.250000  0.088544  0.112348  1
  Tb  Tb5  1  0.750000  0.911515  0.887596  1
  Tb  Tb6  1  0.750000  0.588065  0.388350  1
  Ho  Ho7  1  0.250000  0.411736  0.611838  1
  B  B8  1  0.250000  0.368234  0.200367  1
  B  B9  1  0.750000  0.631366  0.799121  1
  B  B10  1  0.750000  0.868128  0.299638  1
  B  B11  1  0.250000  0.132431  0.699921  1
  O  O12  1  0.250000  0.500297  0.251194  1
  O  O13  1  0.750000  0.499452  0.748012  1
  O  O14  1  0.750000  0.000358  0.249091  1
  O  O15  1  0.250000  0.000319  0.751050  1
  O  O16  1  0.250000  0.250387  0.277104  1
  O  O17  1  0.750000  0.749730  0.722912  1
  O  O18  1  0.750000  0.750242  0.223176  1
  O  O19  1  0.250000  0.251021  0.775579  1
  O  O20  1  0.250000  0.350317  0.068350  1
  O  O21  1  0.750000  0.649248  0.931295  1
  O  O22  1  0.750000  0.849807  0.431727  1
  O  O23  1  0.250000  0.150043  0.567938  1
  O  O24  1  0.250000  0.613171  0.507916  1
  O  O25  1  0.750000  0.385315  0.495570  1
  O  O26  1  0.750000  0.114700  0.993018  1
  O  O27  1  0.250000  0.885349  0.006857  1
