# generated using pymatgen
data_Tm8TcOsBr8
_symmetry_space_group_name_H-M   'P 1'
_cell_length_a   8.87297598
_cell_length_b   8.87297499
_cell_length_c   6.51235251
_cell_angle_alpha   89.47441381
_cell_angle_beta   89.47442175
_cell_angle_gamma   89.31243410
_symmetry_Int_Tables_number   1
_chemical_formula_structural   Tm8TcOsBr8
_chemical_formula_sum   'Tm8 Tc1 Os1 Br8'
_cell_volume   512.63597491
_cell_formula_units_Z   1
loop_
 _symmetry_equiv_pos_site_id
 _symmetry_equiv_pos_as_xyz
  1  'x, y, z'
loop_
 _atom_site_type_symbol
 _atom_site_label
 _atom_site_symmetry_multiplicity
 _atom_site_fract_x
 _atom_site_fract_y
 _atom_site_fract_z
 _atom_site_occupancy
  Tm  Tm0  1  0.752528  0.098452  0.990285  1
  Tm  Tm1  1  0.098383  0.752862  0.489039  1
  Tm  Tm2  1  0.096412  0.246086  0.992455  1
  Tm  Tm3  1  0.246191  0.096722  0.491141  1
  Tm  Tm4  1  0.903278  0.753809  0.008859  1
  Tm  Tm5  1  0.901548  0.247472  0.509715  1
  Tm  Tm6  1  0.247138  0.901617  0.010961  1
  Tm  Tm7  1  0.753914  0.903588  0.507545  1
  Tc  Tc8  1  0.994076  0.005924  0.250000  1
  Os  Os9  1  0.005825  0.994175  0.750000  1
  Br  Br10  1  0.579437  0.183656  0.592200  1
  Br  Br11  1  0.809506  0.583927  0.406402  1
  Br  Br12  1  0.416073  0.190494  0.093598  1
  Br  Br13  1  0.190695  0.415849  0.594345  1
  Br  Br14  1  0.584151  0.809305  0.905655  1
  Br  Br15  1  0.420682  0.816183  0.408920  1
  Br  Br16  1  0.183817  0.579318  0.091080  1
  Br  Br17  1  0.816344  0.420563  0.907800  1
