# generated using pymatgen
data_TiBe8Re2Mo
_symmetry_space_group_name_H-M   'P 1'
_cell_length_a   4.41734700
_cell_length_b   4.41734749
_cell_length_c   7.26230900
_cell_angle_alpha   90.00000000
_cell_angle_beta   90.00000000
_cell_angle_gamma   120.00000380
_symmetry_Int_Tables_number   1
_chemical_formula_structural   TiBe8Re2Mo
_chemical_formula_sum   'Ti1 Be8 Re2 Mo1'
_cell_volume   122.72369407
_cell_formula_units_Z   1
loop_
 _symmetry_equiv_pos_site_id
 _symmetry_equiv_pos_as_xyz
  1  'x, y, z'
loop_
 _atom_site_type_symbol
 _atom_site_label
 _atom_site_symmetry_multiplicity
 _atom_site_fract_x
 _atom_site_fract_y
 _atom_site_fract_z
 _atom_site_occupancy
  Ti  Ti0  1  0.666667  0.333333  0.564663  1
  Be  Be1  1  0.000000  0.000000  0.997224  1
  Be  Be2  1  0.000000  0.000000  0.500472  1
  Be  Be3  1  0.831050  0.662100  0.251896  1
  Be  Be4  1  0.170036  0.829964  0.749198  1
  Be  Be5  1  0.659928  0.829964  0.749198  1
  Be  Be6  1  0.337900  0.168950  0.251896  1
  Be  Be7  1  0.831050  0.168950  0.251896  1
  Be  Be8  1  0.170036  0.340072  0.749198  1
  Re  Re9  1  0.666667  0.333333  0.939124  1
  Re  Re10  1  0.333333  0.666667  0.431652  1
  Mo  Mo11  1  0.333333  0.666667  0.063582  1
