# generated using pymatgen
data_Rb3Ho(TaS4)2
_symmetry_space_group_name_H-M   'P 1'
_cell_length_a   9.57597371
_cell_length_b   10.56647174
_cell_length_c   11.26853700
_cell_angle_alpha   107.47665471
_cell_angle_beta   103.81211853
_cell_angle_gamma   113.38516975
_symmetry_Int_Tables_number   1
_chemical_formula_structural   Rb3Ho(TaS4)2
_chemical_formula_sum   'Rb6 Ho2 Ta4 S16'
_cell_volume   910.98985403
_cell_formula_units_Z   2
loop_
 _symmetry_equiv_pos_site_id
 _symmetry_equiv_pos_as_xyz
  1  'x, y, z'
loop_
 _atom_site_type_symbol
 _atom_site_label
 _atom_site_symmetry_multiplicity
 _atom_site_fract_x
 _atom_site_fract_y
 _atom_site_fract_z
 _atom_site_occupancy
  Rb  Rb0  1  0.000001  0.500003  0.000001  1
  Rb  Rb1  1  0.500001  0.500001  0.000004  1
  Rb  Rb2  1  0.263786  0.013792  0.027532  1
  Rb  Rb3  1  0.485542  0.735538  0.471049  1
  Rb  Rb4  1  0.514459  0.264466  0.528963  1
  Rb  Rb5  1  0.736207  0.986205  0.972461  1
  Ho  Ho6  1  0.997625  0.247611  0.495290  1
  Ho  Ho7  1  0.002376  0.752385  0.504705  1
  Ta  Ta8  1  0.760712  0.353154  0.261303  1
  Ta  Ta9  1  0.000558  0.908115  0.261250  1
  Ta  Ta10  1  0.999443  0.091889  0.738751  1
  Ta  Ta11  1  0.239286  0.646841  0.738696  1
  S  S12  1  0.650870  0.270949  0.032854  1
  S  S13  1  0.881919  0.761865  0.032779  1
  S  S14  1  0.117126  0.163933  0.305237  1
  S  S15  1  0.688103  0.141326  0.305271  1
  S  S16  1  0.042746  0.501227  0.353135  1
  S  S17  1  0.810393  0.851955  0.353130  1
  S  S18  1  0.196529  0.859530  0.364809  1
  S  S19  1  0.668275  0.505319  0.364825  1
  S  S20  1  0.331726  0.494678  0.635175  1
  S  S21  1  0.803468  0.140466  0.635186  1
  S  S22  1  0.189604  0.148044  0.646866  1
  S  S23  1  0.957251  0.498770  0.646864  1
  S  S24  1  0.311894  0.858669  0.694726  1
  S  S25  1  0.882880  0.836071  0.694764  1
  S  S26  1  0.118082  0.238139  0.967221  1
  S  S27  1  0.349131  0.729052  0.967146  1
