# generated using pymatgen
data_Th2V2O9
_symmetry_space_group_name_H-M   'P 1'
_cell_length_a   6.11986836
_cell_length_b   6.11986960
_cell_length_c   13.40404100
_cell_angle_alpha   90.00000000
_cell_angle_beta   90.00000000
_cell_angle_gamma   104.84443700
_symmetry_Int_Tables_number   1
_chemical_formula_structural   Th2V2O9
_chemical_formula_sum   'Th4 V4 O18'
_cell_volume   485.26393049
_cell_formula_units_Z   2
loop_
 _symmetry_equiv_pos_site_id
 _symmetry_equiv_pos_as_xyz
  1  'x, y, z'
loop_
 _atom_site_type_symbol
 _atom_site_label
 _atom_site_symmetry_multiplicity
 _atom_site_fract_x
 _atom_site_fract_y
 _atom_site_fract_z
 _atom_site_occupancy
  Th  Th0  1  0.295458  0.704542  0.562084  1
  Th  Th1  1  0.704542  0.295458  0.437916  1
  Th  Th2  1  0.204542  0.795458  0.062084  1
  Th  Th3  1  0.795458  0.204542  0.937916  1
  V  V4  1  0.394357  0.605643  0.854557  1
  V  V5  1  0.105643  0.894357  0.354557  1
  V  V6  1  0.605643  0.394357  0.145443  1
  V  V7  1  0.894357  0.105643  0.645443  1
  O  O8  1  0.068631  0.931369  0.622630  1
  O  O9  1  0.990423  0.364165  0.581070  1
  O  O10  1  0.139315  0.860685  0.228413  1
  O  O11  1  0.490423  0.864165  0.918930  1
  O  O12  1  0.635835  0.009577  0.581070  1
  O  O13  1  0.431369  0.568631  0.122630  1
  O  O14  1  0.864165  0.490423  0.081070  1
  O  O15  1  0.639315  0.360685  0.271587  1
  O  O16  1  0.931369  0.068631  0.377370  1
  O  O17  1  0.364165  0.990423  0.418930  1
  O  O18  1  0.360685  0.639315  0.728413  1
  O  O19  1  0.509577  0.135835  0.081070  1
  O  O20  1  0.568631  0.431369  0.877370  1
  O  O21  1  0.500000  0.500000  0.500000  1
  O  O22  1  0.860685  0.139315  0.771587  1
  O  O23  1  0.135835  0.509577  0.918930  1
  O  O24  1  0.009577  0.635835  0.418930  1
  O  O25  1  0.000000  0.000000  0.000000  1
