# generated using pymatgen
data_Dy2Er6TlCd2SnAu8
_symmetry_space_group_name_H-M   'P 1'
_cell_length_a   7.99053400
_cell_length_b   7.99053362
_cell_length_c   7.29731400
_cell_angle_alpha   90.00000000
_cell_angle_beta   90.00000000
_cell_angle_gamma   90.15065148
_symmetry_Int_Tables_number   1
_chemical_formula_structural   Dy2Er6TlCd2SnAu8
_chemical_formula_sum   'Dy2 Er6 Tl1 Cd2 Sn1 Au8'
_cell_volume   465.92189522
_cell_formula_units_Z   1
loop_
 _symmetry_equiv_pos_site_id
 _symmetry_equiv_pos_as_xyz
  1  'x, y, z'
loop_
 _atom_site_type_symbol
 _atom_site_label
 _atom_site_symmetry_multiplicity
 _atom_site_fract_x
 _atom_site_fract_y
 _atom_site_fract_z
 _atom_site_occupancy
  Dy  Dy0  1  0.342514  0.659336  0.999839  1
  Dy  Dy1  1  0.657486  0.340664  0.999839  1
  Er  Er2  1  0.183621  0.181717  0.999513  1
  Er  Er3  1  0.318170  0.683830  0.500486  1
  Er  Er4  1  0.681830  0.316170  0.500486  1
  Er  Er5  1  0.816379  0.818283  0.999513  1
  Er  Er6  1  0.840855  0.843153  0.500239  1
  Er  Er7  1  0.159145  0.156847  0.500239  1
  Tl  Tl8  1  0.000000  0.500000  0.249552  1
  Cd  Cd9  1  0.000000  0.500000  0.749646  1
  Cd  Cd10  1  0.500000  0.000000  0.250679  1
  Sn  Sn11  1  0.500000  0.000000  0.749933  1
  Au  Au12  1  0.124632  0.868898  0.773919  1
  Au  Au13  1  0.869103  0.124572  0.226429  1
  Au  Au14  1  0.374457  0.368368  0.275895  1
  Au  Au15  1  0.631855  0.625553  0.723776  1
  Au  Au16  1  0.625543  0.631632  0.275895  1
  Au  Au17  1  0.875368  0.131102  0.773919  1
  Au  Au18  1  0.368145  0.374447  0.723776  1
  Au  Au19  1  0.130897  0.875428  0.226429  1
