# generated using pymatgen
data_TbPaInIr2
_symmetry_space_group_name_H-M   'P 1'
_cell_length_a   7.80619200
_cell_length_b   7.66950600
_cell_length_c   3.65922000
_cell_angle_alpha   90.00000000
_cell_angle_beta   90.00000000
_cell_angle_gamma   90.00000000
_symmetry_Int_Tables_number   1
_chemical_formula_structural   TbPaInIr2
_chemical_formula_sum   'Tb2 Pa2 In2 Ir4'
_cell_volume   219.07617084
_cell_formula_units_Z   2
loop_
 _symmetry_equiv_pos_site_id
 _symmetry_equiv_pos_as_xyz
  1  'x, y, z'
loop_
 _atom_site_type_symbol
 _atom_site_label
 _atom_site_symmetry_multiplicity
 _atom_site_fract_x
 _atom_site_fract_y
 _atom_site_fract_z
 _atom_site_occupancy
  Tb  Tb0  1  0.169847  0.668679  0.500001  1
  Tb  Tb1  1  0.669847  0.831321  0.500001  1
  Pa  Pa2  1  0.326929  0.161233  0.500001  1
  Pa  Pa3  1  0.826928  0.338768  0.500001  1
  In  In4  1  0.993093  0.993834  0.000000  1
  In  In5  1  0.493093  0.506166  0.000000  1
  Ir  Ir6  1  0.640683  0.152770  0.000000  1
  Ir  Ir7  1  0.140683  0.347230  0.000000  1
  Ir  Ir8  1  0.869448  0.602742  0.000000  1
  Ir  Ir9  1  0.369449  0.897257  0.000000  1
