# generated using pymatgen
data_Dy5Si2Mo3(P5Ir8)2
_symmetry_space_group_name_H-M   'P 1'
_cell_length_a   12.71012135
_cell_length_b   12.73219876
_cell_length_c   3.98616600
_cell_angle_alpha   90.00000000
_cell_angle_beta   90.00000000
_cell_angle_gamma   120.13718163
_symmetry_Int_Tables_number   1
_chemical_formula_structural   Dy5Si2Mo3(P5Ir8)2
_chemical_formula_sum   'Dy5 Si2 Mo3 P10 Ir16'
_cell_volume   557.87528002
_cell_formula_units_Z   1
loop_
 _symmetry_equiv_pos_site_id
 _symmetry_equiv_pos_as_xyz
  1  'x, y, z'
loop_
 _atom_site_type_symbol
 _atom_site_label
 _atom_site_symmetry_multiplicity
 _atom_site_fract_x
 _atom_site_fract_y
 _atom_site_fract_z
 _atom_site_occupancy
  Dy  Dy0  1  0.333515  0.666663  0.500000  1
  Dy  Dy1  1  0.666377  0.333630  0.500000  1
  Dy  Dy2  1  0.001111  0.811928  0.000000  1
  Dy  Dy3  1  0.186805  0.187528  0.000000  1
  Dy  Dy4  1  0.812023  0.999544  0.000000  1
  Si  Si5  1  0.517780  0.684049  0.000000  1
  Si  Si6  1  0.317542  0.834664  0.000000  1
  Mo  Mo7  1  0.997694  0.450007  0.500000  1
  Mo  Mo8  1  0.549179  0.547982  0.500000  1
  Mo  Mo9  1  0.451916  0.002882  0.500000  1
  P  P10  1  0.001959  0.637485  0.500000  1
  P  P11  1  0.361703  0.363833  0.500000  1
  P  P12  1  0.634703  0.996459  0.500000  1
  P  P13  1  0.166968  0.483162  0.000000  1
  P  P14  1  0.482167  0.166988  0.000000  1
  P  P15  1  0.684374  0.517093  0.000000  1
  P  P16  1  0.832756  0.316093  0.000000  1
  P  P17  1  0.998586  0.177118  0.500000  1
  P  P18  1  0.822789  0.821187  0.500000  1
  P  P19  1  0.177745  0.999563  0.500000  1
  Ir  Ir20  1  0.517182  0.873934  0.000000  1
  Ir  Ir21  1  0.130171  0.640170  0.000000  1
  Ir  Ir22  1  0.354071  0.485625  0.000000  1
  Ir  Ir23  1  0.492118  0.357077  0.000000  1
  Ir  Ir24  1  0.864645  0.507395  0.000000  1
  Ir  Ir25  1  0.643568  0.137710  0.000000  1
  Ir  Ir26  1  0.998727  0.283425  0.000000  1
  Ir  Ir27  1  0.721436  0.716859  0.000000  1
  Ir  Ir28  1  0.281658  0.003181  0.000000  1
  Ir  Ir29  1  0.627358  0.803289  0.500000  1
  Ir  Ir30  1  0.195643  0.821655  0.500000  1
  Ir  Ir31  1  0.176204  0.373087  0.500000  1
  Ir  Ir32  1  0.374055  0.180979  0.500000  1
  Ir  Ir33  1  0.805754  0.624315  0.500000  1
  Ir  Ir34  1  0.819722  0.193055  0.500000  1
  Ir  Ir35  1  0.999998  0.000386  0.500000  1
