# generated using pymatgen
data_LiYb(Pr4Si3)2
_symmetry_space_group_name_H-M   'P 1'
_cell_length_a   7.71286369
_cell_length_b   7.71286257
_cell_length_c   8.97829600
_cell_angle_alpha   115.43762403
_cell_angle_beta   115.43761861
_cell_angle_gamma   90.00000377
_symmetry_Int_Tables_number   1
_chemical_formula_structural   LiYb(Pr4Si3)2
_chemical_formula_sum   'Li1 Yb1 Pr8 Si6'
_cell_volume   424.27129687
_cell_formula_units_Z   1
loop_
 _symmetry_equiv_pos_site_id
 _symmetry_equiv_pos_as_xyz
  1  'x, y, z'
loop_
 _atom_site_type_symbol
 _atom_site_label
 _atom_site_symmetry_multiplicity
 _atom_site_fract_x
 _atom_site_fract_y
 _atom_site_fract_z
 _atom_site_occupancy
  Li  Li0  1  0.500000  0.500000  0.000000  1
  Yb  Yb1  1  0.000000  0.000000  0.000000  1
  Pr  Pr2  1  0.957694  0.817406  0.285981  1
  Pr  Pr3  1  0.328286  0.468575  0.285981  1
  Pr  Pr4  1  0.817406  0.328286  0.285981  1
  Pr  Pr5  1  0.468575  0.957694  0.285981  1
  Pr  Pr6  1  0.042306  0.182594  0.714019  1
  Pr  Pr7  1  0.671714  0.531425  0.714019  1
  Pr  Pr8  1  0.182594  0.671714  0.714019  1
  Pr  Pr9  1  0.531425  0.042306  0.714019  1
  Si  Si10  1  0.761577  0.761577  0.523155  1
  Si  Si11  1  0.238423  0.238423  0.476845  1
  Si  Si12  1  0.612669  0.888634  0.000000  1
  Si  Si13  1  0.387331  0.111366  0.000000  1
  Si  Si14  1  0.888634  0.387331  0.000000  1
  Si  Si15  1  0.111366  0.612669  0.000000  1
