# generated using pymatgen
data_La8NdLu(USe10)2
_symmetry_space_group_name_H-M   'P 1'
_cell_length_a   7.95826900
_cell_length_b   8.55135000
_cell_length_c   12.54398535
_cell_angle_alpha   90.00000000
_cell_angle_beta   90.25656208
_cell_angle_gamma   90.00000000
_symmetry_Int_Tables_number   1
_chemical_formula_structural   La8NdLu(USe10)2
_chemical_formula_sum   'La8 Nd1 Lu1 U2 Se20'
_cell_volume   853.65911361
_cell_formula_units_Z   1
loop_
 _symmetry_equiv_pos_site_id
 _symmetry_equiv_pos_as_xyz
  1  'x, y, z'
loop_
 _atom_site_type_symbol
 _atom_site_label
 _atom_site_symmetry_multiplicity
 _atom_site_fract_x
 _atom_site_fract_y
 _atom_site_fract_z
 _atom_site_occupancy
  La  La0  1  0.531868  0.502547  0.324356  1
  La  La1  1  0.968687  0.997737  0.822555  1
  La  La2  1  0.473925  0.998017  0.675223  1
  La  La3  1  0.027378  0.501794  0.178465  1
  La  La4  1  0.473925  0.501983  0.675223  1
  La  La5  1  0.027378  0.998206  0.178465  1
  La  La6  1  0.531868  0.997453  0.324356  1
  La  La7  1  0.968687  0.502263  0.822555  1
  Nd  Nd8  1  0.423442  0.750000  0.991374  1
  Lu  Lu9  1  0.072147  0.750000  0.493879  1
  U  U10  1  0.941836  0.250000  0.506373  1
  U  U11  1  0.559114  0.250000  0.006170  1
  Se  Se12  1  0.836435  0.965096  0.590400  1
  Se  Se13  1  0.667312  0.529795  0.094820  1
  Se  Se14  1  0.164460  0.458446  0.410217  1
  Se  Se15  1  0.332845  0.052366  0.905531  1
  Se  Se16  1  0.164460  0.041554  0.410217  1
  Se  Se17  1  0.332845  0.447634  0.905531  1
  Se  Se18  1  0.836435  0.534904  0.590400  1
  Se  Se19  1  0.667312  0.970205  0.094820  1
  Se  Se20  1  0.837057  0.750000  0.314773  1
  Se  Se21  1  0.669716  0.750000  0.807552  1
  Se  Se22  1  0.163089  0.250000  0.684067  1
  Se  Se23  1  0.336928  0.250000  0.184902  1
  Se  Se24  1  0.452967  0.750000  0.497389  1
  Se  Se25  1  0.038460  0.750000  0.998141  1
  Se  Se26  1  0.550075  0.250000  0.500979  1
  Se  Se27  1  0.950211  0.250000  0.000962  1
  Se  Se28  1  0.189291  0.750000  0.712446  1
  Se  Se29  1  0.308207  0.750000  0.217639  1
  Se  Se30  1  0.813144  0.250000  0.291105  1
  Se  Se31  1  0.688498  0.250000  0.789115  1
