# generated using pymatgen
data_Ho4LuZn2Sb
_symmetry_space_group_name_H-M   'P 1'
_cell_length_a   8.49407601
_cell_length_b   8.49407622
_cell_length_c   8.49407700
_cell_angle_alpha   123.49120531
_cell_angle_beta   123.49120955
_cell_angle_gamma   84.05244597
_symmetry_Int_Tables_number   1
_chemical_formula_structural   Ho4LuZn2Sb
_chemical_formula_sum   'Ho8 Lu2 Zn4 Sb2'
_cell_volume   408.07126279
_cell_formula_units_Z   2
loop_
 _symmetry_equiv_pos_site_id
 _symmetry_equiv_pos_as_xyz
  1  'x, y, z'
loop_
 _atom_site_type_symbol
 _atom_site_label
 _atom_site_symmetry_multiplicity
 _atom_site_fract_x
 _atom_site_fract_y
 _atom_site_fract_z
 _atom_site_occupancy
  Ho  Ho0  1  0.511061  0.011061  0.809619  1
  Ho  Ho1  1  0.201443  0.701443  0.190381  1
  Ho  Ho2  1  0.011061  0.201443  0.500000  1
  Ho  Ho3  1  0.701443  0.511061  0.500000  1
  Ho  Ho4  1  0.488939  0.988939  0.190381  1
  Ho  Ho5  1  0.798557  0.298557  0.809619  1
  Ho  Ho6  1  0.988939  0.798557  0.500000  1
  Ho  Ho7  1  0.298557  0.488939  0.500000  1
  Lu  Lu8  1  0.500000  0.500000  0.000000  1
  Lu  Lu9  1  0.000000  0.000000  0.000000  1
  Zn  Zn10  1  0.137348  0.637348  0.774699  1
  Zn  Zn11  1  0.862652  0.362652  0.225301  1
  Zn  Zn12  1  0.637348  0.862652  0.500000  1
  Zn  Zn13  1  0.362652  0.137348  0.500000  1
  Sb  Sb14  1  0.250000  0.250000  0.000000  1
  Sb  Sb15  1  0.750000  0.750000  0.000000  1
