# generated using pymatgen
data_Cs3YSb2
_symmetry_space_group_name_H-M   'P 1'
_cell_length_a   10.55480460
_cell_length_b   10.55480373
_cell_length_c   10.55480459
_cell_angle_alpha   128.01284726
_cell_angle_beta   70.25074395
_cell_angle_gamma   136.22534016
_symmetry_Int_Tables_number   1
_chemical_formula_structural   Cs3YSb2
_chemical_formula_sum   'Cs6 Y2 Sb4'
_cell_volume   628.50082756
_cell_formula_units_Z   2
loop_
 _symmetry_equiv_pos_site_id
 _symmetry_equiv_pos_as_xyz
  1  'x, y, z'
loop_
 _atom_site_type_symbol
 _atom_site_label
 _atom_site_symmetry_multiplicity
 _atom_site_fract_x
 _atom_site_fract_y
 _atom_site_fract_z
 _atom_site_occupancy
  Cs  Cs0  1  0.314134  0.704981  0.019116  1
  Cs  Cs1  1  0.185866  0.204981  0.390847  1
  Cs  Cs2  1  0.750000  0.250000  0.500000  1
  Cs  Cs3  1  0.250000  0.749999  0.499999  1
  Cs  Cs4  1  0.814134  0.795020  0.609154  1
  Cs  Cs5  1  0.685866  0.295020  0.980885  1
  Y  Y6  1  0.250000  0.250000  0.000000  1
  Y  Y7  1  0.750000  0.750000  0.000000  1
  Sb  Sb8  1  0.905700  0.184338  0.090036  1
  Sb  Sb9  1  0.594301  0.684339  0.278639  1
  Sb  Sb10  1  0.405699  0.315661  0.721360  1
  Sb  Sb11  1  0.094301  0.815661  0.909963  1
