# generated using pymatgen
data_Pr16Y4Si15As
_symmetry_space_group_name_H-M   'P 1'
_cell_length_a   7.84241814
_cell_length_b   7.83633661
_cell_length_c   15.35800836
_cell_angle_alpha   89.92776080
_cell_angle_beta   89.72183535
_cell_angle_gamma   89.98555821
_symmetry_Int_Tables_number   1
_chemical_formula_structural   Pr16Y4Si15As
_chemical_formula_sum   'Pr16 Y4 Si15 As1'
_cell_volume   943.82722451
_cell_formula_units_Z   1
loop_
 _symmetry_equiv_pos_site_id
 _symmetry_equiv_pos_as_xyz
  1  'x, y, z'
loop_
 _atom_site_type_symbol
 _atom_site_label
 _atom_site_symmetry_multiplicity
 _atom_site_fract_x
 _atom_site_fract_y
 _atom_site_fract_z
 _atom_site_occupancy
  Pr  Pr0  1  0.380177  0.012599  0.443787  1
  Pr  Pr1  1  0.487718  0.877732  0.694901  1
  Pr  Pr2  1  0.513013  0.121027  0.194841  1
  Pr  Pr3  1  0.878716  0.486631  0.304720  1
  Pr  Pr4  1  0.122090  0.513462  0.806031  1
  Pr  Pr5  1  0.621835  0.985998  0.944686  1
  Pr  Pr6  1  0.010637  0.379430  0.553723  1
  Pr  Pr7  1  0.986604  0.620424  0.055388  1
  Pr  Pr8  1  0.127309  0.977744  0.878136  1
  Pr  Pr9  1  0.523976  0.625462  0.128189  1
  Pr  Pr10  1  0.475695  0.374458  0.629202  1
  Pr  Pr11  1  0.625633  0.524592  0.871741  1
  Pr  Pr12  1  0.374245  0.474494  0.372163  1
  Pr  Pr13  1  0.875510  0.024329  0.378613  1
  Pr  Pr14  1  0.975741  0.125581  0.121763  1
  Pr  Pr15  1  0.023680  0.873308  0.621362  1
  Y  Y16  1  0.309325  0.309285  0.000030  1
  Y  Y17  1  0.190260  0.808893  0.250044  1
  Y  Y18  1  0.804614  0.190878  0.750443  1
  Y  Y19  1  0.689522  0.691157  0.499291  1
  Si  Si20  1  0.327027  0.688183  0.958534  1
  Si  Si21  1  0.672515  0.312760  0.458953  1
  Si  Si22  1  0.688708  0.328271  0.041645  1
  Si  Si23  1  0.312461  0.672261  0.541826  1
  Si  Si24  1  0.812049  0.827768  0.208723  1
  Si  Si25  1  0.172241  0.187943  0.291169  1
  Si  Si26  1  0.829812  0.812150  0.791342  1
  Si  Si27  1  0.286124  0.920801  0.063387  1
  Si  Si28  1  0.578966  0.786534  0.313295  1
  Si  Si29  1  0.430994  0.213346  0.817838  1
  Si  Si30  1  0.787789  0.578858  0.686096  1
  Si  Si31  1  0.213354  0.421276  0.186614  1
  Si  Si32  1  0.711267  0.077928  0.563539  1
  Si  Si33  1  0.922076  0.287152  0.936516  1
  Si  Si34  1  0.078879  0.712965  0.436654  1
  As  As35  1  0.179438  0.174318  0.704812  1
