# generated using pymatgen
data_Tm16Sc4Ir11Ru
_symmetry_space_group_name_H-M   'P 1'
_cell_length_a   10.64361800
_cell_length_b   10.64361800
_cell_length_c   6.23354500
_cell_angle_alpha   90.00000000
_cell_angle_beta   90.00000000
_cell_angle_gamma   90.00000000
_symmetry_Int_Tables_number   1
_chemical_formula_structural   Tm16Sc4Ir11Ru
_chemical_formula_sum   'Tm16 Sc4 Ir11 Ru1'
_cell_volume   706.17714474
_cell_formula_units_Z   1
loop_
 _symmetry_equiv_pos_site_id
 _symmetry_equiv_pos_as_xyz
  1  'x, y, z'
loop_
 _atom_site_type_symbol
 _atom_site_label
 _atom_site_symmetry_multiplicity
 _atom_site_fract_x
 _atom_site_fract_y
 _atom_site_fract_z
 _atom_site_occupancy
  Tm  Tm0  1  0.289531  0.085260  0.374942  1
  Tm  Tm1  1  0.289821  0.914661  0.877890  1
  Tm  Tm2  1  0.710179  0.085339  0.877890  1
  Tm  Tm3  1  0.710469  0.914740  0.374942  1
  Tm  Tm4  1  0.585339  0.789821  0.877890  1
  Tm  Tm5  1  0.585260  0.210469  0.374942  1
  Tm  Tm6  1  0.414740  0.789531  0.374942  1
  Tm  Tm7  1  0.414661  0.210179  0.877890  1
  Tm  Tm8  1  0.211759  0.413727  0.623674  1
  Tm  Tm9  1  0.211712  0.585875  0.123224  1
  Tm  Tm10  1  0.788288  0.414125  0.123224  1
  Tm  Tm11  1  0.788241  0.586273  0.623674  1
  Tm  Tm12  1  0.914125  0.711712  0.123224  1
  Tm  Tm13  1  0.913727  0.288241  0.623674  1
  Tm  Tm14  1  0.086273  0.711759  0.623674  1
  Tm  Tm15  1  0.085875  0.288288  0.123224  1
  Sc  Sc16  1  0.000000  0.000000  0.499675  1
  Sc  Sc17  1  0.000000  0.000000  0.999149  1
  Sc  Sc18  1  0.500000  0.500000  0.999149  1
  Sc  Sc19  1  0.500000  0.500000  0.499675  1
  Ir  Ir20  1  0.851217  0.149133  0.250129  1
  Ir  Ir21  1  0.851354  0.850955  0.749457  1
  Ir  Ir22  1  0.148646  0.149045  0.749457  1
  Ir  Ir23  1  0.148783  0.850867  0.250129  1
  Ir  Ir24  1  0.649045  0.351354  0.749457  1
  Ir  Ir25  1  0.649133  0.648783  0.250129  1
  Ir  Ir26  1  0.350867  0.351217  0.250129  1
  Ir  Ir27  1  0.350955  0.648646  0.749457  1
  Ir  Ir28  1  0.500000  0.000000  0.623850  1
  Ir  Ir29  1  0.000000  0.500000  0.878154  1
  Ir  Ir30  1  0.000000  0.500000  0.378314  1
  Ru  Ru31  1  0.500000  0.000000  0.124775  1
