# generated using pymatgen
data_Dy4Er2Zn23As
_symmetry_space_group_name_H-M   'P 1'
_cell_length_a   9.05072875
_cell_length_b   9.04726063
_cell_length_c   9.04716663
_cell_angle_alpha   60.02479539
_cell_angle_beta   59.98816461
_cell_angle_gamma   59.98797829
_symmetry_Int_Tables_number   1
_chemical_formula_structural   Dy4Er2Zn23As
_chemical_formula_sum   'Dy4 Er2 Zn23 As1'
_cell_volume   523.84306955
_cell_formula_units_Z   1
loop_
 _symmetry_equiv_pos_site_id
 _symmetry_equiv_pos_as_xyz
  1  'x, y, z'
loop_
 _atom_site_type_symbol
 _atom_site_label
 _atom_site_symmetry_multiplicity
 _atom_site_fract_x
 _atom_site_fract_y
 _atom_site_fract_z
 _atom_site_occupancy
  Dy  Dy0  1  0.716253  0.283600  0.283601  1
  Dy  Dy1  1  0.715748  0.284103  0.715901  1
  Dy  Dy2  1  0.715745  0.715897  0.284104  1
  Dy  Dy3  1  0.283455  0.716401  0.716403  1
  Er  Er4  1  0.284078  0.715806  0.284183  1
  Er  Er5  1  0.284084  0.284188  0.715806  1
  Zn  Zn6  1  0.621624  0.126116  0.126117  1
  Zn  Zn7  1  0.126460  0.622091  0.126502  1
  Zn  Zn8  1  0.126463  0.126504  0.622091  1
  Zn  Zn9  1  0.126839  0.125313  0.125305  1
  Zn  Zn10  1  0.377444  0.874693  0.874692  1
  Zn  Zn11  1  0.875048  0.377907  0.873501  1
  Zn  Zn12  1  0.875043  0.873494  0.377909  1
  Zn  Zn13  1  0.873845  0.873879  0.873889  1
  Zn  Zn14  1  0.499436  0.999999  0.000000  1
  Zn  Zn15  1  0.499586  0.000357  0.500168  1
  Zn  Zn16  1  0.499586  0.500168  0.000357  1
  Zn  Zn17  1  0.000468  0.500000  0.499999  1
  Zn  Zn18  1  0.000111  0.499832  0.999642  1
  Zn  Zn19  1  0.000110  0.999644  0.499833  1
  Zn  Zn20  1  0.000035  0.000003  0.999999  1
  Zn  Zn21  1  0.011715  0.329355  0.329359  1
  Zn  Zn22  1  0.329400  0.010999  0.329616  1
  Zn  Zn23  1  0.329402  0.329616  0.010998  1
  Zn  Zn24  1  0.329668  0.330038  0.330034  1
  Zn  Zn25  1  0.989750  0.669964  0.669961  1
  Zn  Zn26  1  0.670021  0.989006  0.670380  1
  Zn  Zn27  1  0.670017  0.670382  0.989004  1
  Zn  Zn28  1  0.670433  0.670644  0.670647  1
  As  As29  1  0.498134  0.500002  0.500001  1
