# generated using pymatgen
data_U2Co2Ni19B6
_symmetry_space_group_name_H-M   'P 1'
_cell_length_a   7.49140834
_cell_length_b   7.52673175
_cell_length_c   7.52673300
_cell_angle_alpha   59.99999889
_cell_angle_beta   59.84389873
_cell_angle_gamma   59.84390082
_symmetry_Int_Tables_number   1
_chemical_formula_structural   U2Co2Ni19B6
_chemical_formula_sum   'U2 Co2 Ni19 B6'
_cell_volume   299.38682159
_cell_formula_units_Z   1
loop_
 _symmetry_equiv_pos_site_id
 _symmetry_equiv_pos_as_xyz
  1  'x, y, z'
loop_
 _atom_site_type_symbol
 _atom_site_label
 _atom_site_symmetry_multiplicity
 _atom_site_fract_x
 _atom_site_fract_y
 _atom_site_fract_z
 _atom_site_occupancy
  U  U0  1  0.241195  0.252935  0.252935  1
  U  U1  1  0.758805  0.747065  0.747065  1
  Co  Co2  1  0.862145  0.379285  0.379285  1
  Co  Co3  1  0.137855  0.620715  0.620715  1
  Ni  Ni4  1  0.342884  0.997280  0.997280  1
  Ni  Ni5  1  0.657116  0.002720  0.002720  1
  Ni  Ni6  1  0.000000  0.338347  0.661653  1
  Ni  Ni7  1  0.000000  0.661653  0.338347  1
  Ni  Ni8  1  0.000000  0.338347  0.000000  1
  Ni  Ni9  1  0.657116  0.002720  0.337442  1
  Ni  Ni10  1  0.000000  0.661653  0.000000  1
  Ni  Ni11  1  0.342884  0.997280  0.662558  1
  Ni  Ni12  1  0.000000  0.000000  0.338347  1
  Ni  Ni13  1  0.000000  0.000000  0.661653  1
  Ni  Ni14  1  0.657116  0.337442  0.002720  1
  Ni  Ni15  1  0.342884  0.662558  0.997280  1
  Ni  Ni16  1  0.383741  0.387467  0.387467  1
  Ni  Ni17  1  0.616259  0.612533  0.612533  1
  Ni  Ni18  1  0.383741  0.387467  0.841326  1
  Ni  Ni19  1  0.383741  0.841326  0.387467  1
  Ni  Ni20  1  0.616259  0.612533  0.158674  1
  Ni  Ni21  1  0.616259  0.158674  0.612533  1
  Ni  Ni22  1  0.000000  0.000000  0.000000  1
  B  B23  1  0.733206  0.267616  0.267616  1
  B  B24  1  0.266794  0.732384  0.732384  1
  B  B25  1  0.266794  0.732384  0.268438  1
  B  B26  1  0.733206  0.267616  0.731562  1
  B  B27  1  0.266794  0.268438  0.732384  1
  B  B28  1  0.733206  0.731562  0.267616  1
