# generated using pymatgen
data_Tb9HoIn8Ir3Pd
_symmetry_space_group_name_H-M   'P 1'
_cell_length_a   3.66216800
_cell_length_b   8.10364699
_cell_length_c   18.29264121
_cell_angle_alpha   90.05796099
_cell_angle_beta   90.00000000
_cell_angle_gamma   90.00000000
_symmetry_Int_Tables_number   1
_chemical_formula_structural   Tb9HoIn8Ir3Pd
_chemical_formula_sum   'Tb9 Ho1 In8 Ir3 Pd1'
_cell_volume   542.86891129
_cell_formula_units_Z   1
loop_
 _symmetry_equiv_pos_site_id
 _symmetry_equiv_pos_as_xyz
  1  'x, y, z'
loop_
 _atom_site_type_symbol
 _atom_site_label
 _atom_site_symmetry_multiplicity
 _atom_site_fract_x
 _atom_site_fract_y
 _atom_site_fract_z
 _atom_site_occupancy
  Tb  Tb0  1  0.000000  0.499866  0.501059  1
  Tb  Tb1  1  0.000000  0.999910  0.999452  1
  Tb  Tb2  1  0.000000  0.729076  0.277839  1
  Tb  Tb3  1  0.000000  0.258861  0.722190  1
  Tb  Tb4  1  0.000000  0.758832  0.777649  1
  Tb  Tb5  1  0.000000  0.253106  0.219701  1
  Tb  Tb6  1  0.000000  0.614318  0.086845  1
  Tb  Tb7  1  0.000000  0.385743  0.910119  1
  Tb  Tb8  1  0.000000  0.885610  0.589617  1
  Ho  Ho9  1  0.000000  0.114942  0.414629  1
  In  In10  1  0.500000  0.708111  0.931288  1
  In  In11  1  0.500000  0.291528  0.067519  1
  In  In12  1  0.500000  0.791622  0.432535  1
  In  In13  1  0.500000  0.207635  0.568289  1
  In  In14  1  0.500000  0.572501  0.649363  1
  In  In15  1  0.500000  0.422190  0.351660  1
  In  In16  1  0.500000  0.923993  0.149773  1
  In  In17  1  0.500000  0.072074  0.850842  1
  Ir  Ir18  1  0.500000  0.519040  0.195377  1
  Ir  Ir19  1  0.500000  0.485450  0.803826  1
  Ir  Ir20  1  0.500000  0.986168  0.695874  1
  Pd  Pd21  1  0.500000  0.019425  0.304556  1
