# generated using pymatgen
data_Er3Lu17(Cd3Os)2
_symmetry_space_group_name_H-M   'P 1'
_cell_length_a   9.42336000
_cell_length_b   9.42335987
_cell_length_c   9.69654800
_cell_angle_alpha   90.00000000
_cell_angle_beta   90.00000000
_cell_angle_gamma   120.00000045
_symmetry_Int_Tables_number   1
_chemical_formula_structural   Er3Lu17(Cd3Os)2
_chemical_formula_sum   'Er3 Lu17 Cd6 Os2'
_cell_volume   745.69175456
_cell_formula_units_Z   1
loop_
 _symmetry_equiv_pos_site_id
 _symmetry_equiv_pos_as_xyz
  1  'x, y, z'
loop_
 _atom_site_type_symbol
 _atom_site_label
 _atom_site_symmetry_multiplicity
 _atom_site_fract_x
 _atom_site_fract_y
 _atom_site_fract_z
 _atom_site_occupancy
  Er  Er0  1  0.461333  0.538667  0.750000  1
  Er  Er1  1  0.461333  0.922665  0.750000  1
  Er  Er2  1  0.077335  0.538667  0.750000  1
  Lu  Lu3  1  0.000000  0.000000  0.499768  1
  Lu  Lu4  1  0.000000  0.000000  0.000232  1
  Lu  Lu5  1  0.209746  0.790254  0.441031  1
  Lu  Lu6  1  0.209746  0.419491  0.441031  1
  Lu  Lu7  1  0.580509  0.790254  0.441031  1
  Lu  Lu8  1  0.789889  0.210111  0.557279  1
  Lu  Lu9  1  0.789889  0.579779  0.557279  1
  Lu  Lu10  1  0.420221  0.210111  0.557279  1
  Lu  Lu11  1  0.789889  0.210111  0.942721  1
  Lu  Lu12  1  0.789889  0.579779  0.942721  1
  Lu  Lu13  1  0.420221  0.210111  0.942721  1
  Lu  Lu14  1  0.209746  0.790254  0.058969  1
  Lu  Lu15  1  0.209746  0.419491  0.058969  1
  Lu  Lu16  1  0.580509  0.790254  0.058969  1
  Lu  Lu17  1  0.539305  0.460695  0.250000  1
  Lu  Lu18  1  0.539305  0.078610  0.250000  1
  Lu  Lu19  1  0.921390  0.460695  0.250000  1
  Cd  Cd20  1  0.885881  0.114119  0.250000  1
  Cd  Cd21  1  0.885881  0.771765  0.250000  1
  Cd  Cd22  1  0.228235  0.114119  0.250000  1
  Cd  Cd23  1  0.113082  0.886918  0.750000  1
  Cd  Cd24  1  0.113082  0.226163  0.750000  1
  Cd  Cd25  1  0.773837  0.886918  0.750000  1
  Os  Os26  1  0.333333  0.666667  0.250000  1
  Os  Os27  1  0.666667  0.333333  0.750000  1
