# generated using pymatgen
data_Y4Er3TmPt4
_symmetry_space_group_name_H-M   'P 1'
_cell_length_a   4.76223000
_cell_length_b   7.14932185
_cell_length_c   8.73841220
_cell_angle_alpha   89.93904017
_cell_angle_beta   90.00000000
_cell_angle_gamma   90.00000000
_symmetry_Int_Tables_number   1
_chemical_formula_structural   Y4Er3TmPt4
_chemical_formula_sum   'Y4 Er3 Tm1 Pt4'
_cell_volume   297.51406119
_cell_formula_units_Z   1
loop_
 _symmetry_equiv_pos_site_id
 _symmetry_equiv_pos_as_xyz
  1  'x, y, z'
loop_
 _atom_site_type_symbol
 _atom_site_label
 _atom_site_symmetry_multiplicity
 _atom_site_fract_x
 _atom_site_fract_y
 _atom_site_fract_z
 _atom_site_occupancy
  Y  Y0  1  0.250000  0.989301  0.330805  1
  Y  Y1  1  0.250000  0.490246  0.170035  1
  Y  Y2  1  0.750000  0.009434  0.670067  1
  Y  Y3  1  0.750000  0.510750  0.829319  1
  Er  Er4  1  0.250000  0.856150  0.921176  1
  Er  Er5  1  0.250000  0.356217  0.578483  1
  Er  Er6  1  0.750000  0.144239  0.079113  1
  Tm  Tm7  1  0.750000  0.643953  0.421142  1
  Pt  Pt8  1  0.250000  0.254594  0.906290  1
  Pt  Pt9  1  0.250000  0.753744  0.593290  1
  Pt  Pt10  1  0.750000  0.745129  0.093797  1
  Pt  Pt11  1  0.750000  0.246242  0.406484  1
