# generated using pymatgen
data_SrPu2O7
_symmetry_space_group_name_H-M   'P 1'
_cell_length_a   7.73628513
_cell_length_b   7.72516474
_cell_length_c   7.72954800
_cell_angle_alpha   126.94399151
_cell_angle_beta   127.03296856
_cell_angle_gamma   78.26309573
_symmetry_Int_Tables_number   1
_chemical_formula_structural   SrPu2O7
_chemical_formula_sum   'Sr2 Pu4 O14'
_cell_volume   285.48100024
_cell_formula_units_Z   2
loop_
 _symmetry_equiv_pos_site_id
 _symmetry_equiv_pos_as_xyz
  1  'x, y, z'
loop_
 _atom_site_type_symbol
 _atom_site_label
 _atom_site_symmetry_multiplicity
 _atom_site_fract_x
 _atom_site_fract_y
 _atom_site_fract_z
 _atom_site_occupancy
  Sr  Sr0  1  0.999845  0.000121  0.000171  1
  Sr  Sr1  1  0.750155  0.249879  0.499829  1
  Pu  Pu2  1  0.875000  0.625000  0.250000  1
  Pu  Pu3  1  0.375000  0.625000  0.250000  1
  Pu  Pu4  1  0.374999  0.125000  0.749999  1
  Pu  Pu5  1  0.375000  0.625000  0.750000  1
  O  O6  1  0.249919  0.749945  0.499836  1
  O  O7  1  0.500081  0.500055  0.000164  1
  O  O8  1  0.724744  0.724774  0.000085  1
  O  O9  1  0.474627  0.974190  0.499498  1
  O  O10  1  0.025256  0.525226  0.499915  1
  O  O11  1  0.275373  0.275810  0.000502  1
  O  O12  1  0.874883  0.353338  0.978349  1
  O  O13  1  0.103361  0.625054  0.978342  1
  O  O14  1  0.646603  0.124981  0.021658  1
  O  O15  1  0.375013  0.896779  0.021661  1
  O  O16  1  0.875117  0.896661  0.521651  1
  O  O17  1  0.646640  0.624946  0.521658  1
  O  O18  1  0.103398  0.125019  0.478343  1
  O  O19  1  0.374987  0.353221  0.478339  1
