# generated using pymatgen
data_Y3Lu2(InSb)2
_symmetry_space_group_name_H-M   'P 1'
_cell_length_a   8.72837639
_cell_length_b   8.78962378
_cell_length_c   8.05909184
_cell_angle_alpha   90.10537680
_cell_angle_beta   90.12862503
_cell_angle_gamma   125.14362862
_symmetry_Int_Tables_number   1
_chemical_formula_structural   Y3Lu2(InSb)2
_chemical_formula_sum   'Y6 Lu4 In4 Sb4'
_cell_volume   505.57519255
_cell_formula_units_Z   2
loop_
 _symmetry_equiv_pos_site_id
 _symmetry_equiv_pos_as_xyz
  1  'x, y, z'
loop_
 _atom_site_type_symbol
 _atom_site_label
 _atom_site_symmetry_multiplicity
 _atom_site_fract_x
 _atom_site_fract_y
 _atom_site_fract_z
 _atom_site_occupancy
  Y  Y0  1  0.469116  0.193616  0.833579  1
  Y  Y1  1  0.810291  0.533534  0.167417  1
  Y  Y2  1  0.530884  0.806384  0.166421  1
  Y  Y3  1  0.189709  0.466466  0.832583  1
  Y  Y4  1  0.691264  0.967026  0.666295  1
  Y  Y5  1  0.308736  0.032974  0.333705  1
  Lu  Lu6  1  0.032188  0.301171  0.334983  1
  Lu  Lu7  1  0.967812  0.698829  0.665017  1
  Lu  Lu8  1  0.000000  0.000000  0.000000  1
  Lu  Lu9  1  0.500000  0.500000  0.500000  1
  In  In10  1  0.369489  0.370526  0.130009  1
  In  In11  1  0.630511  0.629474  0.869991  1
  In  In12  1  0.130314  0.130304  0.629578  1
  In  In13  1  0.869686  0.869696  0.370422  1
  Sb  Sb14  1  0.798284  0.201508  0.004577  1
  Sb  Sb15  1  0.201716  0.798492  0.995423  1
  Sb  Sb16  1  0.710144  0.302225  0.502164  1
  Sb  Sb17  1  0.289856  0.697775  0.497836  1
