# generated using pymatgen
data_Rb2Ag(TeO4)3
_symmetry_space_group_name_H-M   'P 1'
_cell_length_a   7.24908700
_cell_length_b   7.24908691
_cell_length_c   7.45240365
_cell_angle_alpha   60.29083384
_cell_angle_beta   60.29083640
_cell_angle_gamma   60.65526942
_symmetry_Int_Tables_number   1
_chemical_formula_structural   Rb2Ag(TeO4)3
_chemical_formula_sum   'Rb2 Ag1 Te3 O12'
_cell_volume   279.49034035
_cell_formula_units_Z   1
loop_
 _symmetry_equiv_pos_site_id
 _symmetry_equiv_pos_as_xyz
  1  'x, y, z'
loop_
 _atom_site_type_symbol
 _atom_site_label
 _atom_site_symmetry_multiplicity
 _atom_site_fract_x
 _atom_site_fract_y
 _atom_site_fract_z
 _atom_site_occupancy
  Rb  Rb0  1  0.116187  0.135658  0.623607  1
  Rb  Rb1  1  0.864342  0.883813  0.376393  1
  Ag  Ag2  1  0.497408  0.502592  0.000000  1
  Te  Te3  1  0.497801  0.002002  0.999842  1
  Te  Te4  1  0.997998  0.502199  0.000158  1
  Te  Te5  1  0.498083  0.501917  0.500000  1
  O  O6  1  0.819627  0.823836  0.927636  1
  O  O7  1  0.413184  0.413505  0.359153  1
  O  O8  1  0.419941  0.842341  0.917721  1
  O  O9  1  0.819749  0.422577  0.313708  1
  O  O10  1  0.837602  0.423216  0.920308  1
  O  O11  1  0.418809  0.823255  0.313392  1
  O  O12  1  0.176164  0.180373  0.072364  1
  O  O13  1  0.586495  0.586816  0.640847  1
  O  O14  1  0.576784  0.162398  0.079692  1
  O  O15  1  0.176745  0.581191  0.686608  1
  O  O16  1  0.157659  0.580059  0.082279  1
  O  O17  1  0.577423  0.180251  0.686292  1
