# generated using pymatgen
data_Ac3Th5(ZnIr)8
_symmetry_space_group_name_H-M   'P 1'
_cell_length_a   3.98335800
_cell_length_b   7.48723615
_cell_length_c   16.67472200
_cell_angle_alpha   90.36165004
_cell_angle_beta   90.00000000
_cell_angle_gamma   90.00000000
_symmetry_Int_Tables_number   1
_chemical_formula_structural   Ac3Th5(ZnIr)8
_chemical_formula_sum   'Ac3 Th5 Zn8 Ir8'
_cell_volume   497.30270520
_cell_formula_units_Z   1
loop_
 _symmetry_equiv_pos_site_id
 _symmetry_equiv_pos_as_xyz
  1  'x, y, z'
loop_
 _atom_site_type_symbol
 _atom_site_label
 _atom_site_symmetry_multiplicity
 _atom_site_fract_x
 _atom_site_fract_y
 _atom_site_fract_z
 _atom_site_occupancy
  Ac  Ac0  1  0.750000  0.446798  0.216079  1
  Ac  Ac1  1  0.250000  0.053228  0.714990  1
  Ac  Ac2  1  0.250000  0.554227  0.784308  1
  Th  Th3  1  0.250000  0.172107  0.941176  1
  Th  Th4  1  0.250000  0.670671  0.557651  1
  Th  Th5  1  0.750000  0.325773  0.438715  1
  Th  Th6  1  0.750000  0.944094  0.286035  1
  Th  Th7  1  0.750000  0.832134  0.061438  1
  Zn  Zn8  1  0.750000  0.004386  0.555732  1
  Zn  Zn9  1  0.250000  0.619212  0.350389  1
  Zn  Zn10  1  0.750000  0.384743  0.645462  1
  Zn  Zn11  1  0.250000  0.499007  0.058166  1
  Zn  Zn12  1  0.750000  0.505848  0.943572  1
  Zn  Zn13  1  0.250000  0.993243  0.440979  1
  Zn  Zn14  1  0.250000  0.116331  0.150469  1
  Zn  Zn15  1  0.750000  0.885452  0.854011  1
  Ir  Ir16  1  0.750000  0.744855  0.436722  1
  Ir  Ir17  1  0.250000  0.228115  0.318111  1
  Ir  Ir18  1  0.750000  0.248998  0.822746  1
  Ir  Ir19  1  0.750000  0.748458  0.675586  1
  Ir  Ir20  1  0.250000  0.257560  0.557577  1
  Ir  Ir21  1  0.250000  0.761418  0.186794  1
  Ir  Ir22  1  0.750000  0.244530  0.060607  1
  Ir  Ir23  1  0.250000  0.758810  0.942686  1
