# generated using pymatgen
data_VSb3F20
_symmetry_space_group_name_H-M   'P 1'
_cell_length_a   5.63561028
_cell_length_b   7.55286839
_cell_length_c   10.07603515
_cell_angle_alpha   88.16381856
_cell_angle_beta   105.76022986
_cell_angle_gamma   98.80185514
_symmetry_Int_Tables_number   1
_chemical_formula_structural   VSb3F20
_chemical_formula_sum   'V1 Sb3 F20'
_cell_volume   407.88205226
_cell_formula_units_Z   1
loop_
 _symmetry_equiv_pos_site_id
 _symmetry_equiv_pos_as_xyz
  1  'x, y, z'
loop_
 _atom_site_type_symbol
 _atom_site_label
 _atom_site_symmetry_multiplicity
 _atom_site_fract_x
 _atom_site_fract_y
 _atom_site_fract_z
 _atom_site_occupancy
  V  V0  1  0.341666  0.390201  0.222006  1
  Sb  Sb1  1  0.657440  0.608767  0.777372  1
  Sb  Sb2  1  0.964010  0.764245  0.313001  1
  Sb  Sb3  1  0.033363  0.226576  0.685192  1
  F  F4  1  0.046848  0.266285  0.172348  1
  F  F5  1  0.981979  0.736959  0.829675  1
  F  F6  1  0.492935  0.241510  0.161704  1
  F  F7  1  0.493895  0.769248  0.844312  1
  F  F8  1  0.112138  0.232662  0.879292  1
  F  F9  1  0.887650  0.769876  0.118428  1
  F  F10  1  0.963163  0.289362  0.497807  1
  F  F11  1  0.035003  0.710446  0.502887  1
  F  F12  1  0.753590  0.048447  0.663259  1
  F  F13  1  0.241765  0.946583  0.335702  1
  F  F14  1  0.270112  0.080804  0.676212  1
  F  F15  1  0.735250  0.918563  0.322097  1
  F  F16  1  0.311836  0.445011  0.709494  1
  F  F17  1  0.687523  0.553504  0.288797  1
  F  F18  1  0.804208  0.412537  0.694565  1
  F  F19  1  0.183067  0.580292  0.302706  1
  F  F20  1  0.696204  0.453846  0.929509  1
  F  F21  1  0.309381  0.540941  0.084581  1
  F  F22  1  0.575355  0.680884  0.592681  1
  F  F23  1  0.421619  0.332453  0.396373  1
