# generated using pymatgen
data_Y5Lu3(TcI4)2
_symmetry_space_group_name_H-M   'P 1'
_cell_length_a   11.40266254
_cell_length_b   11.41863230
_cell_length_c   6.15101900
_cell_angle_alpha   90.01879647
_cell_angle_beta   90.01767715
_cell_angle_gamma   88.43511143
_symmetry_Int_Tables_number   1
_chemical_formula_structural   Y5Lu3(TcI4)2
_chemical_formula_sum   'Y5 Lu3 Tc2 I8'
_cell_volume   800.58118632
_cell_formula_units_Z   1
loop_
 _symmetry_equiv_pos_site_id
 _symmetry_equiv_pos_as_xyz
  1  'x, y, z'
loop_
 _atom_site_type_symbol
 _atom_site_label
 _atom_site_symmetry_multiplicity
 _atom_site_fract_x
 _atom_site_fract_y
 _atom_site_fract_z
 _atom_site_occupancy
  Y  Y0  1  0.196001  0.080798  0.499953  1
  Y  Y1  1  0.922193  0.802624  0.999391  1
  Y  Y2  1  0.915338  0.199518  0.500254  1
  Y  Y3  1  0.198781  0.914336  0.000267  1
  Y  Y4  1  0.802375  0.923161  0.499439  1
  Lu  Lu5  1  0.810241  0.079411  0.998722  1
  Lu  Lu6  1  0.080132  0.811403  0.498716  1
  Lu  Lu7  1  0.076221  0.186749  0.000088  1
  Tc  Tc8  1  0.999821  0.000103  0.249767  1
  Tc  Tc9  1  0.000072  0.999908  0.749541  1
  I  I10  1  0.643173  0.153415  0.509082  1
  I  I11  1  0.860730  0.649932  0.504549  1
  I  I12  1  0.348859  0.144514  0.995287  1
  I  I13  1  0.142257  0.352362  0.493996  1
  I  I14  1  0.648595  0.860636  0.004661  1
  I  I15  1  0.352695  0.846405  0.493465  1
  I  I16  1  0.152550  0.643761  0.009054  1
  I  I17  1  0.849969  0.350965  0.993768  1
