# generated using pymatgen
data_Ho8AlPdPt23
_symmetry_space_group_name_H-M   'P 1'
_cell_length_a   8.33929300
_cell_length_b   8.33929300
_cell_length_c   8.34934900
_cell_angle_alpha   90.00000000
_cell_angle_beta   90.00000000
_cell_angle_gamma   90.00000000
_symmetry_Int_Tables_number   1
_chemical_formula_structural   Ho8AlPdPt23
_chemical_formula_sum   'Ho8 Al1 Pd1 Pt23'
_cell_volume   580.64552161
_cell_formula_units_Z   1
loop_
 _symmetry_equiv_pos_site_id
 _symmetry_equiv_pos_as_xyz
  1  'x, y, z'
loop_
 _atom_site_type_symbol
 _atom_site_label
 _atom_site_symmetry_multiplicity
 _atom_site_fract_x
 _atom_site_fract_y
 _atom_site_fract_z
 _atom_site_occupancy
  Ho  Ho0  1  0.251429  0.251429  0.251574  1
  Ho  Ho1  1  0.748507  0.748507  0.748474  1
  Ho  Ho2  1  0.748571  0.748571  0.251574  1
  Ho  Ho3  1  0.748507  0.251493  0.748474  1
  Ho  Ho4  1  0.251493  0.251493  0.748474  1
  Ho  Ho5  1  0.251429  0.748571  0.251574  1
  Ho  Ho6  1  0.251493  0.748507  0.748474  1
  Ho  Ho7  1  0.748571  0.251429  0.251574  1
  Al  Al8  1  0.000000  0.000000  0.000170  1
  Pd  Pd9  1  0.500000  0.500000  0.746783  1
  Pt  Pt10  1  0.260865  0.500000  0.000200  1
  Pt  Pt11  1  0.739135  0.500000  0.000200  1
  Pt  Pt12  1  0.000000  0.260753  0.500068  1
  Pt  Pt13  1  0.500000  0.260865  0.000200  1
  Pt  Pt14  1  0.000000  0.739247  0.500068  1
  Pt  Pt15  1  0.500000  0.739135  0.000200  1
  Pt  Pt16  1  0.500000  0.000000  0.260519  1
  Pt  Pt17  1  0.260753  0.000000  0.500068  1
  Pt  Pt18  1  0.500000  0.000000  0.739314  1
  Pt  Pt19  1  0.739247  0.000000  0.500068  1
  Pt  Pt20  1  0.000000  0.500000  0.260519  1
  Pt  Pt21  1  0.000000  0.500000  0.739314  1
  Pt  Pt22  1  0.253375  0.500000  0.499768  1
  Pt  Pt23  1  0.746625  0.500000  0.499768  1
  Pt  Pt24  1  0.500000  0.253375  0.499768  1
  Pt  Pt25  1  0.500000  0.746625  0.499768  1
  Pt  Pt26  1  0.500000  0.500000  0.253131  1
  Pt  Pt27  1  0.291369  0.000000  0.999888  1
  Pt  Pt28  1  0.708631  0.000000  0.999888  1
  Pt  Pt29  1  0.000000  0.291369  0.999888  1
  Pt  Pt30  1  0.000000  0.708631  0.999888  1
  Pt  Pt31  1  0.000000  0.000000  0.291274  1
  Pt  Pt32  1  0.000000  0.000000  0.709093  1
