# generated using pymatgen
data_Nd2Eu6Si12Pt3Au
_symmetry_space_group_name_H-M   'P 1'
_cell_length_a   8.25958000
_cell_length_b   8.25958028
_cell_length_c   8.61995200
_cell_angle_alpha   89.99998613
_cell_angle_beta   90.00001387
_cell_angle_gamma   119.99999089
_symmetry_Int_Tables_number   1
_chemical_formula_structural   Nd2Eu6Si12Pt3Au
_chemical_formula_sum   'Nd2 Eu6 Si12 Pt3 Au1'
_cell_volume   509.27394938
_cell_formula_units_Z   1
loop_
 _symmetry_equiv_pos_site_id
 _symmetry_equiv_pos_as_xyz
  1  'x, y, z'
loop_
 _atom_site_type_symbol
 _atom_site_label
 _atom_site_symmetry_multiplicity
 _atom_site_fract_x
 _atom_site_fract_y
 _atom_site_fract_z
 _atom_site_occupancy
  Nd  Nd0  1  0.000000  0.000000  0.748865  1
  Nd  Nd1  1  0.000000  0.000000  0.251146  1
  Eu  Eu2  1  0.497872  0.502128  0.746772  1
  Eu  Eu3  1  0.498888  0.501112  0.253226  1
  Eu  Eu4  1  0.004257  0.502128  0.746772  1
  Eu  Eu5  1  0.002224  0.501112  0.253226  1
  Eu  Eu6  1  0.497872  0.995742  0.746772  1
  Eu  Eu7  1  0.498888  0.997776  0.253226  1
  Si  Si8  1  0.838599  0.161401  0.999468  1
  Si  Si9  1  0.166387  0.833613  0.000538  1
  Si  Si10  1  0.322802  0.161402  0.999468  1
  Si  Si11  1  0.164765  0.835235  0.499471  1
  Si  Si12  1  0.667228  0.833613  0.000538  1
  Si  Si13  1  0.834650  0.165350  0.500654  1
  Si  Si14  1  0.838599  0.677198  0.999468  1
  Si  Si15  1  0.670473  0.835235  0.499471  1
  Si  Si16  1  0.166387  0.332772  0.000538  1
  Si  Si17  1  0.330702  0.165350  0.500654  1
  Si  Si18  1  0.164765  0.329527  0.499471  1
  Si  Si19  1  0.834650  0.669298  0.500654  1
  Pt  Pt20  1  0.333333  0.666667  0.000804  1
  Pt  Pt21  1  0.333333  0.666667  0.499114  1
  Pt  Pt22  1  0.666667  0.333333  0.501033  1
  Au  Au23  1  0.666667  0.333333  0.998648  1
