# generated using pymatgen
data_Pr3Pa(Al3Rh)6
_symmetry_space_group_name_H-M   'P 1'
_cell_length_a   7.65772110
_cell_length_b   7.64113823
_cell_length_c   9.53054900
_cell_angle_alpha   90.00000000
_cell_angle_beta   90.00000000
_cell_angle_gamma   119.53760181
_symmetry_Int_Tables_number   1
_chemical_formula_structural   Pr3Pa(Al3Rh)6
_chemical_formula_sum   'Pr3 Pa1 Al18 Rh6'
_cell_volume   485.18896809
_cell_formula_units_Z   1
loop_
 _symmetry_equiv_pos_site_id
 _symmetry_equiv_pos_as_xyz
  1  'x, y, z'
loop_
 _atom_site_type_symbol
 _atom_site_label
 _atom_site_symmetry_multiplicity
 _atom_site_fract_x
 _atom_site_fract_y
 _atom_site_fract_z
 _atom_site_occupancy
  Pr  Pr0  1  0.005977  0.329346  0.250000  1
  Pr  Pr1  1  0.671304  0.994613  0.750000  1
  Pr  Pr2  1  0.329792  0.005284  0.250000  1
  Pa  Pa3  1  0.996245  0.671970  0.750000  1
  Al  Al4  1  0.132260  0.128808  0.750000  1
  Al  Al5  1  0.870412  0.870422  0.250000  1
  Al  Al6  1  0.002600  0.335386  0.576032  1
  Al  Al7  1  0.996892  0.664653  0.426288  1
  Al  Al8  1  0.996892  0.664653  0.073712  1
  Al  Al9  1  0.335878  0.002907  0.924064  1
  Al  Al10  1  0.002600  0.335386  0.923968  1
  Al  Al11  1  0.664931  0.997442  0.074408  1
  Al  Al12  1  0.664931  0.997442  0.425592  1
  Al  Al13  1  0.335878  0.002907  0.575936  1
  Al  Al14  1  0.334337  0.334365  0.047446  1
  Al  Al15  1  0.664746  0.664965  0.951387  1
  Al  Al16  1  0.664746  0.664965  0.548613  1
  Al  Al17  1  0.334337  0.334365  0.452554  1
  Al  Al18  1  0.336401  0.545948  0.750000  1
  Al  Al19  1  0.659775  0.451947  0.250000  1
  Al  Al20  1  0.549402  0.345114  0.750000  1
  Al  Al21  1  0.452568  0.659513  0.250000  1
  Rh  Rh22  1  0.672985  0.331095  0.503327  1
  Rh  Rh23  1  0.326819  0.671226  0.503489  1
  Rh  Rh24  1  0.326819  0.671226  0.996511  1
  Rh  Rh25  1  0.672985  0.331095  0.996673  1
  Rh  Rh26  1  0.998744  0.996480  0.504330  1
  Rh  Rh27  1  0.998744  0.996480  0.995670  1
