# generated using pymatgen
data_Dy8Ho4GaNi4Hg
_symmetry_space_group_name_H-M   'P 1'
_cell_length_a   8.34555543
_cell_length_b   8.34560762
_cell_length_c   8.34555589
_cell_angle_alpha   113.03786783
_cell_angle_beta   109.28255029
_cell_angle_gamma   106.16649048
_symmetry_Int_Tables_number   1
_chemical_formula_structural   Dy8Ho4GaNi4Hg
_chemical_formula_sum   'Dy8 Ho4 Ga1 Ni4 Hg1'
_cell_volume   445.83515131
_cell_formula_units_Z   1
loop_
 _symmetry_equiv_pos_site_id
 _symmetry_equiv_pos_as_xyz
  1  'x, y, z'
loop_
 _atom_site_type_symbol
 _atom_site_label
 _atom_site_symmetry_multiplicity
 _atom_site_fract_x
 _atom_site_fract_y
 _atom_site_fract_z
 _atom_site_occupancy
  Dy  Dy0  1  0.430538  0.234888  0.195653  1
  Dy  Dy1  1  0.569462  0.765112  0.804347  1
  Dy  Dy2  1  0.039235  0.234888  0.804349  1
  Dy  Dy3  1  0.960765  0.765112  0.195651  1
  Dy  Dy4  1  0.179538  0.285485  0.465023  1
  Dy  Dy5  1  0.820462  0.714515  0.534977  1
  Dy  Dy6  1  0.179539  0.714515  0.894054  1
  Dy  Dy7  1  0.820461  0.285485  0.105946  1
  Ho  Ho8  1  0.325530  0.633914  0.308385  1
  Ho  Ho9  1  0.674470  0.366086  0.691615  1
  Ho  Ho10  1  0.325533  0.017149  0.691617  1
  Ho  Ho11  1  0.674467  0.982851  0.308383  1
  Ga  Ga12  1  0.000000  0.000000  0.000000  1
  Ni  Ni13  1  0.351715  0.000000  0.351715  1
  Ni  Ni14  1  0.648285  0.000000  0.648285  1
  Ni  Ni15  1  0.122610  0.622612  0.500002  1
  Ni  Ni16  1  0.877390  0.377388  0.499998  1
  Hg  Hg17  1  0.500000  0.500000  0.000000  1
