# generated using pymatgen
data_Li5La6Cd18Se
_symmetry_space_group_name_H-M   'P 1'
_cell_length_a   10.02009261
_cell_length_b   10.06580393
_cell_length_c   10.05566200
_cell_angle_alpha   60.03337030
_cell_angle_beta   59.87925128
_cell_angle_gamma   60.10230646
_symmetry_Int_Tables_number   1
_chemical_formula_structural   Li5La6Cd18Se
_chemical_formula_sum   'Li5 La6 Cd18 Se1'
_cell_volume   717.23490288
_cell_formula_units_Z   1
loop_
 _symmetry_equiv_pos_site_id
 _symmetry_equiv_pos_as_xyz
  1  'x, y, z'
loop_
 _atom_site_type_symbol
 _atom_site_label
 _atom_site_symmetry_multiplicity
 _atom_site_fract_x
 _atom_site_fract_y
 _atom_site_fract_z
 _atom_site_occupancy
  Li  Li0  1  0.000000  0.000000  0.500000  1
  Li  Li1  1  0.500000  0.000000  0.500000  1
  Li  Li2  1  0.500000  0.500000  0.000000  1
  Li  Li3  1  0.500000  0.000000  0.000000  1
  Li  Li4  1  0.500000  0.500000  0.500000  1
  La  La5  1  0.792575  0.784356  0.211533  1
  La  La6  1  0.209195  0.786575  0.214080  1
  La  La7  1  0.790841  0.213434  0.209827  1
  La  La8  1  0.207425  0.215644  0.788467  1
  La  La9  1  0.790805  0.213425  0.785920  1
  La  La10  1  0.209159  0.786566  0.790173  1
  Cd  Cd11  1  0.825747  0.837005  0.511218  1
  Cd  Cd12  1  0.821142  0.510135  0.834360  1
  Cd  Cd13  1  0.511829  0.829525  0.829311  1
  Cd  Cd14  1  0.825750  0.836993  0.826063  1
  Cd  Cd15  1  0.174253  0.162995  0.488782  1
  Cd  Cd16  1  0.178858  0.489865  0.165640  1
  Cd  Cd17  1  0.488171  0.170475  0.170689  1
  Cd  Cd18  1  0.174250  0.163007  0.173937  1
  Cd  Cd19  1  0.611867  0.622292  0.144413  1
  Cd  Cd20  1  0.618209  0.143530  0.619121  1
  Cd  Cd21  1  0.144576  0.625252  0.615091  1
  Cd  Cd22  1  0.611850  0.622267  0.621457  1
  Cd  Cd23  1  0.388133  0.377708  0.855587  1
  Cd  Cd24  1  0.381791  0.856470  0.380879  1
  Cd  Cd25  1  0.855424  0.374748  0.384909  1
  Cd  Cd26  1  0.388150  0.377733  0.378543  1
  Cd  Cd27  1  0.000000  0.500000  0.500000  1
  Cd  Cd28  1  0.000000  0.500000  0.000000  1
  Se  Se29  1  0.000000  0.000000  0.000000  1
