# generated using pymatgen
data_Nd3DyZn4Si3Ge
_symmetry_space_group_name_H-M   'P 1'
_cell_length_a   4.21777100
_cell_length_b   4.21777053
_cell_length_c   16.45059400
_cell_angle_alpha   90.00000000
_cell_angle_beta   90.00000000
_cell_angle_gamma   120.00001154
_symmetry_Int_Tables_number   1
_chemical_formula_structural   Nd3DyZn4Si3Ge
_chemical_formula_sum   'Nd3 Dy1 Zn4 Si3 Ge1'
_cell_volume   253.44172134
_cell_formula_units_Z   1
loop_
 _symmetry_equiv_pos_site_id
 _symmetry_equiv_pos_as_xyz
  1  'x, y, z'
loop_
 _atom_site_type_symbol
 _atom_site_label
 _atom_site_symmetry_multiplicity
 _atom_site_fract_x
 _atom_site_fract_y
 _atom_site_fract_z
 _atom_site_occupancy
  Nd  Nd0  1  0.000000  0.000000  0.748057  1
  Nd  Nd1  1  0.000000  0.000000  0.006526  1
  Nd  Nd2  1  0.000000  0.000000  0.495102  1
  Dy  Dy3  1  0.000000  0.000000  0.250487  1
  Zn  Zn4  1  0.333333  0.666667  0.144754  1
  Zn  Zn5  1  0.666667  0.333333  0.863929  1
  Zn  Zn6  1  0.666667  0.333333  0.630866  1
  Zn  Zn7  1  0.333333  0.666667  0.356236  1
  Si  Si8  1  0.333333  0.666667  0.618581  1
  Si  Si9  1  0.666667  0.333333  0.375522  1
  Si  Si10  1  0.666667  0.333333  0.125752  1
  Ge  Ge11  1  0.333333  0.666667  0.884188  1
