# generated using pymatgen
data_HoEr11GaCo4Ru
_symmetry_space_group_name_H-M   'P 1'
_cell_length_a   8.14925411
_cell_length_b   8.14925446
_cell_length_c   8.14870229
_cell_angle_alpha   106.65219720
_cell_angle_beta   110.68012938
_cell_angle_gamma   111.12056502
_symmetry_Int_Tables_number   1
_chemical_formula_structural   HoEr11GaCo4Ru
_chemical_formula_sum   'Ho1 Er11 Ga1 Co4 Ru1'
_cell_volume   415.81160856
_cell_formula_units_Z   1
loop_
 _symmetry_equiv_pos_site_id
 _symmetry_equiv_pos_as_xyz
  1  'x, y, z'
loop_
 _atom_site_type_symbol
 _atom_site_label
 _atom_site_symmetry_multiplicity
 _atom_site_fract_x
 _atom_site_fract_y
 _atom_site_fract_z
 _atom_site_occupancy
  Ho  Ho0  1  0.693099  0.273341  0.966439  1
  Er  Er1  1  0.306843  0.726360  0.033202  1
  Er  Er2  1  0.693136  0.726498  0.419636  1
  Er  Er3  1  0.306643  0.273583  0.580224  1
  Er  Er4  1  0.803158  0.119431  0.316718  1
  Er  Er5  1  0.803091  0.486690  0.683337  1
  Er  Er6  1  0.196647  0.880246  0.683337  1
  Er  Er7  1  0.197286  0.513560  0.316718  1
  Er  Er8  1  0.597113  0.779420  0.817490  1
  Er  Er9  1  0.962298  0.779923  0.182571  1
  Er  Er10  1  0.038072  0.220377  0.817490  1
  Er  Er11  1  0.402649  0.220271  0.182571  1
  Ga  Ga12  1  0.499892  0.999910  0.499802  1
  Co  Co13  1  0.873614  0.500121  0.373734  1
  Co  Co14  1  0.126514  0.500033  0.626547  1
  Co  Co15  1  0.000141  0.113189  0.113330  1
  Co  Co16  1  0.000070  0.886747  0.886818  1
  Ru  Ru17  1  0.499735  0.500300  0.000035  1
