# generated using pymatgen
data_Sm4Co17Si6(P2Ru)3
_symmetry_space_group_name_H-M   'P 1'
_cell_length_a   3.72137100
_cell_length_b   10.51160376
_cell_length_c   11.93587262
_cell_angle_alpha   90.11122890
_cell_angle_beta   90.00000000
_cell_angle_gamma   90.00000000
_symmetry_Int_Tables_number   1
_chemical_formula_structural   Sm4Co17Si6(P2Ru)3
_chemical_formula_sum   'Sm4 Co17 Si6 P6 Ru3'
_cell_volume   466.90154121
_cell_formula_units_Z   1
loop_
 _symmetry_equiv_pos_site_id
 _symmetry_equiv_pos_as_xyz
  1  'x, y, z'
loop_
 _atom_site_type_symbol
 _atom_site_label
 _atom_site_symmetry_multiplicity
 _atom_site_fract_x
 _atom_site_fract_y
 _atom_site_fract_z
 _atom_site_occupancy
  Sm  Sm0  1  0.250000  0.582311  0.701471  1
  Sm  Sm1  1  0.250000  0.915410  0.204492  1
  Sm  Sm2  1  0.750000  0.413451  0.296852  1
  Sm  Sm3  1  0.750000  0.086095  0.797528  1
  Co  Co4  1  0.750000  0.208067  0.508967  1
  Co  Co5  1  0.250000  0.402515  0.485525  1
  Co  Co6  1  0.250000  0.094576  0.987431  1
  Co  Co7  1  0.750000  0.591471  0.506130  1
  Co  Co8  1  0.750000  0.908270  0.006991  1
  Co  Co9  1  0.250000  0.221263  0.175145  1
  Co  Co10  1  0.250000  0.277307  0.674718  1
  Co  Co11  1  0.750000  0.787279  0.824857  1
  Co  Co12  1  0.750000  0.713312  0.325098  1
  Co  Co13  1  0.250000  0.889602  0.702015  1
  Co  Co14  1  0.250000  0.610581  0.201978  1
  Co  Co15  1  0.750000  0.120147  0.305029  1
  Co  Co16  1  0.750000  0.382679  0.801115  1
  Co  Co17  1  0.250000  0.463572  0.935077  1
  Co  Co18  1  0.250000  0.038186  0.435207  1
  Co  Co19  1  0.750000  0.528303  0.069725  1
  Co  Co20  1  0.750000  0.974901  0.570759  1
  Si  Si21  1  0.750000  0.583677  0.889363  1
  Si  Si22  1  0.750000  0.917097  0.391305  1
  Si  Si23  1  0.750000  0.725730  0.131774  1
  Si  Si24  1  0.750000  0.775552  0.631062  1
  Si  Si25  1  0.750000  0.395161  0.605650  1
  Si  Si26  1  0.750000  0.100050  0.109987  1
  P  P27  1  0.250000  0.419396  0.112819  1
  P  P28  1  0.250000  0.081702  0.612072  1
  P  P29  1  0.250000  0.275856  0.864213  1
  P  P30  1  0.250000  0.225703  0.366446  1
  P  P31  1  0.250000  0.598551  0.392302  1
  P  P32  1  0.250000  0.901394  0.892073  1
  Ru  Ru33  1  0.250000  0.709508  0.987676  1
  Ru  Ru34  1  0.250000  0.791396  0.488368  1
  Ru  Ru35  1  0.750000  0.289929  0.008781  1
