# generated using pymatgen
data_DyHoEr2MnRu7
_symmetry_space_group_name_H-M   'P 1'
_cell_length_a   5.32484202
_cell_length_b   5.32347116
_cell_length_c   8.66229600
_cell_angle_alpha   90.00000051
_cell_angle_beta   89.99542234
_cell_angle_gamma   60.00849910
_symmetry_Int_Tables_number   1
_chemical_formula_structural   DyHoEr2MnRu7
_chemical_formula_sum   'Dy1 Ho1 Er2 Mn1 Ru7'
_cell_volume   212.66815863
_cell_formula_units_Z   1
loop_
 _symmetry_equiv_pos_site_id
 _symmetry_equiv_pos_as_xyz
  1  'x, y, z'
loop_
 _atom_site_type_symbol
 _atom_site_label
 _atom_site_symmetry_multiplicity
 _atom_site_fract_x
 _atom_site_fract_y
 _atom_site_fract_z
 _atom_site_occupancy
  Dy  Dy0  1  0.666749  0.666625  0.434850  1
  Ho  Ho1  1  0.333252  0.333375  0.565192  1
  Er  Er2  1  0.666688  0.666657  0.067886  1
  Er  Er3  1  0.333300  0.333349  0.932081  1
  Mn  Mn4  1  0.000004  0.999998  0.000003  1
  Ru  Ru5  1  0.000002  0.999999  0.500017  1
  Ru  Ru6  1  0.828823  0.342323  0.754490  1
  Ru  Ru7  1  0.342473  0.828764  0.754441  1
  Ru  Ru8  1  0.828823  0.828855  0.754490  1
  Ru  Ru9  1  0.171191  0.657654  0.245501  1
  Ru  Ru10  1  0.657505  0.171248  0.245548  1
  Ru  Ru11  1  0.171191  0.171153  0.245501  1
