# generated using pymatgen
data_Ho16Al4Pd3Ru
_symmetry_space_group_name_H-M   'P 1'
_cell_length_a   9.55399083
_cell_length_b   9.55399009
_cell_length_c   9.55399039
_cell_angle_alpha   59.71231481
_cell_angle_beta   59.71231631
_cell_angle_gamma   59.71231566
_symmetry_Int_Tables_number   1
_chemical_formula_structural   Ho16Al4Pd3Ru
_chemical_formula_sum   'Ho16 Al4 Pd3 Ru1'
_cell_volume   612.62161976
_cell_formula_units_Z   1
loop_
 _symmetry_equiv_pos_site_id
 _symmetry_equiv_pos_as_xyz
  1  'x, y, z'
loop_
 _atom_site_type_symbol
 _atom_site_label
 _atom_site_symmetry_multiplicity
 _atom_site_fract_x
 _atom_site_fract_y
 _atom_site_fract_z
 _atom_site_occupancy
  Ho  Ho0  1  0.355874  0.355874  0.355874  1
  Ho  Ho1  1  0.353190  0.353190  0.936669  1
  Ho  Ho2  1  0.353190  0.936669  0.353190  1
  Ho  Ho3  1  0.936669  0.353190  0.353190  1
  Ho  Ho4  1  0.814070  0.190909  0.190909  1
  Ho  Ho5  1  0.192131  0.806676  0.806676  1
  Ho  Ho6  1  0.190909  0.814070  0.190909  1
  Ho  Ho7  1  0.806676  0.192131  0.806676  1
  Ho  Ho8  1  0.190909  0.190909  0.814070  1
  Ho  Ho9  1  0.806676  0.806676  0.192131  1
  Ho  Ho10  1  0.934118  0.564959  0.564959  1
  Ho  Ho11  1  0.559546  0.936507  0.936507  1
  Ho  Ho12  1  0.564959  0.934118  0.564959  1
  Ho  Ho13  1  0.936507  0.559546  0.936507  1
  Ho  Ho14  1  0.564959  0.564959  0.934118  1
  Ho  Ho15  1  0.936507  0.936507  0.559546  1
  Al  Al16  1  0.578085  0.578085  0.578085  1
  Al  Al17  1  0.578231  0.578231  0.266606  1
  Al  Al18  1  0.578231  0.266606  0.578231  1
  Al  Al19  1  0.266606  0.578231  0.578231  1
  Pd  Pd20  1  0.145543  0.145543  0.566757  1
  Pd  Pd21  1  0.145543  0.566757  0.145543  1
  Pd  Pd22  1  0.566757  0.145543  0.145543  1
  Ru  Ru23  1  0.144112  0.144112  0.144112  1
