# generated using pymatgen
data_NdDy5Cd23P
_symmetry_space_group_name_H-M   'P 1'
_cell_length_a   9.99082230
_cell_length_b   9.93517038
_cell_length_c   9.93517075
_cell_angle_alpha   60.37094570
_cell_angle_beta   59.81453188
_cell_angle_gamma   59.81453266
_symmetry_Int_Tables_number   1
_chemical_formula_structural   NdDy5Cd23P
_chemical_formula_sum   'Nd1 Dy5 Cd23 P1'
_cell_volume   697.28370534
_cell_formula_units_Z   1
loop_
 _symmetry_equiv_pos_site_id
 _symmetry_equiv_pos_as_xyz
  1  'x, y, z'
loop_
 _atom_site_type_symbol
 _atom_site_label
 _atom_site_symmetry_multiplicity
 _atom_site_fract_x
 _atom_site_fract_y
 _atom_site_fract_z
 _atom_site_occupancy
  Nd  Nd0  1  0.202436  0.797564  0.797564  1
  Dy  Dy1  1  0.803240  0.803662  0.196760  1
  Dy  Dy2  1  0.196338  0.803662  0.196760  1
  Dy  Dy3  1  0.800130  0.199870  0.199870  1
  Dy  Dy4  1  0.196338  0.196760  0.803662  1
  Dy  Dy5  1  0.803240  0.196760  0.803662  1
  Cd  Cd6  1  0.836719  0.838625  0.487936  1
  Cd  Cd7  1  0.836719  0.487936  0.838625  1
  Cd  Cd8  1  0.492750  0.836248  0.836248  1
  Cd  Cd9  1  0.834753  0.836248  0.836248  1
  Cd  Cd10  1  0.163752  0.165247  0.507250  1
  Cd  Cd11  1  0.163752  0.507250  0.165247  1
  Cd  Cd12  1  0.512064  0.163281  0.163281  1
  Cd  Cd13  1  0.161375  0.163281  0.163281  1
  Cd  Cd14  1  0.620581  0.621596  0.137241  1
  Cd  Cd15  1  0.620581  0.137241  0.621596  1
  Cd  Cd16  1  0.134436  0.619950  0.619950  1
  Cd  Cd17  1  0.625662  0.619950  0.619950  1
  Cd  Cd18  1  0.380050  0.374338  0.865564  1
  Cd  Cd19  1  0.380050  0.865564  0.374338  1
  Cd  Cd20  1  0.862759  0.379419  0.379419  1
  Cd  Cd21  1  0.378404  0.379419  0.379419  1
  Cd  Cd22  1  0.999680  0.000320  0.499917  1
  Cd  Cd23  1  0.500083  0.000320  0.499917  1
  Cd  Cd24  1  0.999325  0.500675  0.500675  1
  Cd  Cd25  1  0.500083  0.499917  0.000320  1
  Cd  Cd26  1  0.999680  0.499917  0.000320  1
  Cd  Cd27  1  0.499325  0.000675  0.000675  1
  Cd  Cd28  1  0.498393  0.501607  0.501607  1
  P  P29  1  0.997300  0.002700  0.002700  1
