# generated using pymatgen
data_Zr3Ga3Mo2N
_symmetry_space_group_name_H-M   'P 1'
_cell_length_a   7.88415800
_cell_length_b   7.88415927
_cell_length_c   5.39069400
_cell_angle_alpha   90.00000000
_cell_angle_beta   90.00000000
_cell_angle_gamma   120.00000308
_symmetry_Int_Tables_number   1
_chemical_formula_structural   Zr3Ga3Mo2N
_chemical_formula_sum   'Zr6 Ga6 Mo4 N2'
_cell_volume   290.19238114
_cell_formula_units_Z   2
loop_
 _symmetry_equiv_pos_site_id
 _symmetry_equiv_pos_as_xyz
  1  'x, y, z'
loop_
 _atom_site_type_symbol
 _atom_site_label
 _atom_site_symmetry_multiplicity
 _atom_site_fract_x
 _atom_site_fract_y
 _atom_site_fract_z
 _atom_site_occupancy
  Zr  Zr0  1  0.235629  0.000000  0.250000  1
  Zr  Zr1  1  0.000000  0.235629  0.250000  1
  Zr  Zr2  1  0.764371  0.764371  0.250000  1
  Zr  Zr3  1  0.764371  0.000000  0.750000  1
  Zr  Zr4  1  0.000000  0.764371  0.750000  1
  Zr  Zr5  1  0.235629  0.235629  0.750000  1
  Ga  Ga6  1  0.588538  0.000000  0.250000  1
  Ga  Ga7  1  0.000000  0.588538  0.250000  1
  Ga  Ga8  1  0.411462  0.411462  0.250000  1
  Ga  Ga9  1  0.411462  0.000000  0.750000  1
  Ga  Ga10  1  0.000000  0.411462  0.750000  1
  Ga  Ga11  1  0.588538  0.588538  0.750000  1
  Mo  Mo12  1  0.666667  0.333333  0.000000  1
  Mo  Mo13  1  0.333333  0.666667  0.000000  1
  Mo  Mo14  1  0.666667  0.333333  0.500000  1
  Mo  Mo15  1  0.333333  0.666667  0.500000  1
  N  N16  1  0.000000  0.000000  0.000000  1
  N  N17  1  0.000000  0.000000  0.500000  1
