# generated using pymatgen
data_Ho2MgInRh2
_symmetry_space_group_name_H-M   'P 1'
_cell_length_a   4.10855900
_cell_length_b   7.08813400
_cell_length_c   8.64509800
_cell_angle_alpha   90.00000000
_cell_angle_beta   90.00000000
_cell_angle_gamma   90.00000000
_symmetry_Int_Tables_number   1
_chemical_formula_structural   Ho2MgInRh2
_chemical_formula_sum   'Ho4 Mg2 In2 Rh4'
_cell_volume   251.76268867
_cell_formula_units_Z   2
loop_
 _symmetry_equiv_pos_site_id
 _symmetry_equiv_pos_as_xyz
  1  'x, y, z'
loop_
 _atom_site_type_symbol
 _atom_site_label
 _atom_site_symmetry_multiplicity
 _atom_site_fract_x
 _atom_site_fract_y
 _atom_site_fract_z
 _atom_site_occupancy
  Ho  Ho0  1  0.250000  0.039798  0.324969  1
  Ho  Ho1  1  0.250000  0.539798  0.175031  1
  Ho  Ho2  1  0.750000  0.961794  0.676115  1
  Ho  Ho3  1  0.750000  0.461794  0.823885  1
  Mg  Mg4  1  0.250000  0.137268  0.940542  1
  Mg  Mg5  1  0.250000  0.637268  0.559458  1
  In  In6  1  0.750000  0.863297  0.058961  1
  In  In7  1  0.750000  0.363297  0.441039  1
  Rh  Rh8  1  0.250000  0.245828  0.633586  1
  Rh  Rh9  1  0.250000  0.745828  0.866414  1
  Rh  Rh10  1  0.750000  0.752013  0.370316  1
  Rh  Rh11  1  0.750000  0.252013  0.129684  1
