# generated using pymatgen
data_Cs2Pt(WO4)3
_symmetry_space_group_name_H-M   'P 1'
_cell_length_a   7.41949998
_cell_length_b   7.41920708
_cell_length_c   7.36787673
_cell_angle_alpha   89.99999821
_cell_angle_beta   59.76654063
_cell_angle_gamma   119.99869090
_symmetry_Int_Tables_number   1
_chemical_formula_structural   Cs2Pt(WO4)3
_chemical_formula_sum   'Cs2 Pt1 W3 O12'
_cell_volume   285.77653956
_cell_formula_units_Z   1
loop_
 _symmetry_equiv_pos_site_id
 _symmetry_equiv_pos_as_xyz
  1  'x, y, z'
loop_
 _atom_site_type_symbol
 _atom_site_label
 _atom_site_symmetry_multiplicity
 _atom_site_fract_x
 _atom_site_fract_y
 _atom_site_fract_z
 _atom_site_occupancy
  Cs  Cs0  1  0.255025  0.131453  0.117353  1
  Cs  Cs1  1  0.744975  0.876428  0.882647  1
  Pt  Pt2  1  0.000000  0.503703  0.000000  1
  W  W3  1  0.500012  0.003845  0.500058  1
  W  W4  1  0.499988  0.503832  0.499942  1
  W  W5  1  0.000000  0.503916  0.500000  1
  O  O6  1  0.621822  0.814670  0.436673  1
  O  O7  1  0.870055  0.438746  0.808036  1
  O  O8  1  0.256932  0.825590  0.808037  1
  O  O9  1  0.252402  0.445268  0.436666  1
  O  O10  1  0.256953  0.438721  0.808025  1
  O  O11  1  0.252397  0.814698  0.436718  1
  O  O12  1  0.378178  0.192847  0.563327  1
  O  O13  1  0.129945  0.568691  0.191964  1
  O  O14  1  0.743047  0.181767  0.191975  1
  O  O15  1  0.747603  0.562301  0.563282  1
  O  O16  1  0.743068  0.568658  0.191963  1
  O  O17  1  0.747598  0.192865  0.563334  1
