# generated using pymatgen
data_Ho17Er3(IrRh)6
_symmetry_space_group_name_H-M   'P 1'
_cell_length_a   10.82969798
_cell_length_b   10.82861200
_cell_length_c   6.35152300
_cell_angle_alpha   89.99960577
_cell_angle_beta   89.97371684
_cell_angle_gamma   90.00005283
_symmetry_Int_Tables_number   1
_chemical_formula_structural   Ho17Er3(IrRh)6
_chemical_formula_sum   'Ho17 Er3 Ir6 Rh6'
_cell_volume   744.84681918
_cell_formula_units_Z   1
loop_
 _symmetry_equiv_pos_site_id
 _symmetry_equiv_pos_as_xyz
  1  'x, y, z'
loop_
 _atom_site_type_symbol
 _atom_site_label
 _atom_site_symmetry_multiplicity
 _atom_site_fract_x
 _atom_site_fract_y
 _atom_site_fract_z
 _atom_site_occupancy
  Ho  Ho0  1  0.290108  0.088538  0.378873  1
  Ho  Ho1  1  0.290053  0.911461  0.878912  1
  Ho  Ho2  1  0.708462  0.089961  0.878339  1
  Ho  Ho3  1  0.708402  0.910028  0.378294  1
  Ho  Ho4  1  0.587051  0.789885  0.879071  1
  Ho  Ho5  1  0.587037  0.210114  0.379093  1
  Ho  Ho6  1  0.410832  0.790413  0.378946  1
  Ho  Ho7  1  0.410817  0.209583  0.878930  1
  Ho  Ho8  1  0.209989  0.411046  0.620837  1
  Ho  Ho9  1  0.209979  0.588965  0.120839  1
  Ho  Ho10  1  0.790114  0.412747  0.121556  1
  Ho  Ho11  1  0.790112  0.587232  0.621567  1
  Ho  Ho12  1  0.912010  0.709325  0.121592  1
  Ho  Ho13  1  0.911979  0.290724  0.621639  1
  Ho  Ho14  1  0.090414  0.708945  0.620917  1
  Ho  Ho15  1  0.090402  0.291004  0.120867  1
  Ho  Ho16  1  0.000058  0.999693  0.499817  1
  Er  Er17  1  0.000155  0.000303  0.999802  1
  Er  Er18  1  0.500249  0.499560  0.000107  1
  Er  Er19  1  0.500233  0.500479  0.500086  1
  Ir  Ir20  1  0.153030  0.153978  0.749971  1
  Ir  Ir21  1  0.153031  0.846034  0.249600  1
  Ir  Ir22  1  0.654747  0.345855  0.749704  1
  Ir  Ir23  1  0.654754  0.654147  0.249707  1
  Ir  Ir24  1  0.346628  0.346029  0.250492  1
  Ir  Ir25  1  0.346630  0.653964  0.750464  1
  Rh  Rh26  1  0.845745  0.153340  0.249757  1
  Rh  Rh27  1  0.845746  0.846652  0.750078  1
  Rh  Rh28  1  0.501040  0.000037  0.123992  1
  Rh  Rh29  1  0.501040  0.999967  0.623983  1
  Rh  Rh30  1  0.999577  0.500137  0.876079  1
  Rh  Rh31  1  0.999577  0.499854  0.376090  1
