# generated using pymatgen
data_Gd3Dy2Sn3S
_symmetry_space_group_name_H-M   'P 1'
_cell_length_a   9.15240600
_cell_length_b   9.15240505
_cell_length_c   6.74573800
_cell_angle_alpha   90.00000000
_cell_angle_beta   90.00000000
_cell_angle_gamma   120.00000345
_symmetry_Int_Tables_number   1
_chemical_formula_structural   Gd3Dy2Sn3S
_chemical_formula_sum   'Gd6 Dy4 Sn6 S2'
_cell_volume   489.36239737
_cell_formula_units_Z   2
loop_
 _symmetry_equiv_pos_site_id
 _symmetry_equiv_pos_as_xyz
  1  'x, y, z'
loop_
 _atom_site_type_symbol
 _atom_site_label
 _atom_site_symmetry_multiplicity
 _atom_site_fract_x
 _atom_site_fract_y
 _atom_site_fract_z
 _atom_site_occupancy
  Gd  Gd0  1  0.753553  0.753553  0.750000  1
  Gd  Gd1  1  0.246447  0.000000  0.750000  1
  Gd  Gd2  1  0.000000  0.246447  0.750000  1
  Gd  Gd3  1  0.246447  0.246447  0.250000  1
  Gd  Gd4  1  0.753553  0.000000  0.250000  1
  Gd  Gd5  1  0.000000  0.753553  0.250000  1
  Dy  Dy6  1  0.666667  0.333333  0.000000  1
  Dy  Dy7  1  0.333333  0.666667  0.000000  1
  Dy  Dy8  1  0.333333  0.666667  0.500000  1
  Dy  Dy9  1  0.666667  0.333333  0.500000  1
  Sn  Sn10  1  0.397164  0.397164  0.750000  1
  Sn  Sn11  1  0.602836  0.000000  0.750000  1
  Sn  Sn12  1  0.000000  0.602836  0.750000  1
  Sn  Sn13  1  0.602836  0.602836  0.250000  1
  Sn  Sn14  1  0.397164  0.000000  0.250000  1
  Sn  Sn15  1  0.000000  0.397164  0.250000  1
  S  S16  1  0.000000  0.000000  0.000000  1
  S  S17  1  0.000000  0.000000  0.500000  1
