# generated using pymatgen
data_Zr2PRh6
_symmetry_space_group_name_H-M   'P 1'
_cell_length_a   5.86816255
_cell_length_b   5.86816170
_cell_length_c   5.86816200
_cell_angle_alpha   59.99999830
_cell_angle_beta   60.00000310
_cell_angle_gamma   60.00000377
_symmetry_Int_Tables_number   1
_chemical_formula_structural   Zr2PRh6
_chemical_formula_sum   'Zr2 P1 Rh6'
_cell_volume   142.88654056
_cell_formula_units_Z   1
loop_
 _symmetry_equiv_pos_site_id
 _symmetry_equiv_pos_as_xyz
  1  'x, y, z'
loop_
 _atom_site_type_symbol
 _atom_site_label
 _atom_site_symmetry_multiplicity
 _atom_site_fract_x
 _atom_site_fract_y
 _atom_site_fract_z
 _atom_site_occupancy
  Zr  Zr0  1  0.250000  0.250000  0.250000  1
  Zr  Zr1  1  0.750000  0.750000  0.750000  1
  P  P2  1  0.000000  0.000000  0.000000  1
  Rh  Rh3  1  0.734838  0.265163  0.265163  1
  Rh  Rh4  1  0.265163  0.734838  0.265163  1
  Rh  Rh5  1  0.734837  0.734837  0.265164  1
  Rh  Rh6  1  0.265163  0.265163  0.734838  1
  Rh  Rh7  1  0.734837  0.265164  0.734837  1
  Rh  Rh8  1  0.265164  0.734837  0.734837  1
