# generated using pymatgen
data_DyTaB6Os
_symmetry_space_group_name_H-M   'P 1'
_cell_length_a   3.50573700
_cell_length_b   8.98454500
_cell_length_c   11.28124200
_cell_angle_alpha   90.00000000
_cell_angle_beta   90.00000000
_cell_angle_gamma   90.00000000
_symmetry_Int_Tables_number   1
_chemical_formula_structural   DyTaB6Os
_chemical_formula_sum   'Dy4 Ta4 B24 Os4'
_cell_volume   355.33037653
_cell_formula_units_Z   4
loop_
 _symmetry_equiv_pos_site_id
 _symmetry_equiv_pos_as_xyz
  1  'x, y, z'
loop_
 _atom_site_type_symbol
 _atom_site_label
 _atom_site_symmetry_multiplicity
 _atom_site_fract_x
 _atom_site_fract_y
 _atom_site_fract_z
 _atom_site_occupancy
  Dy  Dy0  1  0.000000  0.323601  0.413152  1
  Dy  Dy1  1  0.000000  0.676399  0.586848  1
  Dy  Dy2  1  0.000000  0.823601  0.086848  1
  Dy  Dy3  1  0.000000  0.176399  0.913152  1
  Ta  Ta4  1  0.000000  0.946825  0.377116  1
  Ta  Ta5  1  0.000000  0.053175  0.622884  1
  Ta  Ta6  1  0.000000  0.446825  0.122884  1
  Ta  Ta7  1  0.000000  0.553175  0.877116  1
  B  B8  1  0.500000  0.554675  0.433940  1
  B  B9  1  0.500000  0.445325  0.566060  1
  B  B10  1  0.500000  0.054675  0.066060  1
  B  B11  1  0.500000  0.945325  0.933940  1
  B  B12  1  0.500000  0.754296  0.419035  1
  B  B13  1  0.500000  0.245704  0.580965  1
  B  B14  1  0.500000  0.254296  0.080965  1
  B  B15  1  0.500000  0.745704  0.919035  1
  B  B16  1  0.500000  0.797870  0.263072  1
  B  B17  1  0.500000  0.202130  0.736927  1
  B  B18  1  0.500000  0.297870  0.236928  1
  B  B19  1  0.500000  0.702130  0.763073  1
  B  B20  1  0.500000  0.629245  0.181101  1
  B  B21  1  0.500000  0.370755  0.818899  1
  B  B22  1  0.500000  0.129245  0.318899  1
  B  B23  1  0.500000  0.870755  0.681101  1
  B  B24  1  0.500000  0.980638  0.214030  1
  B  B25  1  0.500000  0.019362  0.785970  1
  B  B26  1  0.500000  0.480638  0.285970  1
  B  B27  1  0.500000  0.519362  0.714030  1
  B  B28  1  0.500000  0.600459  0.026853  1
  B  B29  1  0.500000  0.399541  0.973147  1
  B  B30  1  0.500000  0.100459  0.473147  1
  B  B31  1  0.500000  0.899541  0.526853  1
  Os  Os32  1  0.000000  0.643675  0.317564  1
  Os  Os33  1  0.000000  0.356325  0.682436  1
  Os  Os34  1  0.000000  0.143675  0.182436  1
  Os  Os35  1  0.000000  0.856325  0.817564  1
