# generated using pymatgen
data_Ac10Os3Au
_symmetry_space_group_name_H-M   'P 1'
_cell_length_a   9.49171429
_cell_length_b   9.56015542
_cell_length_c   7.84404800
_cell_angle_alpha   83.58306120
_cell_angle_beta   83.54837386
_cell_angle_gamma   43.67991592
_symmetry_Int_Tables_number   1
_chemical_formula_structural   Ac10Os3Au
_chemical_formula_sum   'Ac10 Os3 Au1'
_cell_volume   487.98467591
_cell_formula_units_Z   1
loop_
 _symmetry_equiv_pos_site_id
 _symmetry_equiv_pos_as_xyz
  1  'x, y, z'
loop_
 _atom_site_type_symbol
 _atom_site_label
 _atom_site_symmetry_multiplicity
 _atom_site_fract_x
 _atom_site_fract_y
 _atom_site_fract_z
 _atom_site_occupancy
  Ac  Ac0  1  0.995913  0.819962  0.931655  1
  Ac  Ac1  1  0.192198  0.000833  0.590459  1
  Ac  Ac2  1  0.000160  0.188212  0.091144  1
  Ac  Ac3  1  0.785079  0.034023  0.406933  1
  Ac  Ac4  1  0.372111  0.190951  0.822023  1
  Ac  Ac5  1  0.778908  0.639818  0.681276  1
  Ac  Ac6  1  0.651801  0.778834  0.187779  1
  Ac  Ac7  1  0.217903  0.345636  0.306059  1
  Ac  Ac8  1  0.576861  0.425740  0.753335  1
  Ac  Ac9  1  0.432967  0.576276  0.236152  1
  Os  Os10  1  0.408034  0.817139  0.919645  1
  Os  Os11  1  0.816901  0.395328  0.423345  1
  Os  Os12  1  0.590185  0.189712  0.075528  1
  Au  Au13  1  0.180981  0.597534  0.574667  1
