# generated using pymatgen
data_NdTm2Ni9
_symmetry_space_group_name_H-M   'P 1'
_cell_length_a   8.57102210
_cell_length_b   8.57102215
_cell_length_c   8.57102137
_cell_angle_alpha   33.69813600
_cell_angle_beta   33.69813796
_cell_angle_gamma   33.69812930
_symmetry_Int_Tables_number   1
_chemical_formula_structural   NdTm2Ni9
_chemical_formula_sum   'Nd1 Tm2 Ni9'
_cell_volume   172.67980876
_cell_formula_units_Z   1
loop_
 _symmetry_equiv_pos_site_id
 _symmetry_equiv_pos_as_xyz
  1  'x, y, z'
loop_
 _atom_site_type_symbol
 _atom_site_label
 _atom_site_symmetry_multiplicity
 _atom_site_fract_x
 _atom_site_fract_y
 _atom_site_fract_z
 _atom_site_occupancy
  Nd  Nd0  1  0.000000  0.000000  0.000000  1
  Tm  Tm1  1  0.859747  0.859747  0.859747  1
  Tm  Tm2  1  0.140253  0.140253  0.140253  1
  Ni  Ni3  1  0.415382  0.917809  0.415382  1
  Ni  Ni4  1  0.584618  0.584618  0.082191  1
  Ni  Ni5  1  0.666935  0.666935  0.666935  1
  Ni  Ni6  1  0.917809  0.415382  0.415382  1
  Ni  Ni7  1  0.082191  0.584618  0.584618  1
  Ni  Ni8  1  0.333065  0.333065  0.333065  1
  Ni  Ni9  1  0.500000  0.500000  0.500000  1
  Ni  Ni10  1  0.415382  0.415382  0.917809  1
  Ni  Ni11  1  0.584618  0.082191  0.584618  1
