# generated using pymatgen
data_Ac6Ni6P17
_symmetry_space_group_name_H-M   'P 1'
_cell_length_a   9.00037951
_cell_length_b   9.00037932
_cell_length_c   9.00038000
_cell_angle_alpha   109.47122442
_cell_angle_beta   109.47122400
_cell_angle_gamma   109.47121451
_symmetry_Int_Tables_number   1
_chemical_formula_structural   Ac6Ni6P17
_chemical_formula_sum   'Ac6 Ni6 P17'
_cell_volume   561.25546762
_cell_formula_units_Z   1
loop_
 _symmetry_equiv_pos_site_id
 _symmetry_equiv_pos_as_xyz
  1  'x, y, z'
loop_
 _atom_site_type_symbol
 _atom_site_label
 _atom_site_symmetry_multiplicity
 _atom_site_fract_x
 _atom_site_fract_y
 _atom_site_fract_z
 _atom_site_occupancy
  Ac  Ac0  1  0.707733  0.000000  0.707733  1
  Ac  Ac1  1  0.292267  0.292267  0.000000  1
  Ac  Ac2  1  0.707733  0.707733  0.000000  1
  Ac  Ac3  1  0.000000  0.292267  0.292267  1
  Ac  Ac4  1  0.000000  0.707733  0.707733  1
  Ac  Ac5  1  0.292267  0.000000  0.292267  1
  Ni  Ni6  1  0.750000  0.500000  0.250000  1
  Ni  Ni7  1  0.250000  0.750000  0.500000  1
  Ni  Ni8  1  0.750000  0.250000  0.500000  1
  Ni  Ni9  1  0.500000  0.250000  0.750000  1
  Ni  Ni10  1  0.500000  0.750000  0.250000  1
  Ni  Ni11  1  0.250000  0.500000  0.750000  1
  P  P12  1  0.000000  0.000000  0.000000  1
  P  P13  1  0.565924  0.565924  0.565924  1
  P  P14  1  0.000000  0.434076  0.000000  1
  P  P15  1  0.434076  0.000000  0.000000  1
  P  P16  1  0.000000  0.000000  0.434076  1
  P  P17  1  0.368119  0.368119  0.602467  1
  P  P18  1  0.000000  0.234348  0.631881  1
  P  P19  1  0.234348  0.000000  0.631881  1
  P  P20  1  0.765652  0.397533  0.765652  1
  P  P21  1  0.397533  0.765652  0.765652  1
  P  P22  1  0.602467  0.368119  0.368119  1
  P  P23  1  0.000000  0.631881  0.234348  1
  P  P24  1  0.765652  0.765652  0.397533  1
  P  P25  1  0.631881  0.234348  0.000000  1
  P  P26  1  0.234348  0.631881  0.000000  1
  P  P27  1  0.368119  0.602467  0.368119  1
  P  P28  1  0.631881  0.000000  0.234348  1
