# generated using pymatgen
data_Tm3Co(P3Rh4)2
_symmetry_space_group_name_H-M   'P 1'
_cell_length_a   3.84456100
_cell_length_b   11.10929700
_cell_length_c   12.73809600
_cell_angle_alpha   90.00000000
_cell_angle_beta   90.00000000
_cell_angle_gamma   90.00000000
_symmetry_Int_Tables_number   1
_chemical_formula_structural   Tm3Co(P3Rh4)2
_chemical_formula_sum   'Tm6 Co2 P12 Rh16'
_cell_volume   544.04879305
_cell_formula_units_Z   2
loop_
 _symmetry_equiv_pos_site_id
 _symmetry_equiv_pos_as_xyz
  1  'x, y, z'
loop_
 _atom_site_type_symbol
 _atom_site_label
 _atom_site_symmetry_multiplicity
 _atom_site_fract_x
 _atom_site_fract_y
 _atom_site_fract_z
 _atom_site_occupancy
  Tm  Tm0  1  0.000000  0.500000  0.522055  1
  Tm  Tm1  1  0.500000  0.000000  0.477945  1
  Tm  Tm2  1  0.500000  0.815012  0.201993  1
  Tm  Tm3  1  0.500000  0.184988  0.201993  1
  Tm  Tm4  1  0.000000  0.684988  0.798007  1
  Tm  Tm5  1  0.000000  0.315012  0.798007  1
  Co  Co6  1  0.000000  0.500000  0.978516  1
  Co  Co7  1  0.500000  0.000000  0.021484  1
  P  P8  1  0.500000  0.500000  0.880452  1
  P  P9  1  0.000000  0.000000  0.119548  1
  P  P10  1  0.500000  0.500000  0.352672  1
  P  P11  1  0.000000  0.000000  0.647328  1
  P  P12  1  0.500000  0.316345  0.619793  1
  P  P13  1  0.500000  0.683655  0.619793  1
  P  P14  1  0.000000  0.183655  0.380207  1
  P  P15  1  0.000000  0.816345  0.380207  1
  P  P16  1  0.500000  0.852818  0.895461  1
  P  P17  1  0.500000  0.147182  0.895461  1
  P  P18  1  0.000000  0.647182  0.104539  1
  P  P19  1  0.000000  0.352818  0.104539  1
  Rh  Rh20  1  0.500000  0.500000  0.167956  1
  Rh  Rh21  1  0.000000  0.000000  0.832044  1
  Rh  Rh22  1  0.500000  0.500000  0.702203  1
  Rh  Rh23  1  0.000000  0.000000  0.297797  1
  Rh  Rh24  1  0.500000  0.336524  0.993015  1
  Rh  Rh25  1  0.500000  0.663476  0.993015  1
  Rh  Rh26  1  0.000000  0.163476  0.006985  1
  Rh  Rh27  1  0.000000  0.836524  0.006985  1
  Rh  Rh28  1  0.500000  0.295112  0.430925  1
  Rh  Rh29  1  0.500000  0.704888  0.430925  1
  Rh  Rh30  1  0.000000  0.204888  0.569075  1
  Rh  Rh31  1  0.000000  0.795112  0.569075  1
  Rh  Rh32  1  0.500000  0.872139  0.712129  1
  Rh  Rh33  1  0.500000  0.127861  0.712129  1
  Rh  Rh34  1  0.000000  0.627861  0.287871  1
  Rh  Rh35  1  0.000000  0.372139  0.287871  1
