# generated using pymatgen
data_TlSe27
_symmetry_space_group_name_H-M   'P 1'
_cell_length_a   14.69390267
_cell_length_b   14.69390349
_cell_length_c   14.69390300
_cell_angle_alpha   118.01788790
_cell_angle_beta   118.01788518
_cell_angle_gamma   118.01788663
_symmetry_Int_Tables_number   1
_chemical_formula_structural   TlSe27
_chemical_formula_sum   'Tl1 Se27'
_cell_volume   1146.97008004
_cell_formula_units_Z   1
loop_
 _symmetry_equiv_pos_site_id
 _symmetry_equiv_pos_as_xyz
  1  'x, y, z'
loop_
 _atom_site_type_symbol
 _atom_site_label
 _atom_site_symmetry_multiplicity
 _atom_site_fract_x
 _atom_site_fract_y
 _atom_site_fract_z
 _atom_site_occupancy
  Tl  Tl0  1  0.454430  0.454430  0.454430  1
  Se  Se1  1  0.018001  0.643181  0.643181  1
  Se  Se2  1  0.643181  0.643181  0.018001  1
  Se  Se3  1  0.643181  0.018001  0.643181  1
  Se  Se4  1  0.229692  0.867357  0.715977  1
  Se  Se5  1  0.867357  0.715977  0.229692  1
  Se  Se6  1  0.715977  0.229692  0.867357  1
  Se  Se7  1  0.867357  0.229692  0.715977  1
  Se  Se8  1  0.229692  0.715977  0.867357  1
  Se  Se9  1  0.715977  0.867357  0.229692  1
  Se  Se10  1  0.102003  0.644760  0.433678  1
  Se  Se11  1  0.644760  0.433678  0.102003  1
  Se  Se12  1  0.433678  0.102003  0.644760  1
  Se  Se13  1  0.644760  0.102003  0.433678  1
  Se  Se14  1  0.102003  0.433678  0.644760  1
  Se  Se15  1  0.433678  0.644760  0.102003  1
  Se  Se16  1  0.359961  0.735261  0.586046  1
  Se  Se17  1  0.735261  0.586046  0.359961  1
  Se  Se18  1  0.586046  0.359961  0.735261  1
  Se  Se19  1  0.735261  0.359961  0.586046  1
  Se  Se20  1  0.359961  0.586046  0.735261  1
  Se  Se21  1  0.586046  0.735261  0.359961  1
  Se  Se22  1  0.194172  0.443934  0.443934  1
  Se  Se23  1  0.443934  0.443934  0.194172  1
  Se  Se24  1  0.443934  0.194172  0.443934  1
  Se  Se25  1  0.018280  0.919259  0.919259  1
  Se  Se26  1  0.919259  0.919259  0.018280  1
  Se  Se27  1  0.919259  0.018280  0.919259  1
