# generated using pymatgen
data_TmLu5(Ni3As2)6
_symmetry_space_group_name_H-M   'P 1'
_cell_length_a   3.85394200
_cell_length_b   10.83460000
_cell_length_c   12.67972900
_cell_angle_alpha   90.00000000
_cell_angle_beta   90.00000000
_cell_angle_gamma   90.00000000
_symmetry_Int_Tables_number   1
_chemical_formula_structural   TmLu5(Ni3As2)6
_chemical_formula_sum   'Tm1 Lu5 Ni18 As12'
_cell_volume   529.45374966
_cell_formula_units_Z   1
loop_
 _symmetry_equiv_pos_site_id
 _symmetry_equiv_pos_as_xyz
  1  'x, y, z'
loop_
 _atom_site_type_symbol
 _atom_site_label
 _atom_site_symmetry_multiplicity
 _atom_site_fract_x
 _atom_site_fract_y
 _atom_site_fract_z
 _atom_site_occupancy
  Tm  Tm0  1  0.500000  0.000000  0.475733  1
  Lu  Lu1  1  0.000000  0.500000  0.524349  1
  Lu  Lu2  1  0.500000  0.817694  0.207137  1
  Lu  Lu3  1  0.500000  0.182306  0.207137  1
  Lu  Lu4  1  0.000000  0.682255  0.792856  1
  Lu  Lu5  1  0.000000  0.317745  0.792856  1
  Ni  Ni6  1  0.500000  0.500000  0.157625  1
  Ni  Ni7  1  0.000000  0.000000  0.842378  1
  Ni  Ni8  1  0.500000  0.500000  0.698905  1
  Ni  Ni9  1  0.000000  0.000000  0.300790  1
  Ni  Ni10  1  0.000000  0.500000  0.982944  1
  Ni  Ni11  1  0.500000  0.000000  0.017043  1
  Ni  Ni12  1  0.500000  0.332988  0.997296  1
  Ni  Ni13  1  0.500000  0.667012  0.997296  1
  Ni  Ni14  1  0.000000  0.167055  0.002700  1
  Ni  Ni15  1  0.000000  0.832945  0.002700  1
  Ni  Ni16  1  0.500000  0.303674  0.427176  1
  Ni  Ni17  1  0.500000  0.696326  0.427176  1
  Ni  Ni18  1  0.000000  0.196567  0.572946  1
  Ni  Ni19  1  0.000000  0.803433  0.572946  1
  Ni  Ni20  1  0.500000  0.878525  0.707247  1
  Ni  Ni21  1  0.500000  0.121475  0.707247  1
  Ni  Ni22  1  0.000000  0.621430  0.292806  1
  Ni  Ni23  1  0.000000  0.378570  0.292806  1
  As  As24  1  0.500000  0.500000  0.875426  1
  As  As25  1  0.000000  0.000000  0.124494  1
  As  As26  1  0.500000  0.500000  0.347340  1
  As  As27  1  0.000000  0.000000  0.652998  1
  As  As28  1  0.500000  0.315650  0.613919  1
  As  As29  1  0.500000  0.684350  0.613919  1
  As  As30  1  0.000000  0.184546  0.385916  1
  As  As31  1  0.000000  0.815454  0.385916  1
  As  As32  1  0.500000  0.845832  0.889120  1
  As  As33  1  0.500000  0.154168  0.889120  1
  As  As34  1  0.000000  0.654180  0.110869  1
  As  As35  1  0.000000  0.345820  0.110869  1
