# generated using pymatgen
data_DyEr3CdPt
_symmetry_space_group_name_H-M   'P 1'
_cell_length_a   9.63686533
_cell_length_b   9.63686490
_cell_length_c   9.63686400
_cell_angle_alpha   59.99999622
_cell_angle_beta   59.99999771
_cell_angle_gamma   59.99999896
_symmetry_Int_Tables_number   1
_chemical_formula_structural   DyEr3CdPt
_chemical_formula_sum   'Dy4 Er12 Cd4 Pt4'
_cell_volume   632.83759249
_cell_formula_units_Z   4
loop_
 _symmetry_equiv_pos_site_id
 _symmetry_equiv_pos_as_xyz
  1  'x, y, z'
loop_
 _atom_site_type_symbol
 _atom_site_label
 _atom_site_symmetry_multiplicity
 _atom_site_fract_x
 _atom_site_fract_y
 _atom_site_fract_z
 _atom_site_occupancy
  Dy  Dy0  1  0.352709  0.352709  0.352709  1
  Dy  Dy1  1  0.352709  0.352709  0.941874  1
  Dy  Dy2  1  0.352709  0.941874  0.352709  1
  Dy  Dy3  1  0.941874  0.352709  0.352709  1
  Er  Er4  1  0.810646  0.189354  0.189354  1
  Er  Er5  1  0.189354  0.810646  0.810646  1
  Er  Er6  1  0.189354  0.810646  0.189354  1
  Er  Er7  1  0.810646  0.189354  0.810646  1
  Er  Er8  1  0.189354  0.189354  0.810646  1
  Er  Er9  1  0.810646  0.810646  0.189354  1
  Er  Er10  1  0.934844  0.565156  0.565156  1
  Er  Er11  1  0.565156  0.934844  0.934844  1
  Er  Er12  1  0.565156  0.934844  0.565156  1
  Er  Er13  1  0.934844  0.565156  0.934844  1
  Er  Er14  1  0.565156  0.565156  0.934844  1
  Er  Er15  1  0.934844  0.934844  0.565156  1
  Cd  Cd16  1  0.582253  0.582253  0.582253  1
  Cd  Cd17  1  0.582253  0.582253  0.253241  1
  Cd  Cd18  1  0.582253  0.253241  0.582253  1
  Cd  Cd19  1  0.253241  0.582253  0.582253  1
  Pt  Pt20  1  0.142816  0.142816  0.142816  1
  Pt  Pt21  1  0.142816  0.142816  0.571552  1
  Pt  Pt22  1  0.142816  0.571552  0.142816  1
  Pt  Pt23  1  0.571552  0.142816  0.142816  1
