# generated using pymatgen
data_Li6In5SiPd12
_symmetry_space_group_name_H-M   'P 1'
_cell_length_a   4.15724100
_cell_length_b   7.12848947
_cell_length_c   12.65590700
_cell_angle_alpha   89.99959008
_cell_angle_beta   90.00188816
_cell_angle_gamma   89.96316380
_symmetry_Int_Tables_number   1
_chemical_formula_structural   Li6In5SiPd12
_chemical_formula_sum   'Li6 In5 Si1 Pd12'
_cell_volume   375.05581167
_cell_formula_units_Z   1
loop_
 _symmetry_equiv_pos_site_id
 _symmetry_equiv_pos_as_xyz
  1  'x, y, z'
loop_
 _atom_site_type_symbol
 _atom_site_label
 _atom_site_symmetry_multiplicity
 _atom_site_fract_x
 _atom_site_fract_y
 _atom_site_fract_z
 _atom_site_occupancy
  Li  Li0  1  0.000000  0.500000  0.000000  1
  Li  Li1  1  0.499950  0.000003  0.171356  1
  Li  Li2  1  0.999951  0.500008  0.324287  1
  Li  Li3  1  0.499999  0.000000  0.500000  1
  Li  Li4  1  0.000050  0.499992  0.675714  1
  Li  Li5  1  0.500051  0.999997  0.828644  1
  In  In6  1  0.499990  0.499981  0.155154  1
  In  In7  1  0.999971  0.999998  0.334360  1
  In  In8  1  0.499999  0.500000  0.500000  1
  In  In9  1  0.000028  0.000002  0.665640  1
  In  In10  1  0.500011  0.500019  0.844846  1
  Si  Si11  1  0.000000  0.000000  0.000000  1
  Pd  Pd12  1  0.500022  0.207477  0.000000  1
  Pd  Pd13  1  0.499976  0.792523  0.000000  1
  Pd  Pd14  1  0.999967  0.228642  0.155757  1
  Pd  Pd15  1  0.999987  0.771358  0.155756  1
  Pd  Pd16  1  0.499919  0.255913  0.328352  1
  Pd  Pd17  1  0.500001  0.744083  0.328352  1
  Pd  Pd18  1  0.000134  0.251331  0.499997  1
  Pd  Pd19  1  0.999866  0.748670  0.500003  1
  Pd  Pd20  1  0.499998  0.255917  0.671648  1
  Pd  Pd21  1  0.500080  0.744087  0.671648  1
  Pd  Pd22  1  0.000011  0.228642  0.844244  1
  Pd  Pd23  1  0.000031  0.771358  0.844243  1
