# generated using pymatgen
data_Dy4Al4Co3Cu
_symmetry_space_group_name_H-M   'P 1'
_cell_length_a   4.15023800
_cell_length_b   6.69771076
_cell_length_c   7.79537499
_cell_angle_alpha   89.81388686
_cell_angle_beta   90.00000000
_cell_angle_gamma   90.00000000
_symmetry_Int_Tables_number   1
_chemical_formula_structural   Dy4Al4Co3Cu
_chemical_formula_sum   'Dy4 Al4 Co3 Cu1'
_cell_volume   216.68762580
_cell_formula_units_Z   1
loop_
 _symmetry_equiv_pos_site_id
 _symmetry_equiv_pos_as_xyz
  1  'x, y, z'
loop_
 _atom_site_type_symbol
 _atom_site_label
 _atom_site_symmetry_multiplicity
 _atom_site_fract_x
 _atom_site_fract_y
 _atom_site_fract_z
 _atom_site_occupancy
  Dy  Dy0  1  0.250000  0.470196  0.182354  1
  Dy  Dy1  1  0.750000  0.545073  0.821930  1
  Dy  Dy2  1  0.750000  0.028362  0.670726  1
  Dy  Dy3  1  0.250000  0.965510  0.323970  1
  Al  Al4  1  0.250000  0.856541  0.943423  1
  Al  Al5  1  0.750000  0.132666  0.062416  1
  Al  Al6  1  0.750000  0.635391  0.442415  1
  Al  Al7  1  0.250000  0.367861  0.553605  1
  Co  Co8  1  0.250000  0.733555  0.628583  1
  Co  Co9  1  0.750000  0.269330  0.373785  1
  Co  Co10  1  0.750000  0.767638  0.124520  1
  Cu  Cu11  1  0.250000  0.227876  0.872273  1
