# generated using pymatgen
data_Tm12ZnCo4Sn
_symmetry_space_group_name_H-M   'P 1'
_cell_length_a   8.19938363
_cell_length_b   8.19938350
_cell_length_c   8.19938355
_cell_angle_alpha   112.05158857
_cell_angle_beta   109.54103801
_cell_angle_gamma   106.86255430
_symmetry_Int_Tables_number   1
_chemical_formula_structural   Tm12ZnCo4Sn
_chemical_formula_sum   'Tm12 Zn1 Co4 Sn1'
_cell_volume   423.47800105
_cell_formula_units_Z   1
loop_
 _symmetry_equiv_pos_site_id
 _symmetry_equiv_pos_as_xyz
  1  'x, y, z'
loop_
 _atom_site_type_symbol
 _atom_site_label
 _atom_site_symmetry_multiplicity
 _atom_site_fract_x
 _atom_site_fract_y
 _atom_site_fract_z
 _atom_site_occupancy
  Tm  Tm0  1  0.429351  0.228627  0.200724  1
  Tm  Tm1  1  0.570649  0.771373  0.799276  1
  Tm  Tm2  1  0.027903  0.228627  0.799276  1
  Tm  Tm3  1  0.972097  0.771373  0.200724  1
  Tm  Tm4  1  0.182688  0.283855  0.466543  1
  Tm  Tm5  1  0.817312  0.716145  0.533457  1
  Tm  Tm6  1  0.182688  0.716145  0.898832  1
  Tm  Tm7  1  0.817312  0.283855  0.101168  1
  Tm  Tm8  1  0.323043  0.633597  0.310552  1
  Tm  Tm9  1  0.676957  0.366403  0.689448  1
  Tm  Tm10  1  0.323043  0.012491  0.689448  1
  Tm  Tm11  1  0.676957  0.987509  0.310552  1
  Zn  Zn12  1  0.000000  0.000000  0.000000  1
  Co  Co13  1  0.347790  0.000000  0.347790  1
  Co  Co14  1  0.652210  0.000000  0.652210  1
  Co  Co15  1  0.115094  0.615094  0.500000  1
  Co  Co16  1  0.884906  0.384906  0.500000  1
  Sn  Sn17  1  0.500000  0.500000  0.000000  1
