# generated using pymatgen
data_Tm4Sc4Ga3Ir
_symmetry_space_group_name_H-M   'P 1'
_cell_length_a   9.58399700
_cell_length_b   9.58399650
_cell_length_c   6.85802700
_cell_angle_alpha   90.00000000
_cell_angle_beta   90.00000000
_cell_angle_gamma   120.00000519
_symmetry_Int_Tables_number   1
_chemical_formula_structural   Tm4Sc4Ga3Ir
_chemical_formula_sum   'Tm8 Sc8 Ga6 Ir2'
_cell_volume   545.53562297
_cell_formula_units_Z   2
loop_
 _symmetry_equiv_pos_site_id
 _symmetry_equiv_pos_as_xyz
  1  'x, y, z'
loop_
 _atom_site_type_symbol
 _atom_site_label
 _atom_site_symmetry_multiplicity
 _atom_site_fract_x
 _atom_site_fract_y
 _atom_site_fract_z
 _atom_site_occupancy
  Tm  Tm0  1  0.468325  0.531675  0.290558  1
  Tm  Tm1  1  0.936649  0.468325  0.790558  1
  Tm  Tm2  1  0.531675  0.063351  0.790558  1
  Tm  Tm3  1  0.468325  0.936649  0.290558  1
  Tm  Tm4  1  0.063351  0.531675  0.290558  1
  Tm  Tm5  1  0.531675  0.468325  0.790558  1
  Tm  Tm6  1  0.000000  0.000000  0.269526  1
  Tm  Tm7  1  0.000000  0.000000  0.769526  1
  Sc  Sc8  1  0.171337  0.828663  0.989571  1
  Sc  Sc9  1  0.342673  0.171337  0.489571  1
  Sc  Sc10  1  0.828663  0.657327  0.489571  1
  Sc  Sc11  1  0.171337  0.342673  0.989571  1
  Sc  Sc12  1  0.657327  0.828663  0.989571  1
  Sc  Sc13  1  0.828663  0.171337  0.489571  1
  Sc  Sc14  1  0.333333  0.666667  0.661657  1
  Sc  Sc15  1  0.666667  0.333333  0.161657  1
  Ga  Ga16  1  0.163897  0.836103  0.549898  1
  Ga  Ga17  1  0.327796  0.163897  0.049898  1
  Ga  Ga18  1  0.836103  0.672204  0.049898  1
  Ga  Ga19  1  0.163897  0.327796  0.549898  1
  Ga  Ga20  1  0.672204  0.836103  0.549898  1
  Ga  Ga21  1  0.836103  0.163897  0.049898  1
  Ir  Ir22  1  0.333333  0.666667  0.040737  1
  Ir  Ir23  1  0.666667  0.333333  0.540737  1
