# generated using pymatgen
data_SmEuAl3O7
_symmetry_space_group_name_H-M   'P 1'
_cell_length_a   7.87846584
_cell_length_b   7.87846648
_cell_length_c   5.19606000
_cell_angle_alpha   90.00000000
_cell_angle_beta   90.00000000
_cell_angle_gamma   89.59998168
_symmetry_Int_Tables_number   1
_chemical_formula_structural   SmEuAl3O7
_chemical_formula_sum   'Sm2 Eu2 Al6 O14'
_cell_volume   322.51277396
_cell_formula_units_Z   2
loop_
 _symmetry_equiv_pos_site_id
 _symmetry_equiv_pos_as_xyz
  1  'x, y, z'
loop_
 _atom_site_type_symbol
 _atom_site_label
 _atom_site_symmetry_multiplicity
 _atom_site_fract_x
 _atom_site_fract_y
 _atom_site_fract_z
 _atom_site_occupancy
  Sm  Sm0  1  0.338691  0.661309  0.515618  1
  Sm  Sm1  1  0.661309  0.338691  0.515618  1
  Eu  Eu2  1  0.160549  0.160549  0.488557  1
  Eu  Eu3  1  0.839451  0.839451  0.488557  1
  Al  Al4  1  0.500000  0.000000  0.996097  1
  Al  Al5  1  0.000000  0.500000  0.996097  1
  Al  Al6  1  0.146287  0.853713  0.961877  1
  Al  Al7  1  0.358520  0.358520  0.040079  1
  Al  Al8  1  0.853713  0.146287  0.961877  1
  Al  Al9  1  0.641480  0.641480  0.040079  1
  O  O10  1  0.340958  0.903865  0.801217  1
  O  O11  1  0.164394  0.415865  0.189536  1
  O  O12  1  0.659042  0.096135  0.801217  1
  O  O13  1  0.835606  0.584135  0.189536  1
  O  O14  1  0.584135  0.835606  0.189536  1
  O  O15  1  0.903865  0.340958  0.801217  1
  O  O16  1  0.415865  0.164394  0.189536  1
  O  O17  1  0.096135  0.659042  0.801217  1
  O  O18  1  0.154295  0.845705  0.296597  1
  O  O19  1  0.370752  0.370752  0.702770  1
  O  O20  1  0.845705  0.154295  0.296597  1
  O  O21  1  0.629248  0.629248  0.702770  1
  O  O22  1  0.500000  0.500000  0.196944  1
  O  O23  1  0.000000  0.000000  0.836874  1
