# generated using pymatgen
data_DyHo9Er10(NiSb2)4
_symmetry_space_group_name_H-M   'P 1'
_cell_length_a   7.87287312
_cell_length_b   8.78167900
_cell_length_c   12.08122505
_cell_angle_alpha   90.00000000
_cell_angle_beta   89.99510312
_cell_angle_gamma   90.00000000
_symmetry_Int_Tables_number   1
_chemical_formula_structural   DyHo9Er10(NiSb2)4
_chemical_formula_sum   'Dy1 Ho9 Er10 Ni4 Sb8'
_cell_volume   835.26019174
_cell_formula_units_Z   1
loop_
 _symmetry_equiv_pos_site_id
 _symmetry_equiv_pos_as_xyz
  1  'x, y, z'
loop_
 _atom_site_type_symbol
 _atom_site_label
 _atom_site_symmetry_multiplicity
 _atom_site_fract_x
 _atom_site_fract_y
 _atom_site_fract_z
 _atom_site_occupancy
  Dy  Dy0  1  0.874499  0.250000  0.803956  1
  Ho  Ho1  1  0.125262  0.750000  0.196040  1
  Ho  Ho2  1  0.841911  0.750000  0.793151  1
  Ho  Ho3  1  0.374742  0.750000  0.695954  1
  Ho  Ho4  1  0.954515  0.750000  0.500322  1
  Ho  Ho5  1  0.658096  0.750000  0.293177  1
  Ho  Ho6  1  0.545508  0.750000  0.000474  1
  Ho  Ho7  1  0.625268  0.250000  0.304065  1
  Ho  Ho8  1  0.341631  0.250000  0.706905  1
  Ho  Ho9  1  0.158278  0.250000  0.206854  1
  Er  Er10  1  0.320583  0.540929  0.434181  1
  Er  Er11  1  0.179647  0.541175  0.934308  1
  Er  Er12  1  0.320583  0.959071  0.434181  1
  Er  Er13  1  0.454083  0.250000  0.999530  1
  Er  Er14  1  0.679388  0.458844  0.565690  1
  Er  Er15  1  0.820582  0.041199  0.065981  1
  Er  Er16  1  0.045888  0.250000  0.499484  1
  Er  Er17  1  0.679388  0.041156  0.565690  1
  Er  Er18  1  0.179647  0.958825  0.934308  1
  Er  Er19  1  0.820582  0.458801  0.065981  1
  Ni  Ni20  1  0.925970  0.750000  0.011698  1
  Ni  Ni21  1  0.574065  0.750000  0.511676  1
  Ni  Ni22  1  0.074758  0.250000  0.988455  1
  Ni  Ni23  1  0.425788  0.250000  0.488334  1
  Sb  Sb24  1  0.929471  0.490935  0.327589  1
  Sb  Sb25  1  0.429250  0.508467  0.172408  1
  Sb  Sb26  1  0.429250  0.991533  0.172408  1
  Sb  Sb27  1  0.569972  0.491252  0.827583  1
  Sb  Sb28  1  0.070976  0.508747  0.672222  1
  Sb  Sb29  1  0.569972  0.008748  0.827583  1
  Sb  Sb30  1  0.929471  0.009065  0.327589  1
  Sb  Sb31  1  0.070976  0.991253  0.672222  1
