# generated using pymatgen
data_Er3MgAg2C
_symmetry_space_group_name_H-M   'P 1'
_cell_length_a   9.37514101
_cell_length_b   9.37498144
_cell_length_c   9.37483100
_cell_angle_alpha   119.99777197
_cell_angle_beta   90.00288461
_cell_angle_gamma   120.00031257
_symmetry_Int_Tables_number   1
_chemical_formula_structural   Er3MgAg2C
_chemical_formula_sum   'Er12 Mg4 Ag8 C4'
_cell_volume   582.63734172
_cell_formula_units_Z   4
loop_
 _symmetry_equiv_pos_site_id
 _symmetry_equiv_pos_as_xyz
  1  'x, y, z'
loop_
 _atom_site_type_symbol
 _atom_site_label
 _atom_site_symmetry_multiplicity
 _atom_site_fract_x
 _atom_site_fract_y
 _atom_site_fract_z
 _atom_site_occupancy
  Er  Er0  1  0.936059  0.372142  0.186084  1
  Er  Er1  1  0.936100  0.750055  0.186112  1
  Er  Er2  1  0.313950  0.750024  0.186084  1
  Er  Er3  1  0.686064  0.249973  0.436088  1
  Er  Er4  1  0.686118  0.872186  0.436086  1
  Er  Er5  1  0.063894  0.249969  0.436075  1
  Er  Er6  1  0.313904  0.127813  0.563936  1
  Er  Er7  1  0.313898  0.750011  0.563946  1
  Er  Er8  1  0.936107  0.750020  0.563936  1
  Er  Er9  1  0.686060  0.250008  0.813967  1
  Er  Er10  1  0.063946  0.627864  0.813921  1
  Er  Er11  1  0.063908  0.249976  0.813918  1
  Mg  Mg12  1  0.999861  0.999492  0.999843  1
  Mg  Mg13  1  0.500337  0.000388  0.999998  1
  Mg  Mg14  1  0.499645  0.499852  0.999868  1
  Mg  Mg15  1  0.500098  0.500236  0.500024  1
  Ag  Ag16  1  0.707948  0.915803  0.123633  1
  Ag  Ag17  1  0.292137  0.084203  0.207853  1
  Ag  Ag18  1  0.292179  0.415777  0.207892  1
  Ag  Ag19  1  0.623611  0.415792  0.207922  1
  Ag  Ag20  1  0.376392  0.584187  0.792072  1
  Ag  Ag21  1  0.707834  0.584203  0.792116  1
  Ag  Ag22  1  0.707871  0.915782  0.792185  1
  Ag  Ag23  1  0.292078  0.084206  0.876400  1
  C  C24  1  0.000004  0.500008  0.000015  1
  C  C25  1  0.999992  0.999994  0.499998  1
  C  C26  1  0.500012  0.000028  0.500025  1
  C  C27  1  0.000000  0.500017  0.500010  1
