# generated using pymatgen
data_Tm4Lu16Bi5Sb7
_symmetry_space_group_name_H-M   'P 1'
_cell_length_a   8.01959226
_cell_length_b   9.25634588
_cell_length_c   11.69978423
_cell_angle_alpha   89.95177114
_cell_angle_beta   89.91508428
_cell_angle_gamma   89.98699498
_symmetry_Int_Tables_number   1
_chemical_formula_structural   Tm4Lu16Bi5Sb7
_chemical_formula_sum   'Tm4 Lu16 Bi5 Sb7'
_cell_volume   868.49850120
_cell_formula_units_Z   1
loop_
 _symmetry_equiv_pos_site_id
 _symmetry_equiv_pos_as_xyz
  1  'x, y, z'
loop_
 _atom_site_type_symbol
 _atom_site_label
 _atom_site_symmetry_multiplicity
 _atom_site_fract_x
 _atom_site_fract_y
 _atom_site_fract_z
 _atom_site_occupancy
  Tm  Tm0  1  0.186111  0.244171  0.782443  1
  Tm  Tm1  1  0.817469  0.752254  0.218191  1
  Tm  Tm2  1  0.312129  0.753554  0.283361  1
  Tm  Tm3  1  0.685540  0.244238  0.717560  1
  Lu  Lu4  1  0.028328  0.245212  0.511011  1
  Lu  Lu5  1  0.972377  0.754908  0.489248  1
  Lu  Lu6  1  0.471038  0.752588  0.009285  1
  Lu  Lu7  1  0.526976  0.247368  0.987130  1
  Lu  Lu8  1  0.352157  0.247685  0.285430  1
  Lu  Lu9  1  0.644603  0.755410  0.715673  1
  Lu  Lu10  1  0.144985  0.755313  0.784306  1
  Lu  Lu11  1  0.857947  0.247038  0.216130  1
  Lu  Lu12  1  0.190024  0.064032  0.059725  1
  Lu  Lu13  1  0.808949  0.936313  0.937724  1
  Lu  Lu14  1  0.307699  0.936616  0.560516  1
  Lu  Lu15  1  0.809711  0.565402  0.940779  1
  Lu  Lu16  1  0.693692  0.063701  0.441785  1
  Lu  Lu17  1  0.190007  0.434378  0.058837  1
  Lu  Lu18  1  0.690583  0.434483  0.441007  1
  Lu  Lu19  1  0.309329  0.565682  0.559190  1
  Bi  Bi20  1  0.933241  0.503923  0.674188  1
  Bi  Bi21  1  0.567214  0.003976  0.174533  1
  Bi  Bi22  1  0.066582  0.496124  0.326031  1
  Bi  Bi23  1  0.566782  0.496027  0.174189  1
  Bi  Bi24  1  0.433157  0.503958  0.825091  1
  Sb  Sb25  1  0.406917  0.250067  0.541254  1
  Sb  Sb26  1  0.593254  0.750006  0.458907  1
  Sb  Sb27  1  0.093428  0.749997  0.040896  1
  Sb  Sb28  1  0.906173  0.250027  0.959035  1
  Sb  Sb29  1  0.066271  0.004599  0.326674  1
  Sb  Sb30  1  0.933635  0.995398  0.673031  1
  Sb  Sb31  1  0.433693  0.995553  0.826841  1
