# generated using pymatgen
data_La4YbY5Sn8
_symmetry_space_group_name_H-M   'P 1'
_cell_length_a   8.06720800
_cell_length_b   8.40121400
_cell_length_c   15.82621500
_cell_angle_alpha   90.00000000
_cell_angle_beta   90.00000000
_cell_angle_gamma   90.00000000
_symmetry_Int_Tables_number   1
_chemical_formula_structural   La4YbY5Sn8
_chemical_formula_sum   'La8 Yb2 Y10 Sn16'
_cell_volume   1072.61128883
_cell_formula_units_Z   2
loop_
 _symmetry_equiv_pos_site_id
 _symmetry_equiv_pos_as_xyz
  1  'x, y, z'
loop_
 _atom_site_type_symbol
 _atom_site_label
 _atom_site_symmetry_multiplicity
 _atom_site_fract_x
 _atom_site_fract_y
 _atom_site_fract_z
 _atom_site_occupancy
  La  La0  1  0.497016  0.322608  0.903266  1
  La  La1  1  0.997016  0.177392  0.596734  1
  La  La2  1  0.505383  0.680140  0.404543  1
  La  La3  1  0.005383  0.819860  0.095457  1
  La  La4  1  0.505383  0.680140  0.095457  1
  La  La5  1  0.005383  0.819860  0.404543  1
  La  La6  1  0.497016  0.322608  0.596734  1
  La  La7  1  0.997016  0.177392  0.903266  1
  Yb  Yb8  1  0.832809  0.501327  0.250000  1
  Yb  Yb9  1  0.332809  0.998673  0.250000  1
  Y  Y10  1  0.333987  0.831580  0.874543  1
  Y  Y11  1  0.833987  0.668420  0.625457  1
  Y  Y12  1  0.663557  0.170742  0.376569  1
  Y  Y13  1  0.163557  0.329258  0.123431  1
  Y  Y14  1  0.663557  0.170742  0.123431  1
  Y  Y15  1  0.163557  0.329258  0.376569  1
  Y  Y16  1  0.333987  0.831580  0.625457  1
  Y  Y17  1  0.833987  0.668420  0.874543  1
  Y  Y18  1  0.166669  0.499828  0.750000  1
  Y  Y19  1  0.666669  0.000172  0.750000  1
  Sn  Sn20  1  0.324898  0.039662  0.038394  1
  Sn  Sn21  1  0.824898  0.460338  0.461606  1
  Sn  Sn22  1  0.674799  0.961255  0.541262  1
  Sn  Sn23  1  0.174799  0.538745  0.958738  1
  Sn  Sn24  1  0.674799  0.961255  0.958738  1
  Sn  Sn25  1  0.174799  0.538745  0.541262  1
  Sn  Sn26  1  0.324898  0.039662  0.461606  1
  Sn  Sn27  1  0.824898  0.460338  0.038394  1
  Sn  Sn28  1  0.530220  0.621769  0.750000  1
  Sn  Sn29  1  0.030220  0.878231  0.750000  1
  Sn  Sn30  1  0.464467  0.382128  0.250000  1
  Sn  Sn31  1  0.964467  0.117872  0.250000  1
  Sn  Sn32  1  0.300776  0.142224  0.750000  1
  Sn  Sn33  1  0.800776  0.357776  0.750000  1
  Sn  Sn34  1  0.705785  0.865166  0.250000  1
  Sn  Sn35  1  0.205785  0.634834  0.250000  1
