# generated using pymatgen
data_NaEr(BIr)8
_symmetry_space_group_name_H-M   'P 1'
_cell_length_a   7.58826300
_cell_length_b   7.58826300
_cell_length_c   4.00938600
_cell_angle_alpha   90.00000000
_cell_angle_beta   90.00000000
_cell_angle_gamma   90.00000000
_symmetry_Int_Tables_number   1
_chemical_formula_structural   NaEr(BIr)8
_chemical_formula_sum   'Na1 Er1 B8 Ir8'
_cell_volume   230.86740360
_cell_formula_units_Z   1
loop_
 _symmetry_equiv_pos_site_id
 _symmetry_equiv_pos_as_xyz
  1  'x, y, z'
loop_
 _atom_site_type_symbol
 _atom_site_label
 _atom_site_symmetry_multiplicity
 _atom_site_fract_x
 _atom_site_fract_y
 _atom_site_fract_z
 _atom_site_occupancy
  Na  Na0  1  0.500000  0.500000  0.000000  1
  Er  Er1  1  0.000000  0.000000  0.500000  1
  B  B2  1  0.657097  0.777327  0.613484  1
  B  B3  1  0.157371  0.279948  0.888245  1
  B  B4  1  0.279948  0.842629  0.111755  1
  B  B5  1  0.720052  0.157371  0.111755  1
  B  B6  1  0.342903  0.222673  0.613484  1
  B  B7  1  0.842629  0.720052  0.888245  1
  B  B8  1  0.222673  0.657097  0.386516  1
  B  B9  1  0.777327  0.342903  0.386516  1
  Ir  Ir10  1  0.343189  0.112892  0.114069  1
  Ir  Ir11  1  0.656811  0.887108  0.114069  1
  Ir  Ir12  1  0.612930  0.151145  0.610682  1
  Ir  Ir13  1  0.112892  0.656811  0.885931  1
  Ir  Ir14  1  0.151145  0.387070  0.389318  1
  Ir  Ir15  1  0.848855  0.612930  0.389318  1
  Ir  Ir16  1  0.887108  0.343189  0.885931  1
  Ir  Ir17  1  0.387070  0.848855  0.610682  1
