# generated using pymatgen
data_Ba2Li2ThS5
_symmetry_space_group_name_H-M   'P 1'
_cell_length_a   4.23941830
_cell_length_b   7.22501987
_cell_length_c   9.28999687
_cell_angle_alpha   99.82411079
_cell_angle_beta   103.18942230
_cell_angle_gamma   107.06068806
_symmetry_Int_Tables_number   1
_chemical_formula_structural   Ba2Li2ThS5
_chemical_formula_sum   'Ba2 Li2 Th1 S5'
_cell_volume   256.08166456
_cell_formula_units_Z   1
loop_
 _symmetry_equiv_pos_site_id
 _symmetry_equiv_pos_as_xyz
  1  'x, y, z'
loop_
 _atom_site_type_symbol
 _atom_site_label
 _atom_site_symmetry_multiplicity
 _atom_site_fract_x
 _atom_site_fract_y
 _atom_site_fract_z
 _atom_site_occupancy
  Ba  Ba0  1  0.459056  0.629609  0.288505  1
  Ba  Ba1  1  0.540944  0.370391  0.711495  1
  Li  Li2  1  0.754256  0.180197  0.328316  1
  Li  Li3  1  0.245744  0.819803  0.671684  1
  Th  Th4  1  0.000000  0.000000  0.000000  1
  S  S5  1  0.674379  0.279768  0.068992  1
  S  S6  1  0.143055  0.986278  0.299833  1
  S  S7  1  0.000001  0.500001  0.500000  1
  S  S8  1  0.856945  0.013722  0.700168  1
  S  S9  1  0.325622  0.720234  0.931008  1
