# generated using pymatgen
data_Ba4NaCuO6
_symmetry_space_group_name_H-M   'P 1'
_cell_length_a   7.23638874
_cell_length_b   7.23638854
_cell_length_c   11.47758300
_cell_angle_alpha   90.00000000
_cell_angle_beta   90.00000000
_cell_angle_gamma   132.81724904
_symmetry_Int_Tables_number   1
_chemical_formula_structural   Ba4NaCuO6
_chemical_formula_sum   'Ba8 Na2 Cu2 O12'
_cell_volume   440.86873035
_cell_formula_units_Z   2
loop_
 _symmetry_equiv_pos_site_id
 _symmetry_equiv_pos_as_xyz
  1  'x, y, z'
loop_
 _atom_site_type_symbol
 _atom_site_label
 _atom_site_symmetry_multiplicity
 _atom_site_fract_x
 _atom_site_fract_y
 _atom_site_fract_z
 _atom_site_occupancy
  Ba  Ba0  1  0.189519  0.898196  0.750000  1
  Ba  Ba1  1  0.650092  0.349908  0.500000  1
  Ba  Ba2  1  0.810481  0.101804  0.250000  1
  Ba  Ba3  1  0.898196  0.189519  0.750000  1
  Ba  Ba4  1  0.101804  0.810481  0.250000  1
  Ba  Ba5  1  0.349908  0.650092  0.000000  1
  Ba  Ba6  1  0.349908  0.650092  0.500000  1
  Ba  Ba7  1  0.650092  0.349908  0.000000  1
  Na  Na8  1  0.494160  0.494160  0.250000  1
  Na  Na9  1  0.505840  0.505840  0.750000  1
  Cu  Cu10  1  0.000000  0.000000  0.000000  1
  Cu  Cu11  1  0.000000  0.000000  0.500000  1
  O  O12  1  0.241846  0.571810  0.250000  1
  O  O13  1  0.144038  0.855962  0.500000  1
  O  O14  1  0.571810  0.241846  0.250000  1
  O  O15  1  0.744768  0.744768  0.402396  1
  O  O16  1  0.144038  0.855962  0.000000  1
  O  O17  1  0.855962  0.144038  0.000000  1
  O  O18  1  0.428190  0.758154  0.750000  1
  O  O19  1  0.758154  0.428190  0.750000  1
  O  O20  1  0.744768  0.744768  0.097604  1
  O  O21  1  0.855962  0.144038  0.500000  1
  O  O22  1  0.255232  0.255232  0.597604  1
  O  O23  1  0.255232  0.255232  0.902396  1
