# generated using pymatgen
data_KSb12(RuPt)2
_symmetry_space_group_name_H-M   'P 1'
_cell_length_a   8.21003167
_cell_length_b   8.22343289
_cell_length_c   8.21003233
_cell_angle_alpha   109.46601310
_cell_angle_beta   109.38226041
_cell_angle_gamma   109.49925042
_symmetry_Int_Tables_number   1
_chemical_formula_structural   KSb12(RuPt)2
_chemical_formula_sum   'K1 Sb12 Ru2 Pt2'
_cell_volume   427.04592330
_cell_formula_units_Z   1
loop_
 _symmetry_equiv_pos_site_id
 _symmetry_equiv_pos_as_xyz
  1  'x, y, z'
loop_
 _atom_site_type_symbol
 _atom_site_label
 _atom_site_symmetry_multiplicity
 _atom_site_fract_x
 _atom_site_fract_y
 _atom_site_fract_z
 _atom_site_occupancy
  K  K0  1  0.000000  0.000000  0.000000  1
  Sb  Sb1  1  0.158465  0.496307  0.337842  1
  Sb  Sb2  1  0.500919  0.651812  0.838773  1
  Sb  Sb3  1  0.338006  0.839414  0.186934  1
  Sb  Sb4  1  0.813037  0.651812  0.150893  1
  Sb  Sb5  1  0.652481  0.839414  0.501408  1
  Sb  Sb6  1  0.186963  0.348188  0.849107  1
  Sb  Sb7  1  0.661994  0.160586  0.813066  1
  Sb  Sb8  1  0.347519  0.160586  0.498592  1
  Sb  Sb9  1  0.499081  0.348188  0.161227  1
  Sb  Sb10  1  0.841535  0.503693  0.662158  1
  Sb  Sb11  1  0.846572  0.194169  0.347595  1
  Sb  Sb12  1  0.153428  0.805831  0.652405  1
  Ru  Ru13  1  0.500000  0.500000  0.500000  1
  Ru  Ru14  1  0.000000  0.500000  0.000000  1
  Pt  Pt15  1  0.500000  0.000000  0.000000  1
  Pt  Pt16  1  0.000000  0.000000  0.500000  1
