# generated using pymatgen
data_Ho2Tm4Ga7Co16
_symmetry_space_group_name_H-M   'P 1'
_cell_length_a   8.44918985
_cell_length_b   8.43163292
_cell_length_c   8.43163300
_cell_angle_alpha   60.13781166
_cell_angle_beta   59.93109255
_cell_angle_gamma   59.93109348
_symmetry_Int_Tables_number   1
_chemical_formula_structural   Ho2Tm4Ga7Co16
_chemical_formula_sum   'Ho2 Tm4 Ga7 Co16'
_cell_volume   424.73658878
_cell_formula_units_Z   1
loop_
 _symmetry_equiv_pos_site_id
 _symmetry_equiv_pos_as_xyz
  1  'x, y, z'
loop_
 _atom_site_type_symbol
 _atom_site_label
 _atom_site_symmetry_multiplicity
 _atom_site_fract_x
 _atom_site_fract_y
 _atom_site_fract_z
 _atom_site_occupancy
  Ho  Ho0  1  0.717358  0.282642  0.282642  1
  Ho  Ho1  1  0.282642  0.717358  0.717358  1
  Tm  Tm2  1  0.280197  0.719803  0.280197  1
  Tm  Tm3  1  0.280197  0.280197  0.719803  1
  Tm  Tm4  1  0.719803  0.280197  0.719803  1
  Tm  Tm5  1  0.719803  0.719803  0.280197  1
  Ga  Ga6  1  0.500000  0.000000  0.000000  1
  Ga  Ga7  1  0.000000  0.500000  0.500000  1
  Ga  Ga8  1  0.000000  0.500000  0.000000  1
  Ga  Ga9  1  0.000000  0.000000  0.500000  1
  Ga  Ga10  1  0.500000  0.000000  0.500000  1
  Ga  Ga11  1  0.500000  0.500000  0.000000  1
  Ga  Ga12  1  0.000000  0.000000  0.000000  1
  Co  Co13  1  0.321878  0.321808  0.321808  1
  Co  Co14  1  0.321808  0.321878  0.034508  1
  Co  Co15  1  0.034508  0.321808  0.321808  1
  Co  Co16  1  0.321808  0.034508  0.321878  1
  Co  Co17  1  0.678122  0.678192  0.678192  1
  Co  Co18  1  0.678192  0.678122  0.965492  1
  Co  Co19  1  0.678192  0.965492  0.678122  1
  Co  Co20  1  0.965492  0.678192  0.678192  1
  Co  Co21  1  0.126996  0.125344  0.125344  1
  Co  Co22  1  0.125344  0.126996  0.622316  1
  Co  Co23  1  0.622316  0.125344  0.125344  1
  Co  Co24  1  0.125344  0.622316  0.126996  1
  Co  Co25  1  0.873004  0.874656  0.874656  1
  Co  Co26  1  0.874656  0.873004  0.377684  1
  Co  Co27  1  0.874656  0.377684  0.873004  1
  Co  Co28  1  0.377684  0.874656  0.874656  1
