# generated using pymatgen
data_TbRhF7
_symmetry_space_group_name_H-M   'P 1'
_cell_length_a   5.53160100
_cell_length_b   8.91954743
_cell_length_c   11.98700876
_cell_angle_alpha   62.28795375
_cell_angle_beta   90.00000000
_cell_angle_gamma   90.00000000
_symmetry_Int_Tables_number   1
_chemical_formula_structural   TbRhF7
_chemical_formula_sum   'Tb4 Rh4 F28'
_cell_volume   523.59191098
_cell_formula_units_Z   4
loop_
 _symmetry_equiv_pos_site_id
 _symmetry_equiv_pos_as_xyz
  1  'x, y, z'
loop_
 _atom_site_type_symbol
 _atom_site_label
 _atom_site_symmetry_multiplicity
 _atom_site_fract_x
 _atom_site_fract_y
 _atom_site_fract_z
 _atom_site_occupancy
  Tb  Tb0  1  0.261617  0.813668  0.264116  1
  Tb  Tb1  1  0.738383  0.186332  0.735884  1
  Tb  Tb2  1  0.761617  0.186332  0.235884  1
  Tb  Tb3  1  0.238383  0.813668  0.764116  1
  Rh  Rh4  1  0.758044  0.726113  0.042814  1
  Rh  Rh5  1  0.241956  0.273887  0.957186  1
  Rh  Rh6  1  0.258044  0.273887  0.457186  1
  Rh  Rh7  1  0.741956  0.726113  0.542814  1
  F  F8  1  0.937187  0.708783  0.413935  1
  F  F9  1  0.062813  0.291217  0.586065  1
  F  F10  1  0.437187  0.291217  0.086065  1
  F  F11  1  0.562813  0.708783  0.913935  1
  F  F12  1  0.465881  0.729309  0.133438  1
  F  F13  1  0.534119  0.270691  0.866562  1
  F  F14  1  0.965881  0.270691  0.366562  1
  F  F15  1  0.034119  0.729309  0.633438  1
  F  F16  1  0.950078  0.741684  0.174030  1
  F  F17  1  0.049922  0.258316  0.825970  1
  F  F18  1  0.450078  0.258316  0.325970  1
  F  F19  1  0.549922  0.741684  0.674030  1
  F  F20  1  0.767427  0.481801  0.138547  1
  F  F21  1  0.232573  0.518199  0.861453  1
  F  F22  1  0.267427  0.518199  0.361453  1
  F  F23  1  0.732573  0.481801  0.638547  1
  F  F24  1  0.943529  0.281099  0.042962  1
  F  F25  1  0.056471  0.718901  0.957038  1
  F  F26  1  0.443529  0.718901  0.457038  1
  F  F27  1  0.556471  0.281099  0.542962  1
  F  F28  1  0.738694  0.970447  0.449998  1
  F  F29  1  0.261306  0.029553  0.550002  1
  F  F30  1  0.238694  0.029553  0.050002  1
  F  F31  1  0.761306  0.970447  0.949998  1
  F  F32  1  0.592542  0.967857  0.230458  1
  F  F33  1  0.407458  0.032143  0.769542  1
  F  F34  1  0.092542  0.032143  0.269542  1
  F  F35  1  0.907458  0.967857  0.730458  1
