# generated using pymatgen
data_CaBe2AsH7
_symmetry_space_group_name_H-M   'P 1'
_cell_length_a   4.11582942
_cell_length_b   4.42734794
_cell_length_c   9.29504053
_cell_angle_alpha   73.87374900
_cell_angle_beta   79.20111385
_cell_angle_gamma   89.35893294
_symmetry_Int_Tables_number   1
_chemical_formula_structural   CaBe2AsH7
_chemical_formula_sum   'Ca1 Be2 As1 H7'
_cell_volume   159.68023158
_cell_formula_units_Z   1
loop_
 _symmetry_equiv_pos_site_id
 _symmetry_equiv_pos_as_xyz
  1  'x, y, z'
loop_
 _atom_site_type_symbol
 _atom_site_label
 _atom_site_symmetry_multiplicity
 _atom_site_fract_x
 _atom_site_fract_y
 _atom_site_fract_z
 _atom_site_occupancy
  Ca  Ca0  1  0.916793  0.747676  0.330590  1
  Be  Be1  1  0.251867  0.376797  0.110534  1
  Be  Be2  1  0.759000  0.377838  0.110442  1
  As  As3  1  0.413244  0.242227  0.335911  1
  H  H4  1  0.020188  0.155106  0.081168  1
  H  H5  1  0.553914  0.451878  0.992031  1
  H  H6  1  0.958643  0.002407  0.735793  1
  H  H7  1  0.012639  0.633156  0.087346  1
  H  H8  1  0.567645  0.654465  0.616175  1
  H  H9  1  0.630417  0.489679  0.634556  1
  H  H10  1  0.851423  0.898393  0.806287  1
