# generated using pymatgen
data_Lu15ThTl2(InRh2)2
_symmetry_space_group_name_H-M   'P 1'
_cell_length_a   9.48155629
_cell_length_b   9.48155746
_cell_length_c   9.48183233
_cell_angle_alpha   60.41305625
_cell_angle_beta   60.41305611
_cell_angle_gamma   60.38789117
_symmetry_Int_Tables_number   1
_chemical_formula_structural   Lu15ThTl2(InRh2)2
_chemical_formula_sum   'Lu15 Th1 Tl2 In2 Rh4'
_cell_volume   608.26487228
_cell_formula_units_Z   1
loop_
 _symmetry_equiv_pos_site_id
 _symmetry_equiv_pos_as_xyz
  1  'x, y, z'
loop_
 _atom_site_type_symbol
 _atom_site_label
 _atom_site_symmetry_multiplicity
 _atom_site_fract_x
 _atom_site_fract_y
 _atom_site_fract_z
 _atom_site_occupancy
  Lu  Lu0  1  0.602298  0.602298  0.194505  1
  Lu  Lu1  1  0.601932  0.194666  0.602687  1
  Lu  Lu2  1  0.194666  0.601932  0.602687  1
  Lu  Lu3  1  0.063313  0.436964  0.438953  1
  Lu  Lu4  1  0.439775  0.060497  0.060665  1
  Lu  Lu5  1  0.436964  0.063313  0.438953  1
  Lu  Lu6  1  0.060497  0.439775  0.060665  1
  Lu  Lu7  1  0.438422  0.438422  0.062960  1
  Lu  Lu8  1  0.060883  0.060883  0.440333  1
  Lu  Lu9  1  0.186302  0.815339  0.815444  1
  Lu  Lu10  1  0.813212  0.191306  0.189916  1
  Lu  Lu11  1  0.815339  0.186302  0.815444  1
  Lu  Lu12  1  0.191306  0.813212  0.189916  1
  Lu  Lu13  1  0.815084  0.815084  0.185734  1
  Lu  Lu14  1  0.190043  0.190043  0.813638  1
  Th  Th15  1  0.594397  0.594397  0.594830  1
  Tl  Tl16  1  0.835927  0.835927  0.837033  1
  Tl  Tl17  1  0.835630  0.835630  0.491847  1
  In  In18  1  0.833800  0.496224  0.834691  1
  In  In19  1  0.496224  0.833800  0.834691  1
  Rh  Rh20  1  0.393098  0.393098  0.393061  1
  Rh  Rh21  1  0.388662  0.388662  0.824058  1
  Rh  Rh22  1  0.388451  0.823775  0.388645  1
  Rh  Rh23  1  0.823775  0.388451  0.388645  1
