# generated using pymatgen
data_La3PCl3
_symmetry_space_group_name_H-M   'P 1'
_cell_length_a   10.20591739
_cell_length_b   10.20591757
_cell_length_c   10.20591700
_cell_angle_alpha   109.47122347
_cell_angle_beta   109.47122384
_cell_angle_gamma   109.47121426
_symmetry_Int_Tables_number   1
_chemical_formula_structural   La3PCl3
_chemical_formula_sum   'La12 P4 Cl12'
_cell_volume   818.34088237
_cell_formula_units_Z   4
loop_
 _symmetry_equiv_pos_site_id
 _symmetry_equiv_pos_as_xyz
  1  'x, y, z'
loop_
 _atom_site_type_symbol
 _atom_site_label
 _atom_site_symmetry_multiplicity
 _atom_site_fract_x
 _atom_site_fract_y
 _atom_site_fract_z
 _atom_site_occupancy
  La  La0  1  0.491868  0.750000  0.008132  1
  La  La1  1  0.750000  0.241868  0.258132  1
  La  La2  1  0.241868  0.258132  0.750000  1
  La  La3  1  0.483738  0.491868  0.241868  1
  La  La4  1  0.258132  0.008132  0.016262  1
  La  La5  1  0.241868  0.483738  0.491868  1
  La  La6  1  0.008132  0.016262  0.258132  1
  La  La7  1  0.008132  0.491868  0.750000  1
  La  La8  1  0.491868  0.241868  0.483738  1
  La  La9  1  0.750000  0.008132  0.491868  1
  La  La10  1  0.016262  0.258132  0.008132  1
  La  La11  1  0.258132  0.750000  0.241868  1
  P  P12  1  0.250000  0.250000  0.250000  1
  P  P13  1  0.000000  0.250000  0.500000  1
  P  P14  1  0.250000  0.500000  0.000000  1
  P  P15  1  0.500000  0.000000  0.250000  1
  Cl  Cl16  1  0.996606  0.993212  0.746606  1
  Cl  Cl17  1  0.753394  0.746606  0.250000  1
  Cl  Cl18  1  0.993212  0.746606  0.996606  1
  Cl  Cl19  1  0.250000  0.996606  0.503394  1
  Cl  Cl20  1  0.746606  0.996606  0.993212  1
  Cl  Cl21  1  0.503394  0.250000  0.996606  1
  Cl  Cl22  1  0.746606  0.250000  0.753394  1
  Cl  Cl23  1  0.503394  0.753394  0.506788  1
  Cl  Cl24  1  0.753394  0.506788  0.503394  1
  Cl  Cl25  1  0.250000  0.753394  0.746606  1
  Cl  Cl26  1  0.506788  0.503394  0.753394  1
  Cl  Cl27  1  0.996606  0.503394  0.250000  1
