# generated using pymatgen
data_Ca2Ni2Ag(AsO4)3
_symmetry_space_group_name_H-M   'P 1'
_cell_length_a   10.86321484
_cell_length_b   10.86321465
_cell_length_c   10.86321620
_cell_angle_alpha   109.65715156
_cell_angle_beta   109.65715921
_cell_angle_gamma   109.09998351
_symmetry_Int_Tables_number   1
_chemical_formula_structural   Ca2Ni2Ag(AsO4)3
_chemical_formula_sum   'Ca8 Ni8 Ag4 As12 O48'
_cell_volume   986.82381214
_cell_formula_units_Z   4
loop_
 _symmetry_equiv_pos_site_id
 _symmetry_equiv_pos_as_xyz
  1  'x, y, z'
loop_
 _atom_site_type_symbol
 _atom_site_label
 _atom_site_symmetry_multiplicity
 _atom_site_fract_x
 _atom_site_fract_y
 _atom_site_fract_z
 _atom_site_occupancy
  Ca  Ca0  1  0.125000  0.754111  0.129111  1
  Ca  Ca1  1  0.004111  0.875000  0.629111  1
  Ca  Ca2  1  0.125000  0.254111  0.629111  1
  Ca  Ca3  1  0.504111  0.875000  0.129111  1
  Ca  Ca4  1  0.625000  0.995889  0.870889  1
  Ca  Ca5  1  0.245889  0.375000  0.370889  1
  Ca  Ca6  1  0.625000  0.495889  0.370889  1
  Ca  Ca7  1  0.745889  0.375000  0.870889  1
  Ni  Ni8  1  0.375000  0.625000  0.750000  1
  Ni  Ni9  1  0.875000  0.125000  0.250000  1
  Ni  Ni10  1  0.875000  0.125000  0.750000  1
  Ni  Ni11  1  0.375000  0.125000  0.250000  1
  Ni  Ni12  1  0.375000  0.125000  0.750000  1
  Ni  Ni13  1  0.875000  0.625000  0.250000  1
  Ni  Ni14  1  0.375000  0.625000  0.250000  1
  Ni  Ni15  1  0.875000  0.625000  0.750000  1
  Ag  Ag16  1  0.750000  0.750000  0.000000  1
  Ag  Ag17  1  0.500000  0.000000  0.500000  1
  Ag  Ag18  1  0.250000  0.250000  0.000000  1
  Ag  Ag19  1  0.000000  0.500000  0.500000  1
  As  As20  1  0.250000  0.750000  0.500000  1
  As  As21  1  0.625000  0.747852  0.622852  1
  As  As22  1  0.252148  0.875000  0.877148  1
  As  As23  1  0.752148  0.875000  0.377148  1
  As  As24  1  0.125000  0.002148  0.377148  1
  As  As25  1  0.000000  0.000000  0.000000  1
  As  As26  1  0.750000  0.250000  0.500000  1
  As  As27  1  0.997852  0.375000  0.122852  1
  As  As28  1  0.625000  0.247852  0.122852  1
  As  As29  1  0.497852  0.375000  0.622852  1
  As  As30  1  0.125000  0.502148  0.877148  1
  As  As31  1  0.500000  0.500000  0.000000  1
  O  O32  1  0.069343  0.733676  0.742688  1
  O  O33  1  0.277250  0.736917  0.348458  1
  O  O34  1  0.268865  0.641925  0.060612  1
  O  O35  1  0.071209  0.722750  0.459667  1
  O  O36  1  0.768865  0.708254  0.626941  1
  O  O37  1  0.791746  0.731135  0.373059  1
  O  O38  1  0.983676  0.819343  0.242688  1
  O  O39  1  0.168686  0.041746  0.560612  1
  O  O40  1  0.291746  0.918686  0.060612  1
  O  O41  1  0.266324  0.009013  0.335668  1
  O  O42  1  0.486917  0.638458  0.959667  1
  O  O43  1  0.673345  0.930657  0.664332  1
  O  O44  1  0.972750  0.821209  0.959667  1
  O  O45  1  0.569343  0.826655  0.335668  1
  O  O46  1  0.891925  0.018865  0.560612  1
  O  O47  1  0.388458  0.928791  0.651542  1
  O  O48  1  0.759013  0.923345  0.242688  1
  O  O49  1  0.576655  0.740987  0.757312  1
  O  O50  1  0.081314  0.141925  0.373059  1
  O  O51  1  0.259013  0.016324  0.835668  1
  O  O52  1  0.178791  0.138458  0.151542  1
  O  O53  1  0.861542  0.013083  0.040333  1
  O  O54  1  0.358075  0.418686  0.626941  1
  O  O55  1  0.986917  0.027250  0.848458  1
  O  O56  1  0.763083  0.222750  0.651542  1
  O  O57  1  0.391925  0.831314  0.873059  1
  O  O58  1  0.888458  0.236917  0.459667  1
  O  O59  1  0.571209  0.111542  0.348458  1
  O  O60  1  0.490987  0.233676  0.664332  1
  O  O61  1  0.668686  0.108075  0.126941  1
  O  O62  1  0.173345  0.509013  0.742688  1
  O  O63  1  0.990987  0.326655  0.257312  1
  O  O64  1  0.361542  0.321209  0.848458  1
  O  O65  1  0.858075  0.231135  0.939388  1
  O  O66  1  0.180657  0.423345  0.164332  1
  O  O67  1  0.777250  0.428791  0.540333  1
  O  O68  1  0.076655  0.319343  0.835668  1
  O  O69  1  0.263083  0.611542  0.540333  1
  O  O70  1  0.483676  0.240987  0.164332  1
  O  O71  1  0.458254  0.331314  0.439388  1
  O  O72  1  0.581314  0.208254  0.939388  1
  O  O73  1  0.766324  0.430657  0.257312  1
  O  O74  1  0.958254  0.518865  0.126941  1
  O  O75  1  0.981135  0.541746  0.873059  1
  O  O76  1  0.678791  0.527250  0.040333  1
  O  O77  1  0.472750  0.513083  0.151542  1
  O  O78  1  0.481135  0.608075  0.439388  1
  O  O79  1  0.680657  0.516324  0.757312  1
