# generated using pymatgen
data_CaHo3Al16(SiIr3)2
_symmetry_space_group_name_H-M   'P 1'
_cell_length_a   7.53978022
_cell_length_b   7.54462087
_cell_length_c   9.36795100
_cell_angle_alpha   90.00000000
_cell_angle_beta   90.00000000
_cell_angle_gamma   119.62455466
_symmetry_Int_Tables_number   1
_chemical_formula_structural   CaHo3Al16(SiIr3)2
_chemical_formula_sum   'Ca1 Ho3 Al16 Si2 Ir6'
_cell_volume   463.23566320
_cell_formula_units_Z   1
loop_
 _symmetry_equiv_pos_site_id
 _symmetry_equiv_pos_as_xyz
  1  'x, y, z'
loop_
 _atom_site_type_symbol
 _atom_site_label
 _atom_site_symmetry_multiplicity
 _atom_site_fract_x
 _atom_site_fract_y
 _atom_site_fract_z
 _atom_site_occupancy
  Ca  Ca0  1  0.994275  0.675084  0.250000  1
  Ho  Ho1  1  0.004257  0.325166  0.750000  1
  Ho  Ho2  1  0.675510  0.995028  0.250000  1
  Ho  Ho3  1  0.323548  0.003027  0.750000  1
  Al  Al4  1  0.001355  0.337336  0.076723  1
  Al  Al5  1  0.998488  0.663384  0.924268  1
  Al  Al6  1  0.998488  0.663384  0.575732  1
  Al  Al7  1  0.335637  0.000500  0.423059  1
  Al  Al8  1  0.001355  0.337336  0.423277  1
  Al  Al9  1  0.663472  0.998606  0.577205  1
  Al  Al10  1  0.663472  0.998606  0.922795  1
  Al  Al11  1  0.335637  0.000500  0.076941  1
  Al  Al12  1  0.335675  0.335509  0.556280  1
  Al  Al13  1  0.665126  0.664450  0.444019  1
  Al  Al14  1  0.665126  0.664450  0.055981  1
  Al  Al15  1  0.335675  0.335509  0.943720  1
  Al  Al16  1  0.337268  0.549164  0.250000  1
  Al  Al17  1  0.664968  0.451449  0.750000  1
  Al  Al18  1  0.548205  0.334129  0.250000  1
  Al  Al19  1  0.451737  0.664564  0.750000  1
  Si  Si20  1  0.128944  0.130655  0.250000  1
  Si  Si21  1  0.871973  0.871445  0.750000  1
  Ir  Ir22  1  0.670381  0.326951  0.998837  1
  Ir  Ir23  1  0.329217  0.671593  0.998842  1
  Ir  Ir24  1  0.329217  0.671593  0.501158  1
  Ir  Ir25  1  0.670381  0.326951  0.501163  1
  Ir  Ir26  1  0.000304  0.001816  0.998610  1
  Ir  Ir27  1  0.000304  0.001816  0.501390  1
