# generated using pymatgen
data_Tb2Yb2Ga15(SiIr2)3
_symmetry_space_group_name_H-M   'P 1'
_cell_length_a   7.57679997
_cell_length_b   7.49773570
_cell_length_c   9.52276311
_cell_angle_alpha   89.97584491
_cell_angle_beta   89.99972665
_cell_angle_gamma   119.84280844
_symmetry_Int_Tables_number   1
_chemical_formula_structural   Tb2Yb2Ga15(SiIr2)3
_chemical_formula_sum   'Tb2 Yb2 Ga15 Si3 Ir6'
_cell_volume   469.24023159
_cell_formula_units_Z   1
loop_
 _symmetry_equiv_pos_site_id
 _symmetry_equiv_pos_as_xyz
  1  'x, y, z'
loop_
 _atom_site_type_symbol
 _atom_site_label
 _atom_site_symmetry_multiplicity
 _atom_site_fract_x
 _atom_site_fract_y
 _atom_site_fract_z
 _atom_site_occupancy
  Tb  Tb0  1  0.996131  0.665407  0.248017  1
  Tb  Tb1  1  0.004470  0.339387  0.750339  1
  Yb  Yb2  1  0.672362  0.002465  0.248227  1
  Yb  Yb3  1  0.324943  0.994124  0.749885  1
  Ga  Ga4  1  0.128666  0.127773  0.250644  1
  Ga  Ga5  1  0.871641  0.869093  0.751067  1
  Ga  Ga6  1  0.342874  0.005563  0.421110  1
  Ga  Ga7  1  0.998279  0.325717  0.420565  1
  Ga  Ga8  1  0.664201  0.001319  0.578910  1
  Ga  Ga9  1  0.660320  0.997533  0.918947  1
  Ga  Ga10  1  0.341258  0.004332  0.080045  1
  Ga  Ga11  1  0.333237  0.328055  0.568864  1
  Ga  Ga12  1  0.660161  0.670405  0.432346  1
  Ga  Ga13  1  0.659674  0.670301  0.069916  1
  Ga  Ga14  1  0.338456  0.328694  0.929783  1
  Ga  Ga15  1  0.336911  0.547083  0.251013  1
  Ga  Ga16  1  0.662095  0.455205  0.752032  1
  Ga  Ga17  1  0.548721  0.340011  0.250820  1
  Ga  Ga18  1  0.452934  0.662303  0.750771  1
  Si  Si19  1  0.000551  0.328447  0.071901  1
  Si  Si20  1  0.999103  0.671288  0.929437  1
  Si  Si21  1  0.000958  0.666541  0.567354  1
  Ir  Ir22  1  0.697063  0.344427  0.002362  1
  Ir  Ir23  1  0.302512  0.655218  0.998549  1
  Ir  Ir24  1  0.314424  0.667321  0.503160  1
  Ir  Ir25  1  0.686734  0.345110  0.502231  1
  Ir  Ir26  1  0.000224  0.000264  0.000336  1
  Ir  Ir27  1  0.001093  0.986613  0.501368  1
