# generated using pymatgen
data_Mg3Nb(VRu2)4
_symmetry_space_group_name_H-M   'P 1'
_cell_length_a   6.13963800
_cell_length_b   4.31286800
_cell_length_c   8.61082900
_cell_angle_alpha   90.00000000
_cell_angle_beta   90.00038262
_cell_angle_gamma   90.00000000
_symmetry_Int_Tables_number   1
_chemical_formula_structural   Mg3Nb(VRu2)4
_chemical_formula_sum   'Mg3 Nb1 V4 Ru8'
_cell_volume   228.01000100
_cell_formula_units_Z   1
loop_
 _symmetry_equiv_pos_site_id
 _symmetry_equiv_pos_as_xyz
  1  'x, y, z'
loop_
 _atom_site_type_symbol
 _atom_site_label
 _atom_site_symmetry_multiplicity
 _atom_site_fract_x
 _atom_site_fract_y
 _atom_site_fract_z
 _atom_site_occupancy
  Mg  Mg0  1  0.749995  0.749999  0.373927  1
  Mg  Mg1  1  0.250006  0.249999  0.624990  1
  Mg  Mg2  1  0.750005  0.749999  0.876098  1
  Nb  Nb3  1  0.249995  0.249999  0.124996  1
  V  V4  1  0.749997  0.249999  0.124986  1
  V  V5  1  0.249996  0.749999  0.387920  1
  V  V6  1  0.750002  0.249999  0.624989  1
  V  V7  1  0.250003  0.749999  0.862075  1
  Ru  Ru8  1  0.003266  0.749999  0.125001  1
  Ru  Ru9  1  0.496720  0.749999  0.124998  1
  Ru  Ru10  1  0.000602  0.249999  0.372721  1
  Ru  Ru11  1  0.499393  0.249999  0.372722  1
  Ru  Ru12  1  0.500816  0.749999  0.625012  1
  Ru  Ru13  1  0.999195  0.749999  0.625009  1
  Ru  Ru14  1  0.499400  0.249999  0.877278  1
  Ru  Ru15  1  0.000608  0.249999  0.877275  1
