# generated using pymatgen
data_Dy8Hf7Si16W5
_symmetry_space_group_name_H-M   'P 1'
_cell_length_a   6.88319770
_cell_length_b   7.10024166
_cell_length_c   13.55205420
_cell_angle_alpha   89.88806417
_cell_angle_beta   90.14696159
_cell_angle_gamma   89.84975991
_symmetry_Int_Tables_number   1
_chemical_formula_structural   Dy8Hf7Si16W5
_chemical_formula_sum   'Dy8 Hf7 Si16 W5'
_cell_volume   662.31523848
_cell_formula_units_Z   1
loop_
 _symmetry_equiv_pos_site_id
 _symmetry_equiv_pos_as_xyz
  1  'x, y, z'
loop_
 _atom_site_type_symbol
 _atom_site_label
 _atom_site_symmetry_multiplicity
 _atom_site_fract_x
 _atom_site_fract_y
 _atom_site_fract_z
 _atom_site_occupancy
  Dy  Dy0  1  0.503782  0.672486  0.596320  1
  Dy  Dy1  1  0.008926  0.827106  0.899059  1
  Dy  Dy2  1  0.493096  0.325477  0.098182  1
  Dy  Dy3  1  0.995341  0.174604  0.406805  1
  Dy  Dy4  1  0.494336  0.325522  0.402917  1
  Dy  Dy5  1  0.992525  0.172997  0.097320  1
  Dy  Dy6  1  0.505540  0.672080  0.900912  1
  Dy  Dy7  1  0.005585  0.826405  0.596893  1
  Hf  Hf8  1  0.665814  0.173782  0.624984  1
  Hf  Hf9  1  0.171296  0.326108  0.872300  1
  Hf  Hf10  1  0.329381  0.826685  0.126607  1
  Hf  Hf11  1  0.833482  0.670414  0.375927  1
  Hf  Hf12  1  0.329088  0.824803  0.376004  1
  Hf  Hf13  1  0.830049  0.673570  0.126582  1
  Hf  Hf14  1  0.670573  0.174993  0.870766  1
  Si  Si15  1  0.661635  0.966784  0.456588  1
  Si  Si16  1  0.160776  0.533708  0.042065  1
  Si  Si17  1  0.340275  0.033338  0.956134  1
  Si  Si18  1  0.848544  0.465651  0.547534  1
  Si  Si19  1  0.329340  0.042026  0.545526  1
  Si  Si20  1  0.840516  0.466954  0.955822  1
  Si  Si21  1  0.659516  0.966178  0.042438  1
  Si  Si22  1  0.166147  0.532753  0.464586  1
  Si  Si23  1  0.463486  0.383991  0.747385  1
  Si  Si24  1  0.972498  0.121947  0.745487  1
  Si  Si25  1  0.531327  0.615252  0.251085  1
  Si  Si26  1  0.030113  0.884946  0.251567  1
  Si  Si27  1  0.705902  0.866589  0.747975  1
  Si  Si28  1  0.203694  0.628943  0.747639  1
  Si  Si29  1  0.291654  0.134590  0.251134  1
  Si  Si30  1  0.794756  0.363597  0.250549  1
  W  W31  1  0.171206  0.328293  0.627632  1
  W  W32  1  0.841920  0.489553  0.747584  1
  W  W33  1  0.341874  0.011041  0.747669  1
  W  W34  1  0.159077  0.506333  0.251069  1
  W  W35  1  0.656932  0.990503  0.250957  1
