# generated using pymatgen
data_CeDyPa2(InRh2)2
_symmetry_space_group_name_H-M   'P 1'
_cell_length_a   7.74835556
_cell_length_b   7.74835477
_cell_length_c   3.63154600
_cell_angle_alpha   90.00000000
_cell_angle_beta   90.00000000
_cell_angle_gamma   93.73175315
_symmetry_Int_Tables_number   1
_chemical_formula_structural   CeDyPa2(InRh2)2
_chemical_formula_sum   'Ce1 Dy1 Pa2 In2 Rh4'
_cell_volume   217.56487279
_cell_formula_units_Z   1
loop_
 _symmetry_equiv_pos_site_id
 _symmetry_equiv_pos_as_xyz
  1  'x, y, z'
loop_
 _atom_site_type_symbol
 _atom_site_label
 _atom_site_symmetry_multiplicity
 _atom_site_fract_x
 _atom_site_fract_y
 _atom_site_fract_z
 _atom_site_occupancy
  Ce  Ce0  1  0.829652  0.670348  0.500000  1
  Dy  Dy1  1  0.170662  0.329338  0.500000  1
  Pa  Pa2  1  0.668248  0.169450  0.500000  1
  Pa  Pa3  1  0.330550  0.831752  0.500000  1
  In  In4  1  0.001035  0.003895  0.000000  1
  In  In5  1  0.496105  0.498965  0.000000  1
  Rh  Rh6  1  0.142244  0.648902  0.000000  1
  Rh  Rh7  1  0.851098  0.357756  0.000000  1
  Rh  Rh8  1  0.630435  0.869565  0.000000  1
  Rh  Rh9  1  0.379970  0.120030  0.000000  1
