# generated using pymatgen
data_Eu10CdAgIr4
_symmetry_space_group_name_H-M   'P 1'
_cell_length_a   9.38297592
_cell_length_b   9.38297575
_cell_length_c   9.38297502
_cell_angle_alpha   129.00983751
_cell_angle_beta   129.00983510
_cell_angle_gamma   74.99473972
_symmetry_Int_Tables_number   1
_chemical_formula_structural   Eu10CdAgIr4
_chemical_formula_sum   'Eu10 Cd1 Ag1 Ir4'
_cell_volume   485.70890701
_cell_formula_units_Z   1
loop_
 _symmetry_equiv_pos_site_id
 _symmetry_equiv_pos_as_xyz
  1  'x, y, z'
loop_
 _atom_site_type_symbol
 _atom_site_label
 _atom_site_symmetry_multiplicity
 _atom_site_fract_x
 _atom_site_fract_y
 _atom_site_fract_z
 _atom_site_occupancy
  Eu  Eu0  1  0.500476  0.500476  0.000000  1
  Eu  Eu1  1  0.999524  0.999524  0.000000  1
  Eu  Eu2  1  0.534728  0.037837  0.826723  1
  Eu  Eu3  1  0.211114  0.708005  0.173277  1
  Eu  Eu4  1  0.037837  0.211114  0.503109  1
  Eu  Eu5  1  0.708005  0.534728  0.496891  1
  Eu  Eu6  1  0.462163  0.965272  0.173277  1
  Eu  Eu7  1  0.791995  0.288886  0.826723  1
  Eu  Eu8  1  0.965272  0.791995  0.503109  1
  Eu  Eu9  1  0.288886  0.462163  0.496891  1
  Cd  Cd10  1  0.750000  0.750000  0.000000  1
  Ag  Ag11  1  0.250000  0.250000  0.000000  1
  Ir  Ir12  1  0.133246  0.633246  0.766492  1
  Ir  Ir13  1  0.866754  0.366754  0.233508  1
  Ir  Ir14  1  0.633246  0.866754  0.500000  1
  Ir  Ir15  1  0.366754  0.133246  0.500000  1
