# generated using pymatgen
data_Zr12Mn3Al9N4
_symmetry_space_group_name_H-M   'P 1'
_cell_length_a   8.62777695
_cell_length_b   8.62775858
_cell_length_c   8.62780700
_cell_angle_alpha   59.87119229
_cell_angle_beta   59.87132449
_cell_angle_gamma   59.87104270
_symmetry_Int_Tables_number   1
_chemical_formula_structural   Zr12Mn3Al9N4
_chemical_formula_sum   'Zr12 Mn3 Al9 N4'
_cell_volume   452.80484659
_cell_formula_units_Z   1
loop_
 _symmetry_equiv_pos_site_id
 _symmetry_equiv_pos_as_xyz
  1  'x, y, z'
loop_
 _atom_site_type_symbol
 _atom_site_label
 _atom_site_symmetry_multiplicity
 _atom_site_fract_x
 _atom_site_fract_y
 _atom_site_fract_z
 _atom_site_occupancy
  Zr  Zr0  1  0.809464  0.190075  0.190052  1
  Zr  Zr1  1  0.190081  0.809441  0.190076  1
  Zr  Zr2  1  0.810754  0.810733  0.186695  1
  Zr  Zr3  1  0.186737  0.810696  0.810712  1
  Zr  Zr4  1  0.810747  0.186712  0.810742  1
  Zr  Zr5  1  0.190051  0.190071  0.809470  1
  Zr  Zr6  1  0.440536  0.059925  0.059948  1
  Zr  Zr7  1  0.059919  0.440559  0.059924  1
  Zr  Zr8  1  0.439246  0.439267  0.063305  1
  Zr  Zr9  1  0.063263  0.439304  0.439288  1
  Zr  Zr10  1  0.439253  0.063288  0.439258  1
  Zr  Zr11  1  0.059949  0.059929  0.440530  1
  Mn  Mn12  1  0.625000  0.625000  0.125000  1
  Mn  Mn13  1  0.125000  0.625000  0.625000  1
  Mn  Mn14  1  0.625000  0.125000  0.625000  1
  Al  Al15  1  0.412725  0.412813  0.742773  1
  Al  Al16  1  0.417944  0.418019  0.417988  1
  Al  Al17  1  0.742780  0.412801  0.412752  1
  Al  Al18  1  0.412749  0.742746  0.412794  1
  Al  Al19  1  0.837275  0.837187  0.507227  1
  Al  Al20  1  0.832056  0.831981  0.832012  1
  Al  Al21  1  0.507220  0.837199  0.837248  1
  Al  Al22  1  0.837251  0.507254  0.837206  1
  Al  Al23  1  0.625000  0.625000  0.625000  1
  N  N24  1  0.125000  0.125000  0.625000  1
  N  N25  1  0.125000  0.125000  0.125000  1
  N  N26  1  0.625000  0.125000  0.125000  1
  N  N27  1  0.125000  0.625000  0.125000  1
