# generated using pymatgen
data_LaTbFe6(CoB4)2
_symmetry_space_group_name_H-M   'P 1'
_cell_length_a   7.03022863
_cell_length_b   7.03979657
_cell_length_c   3.80430600
_cell_angle_alpha   90.00000000
_cell_angle_beta   90.00000000
_cell_angle_gamma   90.22534708
_symmetry_Int_Tables_number   1
_chemical_formula_structural   LaTbFe6(CoB4)2
_chemical_formula_sum   'La1 Tb1 Fe6 Co2 B8'
_cell_volume   188.27889550
_cell_formula_units_Z   1
loop_
 _symmetry_equiv_pos_site_id
 _symmetry_equiv_pos_as_xyz
  1  'x, y, z'
loop_
 _atom_site_type_symbol
 _atom_site_label
 _atom_site_symmetry_multiplicity
 _atom_site_fract_x
 _atom_site_fract_y
 _atom_site_fract_z
 _atom_site_occupancy
  La  La0  1  0.500000  0.500000  0.500028  1
  Tb  Tb1  1  0.000000  0.000000  0.000353  1
  Fe  Fe2  1  0.385445  0.129425  0.893912  1
  Fe  Fe3  1  0.614555  0.870575  0.893912  1
  Fe  Fe4  1  0.364797  0.887435  0.394859  1
  Fe  Fe5  1  0.635203  0.112565  0.394859  1
  Fe  Fe6  1  0.112565  0.365312  0.605514  1
  Fe  Fe7  1  0.887435  0.634688  0.605514  1
  Co  Co8  1  0.133026  0.614705  0.107298  1
  Co  Co9  1  0.866974  0.385295  0.107298  1
  B  B10  1  0.801403  0.669795  0.103207  1
  B  B11  1  0.198597  0.330205  0.103207  1
  B  B12  1  0.840089  0.290728  0.605690  1
  B  B13  1  0.159911  0.709272  0.605690  1
  B  B14  1  0.707959  0.837978  0.393911  1
  B  B15  1  0.292041  0.162022  0.393911  1
  B  B16  1  0.667098  0.193464  0.895420  1
  B  B17  1  0.332902  0.806536  0.895420  1
