# generated using pymatgen
data_Y2Mg2AgRu
_symmetry_space_group_name_H-M   'P 1'
_cell_length_a   4.09564800
_cell_length_b   7.37079722
_cell_length_c   8.96479677
_cell_angle_alpha   87.31617901
_cell_angle_beta   90.00000000
_cell_angle_gamma   90.00000000
_symmetry_Int_Tables_number   1
_chemical_formula_structural   Y2Mg2AgRu
_chemical_formula_sum   'Y4 Mg4 Ag2 Ru2'
_cell_volume   270.33415111
_cell_formula_units_Z   2
loop_
 _symmetry_equiv_pos_site_id
 _symmetry_equiv_pos_as_xyz
  1  'x, y, z'
loop_
 _atom_site_type_symbol
 _atom_site_label
 _atom_site_symmetry_multiplicity
 _atom_site_fract_x
 _atom_site_fract_y
 _atom_site_fract_z
 _atom_site_occupancy
  Y  Y0  1  0.250000  0.522288  0.158870  1
  Y  Y1  1  0.750000  0.477712  0.841130  1
  Y  Y2  1  0.750000  0.945332  0.697087  1
  Y  Y3  1  0.250000  0.054668  0.302913  1
  Mg  Mg4  1  0.250000  0.641369  0.570230  1
  Mg  Mg5  1  0.750000  0.358631  0.429770  1
  Mg  Mg6  1  0.750000  0.864477  0.054473  1
  Mg  Mg7  1  0.250000  0.135523  0.945527  1
  Ag  Ag8  1  0.750000  0.742506  0.368675  1
  Ag  Ag9  1  0.250000  0.257494  0.631325  1
  Ru  Ru10  1  0.250000  0.749729  0.865280  1
  Ru  Ru11  1  0.750000  0.250271  0.134720  1
