# generated using pymatgen
data_Rb4Na2DyTmAs4
_symmetry_space_group_name_H-M   'P 1'
_cell_length_a   9.44762969
_cell_length_b   9.44762966
_cell_length_c   9.44762845
_cell_angle_alpha   135.26972883
_cell_angle_beta   135.48996940
_cell_angle_gamma   64.94073207
_symmetry_Int_Tables_number   1
_chemical_formula_structural   Rb4Na2DyTmAs4
_chemical_formula_sum   'Rb4 Na2 Dy1 Tm1 As4'
_cell_volume   410.10351211
_cell_formula_units_Z   1
loop_
 _symmetry_equiv_pos_site_id
 _symmetry_equiv_pos_as_xyz
  1  'x, y, z'
loop_
 _atom_site_type_symbol
 _atom_site_label
 _atom_site_symmetry_multiplicity
 _atom_site_fract_x
 _atom_site_fract_y
 _atom_site_fract_z
 _atom_site_occupancy
  Rb  Rb0  1  0.682049  0.394888  0.712433  1
  Rb  Rb1  1  0.817951  0.030384  0.212839  1
  Rb  Rb2  1  0.182455  0.969616  0.787567  1
  Rb  Rb3  1  0.317545  0.605112  0.287161  1
  Na  Na4  1  0.750000  0.000000  0.750000  1
  Na  Na5  1  0.250000  0.000000  0.250000  1
  Dy  Dy6  1  0.750000  0.500000  0.250000  1
  Tm  Tm7  1  0.250000  0.500000  0.750000  1
  As  As8  1  0.403175  0.184298  0.776000  1
  As  As9  1  0.591702  0.815702  0.218878  1
  As  As10  1  0.096825  0.372824  0.281122  1
  As  As11  1  0.908298  0.627176  0.724000  1
