# generated using pymatgen
data_CaLa5DyOsI12
_symmetry_space_group_name_H-M   'P 1'
_cell_length_a   10.20996355
_cell_length_b   10.13003146
_cell_length_c   10.07969821
_cell_angle_alpha   107.23677971
_cell_angle_beta   107.19602705
_cell_angle_gamma   106.83977786
_symmetry_Int_Tables_number   1
_chemical_formula_structural   CaLa5DyOsI12
_chemical_formula_sum   'Ca1 La5 Dy1 Os1 I12'
_cell_volume   866.04618689
_cell_formula_units_Z   1
loop_
 _symmetry_equiv_pos_site_id
 _symmetry_equiv_pos_as_xyz
  1  'x, y, z'
loop_
 _atom_site_type_symbol
 _atom_site_label
 _atom_site_symmetry_multiplicity
 _atom_site_fract_x
 _atom_site_fract_y
 _atom_site_fract_z
 _atom_site_occupancy
  Ca  Ca0  1  0.501481  0.498237  0.497029  1
  La  La1  1  0.028691  0.301257  0.096430  1
  La  La2  1  0.098688  0.031694  0.303367  1
  La  La3  1  0.907734  0.970422  0.698632  1
  La  La4  1  0.969750  0.699930  0.905048  1
  La  La5  1  0.679879  0.899695  0.968200  1
  Dy  Dy6  1  0.302012  0.098078  0.031191  1
  Os  Os7  1  0.999461  0.000918  0.001359  1
  I  I8  1  0.679197  0.230539  0.074615  1
  I  I9  1  0.387360  0.447956  0.152170  1
  I  I10  1  0.076502  0.685667  0.234302  1
  I  I11  1  0.771798  0.924977  0.316549  1
  I  I12  1  0.459855  0.157497  0.376086  1
  I  I13  1  0.166956  0.392926  0.465212  1
  I  I14  1  0.837769  0.607784  0.536568  1
  I  I15  1  0.541050  0.837710  0.606462  1
  I  I16  1  0.239955  0.077088  0.698825  1
  I  I17  1  0.925747  0.315483  0.767220  1
  I  I18  1  0.610019  0.538186  0.838174  1
  I  I19  1  0.316101  0.783961  0.932567  1
