# generated using pymatgen
data_HoEr(FeB)8
_symmetry_space_group_name_H-M   'P 1'
_cell_length_a   6.92452600
_cell_length_b   6.92452600
_cell_length_c   3.82789500
_cell_angle_alpha   90.00000000
_cell_angle_beta   90.00000000
_cell_angle_gamma   90.00000000
_symmetry_Int_Tables_number   1
_chemical_formula_structural   HoEr(FeB)8
_chemical_formula_sum   'Ho1 Er1 Fe8 B8'
_cell_volume   183.54396827
_cell_formula_units_Z   1
loop_
 _symmetry_equiv_pos_site_id
 _symmetry_equiv_pos_as_xyz
  1  'x, y, z'
loop_
 _atom_site_type_symbol
 _atom_site_label
 _atom_site_symmetry_multiplicity
 _atom_site_fract_x
 _atom_site_fract_y
 _atom_site_fract_z
 _atom_site_occupancy
  Ho  Ho0  1  0.000000  0.000000  0.000000  1
  Er  Er1  1  0.500000  0.500000  0.500000  1
  Fe  Fe2  1  0.867818  0.384465  0.109872  1
  Fe  Fe3  1  0.132182  0.615535  0.109872  1
  Fe  Fe4  1  0.884285  0.632046  0.609803  1
  Fe  Fe5  1  0.115715  0.367954  0.609803  1
  Fe  Fe6  1  0.632046  0.115715  0.390197  1
  Fe  Fe7  1  0.367954  0.884285  0.390197  1
  Fe  Fe8  1  0.615535  0.867818  0.890128  1
  Fe  Fe9  1  0.384465  0.132182  0.890128  1
  B  B10  1  0.332985  0.801564  0.892864  1
  B  B11  1  0.667015  0.198436  0.892864  1
  B  B12  1  0.301669  0.167145  0.392958  1
  B  B13  1  0.698331  0.832855  0.392958  1
  B  B14  1  0.167145  0.698331  0.607042  1
  B  B15  1  0.832855  0.301669  0.607042  1
  B  B16  1  0.198436  0.332985  0.107136  1
  B  B17  1  0.801564  0.667015  0.107136  1
