# generated using pymatgen
data_Zr8Nb12Al5Si11
_symmetry_space_group_name_H-M   'P 1'
_cell_length_a   6.96046506
_cell_length_b   6.97484134
_cell_length_c   12.87808499
_cell_angle_alpha   90.05974049
_cell_angle_beta   89.94954991
_cell_angle_gamma   89.92780604
_symmetry_Int_Tables_number   1
_chemical_formula_structural   Zr8Nb12Al5Si11
_chemical_formula_sum   'Zr8 Nb12 Al5 Si11'
_cell_volume   625.20598624
_cell_formula_units_Z   1
loop_
 _symmetry_equiv_pos_site_id
 _symmetry_equiv_pos_as_xyz
  1  'x, y, z'
loop_
 _atom_site_type_symbol
 _atom_site_label
 _atom_site_symmetry_multiplicity
 _atom_site_fract_x
 _atom_site_fract_y
 _atom_site_fract_z
 _atom_site_occupancy
  Zr  Zr0  1  0.998570  0.665865  0.029520  1
  Zr  Zr1  1  0.004435  0.337944  0.529698  1
  Zr  Zr2  1  0.654775  0.998331  0.969557  1
  Zr  Zr3  1  0.165530  0.501933  0.780722  1
  Zr  Zr4  1  0.834060  0.498082  0.280164  1
  Zr  Zr5  1  0.501524  0.154113  0.218464  1
  Zr  Zr6  1  0.495970  0.842450  0.721463  1
  Zr  Zr7  1  0.340817  0.001872  0.468260  1
  Nb  Nb8  1  0.353299  0.503151  0.377958  1
  Nb  Nb9  1  0.844265  0.999659  0.368862  1
  Nb  Nb10  1  0.002882  0.146475  0.128512  1
  Nb  Nb11  1  0.002660  0.849144  0.631852  1
  Nb  Nb12  1  0.646738  0.496916  0.879018  1
  Nb  Nb13  1  0.497345  0.348817  0.623238  1
  Nb  Nb14  1  0.498901  0.656081  0.122198  1
  Nb  Nb15  1  0.156252  0.000563  0.872793  1
  Nb  Nb16  1  0.662558  0.666551  0.497282  1
  Nb  Nb17  1  0.830776  0.165231  0.751096  1
  Nb  Nb18  1  0.171926  0.836450  0.248242  1
  Nb  Nb19  1  0.336675  0.328234  0.998370  1
  Al  Al20  1  0.041808  0.703077  0.436235  1
  Al  Al21  1  0.957578  0.300187  0.936739  1
  Al  Al22  1  0.703564  0.041158  0.563668  1
  Al  Al23  1  0.200465  0.456709  0.185600  1
  Al  Al24  1  0.798928  0.542997  0.685496  1
  Si  Si25  1  0.457943  0.202520  0.812401  1
  Si  Si26  1  0.543320  0.797263  0.313282  1
  Si  Si27  1  0.296580  0.956791  0.062801  1
  Si  Si28  1  0.862788  0.792089  0.823720  1
  Si  Si29  1  0.136399  0.209519  0.323090  1
  Si  Si30  1  0.793747  0.861276  0.177858  1
  Si  Si31  1  0.292484  0.638485  0.572333  1
  Si  Si32  1  0.708131  0.363625  0.073577  1
  Si  Si33  1  0.638009  0.292307  0.429200  1
  Si  Si34  1  0.361920  0.706093  0.929232  1
  Si  Si35  1  0.206378  0.138041  0.677499  1
