# generated using pymatgen
data_Ba8LaNdTi10O30
_symmetry_space_group_name_H-M   'P 1'
_cell_length_a   5.67750700
_cell_length_b   5.67750700
_cell_length_c   20.19074300
_cell_angle_alpha   90.00000000
_cell_angle_beta   90.00000000
_cell_angle_gamma   90.00000000
_symmetry_Int_Tables_number   1
_chemical_formula_structural   Ba8LaNdTi10O30
_chemical_formula_sum   'Ba8 La1 Nd1 Ti10 O30'
_cell_volume   650.83014092
_cell_formula_units_Z   1
loop_
 _symmetry_equiv_pos_site_id
 _symmetry_equiv_pos_as_xyz
  1  'x, y, z'
loop_
 _atom_site_type_symbol
 _atom_site_label
 _atom_site_symmetry_multiplicity
 _atom_site_fract_x
 _atom_site_fract_y
 _atom_site_fract_z
 _atom_site_occupancy
  Ba  Ba0  1  0.000000  0.000000  0.200245  1
  Ba  Ba1  1  0.500000  0.500000  0.200467  1
  Ba  Ba2  1  0.500000  0.500000  0.400411  1
  Ba  Ba3  1  0.500000  0.500000  0.599589  1
  Ba  Ba4  1  0.500000  0.500000  0.799533  1
  Ba  Ba5  1  0.000000  0.000000  0.400377  1
  Ba  Ba6  1  0.000000  0.000000  0.599623  1
  Ba  Ba7  1  0.000000  0.000000  0.799755  1
  La  La8  1  0.500000  0.500000  0.000000  1
  Nd  Nd9  1  0.000000  0.000000  0.000000  1
  Ti  Ti10  1  0.000000  0.500000  0.500000  1
  Ti  Ti11  1  0.000000  0.500000  0.302155  1
  Ti  Ti12  1  0.000000  0.500000  0.902066  1
  Ti  Ti13  1  0.000000  0.500000  0.697845  1
  Ti  Ti14  1  0.000000  0.500000  0.097934  1
  Ti  Ti15  1  0.500000  0.000000  0.302155  1
  Ti  Ti16  1  0.500000  0.000000  0.500000  1
  Ti  Ti17  1  0.500000  0.000000  0.902066  1
  Ti  Ti18  1  0.500000  0.000000  0.097934  1
  Ti  Ti19  1  0.500000  0.000000  0.697845  1
  O  O20  1  0.000000  0.500000  0.397952  1
  O  O21  1  0.000000  0.500000  0.807368  1
  O  O22  1  0.250042  0.749958  0.297547  1
  O  O23  1  0.249988  0.750012  0.500000  1
  O  O24  1  0.250042  0.749958  0.702453  1
  O  O25  1  0.248913  0.751087  0.911215  1
  O  O26  1  0.248913  0.751087  0.088785  1
  O  O27  1  0.500000  0.000000  0.397952  1
  O  O28  1  0.250042  0.250042  0.297547  1
  O  O29  1  0.500000  0.000000  0.192632  1
  O  O30  1  0.249988  0.249988  0.500000  1
  O  O31  1  0.250042  0.250042  0.702453  1
  O  O32  1  0.248913  0.248913  0.088785  1
  O  O33  1  0.500000  0.000000  0.807368  1
  O  O34  1  0.500000  0.000000  0.000000  1
  O  O35  1  0.248913  0.248913  0.911215  1
  O  O36  1  0.500000  0.000000  0.602048  1
  O  O37  1  0.749958  0.250042  0.297547  1
  O  O38  1  0.750012  0.249988  0.500000  1
  O  O39  1  0.749958  0.250042  0.702453  1
  O  O40  1  0.751087  0.248913  0.911215  1
  O  O41  1  0.751087  0.248913  0.088785  1
  O  O42  1  0.749958  0.749958  0.297547  1
  O  O43  1  0.750012  0.750012  0.500000  1
  O  O44  1  0.749958  0.749958  0.702453  1
  O  O45  1  0.751087  0.751087  0.911215  1
  O  O46  1  0.000000  0.500000  0.192632  1
  O  O47  1  0.000000  0.500000  0.602048  1
  O  O48  1  0.751087  0.751087  0.088785  1
  O  O49  1  0.000000  0.500000  0.000000  1
