# generated using pymatgen
data_Rb8Nd3NpI20
_symmetry_space_group_name_H-M   'P 1'
_cell_length_a   9.50172767
_cell_length_b   10.02247400
_cell_length_c   15.12719802
_cell_angle_alpha   90.00000000
_cell_angle_beta   90.61988036
_cell_angle_gamma   90.00000000
_symmetry_Int_Tables_number   1
_chemical_formula_structural   Rb8Nd3NpI20
_chemical_formula_sum   'Rb8 Nd3 Np1 I20'
_cell_volume   1440.49114021
_cell_formula_units_Z   1
loop_
 _symmetry_equiv_pos_site_id
 _symmetry_equiv_pos_as_xyz
  1  'x, y, z'
loop_
 _atom_site_type_symbol
 _atom_site_label
 _atom_site_symmetry_multiplicity
 _atom_site_fract_x
 _atom_site_fract_y
 _atom_site_fract_z
 _atom_site_occupancy
  Rb  Rb0  1  0.942734  0.003009  0.826473  1
  Rb  Rb1  1  0.056753  0.997154  0.173616  1
  Rb  Rb2  1  0.443554  0.996595  0.672667  1
  Rb  Rb3  1  0.056753  0.502846  0.173616  1
  Rb  Rb4  1  0.557671  0.003160  0.327235  1
  Rb  Rb5  1  0.942734  0.496991  0.826473  1
  Rb  Rb6  1  0.557671  0.496840  0.327235  1
  Rb  Rb7  1  0.443554  0.503405  0.672667  1
  Nd  Nd8  1  0.075688  0.250000  0.496099  1
  Nd  Nd9  1  0.422468  0.250000  0.995136  1
  Nd  Nd10  1  0.577620  0.750000  0.004775  1
  Np  Np11  1  0.926390  0.750000  0.504547  1
  I  I12  1  0.119287  0.750000  0.676301  1
  I  I13  1  0.878379  0.250000  0.324393  1
  I  I14  1  0.620608  0.250000  0.825164  1
  I  I15  1  0.379489  0.750000  0.174629  1
  I  I16  1  0.836413  0.044318  0.572436  1
  I  I17  1  0.162702  0.954885  0.426967  1
  I  I18  1  0.336145  0.955133  0.926112  1
  I  I19  1  0.162702  0.545115  0.426967  1
  I  I20  1  0.663918  0.044830  0.073443  1
  I  I21  1  0.836413  0.455682  0.572436  1
  I  I22  1  0.663918  0.455170  0.073443  1
  I  I23  1  0.336145  0.544867  0.926112  1
  I  I24  1  0.585244  0.750000  0.510119  1
  I  I25  1  0.415058  0.250000  0.489622  1
  I  I26  1  0.082897  0.250000  0.988750  1
  I  I27  1  0.917230  0.750000  0.011400  1
  I  I28  1  0.656227  0.750000  0.800718  1
  I  I29  1  0.344213  0.250000  0.199152  1
  I  I30  1  0.158133  0.250000  0.700306  1
  I  I31  1  0.841291  0.750000  0.300991  1
