# generated using pymatgen
data_NdHo3B10
_symmetry_space_group_name_H-M   'P 1'
_cell_length_a   7.12793300
_cell_length_b   7.11640014
_cell_length_c   7.14817200
_cell_angle_alpha   76.68589377
_cell_angle_beta   90.00000000
_cell_angle_gamma   90.00000000
_symmetry_Int_Tables_number   1
_chemical_formula_structural   NdHo3B10
_chemical_formula_sum   'Nd2 Ho6 B20'
_cell_volume   352.84693165
_cell_formula_units_Z   2
loop_
 _symmetry_equiv_pos_site_id
 _symmetry_equiv_pos_as_xyz
  1  'x, y, z'
loop_
 _atom_site_type_symbol
 _atom_site_label
 _atom_site_symmetry_multiplicity
 _atom_site_fract_x
 _atom_site_fract_y
 _atom_site_fract_z
 _atom_site_occupancy
  Nd  Nd0  1  0.688624  0.780106  0.621676  1
  Nd  Nd1  1  0.188624  0.219894  0.878324  1
  Ho  Ho2  1  0.306376  0.234745  0.372873  1
  Ho  Ho3  1  0.806376  0.765255  0.127127  1
  Ho  Ho4  1  0.314954  0.754912  0.253581  1
  Ho  Ho5  1  0.814954  0.245088  0.246419  1
  Ho  Ho6  1  0.684369  0.246622  0.747525  1
  Ho  Ho7  1  0.184369  0.753378  0.752475  1
  B  B8  1  0.504046  0.312718  0.043743  1
  B  B9  1  0.004046  0.687282  0.456257  1
  B  B10  1  0.496942  0.685043  0.961787  1
  B  B11  1  0.996942  0.314957  0.538213  1
  B  B12  1  0.492017  0.924312  0.931894  1
  B  B13  1  0.992017  0.075688  0.568106  1
  B  B14  1  0.517578  0.071598  0.081580  1
  B  B15  1  0.017578  0.928402  0.418420  1
  B  B16  1  0.325695  0.496221  0.041072  1
  B  B17  1  0.825695  0.503779  0.458928  1
  B  B18  1  0.672738  0.503335  0.961024  1
  B  B19  1  0.172738  0.496665  0.538976  1
  B  B20  1  0.909553  0.500298  0.910262  1
  B  B21  1  0.409553  0.499702  0.589738  1
  B  B22  1  0.088606  0.502632  0.088904  1
  B  B23  1  0.588606  0.497368  0.411096  1
  B  B24  1  0.960717  0.497744  0.672759  1
  B  B25  1  0.460717  0.502256  0.827241  1
  B  B26  1  0.037786  0.504312  0.324776  1
  B  B27  1  0.537786  0.495688  0.175224  1
