# generated using pymatgen
data_Nd3Y(WN3)4
_symmetry_space_group_name_H-M   'P 1'
_cell_length_a   7.38771311
_cell_length_b   7.38771307
_cell_length_c   6.33620771
_cell_angle_alpha   75.24412938
_cell_angle_beta   75.24413173
_cell_angle_gamma   83.53034341
_symmetry_Int_Tables_number   1
_chemical_formula_structural   Nd3Y(WN3)4
_chemical_formula_sum   'Nd3 Y1 W4 N12'
_cell_volume   322.96243227
_cell_formula_units_Z   1
loop_
 _symmetry_equiv_pos_site_id
 _symmetry_equiv_pos_as_xyz
  1  'x, y, z'
loop_
 _atom_site_type_symbol
 _atom_site_label
 _atom_site_symmetry_multiplicity
 _atom_site_fract_x
 _atom_site_fract_y
 _atom_site_fract_z
 _atom_site_occupancy
  Nd  Nd0  1  0.698491  0.301509  0.750000  1
  Nd  Nd1  1  0.088722  0.911278  0.750000  1
  Nd  Nd2  1  0.301978  0.698022  0.250000  1
  Y  Y3  1  0.908397  0.091603  0.250000  1
  W  W4  1  0.380841  0.200681  0.241082  1
  W  W5  1  0.620913  0.798964  0.754598  1
  W  W6  1  0.799319  0.619159  0.258918  1
  W  W7  1  0.201036  0.379087  0.745402  1
  N  N8  1  0.620019  0.112708  0.159569  1
  N  N9  1  0.359067  0.341571  0.468955  1
  N  N10  1  0.000722  0.221780  0.857160  1
  N  N11  1  0.383789  0.886328  0.846524  1
  N  N12  1  0.778220  0.999278  0.642840  1
  N  N13  1  0.113672  0.616211  0.653476  1
  N  N14  1  0.887292  0.379981  0.340431  1
  N  N15  1  0.635579  0.649495  0.536155  1
  N  N16  1  0.658429  0.640933  0.031045  1
  N  N17  1  0.350505  0.364421  0.963845  1
  N  N18  1  0.994848  0.781840  0.158737  1
  N  N19  1  0.218160  0.005152  0.341263  1
