# generated using pymatgen
data_Yb3SnGeIr2
_symmetry_space_group_name_H-M   'P 1'
_cell_length_a   5.64415600
_cell_length_b   8.20038900
_cell_length_c   13.31872800
_cell_angle_alpha   90.00000000
_cell_angle_beta   90.00000000
_cell_angle_gamma   90.00000000
_symmetry_Int_Tables_number   1
_chemical_formula_structural   Yb3SnGeIr2
_chemical_formula_sum   'Yb12 Sn4 Ge4 Ir8'
_cell_volume   616.44766643
_cell_formula_units_Z   4
loop_
 _symmetry_equiv_pos_site_id
 _symmetry_equiv_pos_as_xyz
  1  'x, y, z'
loop_
 _atom_site_type_symbol
 _atom_site_label
 _atom_site_symmetry_multiplicity
 _atom_site_fract_x
 _atom_site_fract_y
 _atom_site_fract_z
 _atom_site_occupancy
  Yb  Yb0  1  0.631296  0.252258  0.250000  1
  Yb  Yb1  1  0.368704  0.747742  0.750000  1
  Yb  Yb2  1  0.368704  0.752258  0.250000  1
  Yb  Yb3  1  0.631296  0.247742  0.750000  1
  Yb  Yb4  1  0.155132  0.397091  0.097969  1
  Yb  Yb5  1  0.844868  0.602909  0.902031  1
  Yb  Yb6  1  0.844868  0.602909  0.597969  1
  Yb  Yb7  1  0.844868  0.897091  0.402031  1
  Yb  Yb8  1  0.155132  0.397091  0.402031  1
  Yb  Yb9  1  0.155132  0.102909  0.597969  1
  Yb  Yb10  1  0.155132  0.102909  0.902031  1
  Yb  Yb11  1  0.844868  0.897091  0.097969  1
  Sn  Sn12  1  0.644519  0.250000  0.000000  1
  Sn  Sn13  1  0.355481  0.750000  0.000000  1
  Sn  Sn14  1  0.355481  0.750000  0.500000  1
  Sn  Sn15  1  0.644519  0.250000  0.500000  1
  Ge  Ge16  1  0.133284  0.096642  0.250000  1
  Ge  Ge17  1  0.866716  0.903358  0.750000  1
  Ge  Ge18  1  0.866716  0.596642  0.250000  1
  Ge  Ge19  1  0.133284  0.403358  0.750000  1
  Ir  Ir20  1  0.355228  0.037855  0.097139  1
  Ir  Ir21  1  0.644772  0.962145  0.902861  1
  Ir  Ir22  1  0.644772  0.962145  0.597139  1
  Ir  Ir23  1  0.644772  0.537855  0.402861  1
  Ir  Ir24  1  0.355228  0.037855  0.402861  1
  Ir  Ir25  1  0.355228  0.462145  0.597139  1
  Ir  Ir26  1  0.355228  0.462145  0.902861  1
  Ir  Ir27  1  0.644772  0.537855  0.097139  1
