# generated using pymatgen
data_Pr16MgAg3Ir3Rh
_symmetry_space_group_name_H-M   'P 1'
_cell_length_a   9.94146340
_cell_length_b   9.99978283
_cell_length_c   9.99978268
_cell_angle_alpha   60.47436095
_cell_angle_beta   60.20693701
_cell_angle_gamma   60.20693840
_symmetry_Int_Tables_number   1
_chemical_formula_structural   Pr16MgAg3Ir3Rh
_chemical_formula_sum   'Pr16 Mg1 Ag3 Ir3 Rh1'
_cell_volume   707.63669153
_cell_formula_units_Z   1
loop_
 _symmetry_equiv_pos_site_id
 _symmetry_equiv_pos_as_xyz
  1  'x, y, z'
loop_
 _atom_site_type_symbol
 _atom_site_label
 _atom_site_symmetry_multiplicity
 _atom_site_fract_x
 _atom_site_fract_y
 _atom_site_fract_z
 _atom_site_occupancy
  Pr  Pr0  1  0.347832  0.347017  0.347017  1
  Pr  Pr1  1  0.347082  0.348386  0.956873  1
  Pr  Pr2  1  0.347082  0.956873  0.348386  1
  Pr  Pr3  1  0.944601  0.352178  0.352178  1
  Pr  Pr4  1  0.806964  0.191792  0.191792  1
  Pr  Pr5  1  0.188202  0.811003  0.811003  1
  Pr  Pr6  1  0.189077  0.809632  0.188253  1
  Pr  Pr7  1  0.805901  0.193116  0.807670  1
  Pr  Pr8  1  0.189077  0.188253  0.809632  1
  Pr  Pr9  1  0.805901  0.807670  0.193116  1
  Pr  Pr10  1  0.937305  0.562754  0.562754  1
  Pr  Pr11  1  0.563105  0.938309  0.938309  1
  Pr  Pr12  1  0.560972  0.938231  0.562736  1
  Pr  Pr13  1  0.937929  0.563498  0.937535  1
  Pr  Pr14  1  0.560972  0.562736  0.938231  1
  Pr  Pr15  1  0.937929  0.937535  0.563498  1
  Mg  Mg16  1  0.295315  0.568116  0.568116  1
  Ag  Ag17  1  0.580528  0.584425  0.584425  1
  Ag  Ag18  1  0.579435  0.584889  0.252669  1
  Ag  Ag19  1  0.579435  0.252669  0.584889  1
  Ir  Ir20  1  0.140630  0.143386  0.574536  1
  Ir  Ir21  1  0.140630  0.574536  0.143386  1
  Ir  Ir22  1  0.575155  0.141823  0.141823  1
  Rh  Rh23  1  0.138945  0.141175  0.141175  1
