# generated using pymatgen
data_Na4Ca2HfAs4
_symmetry_space_group_name_H-M   'P 1'
_cell_length_a   9.65882925
_cell_length_b   9.65882918
_cell_length_c   7.40963040
_cell_angle_alpha   89.04088264
_cell_angle_beta   89.04087906
_cell_angle_gamma   120.17179748
_symmetry_Int_Tables_number   1
_chemical_formula_structural   Na4Ca2HfAs4
_chemical_formula_sum   'Na8 Ca4 Hf2 As8'
_cell_volume   597.27857594
_cell_formula_units_Z   2
loop_
 _symmetry_equiv_pos_site_id
 _symmetry_equiv_pos_as_xyz
  1  'x, y, z'
loop_
 _atom_site_type_symbol
 _atom_site_label
 _atom_site_symmetry_multiplicity
 _atom_site_fract_x
 _atom_site_fract_y
 _atom_site_fract_z
 _atom_site_occupancy
  Na  Na0  1  0.469831  0.934277  0.378720  1
  Na  Na1  1  0.934277  0.469831  0.878720  1
  Na  Na2  1  0.863666  0.720605  0.188624  1
  Na  Na3  1  0.282350  0.134829  0.223546  1
  Na  Na4  1  0.853941  0.138320  0.206436  1
  Na  Na5  1  0.134829  0.282350  0.723546  1
  Na  Na6  1  0.720605  0.863666  0.688624  1
  Na  Na7  1  0.138320  0.853941  0.706436  1
  Ca  Ca8  1  0.063621  0.532416  0.386502  1
  Ca  Ca9  1  0.475329  0.533965  0.378139  1
  Ca  Ca10  1  0.532416  0.063621  0.886502  1
  Ca  Ca11  1  0.533965  0.475329  0.878139  1
  Hf  Hf12  1  0.663877  0.330438  0.493166  1
  Hf  Hf13  1  0.330438  0.663877  0.993166  1
  As  As14  1  0.195368  0.376613  0.127171  1
  As  As15  1  0.625920  0.808257  0.088228  1
  As  As16  1  0.193222  0.815027  0.105358  1
  As  As17  1  0.808257  0.625920  0.588228  1
  As  As18  1  0.376613  0.195368  0.627171  1
  As  As19  1  0.815027  0.193222  0.605358  1
  As  As20  1  0.655465  0.332512  0.144090  1
  As  As21  1  0.332512  0.655465  0.644090  1
