# generated using pymatgen
data_Y2B(Pd2Pt)2
_symmetry_space_group_name_H-M   'P 1'
_cell_length_a   5.97805406
_cell_length_b   5.97805376
_cell_length_c   6.01624400
_cell_angle_alpha   59.78844721
_cell_angle_beta   59.78844893
_cell_angle_gamma   58.68261555
_symmetry_Int_Tables_number   1
_chemical_formula_structural   Y2B(Pd2Pt)2
_chemical_formula_sum   'Y2 B1 Pd4 Pt2'
_cell_volume   149.98571335
_cell_formula_units_Z   1
loop_
 _symmetry_equiv_pos_site_id
 _symmetry_equiv_pos_as_xyz
  1  'x, y, z'
loop_
 _atom_site_type_symbol
 _atom_site_label
 _atom_site_symmetry_multiplicity
 _atom_site_fract_x
 _atom_site_fract_y
 _atom_site_fract_z
 _atom_site_occupancy
  Y  Y0  1  0.252057  0.252057  0.245901  1
  Y  Y1  1  0.747943  0.747943  0.750016  1
  B  B2  1  0.000000  0.000000  0.008588  1
  Pd  Pd3  1  0.740647  0.740647  0.256923  1
  Pd  Pd4  1  0.259353  0.259353  0.738217  1
  Pd  Pd5  1  0.749650  0.250351  0.743472  1
  Pd  Pd6  1  0.250351  0.749650  0.743472  1
  Pt  Pt7  1  0.744638  0.255363  0.256707  1
  Pt  Pt8  1  0.255363  0.744638  0.256707  1
