# generated using pymatgen
data_LiNd4Fe2NiO12
_symmetry_space_group_name_H-M   'P 1'
_cell_length_a   5.41634978
_cell_length_b   5.64551725
_cell_length_c   7.74102627
_cell_angle_alpha   89.34303598
_cell_angle_beta   89.87015138
_cell_angle_gamma   90.07256207
_symmetry_Int_Tables_number   1
_chemical_formula_structural   LiNd4Fe2NiO12
_chemical_formula_sum   'Li1 Nd4 Fe2 Ni1 O12'
_cell_volume   236.68947994
_cell_formula_units_Z   1
loop_
 _symmetry_equiv_pos_site_id
 _symmetry_equiv_pos_as_xyz
  1  'x, y, z'
loop_
 _atom_site_type_symbol
 _atom_site_label
 _atom_site_symmetry_multiplicity
 _atom_site_fract_x
 _atom_site_fract_y
 _atom_site_fract_z
 _atom_site_occupancy
  Li  Li0  1  0.000000  0.500000  0.500000  1
  Nd  Nd1  1  0.016653  0.939145  0.745848  1
  Nd  Nd2  1  0.510790  0.557634  0.254061  1
  Nd  Nd3  1  0.489210  0.442366  0.745939  1
  Nd  Nd4  1  0.983347  0.060855  0.254152  1
  Fe  Fe5  1  0.500000  0.000000  0.500000  1
  Fe  Fe6  1  0.000000  0.500000  0.000000  1
  Ni  Ni7  1  0.500000  0.000000  0.000000  1
  O  O8  1  0.693387  0.279251  0.458262  1
  O  O9  1  0.221654  0.192543  0.539251  1
  O  O10  1  0.788141  0.797827  0.051220  1
  O  O11  1  0.284625  0.696570  0.951958  1
  O  O12  1  0.306613  0.720749  0.541738  1
  O  O13  1  0.778346  0.807457  0.460749  1
  O  O14  1  0.211859  0.202173  0.948780  1
  O  O15  1  0.715375  0.303430  0.048042  1
  O  O16  1  0.080611  0.480594  0.237213  1
  O  O17  1  0.589557  0.021918  0.755781  1
  O  O18  1  0.410443  0.978082  0.244219  1
  O  O19  1  0.919389  0.519406  0.762787  1
