# generated using pymatgen
data_Yb5Er3(Si3Pt)4
_symmetry_space_group_name_H-M   'P 1'
_cell_length_a   8.18438921
_cell_length_b   8.18438891
_cell_length_c   8.11051200
_cell_angle_alpha   90.00000000
_cell_angle_beta   90.00000000
_cell_angle_gamma   120.03274392
_symmetry_Int_Tables_number   1
_chemical_formula_structural   Yb5Er3(Si3Pt)4
_chemical_formula_sum   'Yb5 Er3 Si12 Pt4'
_cell_volume   470.33580969
_cell_formula_units_Z   1
loop_
 _symmetry_equiv_pos_site_id
 _symmetry_equiv_pos_as_xyz
  1  'x, y, z'
loop_
 _atom_site_type_symbol
 _atom_site_label
 _atom_site_symmetry_multiplicity
 _atom_site_fract_x
 _atom_site_fract_y
 _atom_site_fract_z
 _atom_site_occupancy
  Yb  Yb0  1  0.504110  0.007708  0.250000  1
  Yb  Yb1  1  0.495493  0.991993  0.750000  1
  Yb  Yb2  1  0.992292  0.495890  0.250000  1
  Yb  Yb3  1  0.008007  0.504507  0.750000  1
  Yb  Yb4  1  0.503994  0.496006  0.250000  1
  Er  Er5  1  0.496102  0.503898  0.750000  1
  Er  Er6  1  0.999788  0.000212  0.250000  1
  Er  Er7  1  0.000039  0.999961  0.750000  1
  Si  Si8  1  0.164610  0.328610  0.999781  1
  Si  Si9  1  0.835601  0.671363  0.996491  1
  Si  Si10  1  0.671390  0.835390  0.999781  1
  Si  Si11  1  0.835601  0.671363  0.503509  1
  Si  Si12  1  0.328637  0.164399  0.996491  1
  Si  Si13  1  0.164610  0.328610  0.500219  1
  Si  Si14  1  0.164732  0.835268  0.001367  1
  Si  Si15  1  0.328637  0.164399  0.503509  1
  Si  Si16  1  0.835169  0.164831  0.996212  1
  Si  Si17  1  0.671390  0.835390  0.500219  1
  Si  Si18  1  0.835169  0.164831  0.503788  1
  Si  Si19  1  0.164732  0.835268  0.498633  1
  Pt  Pt20  1  0.334054  0.665946  0.005445  1
  Pt  Pt21  1  0.665895  0.334105  0.987421  1
  Pt  Pt22  1  0.665895  0.334105  0.512579  1
  Pt  Pt23  1  0.334054  0.665946  0.494555  1
