# generated using pymatgen
data_Na3NbS3O
_symmetry_space_group_name_H-M   'P 1'
_cell_length_a   6.09057300
_cell_length_b   9.95081300
_cell_length_c   12.25460700
_cell_angle_alpha   90.00000000
_cell_angle_beta   90.00000000
_cell_angle_gamma   90.00000000
_symmetry_Int_Tables_number   1
_chemical_formula_structural   Na3NbS3O
_chemical_formula_sum   'Na12 Nb4 S12 O4'
_cell_volume   742.70458662
_cell_formula_units_Z   4
loop_
 _symmetry_equiv_pos_site_id
 _symmetry_equiv_pos_as_xyz
  1  'x, y, z'
loop_
 _atom_site_type_symbol
 _atom_site_label
 _atom_site_symmetry_multiplicity
 _atom_site_fract_x
 _atom_site_fract_y
 _atom_site_fract_z
 _atom_site_occupancy
  Na  Na0  1  0.253738  0.455335  0.130579  1
  Na  Na1  1  0.236024  0.750000  0.368568  1
  Na  Na2  1  0.246262  0.955335  0.630579  1
  Na  Na3  1  0.753738  0.044665  0.369421  1
  Na  Na4  1  0.263976  0.250000  0.868568  1
  Na  Na5  1  0.253738  0.044665  0.130579  1
  Na  Na6  1  0.246262  0.544665  0.630579  1
  Na  Na7  1  0.736024  0.750000  0.131432  1
  Na  Na8  1  0.753738  0.455335  0.369421  1
  Na  Na9  1  0.746262  0.955335  0.869421  1
  Na  Na10  1  0.763976  0.250000  0.631432  1
  Na  Na11  1  0.746262  0.544665  0.869421  1
  Nb  Nb12  1  0.339264  0.250000  0.452427  1
  Nb  Nb13  1  0.160736  0.750000  0.952427  1
  Nb  Nb14  1  0.660736  0.750000  0.547573  1
  Nb  Nb15  1  0.839264  0.250000  0.047573  1
  S  S16  1  0.256484  0.750000  0.135800  1
  S  S17  1  0.225998  0.052592  0.370422  1
  S  S18  1  0.243516  0.250000  0.635801  1
  S  S19  1  0.225998  0.447408  0.370422  1
  S  S20  1  0.743516  0.250000  0.864199  1
  S  S21  1  0.725998  0.447408  0.129578  1
  S  S22  1  0.774002  0.552592  0.629578  1
  S  S23  1  0.725998  0.052592  0.129578  1
  S  S24  1  0.774002  0.947408  0.629578  1
  S  S25  1  0.274002  0.947408  0.870422  1
  S  S26  1  0.274002  0.552592  0.870422  1
  S  S27  1  0.756484  0.750000  0.364200  1
  O  O28  1  0.639077  0.250000  0.448123  1
  O  O29  1  0.360923  0.750000  0.551877  1
  O  O30  1  0.860923  0.750000  0.948123  1
  O  O31  1  0.139077  0.250000  0.051877  1
