# generated using pymatgen
data_Y4Ho6IrOs3
_symmetry_space_group_name_H-M   'P 1'
_cell_length_a   6.38661323
_cell_length_b   7.34193704
_cell_length_c   8.40266713
_cell_angle_alpha   96.89127395
_cell_angle_beta   112.20558534
_cell_angle_gamma   90.00999493
_symmetry_Int_Tables_number   1
_chemical_formula_structural   Y4Ho6IrOs3
_chemical_formula_sum   'Y4 Ho6 Ir1 Os3'
_cell_volume   361.70064815
_cell_formula_units_Z   1
loop_
 _symmetry_equiv_pos_site_id
 _symmetry_equiv_pos_as_xyz
  1  'x, y, z'
loop_
 _atom_site_type_symbol
 _atom_site_label
 _atom_site_symmetry_multiplicity
 _atom_site_fract_x
 _atom_site_fract_y
 _atom_site_fract_z
 _atom_site_occupancy
  Y  Y0  1  0.972243  0.915620  0.181888  1
  Y  Y1  1  0.789155  0.581953  0.815496  1
  Y  Y2  1  0.023462  0.083242  0.812493  1
  Y  Y3  1  0.208807  0.419029  0.182484  1
  Ho  Ho4  1  0.647178  0.816729  0.438365  1
  Ho  Ho5  1  0.208980  0.682113  0.563175  1
  Ho  Ho6  1  0.353631  0.181770  0.564394  1
  Ho  Ho7  1  0.794668  0.319569  0.437961  1
  Ho  Ho8  1  0.422747  0.748794  0.999260  1
  Ho  Ho9  1  0.577429  0.250480  0.999662  1
  Ir  Ir10  1  0.400032  0.076358  0.222977  1
  Os  Os11  1  0.820170  0.575959  0.219415  1
  Os  Os12  1  0.602192  0.924833  0.780693  1
  Os  Os13  1  0.179304  0.423548  0.781735  1
