# generated using pymatgen
data_Te3As4SeBr4
_symmetry_space_group_name_H-M   'P 1'
_cell_length_a   3.96456602
_cell_length_b   9.68127059
_cell_length_c   13.84123000
_cell_angle_alpha   51.21206607
_cell_angle_beta   89.26295823
_cell_angle_gamma   89.09900295
_symmetry_Int_Tables_number   1
_chemical_formula_structural   Te3As4SeBr4
_chemical_formula_sum   'Te3 As4 Se1 Br4'
_cell_volume   414.04267506
_cell_formula_units_Z   1
loop_
 _symmetry_equiv_pos_site_id
 _symmetry_equiv_pos_as_xyz
  1  'x, y, z'
loop_
 _atom_site_type_symbol
 _atom_site_label
 _atom_site_symmetry_multiplicity
 _atom_site_fract_x
 _atom_site_fract_y
 _atom_site_fract_z
 _atom_site_occupancy
  Te  Te0  1  0.791134  0.289369  0.803163  1
  Te  Te1  1  0.722208  0.281342  0.302296  1
  Te  Te2  1  0.278782  0.716530  0.697395  1
  As  As3  1  0.776345  0.500043  0.871248  1
  As  As4  1  0.225158  0.504703  0.131787  1
  As  As5  1  0.733833  0.498211  0.363727  1
  As  As6  1  0.283782  0.507615  0.628815  1
  Se  Se7  1  0.206522  0.686496  0.206476  1
  Br  Br8  1  0.715719  0.743145  0.943907  1
  Br  Br9  1  0.793083  0.740703  0.441643  1
  Br  Br10  1  0.195144  0.267049  0.549619  1
  Br  Br11  1  0.278288  0.264794  0.059926  1
