# generated using pymatgen
data_Tm4GaSn5Ir7
_symmetry_space_group_name_H-M   'P 1'
_cell_length_a   7.51463875
_cell_length_b   7.51463811
_cell_length_c   7.51464021
_cell_angle_alpha   109.04947681
_cell_angle_beta   109.68251294
_cell_angle_gamma   109.68249178
_symmetry_Int_Tables_number   1
_chemical_formula_structural   Tm4GaSn5Ir7
_chemical_formula_sum   'Tm4 Ga1 Sn5 Ir7'
_cell_volume   326.65164986
_cell_formula_units_Z   1
loop_
 _symmetry_equiv_pos_site_id
 _symmetry_equiv_pos_as_xyz
  1  'x, y, z'
loop_
 _atom_site_type_symbol
 _atom_site_label
 _atom_site_symmetry_multiplicity
 _atom_site_fract_x
 _atom_site_fract_y
 _atom_site_fract_z
 _atom_site_occupancy
  Tm  Tm0  1  0.000000  0.988315  0.524913  1
  Tm  Tm1  1  0.000000  0.524913  0.988315  1
  Tm  Tm2  1  0.463402  0.988315  0.988315  1
  Tm  Tm3  1  0.536598  0.524913  0.524913  1
  Ga  Ga4  1  0.000000  0.664828  0.664828  1
  Sn  Sn5  1  0.687731  0.700017  0.012286  1
  Sn  Sn6  1  0.312269  0.012286  0.324555  1
  Sn  Sn7  1  0.000000  0.295204  0.295204  1
  Sn  Sn8  1  0.312269  0.324555  0.012286  1
  Sn  Sn9  1  0.687731  0.012286  0.700017  1
  Ir  Ir10  1  0.754061  0.248615  0.494553  1
  Ir  Ir11  1  0.754061  0.494553  0.248615  1
  Ir  Ir12  1  0.500000  0.258772  0.758772  1
  Ir  Ir13  1  0.245939  0.494553  0.740492  1
  Ir  Ir14  1  0.245939  0.740492  0.494553  1
  Ir  Ir15  1  0.500000  0.758772  0.258772  1
  Ir  Ir16  1  0.000000  0.968610  0.968610  1
