# generated using pymatgen
data_Dy3Ho3Al20(SiRu2)4
_symmetry_space_group_name_H-M   'P 1'
_cell_length_a   8.67788800
_cell_length_b   8.67759535
_cell_length_c   9.62163500
_cell_angle_alpha   90.00000000
_cell_angle_beta   90.00000000
_cell_angle_gamma   120.00466816
_symmetry_Int_Tables_number   1
_chemical_formula_structural   Dy3Ho3Al20(SiRu2)4
_chemical_formula_sum   'Dy3 Ho3 Al20 Si4 Ru8'
_cell_volume   627.44045053
_cell_formula_units_Z   1
loop_
 _symmetry_equiv_pos_site_id
 _symmetry_equiv_pos_as_xyz
  1  'x, y, z'
loop_
 _atom_site_type_symbol
 _atom_site_label
 _atom_site_symmetry_multiplicity
 _atom_site_fract_x
 _atom_site_fract_y
 _atom_site_fract_z
 _atom_site_occupancy
  Dy  Dy0  1  0.195059  0.390229  0.250000  1
  Dy  Dy1  1  0.804851  0.609687  0.750000  1
  Dy  Dy2  1  0.609746  0.804934  0.250000  1
  Ho  Ho3  1  0.390768  0.195339  0.750000  1
  Ho  Ho4  1  0.195332  0.804684  0.250000  1
  Ho  Ho5  1  0.804560  0.195347  0.750000  1
  Al  Al6  1  0.164912  0.329828  0.577276  1
  Al  Al7  1  0.835127  0.670135  0.422771  1
  Al  Al8  1  0.670140  0.835126  0.577243  1
  Al  Al9  1  0.835127  0.670135  0.077229  1
  Al  Al10  1  0.329870  0.164875  0.422833  1
  Al  Al11  1  0.164912  0.329828  0.922724  1
  Al  Al12  1  0.164990  0.835119  0.577181  1
  Al  Al13  1  0.329870  0.164875  0.077167  1
  Al  Al14  1  0.835049  0.164950  0.422868  1
  Al  Al15  1  0.670140  0.835126  0.922757  1
  Al  Al16  1  0.835049  0.164950  0.077132  1
  Al  Al17  1  0.164990  0.835119  0.922819  1
  Al  Al18  1  0.563380  0.126930  0.250000  1
  Al  Al19  1  0.436598  0.873205  0.750000  1
  Al  Al20  1  0.873065  0.436611  0.250000  1
  Al  Al21  1  0.126952  0.563394  0.750000  1
  Al  Al22  1  0.563543  0.436446  0.250000  1
  Al  Al23  1  0.436435  0.563393  0.750000  1
  Al  Al24  1  0.000084  0.999908  0.250000  1
  Al  Al25  1  0.000080  0.000167  0.750000  1
  Si  Si26  1  0.333233  0.666740  0.037044  1
  Si  Si27  1  0.666567  0.333155  0.962825  1
  Si  Si28  1  0.666567  0.333155  0.537175  1
  Si  Si29  1  0.333233  0.666740  0.462956  1
  Ru  Ru30  1  0.499948  0.000059  0.999926  1
  Ru  Ru31  1  0.999960  0.499979  0.999997  1
  Ru  Ru32  1  0.499948  0.000059  0.500074  1
  Ru  Ru33  1  0.499951  0.499886  0.999926  1
  Ru  Ru34  1  0.999960  0.499979  0.500003  1
  Ru  Ru35  1  0.499951  0.499886  0.500074  1
  Ru  Ru36  1  0.000026  0.000010  0.999986  1
  Ru  Ru37  1  0.000026  0.000010  0.500014  1
