# generated using pymatgen
data_Th3Sc2OsRu2
_symmetry_space_group_name_H-M   'P 1'
_cell_length_a   6.01810300
_cell_length_b   8.27256925
_cell_length_c   8.27256906
_cell_angle_alpha   119.86127747
_cell_angle_beta   90.00000000
_cell_angle_gamma   90.00000000
_symmetry_Int_Tables_number   1
_chemical_formula_structural   Th3Sc2OsRu2
_chemical_formula_sum   'Th6 Sc4 Os2 Ru4'
_cell_volume   357.17121262
_cell_formula_units_Z   2
loop_
 _symmetry_equiv_pos_site_id
 _symmetry_equiv_pos_as_xyz
  1  'x, y, z'
loop_
 _atom_site_type_symbol
 _atom_site_label
 _atom_site_symmetry_multiplicity
 _atom_site_fract_x
 _atom_site_fract_y
 _atom_site_fract_z
 _atom_site_occupancy
  Th  Th0  1  0.750000  0.742801  0.742801  1
  Th  Th1  1  0.250000  0.257199  0.257199  1
  Th  Th2  1  0.750000  0.998648  0.260254  1
  Th  Th3  1  0.250000  0.001352  0.739746  1
  Th  Th4  1  0.750000  0.260254  0.998648  1
  Th  Th5  1  0.250000  0.739746  0.001352  1
  Sc  Sc6  1  0.000000  0.664343  0.335657  1
  Sc  Sc7  1  0.000000  0.335657  0.664343  1
  Sc  Sc8  1  0.500000  0.335657  0.664343  1
  Sc  Sc9  1  0.500000  0.664343  0.335657  1
  Os  Os10  1  0.750000  0.390773  0.390773  1
  Os  Os11  1  0.250000  0.609227  0.609227  1
  Ru  Ru12  1  0.750000  0.001014  0.613828  1
  Ru  Ru13  1  0.250000  0.998986  0.386172  1
  Ru  Ru14  1  0.750000  0.613828  0.001014  1
  Ru  Ru15  1  0.250000  0.386172  0.998986  1
