# generated using pymatgen
data_Li8Hf3SnBr24
_symmetry_space_group_name_H-M   'P 1'
_cell_length_a   6.76531300
_cell_length_b   6.76531332
_cell_length_c   26.72580700
_cell_angle_alpha   90.00000000
_cell_angle_beta   90.00000000
_cell_angle_gamma   120.00000334
_symmetry_Int_Tables_number   1
_chemical_formula_structural   Li8Hf3SnBr24
_chemical_formula_sum   'Li8 Hf3 Sn1 Br24'
_cell_volume   1059.34459165
_cell_formula_units_Z   1
loop_
 _symmetry_equiv_pos_site_id
 _symmetry_equiv_pos_as_xyz
  1  'x, y, z'
loop_
 _atom_site_type_symbol
 _atom_site_label
 _atom_site_symmetry_multiplicity
 _atom_site_fract_x
 _atom_site_fract_y
 _atom_site_fract_z
 _atom_site_occupancy
  Li  Li0  1  0.000000  0.000000  0.250093  1
  Li  Li1  1  0.000000  0.000000  0.749907  1
  Li  Li2  1  0.333333  0.666667  0.000714  1
  Li  Li3  1  0.333333  0.666667  0.499240  1
  Li  Li4  1  0.333333  0.666667  0.250093  1
  Li  Li5  1  0.666667  0.333333  0.749907  1
  Li  Li6  1  0.666667  0.333333  0.999286  1
  Li  Li7  1  0.666667  0.333333  0.500760  1
  Hf  Hf8  1  0.000000  0.000000  0.500000  1
  Hf  Hf9  1  0.333333  0.666667  0.749788  1
  Hf  Hf10  1  0.666667  0.333333  0.250212  1
  Sn  Sn11  1  0.000000  0.000000  0.000000  1
  Br  Br12  1  0.349074  0.015382  0.306864  1
  Br  Br13  1  0.333608  0.984512  0.806518  1
  Br  Br14  1  0.999638  0.321390  0.057012  1
  Br  Br15  1  0.000519  0.318002  0.556698  1
  Br  Br16  1  0.984618  0.333693  0.306864  1
  Br  Br17  1  0.015488  0.349095  0.806518  1
  Br  Br18  1  0.349095  0.333608  0.193482  1
  Br  Br19  1  0.333693  0.349074  0.693136  1
  Br  Br20  1  0.318002  0.317484  0.443302  1
  Br  Br21  1  0.321390  0.321752  0.942988  1
  Br  Br22  1  0.682516  0.000519  0.443302  1
  Br  Br23  1  0.321752  0.000362  0.057012  1
  Br  Br24  1  0.317484  0.999481  0.556698  1
  Br  Br25  1  0.678610  0.678248  0.057012  1
  Br  Br26  1  0.681998  0.682516  0.556698  1
  Br  Br27  1  0.666307  0.650926  0.306864  1
  Br  Br28  1  0.650905  0.666392  0.806518  1
  Br  Br29  1  0.984512  0.650905  0.193482  1
  Br  Br30  1  0.015382  0.666307  0.693136  1
  Br  Br31  1  0.999481  0.681998  0.443302  1
  Br  Br32  1  0.000362  0.678610  0.942988  1
  Br  Br33  1  0.678248  0.999638  0.942988  1
  Br  Br34  1  0.666392  0.015488  0.193482  1
  Br  Br35  1  0.650926  0.984618  0.693136  1
