# generated using pymatgen
data_CaSm3(Si3Ni5)4
_symmetry_space_group_name_H-M   'P 1'
_cell_length_a   18.86387626
_cell_length_b   3.82043900
_cell_length_c   6.61533306
_cell_angle_alpha   90.00000000
_cell_angle_beta   90.12426641
_cell_angle_gamma   90.00000000
_symmetry_Int_Tables_number   1
_chemical_formula_structural   CaSm3(Si3Ni5)4
_chemical_formula_sum   'Ca1 Sm3 Si12 Ni20'
_cell_volume   476.75461084
_cell_formula_units_Z   1
loop_
 _symmetry_equiv_pos_site_id
 _symmetry_equiv_pos_as_xyz
  1  'x, y, z'
loop_
 _atom_site_type_symbol
 _atom_site_label
 _atom_site_symmetry_multiplicity
 _atom_site_fract_x
 _atom_site_fract_y
 _atom_site_fract_z
 _atom_site_occupancy
  Ca  Ca0  1  0.856919  0.750000  0.121850  1
  Sm  Sm1  1  0.643372  0.250000  0.624513  1
  Sm  Sm2  1  0.143070  0.250000  0.875230  1
  Sm  Sm3  1  0.356518  0.750000  0.375790  1
  Si  Si4  1  0.913075  0.250000  0.421826  1
  Si  Si5  1  0.413245  0.250000  0.073380  1
  Si  Si6  1  0.085774  0.750000  0.573455  1
  Si  Si7  1  0.587005  0.750000  0.926977  1
  Si  Si8  1  0.737900  0.250000  0.119615  1
  Si  Si9  1  0.235988  0.250000  0.383405  1
  Si  Si10  1  0.263685  0.750000  0.883059  1
  Si  Si11  1  0.763327  0.750000  0.620181  1
  Si  Si12  1  0.926209  0.250000  0.841585  1
  Si  Si13  1  0.427802  0.250000  0.658314  1
  Si  Si14  1  0.072586  0.750000  0.157391  1
  Si  Si15  1  0.573373  0.750000  0.341077  1
  Ni  Ni16  1  0.800872  0.250000  0.811436  1
  Ni  Ni17  1  0.301294  0.250000  0.689660  1
  Ni  Ni18  1  0.198266  0.750000  0.189613  1
  Ni  Ni19  1  0.699705  0.750000  0.312284  1
  Ni  Ni20  1  0.994964  0.250000  0.134615  1
  Ni  Ni21  1  0.495111  0.250000  0.363112  1
  Ni  Ni22  1  0.004475  0.750000  0.863129  1
  Ni  Ni23  1  0.506126  0.750000  0.636222  1
  Ni  Ni24  1  0.516569  0.250000  0.889343  1
  Ni  Ni25  1  0.015131  0.250000  0.610636  1
  Ni  Ni26  1  0.483977  0.750000  0.111639  1
  Ni  Ni27  1  0.983008  0.750000  0.385333  1
  Ni  Ni28  1  0.616507  0.250000  0.144868  1
  Ni  Ni29  1  0.114771  0.250000  0.354862  1
  Ni  Ni30  1  0.384881  0.750000  0.853246  1
  Ni  Ni31  1  0.884209  0.750000  0.643670  1
  Ni  Ni32  1  0.793058  0.250000  0.430372  1
  Ni  Ni33  1  0.291752  0.250000  0.073703  1
  Ni  Ni34  1  0.207226  0.750000  0.573318  1
  Ni  Ni35  1  0.708246  0.750000  0.931295  1
