# generated using pymatgen
data_Sm(Co3Si2)2
_symmetry_space_group_name_H-M   'P 1'
_cell_length_a   6.60867500
_cell_length_b   6.60867437
_cell_length_c   3.64153200
_cell_angle_alpha   90.00000000
_cell_angle_beta   90.00000000
_cell_angle_gamma   119.99999813
_symmetry_Int_Tables_number   1
_chemical_formula_structural   Sm(Co3Si2)2
_chemical_formula_sum   'Sm1 Co6 Si4'
_cell_volume   137.73474802
_cell_formula_units_Z   1
loop_
 _symmetry_equiv_pos_site_id
 _symmetry_equiv_pos_as_xyz
  1  'x, y, z'
loop_
 _atom_site_type_symbol
 _atom_site_label
 _atom_site_symmetry_multiplicity
 _atom_site_fract_x
 _atom_site_fract_y
 _atom_site_fract_z
 _atom_site_occupancy
  Sm  Sm0  1  0.000000  0.000000  0.000000  1
  Co  Co1  1  0.533956  0.067911  0.000000  1
  Co  Co2  1  0.932089  0.466044  0.000000  1
  Co  Co3  1  0.533956  0.466044  0.000000  1
  Co  Co4  1  0.205828  0.411657  0.500000  1
  Co  Co5  1  0.588343  0.794172  0.500000  1
  Co  Co6  1  0.205828  0.794172  0.500000  1
  Si  Si7  1  0.333333  0.666667  0.000000  1
  Si  Si8  1  0.799446  0.598893  0.500000  1
  Si  Si9  1  0.401107  0.200554  0.500000  1
  Si  Si10  1  0.799446  0.200554  0.500000  1
