# generated using pymatgen
data_Rb3TbBi2
_symmetry_space_group_name_H-M   'P 1'
_cell_length_a   10.37477476
_cell_length_b   10.37477557
_cell_length_c   10.37477600
_cell_angle_alpha   127.94483689
_cell_angle_beta   71.10525155
_cell_angle_gamma   135.14778206
_symmetry_Int_Tables_number   1
_chemical_formula_structural   Rb3TbBi2
_chemical_formula_sum   'Rb6 Tb2 Bi4'
_cell_volume   608.34887024
_cell_formula_units_Z   2
loop_
 _symmetry_equiv_pos_site_id
 _symmetry_equiv_pos_as_xyz
  1  'x, y, z'
loop_
 _atom_site_type_symbol
 _atom_site_label
 _atom_site_symmetry_multiplicity
 _atom_site_fract_x
 _atom_site_fract_y
 _atom_site_fract_z
 _atom_site_occupancy
  Rb  Rb0  1  0.250000  0.250000  0.000000  1
  Rb  Rb1  1  0.750000  0.750000  0.000000  1
  Rb  Rb2  1  0.314123  0.804320  0.118441  1
  Rb  Rb3  1  0.185877  0.304319  0.490197  1
  Rb  Rb4  1  0.814123  0.695681  0.509804  1
  Rb  Rb5  1  0.685877  0.195680  0.881558  1
  Tb  Tb6  1  0.750000  0.250000  0.500000  1
  Tb  Tb7  1  0.250000  0.749999  0.499999  1
  Bi  Bi8  1  0.901681  0.304387  0.206067  1
  Bi  Bi9  1  0.598319  0.804387  0.402708  1
  Bi  Bi10  1  0.401681  0.195613  0.597292  1
  Bi  Bi11  1  0.098319  0.695613  0.793932  1
