# generated using pymatgen
data_Ho2ZrScPt2
_symmetry_space_group_name_H-M   'P 1'
_cell_length_a   4.67417400
_cell_length_b   7.00093700
_cell_length_c   8.29388900
_cell_angle_alpha   90.00000000
_cell_angle_beta   90.00000000
_cell_angle_gamma   90.00000000
_symmetry_Int_Tables_number   1
_chemical_formula_structural   Ho2ZrScPt2
_chemical_formula_sum   'Ho4 Zr2 Sc2 Pt4'
_cell_volume   271.40588701
_cell_formula_units_Z   2
loop_
 _symmetry_equiv_pos_site_id
 _symmetry_equiv_pos_as_xyz
  1  'x, y, z'
loop_
 _atom_site_type_symbol
 _atom_site_label
 _atom_site_symmetry_multiplicity
 _atom_site_fract_x
 _atom_site_fract_y
 _atom_site_fract_z
 _atom_site_occupancy
  Ho  Ho0  1  0.250000  0.016357  0.322962  1
  Ho  Ho1  1  0.250000  0.516357  0.177038  1
  Ho  Ho2  1  0.750000  0.980992  0.675560  1
  Ho  Ho3  1  0.750000  0.480992  0.824440  1
  Zr  Zr4  1  0.750000  0.358349  0.426732  1
  Zr  Zr5  1  0.750000  0.858349  0.073268  1
  Sc  Sc6  1  0.250000  0.644569  0.578069  1
  Sc  Sc7  1  0.250000  0.144569  0.921931  1
  Pt  Pt8  1  0.250000  0.259880  0.595063  1
  Pt  Pt9  1  0.250000  0.759880  0.904937  1
  Pt  Pt10  1  0.750000  0.739851  0.400123  1
  Pt  Pt11  1  0.750000  0.239851  0.099877  1
