# generated using pymatgen
data_Er2(CuP)3
_symmetry_space_group_name_H-M   'P 1'
_cell_length_a   12.93405100
_cell_length_b   3.81709100
_cell_length_c   10.58997800
_cell_angle_alpha   90.00000000
_cell_angle_beta   90.00000000
_cell_angle_gamma   90.00000000
_symmetry_Int_Tables_number   1
_chemical_formula_structural   Er2(CuP)3
_chemical_formula_sum   'Er8 Cu12 P12'
_cell_volume   522.83197581
_cell_formula_units_Z   4
loop_
 _symmetry_equiv_pos_site_id
 _symmetry_equiv_pos_as_xyz
  1  'x, y, z'
loop_
 _atom_site_type_symbol
 _atom_site_label
 _atom_site_symmetry_multiplicity
 _atom_site_fract_x
 _atom_site_fract_y
 _atom_site_fract_z
 _atom_site_occupancy
  Er  Er0  1  0.206722  0.749999  0.068088  1
  Er  Er1  1  0.496375  0.749999  0.158576  1
  Er  Er2  1  0.996375  0.749999  0.341424  1
  Er  Er3  1  0.706722  0.749999  0.431912  1
  Er  Er4  1  0.293278  0.250000  0.568088  1
  Er  Er5  1  0.003625  0.250000  0.658576  1
  Er  Er6  1  0.503626  0.250000  0.841423  1
  Er  Er7  1  0.793279  0.250000  0.931913  1
  Cu  Cu8  1  0.011917  0.250000  0.096644  1
  Cu  Cu9  1  0.718083  0.749999  0.140925  1
  Cu  Cu10  1  0.831909  0.250000  0.229952  1
  Cu  Cu11  1  0.331909  0.250000  0.270048  1
  Cu  Cu12  1  0.218082  0.749999  0.359075  1
  Cu  Cu13  1  0.511917  0.250000  0.403356  1
  Cu  Cu14  1  0.488084  0.749999  0.596643  1
  Cu  Cu15  1  0.781918  0.250000  0.640925  1
  Cu  Cu16  1  0.668091  0.749999  0.729952  1
  Cu  Cu17  1  0.168091  0.749999  0.770048  1
  Cu  Cu18  1  0.281918  0.250000  0.859075  1
  Cu  Cu19  1  0.988084  0.749999  0.903356  1
  P  P20  1  0.369815  0.250000  0.055097  1
  P  P21  1  0.897672  0.749999  0.104485  1
  P  P22  1  0.642148  0.250000  0.244026  1
  P  P23  1  0.142149  0.250000  0.255974  1
  P  P24  1  0.397672  0.749999  0.395515  1
  P  P25  1  0.869815  0.250000  0.444903  1
  P  P26  1  0.130185  0.749999  0.555097  1
  P  P27  1  0.602328  0.250000  0.604486  1
  P  P28  1  0.857851  0.749999  0.744026  1
  P  P29  1  0.357851  0.749999  0.755974  1
  P  P30  1  0.102328  0.250000  0.895514  1
  P  P31  1  0.630185  0.749999  0.944903  1
