# generated using pymatgen
data_Pr7Sm(AsBr6)2
_symmetry_space_group_name_H-M   'P 1'
_cell_length_a   4.27075200
_cell_length_b   13.63677661
_cell_length_c   14.55592900
_cell_angle_alpha   90.46681565
_cell_angle_beta   90.00000000
_cell_angle_gamma   90.00000000
_symmetry_Int_Tables_number   1
_chemical_formula_structural   Pr7Sm(AsBr6)2
_chemical_formula_sum   'Pr7 Sm1 As2 Br12'
_cell_volume   847.69884813
_cell_formula_units_Z   1
loop_
 _symmetry_equiv_pos_site_id
 _symmetry_equiv_pos_as_xyz
  1  'x, y, z'
loop_
 _atom_site_type_symbol
 _atom_site_label
 _atom_site_symmetry_multiplicity
 _atom_site_fract_x
 _atom_site_fract_y
 _atom_site_fract_z
 _atom_site_occupancy
  Pr  Pr0  1  0.500000  0.120201  0.340286  1
  Pr  Pr1  1  0.500000  0.880654  0.660055  1
  Pr  Pr2  1  0.500000  0.619078  0.158583  1
  Pr  Pr3  1  0.000000  0.119184  0.579327  1
  Pr  Pr4  1  0.000000  0.881502  0.421487  1
  Pr  Pr5  1  0.000000  0.619213  0.923209  1
  Pr  Pr6  1  0.000000  0.382657  0.079422  1
  Sm  Sm7  1  0.500000  0.379517  0.838899  1
  As  As8  1  0.500000  0.000905  0.500383  1
  As  As9  1  0.500000  0.497389  0.996509  1
  Br  Br10  1  0.500000  0.242893  0.159523  1
  Br  Br11  1  0.500000  0.754992  0.837733  1
  Br  Br12  1  0.500000  0.742447  0.338096  1
  Br  Br13  1  0.500000  0.257433  0.665492  1
  Br  Br14  1  0.000000  0.257050  0.412106  1
  Br  Br15  1  0.000000  0.743514  0.588587  1
  Br  Br16  1  0.000000  0.757136  0.089902  1
  Br  Br17  1  0.000000  0.248466  0.906303  1
  Br  Br18  1  0.000000  0.001709  0.243535  1
  Br  Br19  1  0.000000  0.998820  0.757408  1
  Br  Br20  1  0.000000  0.503012  0.257265  1
  Br  Br21  1  0.000000  0.492230  0.745891  1
