# generated using pymatgen
data_TmScFe4(PIr)6
_symmetry_space_group_name_H-M   'P 1'
_cell_length_a   3.81493900
_cell_length_b   10.44960300
_cell_length_c   12.24796400
_cell_angle_alpha   90.00000000
_cell_angle_beta   90.00000000
_cell_angle_gamma   90.00000000
_symmetry_Int_Tables_number   1
_chemical_formula_structural   TmScFe4(PIr)6
_chemical_formula_sum   'Tm2 Sc2 Fe8 P12 Ir12'
_cell_volume   488.26016141
_cell_formula_units_Z   2
loop_
 _symmetry_equiv_pos_site_id
 _symmetry_equiv_pos_as_xyz
  1  'x, y, z'
loop_
 _atom_site_type_symbol
 _atom_site_label
 _atom_site_symmetry_multiplicity
 _atom_site_fract_x
 _atom_site_fract_y
 _atom_site_fract_z
 _atom_site_occupancy
  Tm  Tm0  1  0.750000  0.421269  0.286866  1
  Tm  Tm1  1  0.750000  0.078731  0.786866  1
  Sc  Sc2  1  0.250000  0.578210  0.712961  1
  Sc  Sc3  1  0.250000  0.921790  0.212961  1
  Fe  Fe4  1  0.250000  0.874009  0.697635  1
  Fe  Fe5  1  0.250000  0.625991  0.197635  1
  Fe  Fe6  1  0.750000  0.123719  0.301882  1
  Fe  Fe7  1  0.750000  0.376281  0.801882  1
  Fe  Fe8  1  0.250000  0.458704  0.934391  1
  Fe  Fe9  1  0.250000  0.041296  0.434391  1
  Fe  Fe10  1  0.750000  0.543555  0.063701  1
  Fe  Fe11  1  0.750000  0.956445  0.563701  1
  P  P12  1  0.250000  0.441886  0.111696  1
  P  P13  1  0.250000  0.058114  0.611696  1
  P  P14  1  0.750000  0.558633  0.885720  1
  P  P15  1  0.750000  0.941367  0.385720  1
  P  P16  1  0.250000  0.271171  0.863214  1
  P  P17  1  0.250000  0.228829  0.363214  1
  P  P18  1  0.750000  0.730343  0.137780  1
  P  P19  1  0.750000  0.769657  0.637780  1
  P  P20  1  0.250000  0.600388  0.376775  1
  P  P21  1  0.250000  0.899612  0.876775  1
  P  P22  1  0.750000  0.402069  0.624878  1
  P  P23  1  0.750000  0.097931  0.124878  1
  Ir  Ir24  1  0.250000  0.718381  0.990786  1
  Ir  Ir25  1  0.250000  0.781619  0.490786  1
  Ir  Ir26  1  0.750000  0.281235  0.009511  1
  Ir  Ir27  1  0.750000  0.218765  0.509511  1
  Ir  Ir28  1  0.250000  0.410179  0.474462  1
  Ir  Ir29  1  0.250000  0.089821  0.974462  1
  Ir  Ir30  1  0.750000  0.590583  0.528353  1
  Ir  Ir31  1  0.750000  0.909417  0.028353  1
  Ir  Ir32  1  0.250000  0.232232  0.173690  1
  Ir  Ir33  1  0.250000  0.267768  0.673690  1
  Ir  Ir34  1  0.750000  0.765824  0.825701  1
  Ir  Ir35  1  0.750000  0.734176  0.325701  1
