# generated using pymatgen
data_Ho4Er6Si5Te
_symmetry_space_group_name_H-M   'P 1'
_cell_length_a   8.47164400
_cell_length_b   8.51777809
_cell_length_c   6.30984500
_cell_angle_alpha   90.00000000
_cell_angle_beta   90.00000000
_cell_angle_gamma   119.88466899
_symmetry_Int_Tables_number   1
_chemical_formula_structural   Ho4Er6Si5Te
_chemical_formula_sum   'Ho4 Er6 Si5 Te1'
_cell_volume   394.77249386
_cell_formula_units_Z   1
loop_
 _symmetry_equiv_pos_site_id
 _symmetry_equiv_pos_as_xyz
  1  'x, y, z'
loop_
 _atom_site_type_symbol
 _atom_site_label
 _atom_site_symmetry_multiplicity
 _atom_site_fract_x
 _atom_site_fract_y
 _atom_site_fract_z
 _atom_site_occupancy
  Ho  Ho0  1  0.754786  0.755419  0.250000  1
  Ho  Ho1  1  0.766098  0.000210  0.750000  1
  Ho  Ho2  1  0.240622  0.254811  0.750000  1
  Ho  Ho3  1  0.241577  0.999826  0.250000  1
  Er  Er4  1  0.985509  0.744864  0.750000  1
  Er  Er5  1  0.999100  0.244788  0.250000  1
  Er  Er6  1  0.330619  0.654500  0.496458  1
  Er  Er7  1  0.676210  0.345462  0.003529  1
  Er  Er8  1  0.676210  0.345462  0.496471  1
  Er  Er9  1  0.330619  0.654500  0.003542  1
  Si  Si10  1  0.393041  0.390519  0.250000  1
  Si  Si11  1  0.002827  0.609014  0.250000  1
  Si  Si12  1  0.998885  0.395289  0.750000  1
  Si  Si13  1  0.604420  0.605328  0.750000  1
  Si  Si14  1  0.607048  0.000317  0.250000  1
  Te  Te15  1  0.392431  0.999691  0.750000  1
