# generated using pymatgen
data_U4TiTc2MoC8
_symmetry_space_group_name_H-M   'P 1'
_cell_length_a   3.20251000
_cell_length_b   5.60966587
_cell_length_c   11.04648976
_cell_angle_alpha   89.67327648
_cell_angle_beta   90.00000000
_cell_angle_gamma   90.00000000
_symmetry_Int_Tables_number   1
_chemical_formula_structural   U4TiTc2MoC8
_chemical_formula_sum   'U4 Ti1 Tc2 Mo1 C8'
_cell_volume   198.44708412
_cell_formula_units_Z   1
loop_
 _symmetry_equiv_pos_site_id
 _symmetry_equiv_pos_as_xyz
  1  'x, y, z'
loop_
 _atom_site_type_symbol
 _atom_site_label
 _atom_site_symmetry_multiplicity
 _atom_site_fract_x
 _atom_site_fract_y
 _atom_site_fract_z
 _atom_site_occupancy
  U  U0  1  0.250000  0.080390  0.856126  1
  U  U1  1  0.750000  0.918454  0.142120  1
  U  U2  1  0.250000  0.579773  0.642374  1
  U  U3  1  0.750000  0.421809  0.359856  1
  Ti  Ti4  1  0.250000  0.921692  0.399836  1
  Tc  Tc5  1  0.750000  0.076251  0.601582  1
  Tc  Tc6  1  0.750000  0.578882  0.898207  1
  Mo  Mo7  1  0.250000  0.419730  0.100398  1
  C  C8  1  0.250000  0.748910  0.992007  1
  C  C9  1  0.750000  0.250650  0.006095  1
  C  C10  1  0.250000  0.246553  0.507391  1
  C  C11  1  0.750000  0.749135  0.494442  1
  C  C12  1  0.250000  0.164059  0.243421  1
  C  C13  1  0.750000  0.340144  0.746000  1
  C  C14  1  0.250000  0.664365  0.255516  1
  C  C15  1  0.750000  0.839205  0.754628  1
