# generated using pymatgen
data_Zr4ZnCoTc6
_symmetry_space_group_name_H-M   'P 1'
_cell_length_a   5.14900500
_cell_length_b   5.14900550
_cell_length_c   8.71443100
_cell_angle_alpha   90.00000000
_cell_angle_beta   90.00000000
_cell_angle_gamma   119.99999036
_symmetry_Int_Tables_number   1
_chemical_formula_structural   Zr4ZnCoTc6
_chemical_formula_sum   'Zr4 Zn1 Co1 Tc6'
_cell_volume   200.08585097
_cell_formula_units_Z   1
loop_
 _symmetry_equiv_pos_site_id
 _symmetry_equiv_pos_as_xyz
  1  'x, y, z'
loop_
 _atom_site_type_symbol
 _atom_site_label
 _atom_site_symmetry_multiplicity
 _atom_site_fract_x
 _atom_site_fract_y
 _atom_site_fract_z
 _atom_site_occupancy
  Zr  Zr0  1  0.333333  0.666667  0.429711  1
  Zr  Zr1  1  0.666667  0.333333  0.570289  1
  Zr  Zr2  1  0.666667  0.333333  0.934462  1
  Zr  Zr3  1  0.333333  0.666667  0.065538  1
  Zn  Zn4  1  0.000000  0.000000  0.500000  1
  Co  Co5  1  0.000000  0.000000  0.000000  1
  Tc  Tc6  1  0.830963  0.169037  0.246321  1
  Tc  Tc7  1  0.830963  0.661924  0.246321  1
  Tc  Tc8  1  0.338076  0.169037  0.246321  1
  Tc  Tc9  1  0.169037  0.830963  0.753679  1
  Tc  Tc10  1  0.169037  0.338076  0.753679  1
  Tc  Tc11  1  0.661924  0.830963  0.753679  1
