# generated using pymatgen
data_Dy12Ni5Bi
_symmetry_space_group_name_H-M   'P 1'
_cell_length_a   8.37627254
_cell_length_b   8.37630200
_cell_length_c   8.37627337
_cell_angle_alpha   111.40601440
_cell_angle_beta   109.41531959
_cell_angle_gamma   107.61442043
_symmetry_Int_Tables_number   1
_chemical_formula_structural   Dy12Ni5Bi
_chemical_formula_sum   'Dy12 Ni5 Bi1'
_cell_volume   451.91452640
_cell_formula_units_Z   1
loop_
 _symmetry_equiv_pos_site_id
 _symmetry_equiv_pos_as_xyz
  1  'x, y, z'
loop_
 _atom_site_type_symbol
 _atom_site_label
 _atom_site_symmetry_multiplicity
 _atom_site_fract_x
 _atom_site_fract_y
 _atom_site_fract_z
 _atom_site_occupancy
  Dy  Dy0  1  0.821279  0.706327  0.527613  1
  Dy  Dy1  1  0.178721  0.293673  0.472387  1
  Dy  Dy2  1  0.178715  0.706327  0.885048  1
  Dy  Dy3  1  0.821285  0.293673  0.114952  1
  Dy  Dy4  1  0.679897  0.371225  0.691330  1
  Dy  Dy5  1  0.320103  0.628775  0.308670  1
  Dy  Dy6  1  0.679900  0.988570  0.308670  1
  Dy  Dy7  1  0.320100  0.011430  0.691330  1
  Dy  Dy8  1  0.600128  0.792792  0.807337  1
  Dy  Dy9  1  0.399872  0.207208  0.192663  1
  Dy  Dy10  1  0.985455  0.792792  0.192664  1
  Dy  Dy11  1  0.014545  0.207208  0.807336  1
  Ni  Ni12  1  0.634220  0.000000  0.634220  1
  Ni  Ni13  1  0.365780  0.000000  0.365780  1
  Ni  Ni14  1  0.124226  0.624222  0.499996  1
  Ni  Ni15  1  0.875774  0.375778  0.500004  1
  Ni  Ni16  1  0.000000  0.000000  0.000000  1
  Bi  Bi17  1  0.500000  0.500000  0.000000  1
