# generated using pymatgen
data_Pr16MgIn(AgRh2)2
_symmetry_space_group_name_H-M   'P 1'
_cell_length_a   9.99397301
_cell_length_b   10.00429817
_cell_length_c   10.02783672
_cell_angle_alpha   60.00933084
_cell_angle_beta   60.04149810
_cell_angle_gamma   60.15443024
_symmetry_Int_Tables_number   1
_chemical_formula_structural   Pr16MgIn(AgRh2)2
_chemical_formula_sum   'Pr16 Mg1 In1 Ag2 Rh4'
_cell_volume   710.04913951
_cell_formula_units_Z   1
loop_
 _symmetry_equiv_pos_site_id
 _symmetry_equiv_pos_as_xyz
  1  'x, y, z'
loop_
 _atom_site_type_symbol
 _atom_site_label
 _atom_site_symmetry_multiplicity
 _atom_site_fract_x
 _atom_site_fract_y
 _atom_site_fract_z
 _atom_site_occupancy
  Pr  Pr0  1  0.349240  0.348740  0.347302  1
  Pr  Pr1  1  0.348966  0.347650  0.954164  1
  Pr  Pr2  1  0.349891  0.953297  0.348877  1
  Pr  Pr3  1  0.948472  0.350141  0.350637  1
  Pr  Pr4  1  0.807536  0.190852  0.193507  1
  Pr  Pr5  1  0.187305  0.812533  0.810390  1
  Pr  Pr6  1  0.187145  0.811864  0.188287  1
  Pr  Pr7  1  0.805482  0.193579  0.805823  1
  Pr  Pr8  1  0.192183  0.190435  0.808514  1
  Pr  Pr9  1  0.807473  0.809603  0.190504  1
  Pr  Pr10  1  0.935187  0.562419  0.564606  1
  Pr  Pr11  1  0.560400  0.933675  0.942859  1
  Pr  Pr12  1  0.561757  0.932493  0.564254  1
  Pr  Pr13  1  0.935745  0.561769  0.939431  1
  Pr  Pr14  1  0.561786  0.561827  0.938942  1
  Pr  Pr15  1  0.937927  0.936545  0.562344  1
  Mg  Mg16  1  0.281303  0.576028  0.571378  1
  In  In17  1  0.581797  0.259765  0.579459  1
  Ag  Ag18  1  0.579608  0.582556  0.582034  1
  Ag  Ag19  1  0.580201  0.582436  0.255035  1
  Rh  Rh20  1  0.141743  0.141515  0.142351  1
  Rh  Rh21  1  0.142937  0.142771  0.574107  1
  Rh  Rh22  1  0.141521  0.574678  0.142502  1
  Rh  Rh23  1  0.574395  0.142832  0.142691  1
