# generated using pymatgen
data_Hf4Ta2Ga5Ge
_symmetry_space_group_name_H-M   'P 1'
_cell_length_a   5.53178700
_cell_length_b   8.45978544
_cell_length_c   9.14270846
_cell_angle_alpha   89.96339256
_cell_angle_beta   90.00000000
_cell_angle_gamma   90.00000000
_symmetry_Int_Tables_number   1
_chemical_formula_structural   Hf4Ta2Ga5Ge
_chemical_formula_sum   'Hf8 Ta4 Ga10 Ge2'
_cell_volume   427.85792478
_cell_formula_units_Z   2
loop_
 _symmetry_equiv_pos_site_id
 _symmetry_equiv_pos_as_xyz
  1  'x, y, z'
loop_
 _atom_site_type_symbol
 _atom_site_label
 _atom_site_symmetry_multiplicity
 _atom_site_fract_x
 _atom_site_fract_y
 _atom_site_fract_z
 _atom_site_occupancy
  Hf  Hf0  1  0.750000  0.469863  0.621467  1
  Hf  Hf1  1  0.250000  0.530137  0.378533  1
  Hf  Hf2  1  0.750000  0.971474  0.372475  1
  Hf  Hf3  1  0.250000  0.028526  0.627525  1
  Hf  Hf4  1  0.750000  0.368139  0.184469  1
  Hf  Hf5  1  0.250000  0.631861  0.815531  1
  Hf  Hf6  1  0.750000  0.871264  0.818287  1
  Hf  Hf7  1  0.250000  0.128736  0.181713  1
  Ta  Ta8  1  0.999879  0.752313  0.111580  1
  Ta  Ta9  1  0.499879  0.247687  0.888420  1
  Ta  Ta10  1  0.000121  0.247687  0.888420  1
  Ta  Ta11  1  0.500121  0.752313  0.111580  1
  Ga  Ga12  1  0.998061  0.750939  0.571769  1
  Ga  Ga13  1  0.498061  0.249061  0.428231  1
  Ga  Ga14  1  0.001939  0.249061  0.428231  1
  Ga  Ga15  1  0.501939  0.750939  0.571769  1
  Ga  Ga16  1  0.750000  0.546117  0.920945  1
  Ga  Ga17  1  0.250000  0.453883  0.079055  1
  Ga  Ga18  1  0.750000  0.133717  0.649483  1
  Ga  Ga19  1  0.250000  0.866283  0.350517  1
  Ga  Ga20  1  0.750000  0.633793  0.347858  1
  Ga  Ga21  1  0.250000  0.366207  0.652142  1
  Ge  Ge22  1  0.750000  0.049780  0.079656  1
  Ge  Ge23  1  0.250000  0.950220  0.920344  1
