# generated using pymatgen
data_CaHf4Sc3(Si4Ru3)4
_symmetry_space_group_name_H-M   'P 1'
_cell_length_a   9.95821639
_cell_length_b   9.95675716
_cell_length_c   13.41567803
_cell_angle_alpha   53.57116519
_cell_angle_beta   53.67532983
_cell_angle_gamma   31.12733347
_symmetry_Int_Tables_number   1
_chemical_formula_structural   CaHf4Sc3(Si4Ru3)4
_chemical_formula_sum   'Ca1 Hf4 Sc3 Si16 Ru12'
_cell_volume   541.85240000
_cell_formula_units_Z   1
loop_
 _symmetry_equiv_pos_site_id
 _symmetry_equiv_pos_as_xyz
  1  'x, y, z'
loop_
 _atom_site_type_symbol
 _atom_site_label
 _atom_site_symmetry_multiplicity
 _atom_site_fract_x
 _atom_site_fract_y
 _atom_site_fract_z
 _atom_site_occupancy
  Ca  Ca0  1  0.558843  0.303364  0.141078  1
  Hf  Hf1  1  0.037998  0.296324  0.635663  1
  Hf  Hf2  1  0.704196  0.961327  0.863929  1
  Hf  Hf3  1  0.959847  0.705702  0.364921  1
  Hf  Hf4  1  0.294902  0.038942  0.135167  1
  Sc  Sc5  1  0.292245  0.561130  0.646057  1
  Sc  Sc6  1  0.438497  0.709751  0.851733  1
  Sc  Sc7  1  0.708260  0.438376  0.354599  1
  Si  Si8  1  0.877734  0.123391  0.251383  1
  Si  Si9  1  0.127308  0.872258  0.748775  1
  Si  Si10  1  0.379788  0.620707  0.251912  1
  Si  Si11  1  0.616702  0.382763  0.750191  1
  Si  Si12  1  0.979240  0.248756  0.889194  1
  Si  Si13  1  0.745086  0.026842  0.609129  1
  Si  Si14  1  0.021151  0.748687  0.109304  1
  Si  Si15  1  0.254060  0.972960  0.392273  1
  Si  Si16  1  0.573779  0.082262  0.066243  1
  Si  Si17  1  0.917585  0.425375  0.433501  1
  Si  Si18  1  0.426971  0.914452  0.934168  1
  Si  Si19  1  0.083433  0.573711  0.566644  1
  Si  Si20  1  0.388263  0.143031  0.396537  1
  Si  Si21  1  0.854266  0.614198  0.104299  1
  Si  Si22  1  0.612924  0.855529  0.604925  1
  Si  Si23  1  0.144997  0.386394  0.895243  1
  Ru  Ru24  1  0.647147  0.829460  0.283346  1
  Ru  Ru25  1  0.165517  0.349573  0.218226  1
  Ru  Ru26  1  0.759079  0.487944  0.070914  1
  Ru  Ru27  1  0.830466  0.646745  0.783078  1
  Ru  Ru28  1  0.895926  0.144485  0.585965  1
  Ru  Ru29  1  0.865162  0.094640  0.910148  1
  Ru  Ru30  1  0.101323  0.857613  0.416330  1
  Ru  Ru31  1  0.141726  0.901853  0.085492  1
  Ru  Ru32  1  0.242764  0.512552  0.929737  1
  Ru  Ru33  1  0.485372  0.758948  0.569912  1
  Ru  Ru34  1  0.515684  0.240636  0.432113  1
  Ru  Ru35  1  0.351764  0.169317  0.717871  1
