# generated using pymatgen
data_Nd6Ho2Sc12Si15Sn
_symmetry_space_group_name_H-M   'P 1'
_cell_length_a   7.22475567
_cell_length_b   7.50293586
_cell_length_c   14.22661474
_cell_angle_alpha   89.85096915
_cell_angle_beta   89.66542956
_cell_angle_gamma   90.20539529
_symmetry_Int_Tables_number   1
_chemical_formula_structural   Nd6Ho2Sc12Si15Sn
_chemical_formula_sum   'Nd6 Ho2 Sc12 Si15 Sn1'
_cell_volume   771.15962161
_cell_formula_units_Z   1
loop_
 _symmetry_equiv_pos_site_id
 _symmetry_equiv_pos_as_xyz
  1  'x, y, z'
loop_
 _atom_site_type_symbol
 _atom_site_label
 _atom_site_symmetry_multiplicity
 _atom_site_fract_x
 _atom_site_fract_y
 _atom_site_fract_z
 _atom_site_occupancy
  Nd  Nd0  1  0.010642  0.173636  0.098208  1
  Nd  Nd1  1  0.988937  0.827115  0.902425  1
  Nd  Nd2  1  0.489656  0.672617  0.904235  1
  Nd  Nd3  1  0.988439  0.831470  0.597856  1
  Nd  Nd4  1  0.510420  0.327293  0.096897  1
  Nd  Nd5  1  0.006841  0.168077  0.399996  1
  Ho  Ho6  1  0.511621  0.321435  0.398912  1
  Ho  Ho7  1  0.502525  0.684144  0.600840  1
  Sc  Sc8  1  0.162832  0.500825  0.754414  1
  Sc  Sc9  1  0.836617  0.499429  0.249902  1
  Sc  Sc10  1  0.337651  0.000052  0.250336  1
  Sc  Sc11  1  0.663991  0.000101  0.750799  1
  Sc  Sc12  1  0.344127  0.164054  0.630551  1
  Sc  Sc13  1  0.662733  0.823017  0.372849  1
  Sc  Sc14  1  0.164784  0.681002  0.370178  1
  Sc  Sc15  1  0.667531  0.824216  0.125466  1
  Sc  Sc16  1  0.821657  0.325903  0.625270  1
  Sc  Sc17  1  0.330812  0.174662  0.874296  1
  Sc  Sc18  1  0.831059  0.324513  0.874897  1
  Sc  Sc19  1  0.168724  0.675535  0.125898  1
  Si  Si20  1  0.035489  0.126653  0.749958  1
  Si  Si21  1  0.961810  0.877255  0.248219  1
  Si  Si22  1  0.463916  0.619410  0.250168  1
  Si  Si23  1  0.534528  0.381216  0.750724  1
  Si  Si24  1  0.291431  0.874509  0.750311  1
  Si  Si25  1  0.707402  0.121192  0.249709  1
  Si  Si26  1  0.212505  0.379226  0.251395  1
  Si  Si27  1  0.788921  0.621686  0.749236  1
  Si  Si28  1  0.828418  0.538146  0.457770  1
  Si  Si29  1  0.346442  0.963312  0.460499  1
  Si  Si30  1  0.847321  0.537047  0.040020  1
  Si  Si31  1  0.653999  0.038168  0.537193  1
  Si  Si32  1  0.152216  0.462931  0.961107  1
  Si  Si33  1  0.652815  0.037150  0.960971  1
  Si  Si34  1  0.345827  0.963523  0.039615  1
  Sn  Sn35  1  0.175363  0.459481  0.538880  1
