# generated using pymatgen
data_Ca2TcPbBrClO5
_symmetry_space_group_name_H-M   'P 1'
_cell_length_a   7.22374300
_cell_length_b   7.22374280
_cell_length_c   10.90240600
_cell_angle_alpha   90.00000000
_cell_angle_beta   90.00000000
_cell_angle_gamma   135.00532245
_symmetry_Int_Tables_number   1
_chemical_formula_structural   Ca2TcPbBrClO5
_chemical_formula_sum   'Ca4 Tc2 Pb2 Br2 Cl2 O10'
_cell_volume   402.24584552
_cell_formula_units_Z   2
loop_
 _symmetry_equiv_pos_site_id
 _symmetry_equiv_pos_as_xyz
  1  'x, y, z'
loop_
 _atom_site_type_symbol
 _atom_site_label
 _atom_site_symmetry_multiplicity
 _atom_site_fract_x
 _atom_site_fract_y
 _atom_site_fract_z
 _atom_site_occupancy
  Ca  Ca0  1  0.655573  0.344427  0.535128  1
  Ca  Ca1  1  0.344427  0.655573  0.035128  1
  Ca  Ca2  1  0.884328  0.115672  0.747567  1
  Ca  Ca3  1  0.115672  0.884328  0.247567  1
  Tc  Tc4  1  0.765778  0.234222  0.254182  1
  Tc  Tc5  1  0.234222  0.765778  0.754182  1
  Pb  Pb6  1  0.657265  0.342735  0.969041  1
  Pb  Pb7  1  0.342735  0.657265  0.469041  1
  Br  Br8  1  0.012768  0.987232  0.502443  1
  Br  Br9  1  0.987232  0.012768  0.002443  1
  Cl  Cl10  1  0.509328  0.490672  0.221591  1
  Cl  Cl11  1  0.490672  0.509328  0.721591  1
  O  O12  1  0.482802  0.050414  0.370392  1
  O  O13  1  0.034642  0.490837  0.632472  1
  O  O14  1  0.517198  0.949586  0.870392  1
  O  O15  1  0.509163  0.965358  0.632472  1
  O  O16  1  0.107284  0.892716  0.764319  1
  O  O17  1  0.050414  0.482802  0.870392  1
  O  O18  1  0.490837  0.034642  0.132472  1
  O  O19  1  0.949586  0.517198  0.370392  1
  O  O20  1  0.892716  0.107284  0.264319  1
  O  O21  1  0.965358  0.509163  0.132472  1
