# generated using pymatgen
data_CsRbSnSe3
_symmetry_space_group_name_H-M   'P 1'
_cell_length_a   7.49801304
_cell_length_b   8.28097066
_cell_length_c   9.31084889
_cell_angle_alpha   75.23281035
_cell_angle_beta   71.23644856
_cell_angle_gamma   65.63301909
_symmetry_Int_Tables_number   1
_chemical_formula_structural   CsRbSnSe3
_chemical_formula_sum   'Cs2 Rb2 Sn2 Se6'
_cell_volume   493.60441160
_cell_formula_units_Z   2
loop_
 _symmetry_equiv_pos_site_id
 _symmetry_equiv_pos_as_xyz
  1  'x, y, z'
loop_
 _atom_site_type_symbol
 _atom_site_label
 _atom_site_symmetry_multiplicity
 _atom_site_fract_x
 _atom_site_fract_y
 _atom_site_fract_z
 _atom_site_occupancy
  Cs  Cs0  1  0.654748  0.456988  0.687253  1
  Cs  Cs1  1  0.345252  0.543012  0.312747  1
  Rb  Rb2  1  0.901756  0.799664  0.883218  1
  Rb  Rb3  1  0.098244  0.200336  0.116782  1
  Sn  Sn4  1  0.637432  0.938266  0.313112  1
  Sn  Sn5  1  0.362568  0.061734  0.686888  1
  Se  Se6  1  0.269553  0.967487  0.476339  1
  Se  Se7  1  0.730447  0.032513  0.523661  1
  Se  Se8  1  0.368060  0.827273  0.917879  1
  Se  Se9  1  0.631940  0.172727  0.082121  1
  Se  Se10  1  0.165268  0.382538  0.726384  1
  Se  Se11  1  0.834732  0.617462  0.273616  1
