# generated using pymatgen
data_CeSc4Si7(Pt2Rh)3
_symmetry_space_group_name_H-M   'P 1'
_cell_length_a   10.05091000
_cell_length_b   10.05090966
_cell_length_c   3.92081700
_cell_angle_alpha   90.00000000
_cell_angle_beta   90.00000000
_cell_angle_gamma   120.00000111
_symmetry_Int_Tables_number   1
_chemical_formula_structural   CeSc4Si7(Pt2Rh)3
_chemical_formula_sum   'Ce1 Sc4 Si7 Pt6 Rh3'
_cell_volume   343.01882349
_cell_formula_units_Z   1
loop_
 _symmetry_equiv_pos_site_id
 _symmetry_equiv_pos_as_xyz
  1  'x, y, z'
loop_
 _atom_site_type_symbol
 _atom_site_label
 _atom_site_symmetry_multiplicity
 _atom_site_fract_x
 _atom_site_fract_y
 _atom_site_fract_z
 _atom_site_occupancy
  Ce  Ce0  1  0.333333  0.666667  0.500000  1
  Sc  Sc1  1  0.000000  0.000000  0.000000  1
  Sc  Sc2  1  0.894453  0.458026  0.500000  1
  Sc  Sc3  1  0.563573  0.105547  0.500000  1
  Sc  Sc4  1  0.541974  0.436427  0.500000  1
  Si  Si5  1  0.237904  0.190537  0.500000  1
  Si  Si6  1  0.809463  0.047368  0.500000  1
  Si  Si7  1  0.952632  0.762096  0.500000  1
  Si  Si8  1  0.564484  0.650524  0.000000  1
  Si  Si9  1  0.349476  0.913960  0.000000  1
  Si  Si10  1  0.086040  0.435516  0.000000  1
  Si  Si11  1  0.666667  0.333333  0.000000  1
  Pt  Pt12  1  0.313861  0.412879  0.000000  1
  Pt  Pt13  1  0.587121  0.900982  0.000000  1
  Pt  Pt14  1  0.099018  0.686139  0.000000  1
  Pt  Pt15  1  0.382562  0.174064  0.000000  1
  Pt  Pt16  1  0.825936  0.208499  0.000000  1
  Pt  Pt17  1  0.791501  0.617438  0.000000  1
  Rh  Rh18  1  0.218730  0.938315  0.500000  1
  Rh  Rh19  1  0.061685  0.280416  0.500000  1
  Rh  Rh20  1  0.719584  0.781270  0.500000  1
