# generated using pymatgen
data_Er20Si12N
_symmetry_space_group_name_H-M   'P 1'
_cell_length_a   6.26531141
_cell_length_b   8.34325777
_cell_length_c   14.52094800
_cell_angle_alpha   90.00000687
_cell_angle_beta   90.00000000
_cell_angle_gamma   89.93810924
_symmetry_Int_Tables_number   1
_chemical_formula_structural   Er20Si12N
_chemical_formula_sum   'Er20 Si12 N1'
_cell_volume   759.05464152
_cell_formula_units_Z   1
loop_
 _symmetry_equiv_pos_site_id
 _symmetry_equiv_pos_as_xyz
  1  'x, y, z'
loop_
 _atom_site_type_symbol
 _atom_site_label
 _atom_site_symmetry_multiplicity
 _atom_site_fract_x
 _atom_site_fract_y
 _atom_site_fract_z
 _atom_site_occupancy
  Er  Er0  1  0.499997  0.000007  0.334776  1
  Er  Er1  1  0.500002  0.499996  0.830545  1
  Er  Er2  1  0.500002  0.499996  0.169455  1
  Er  Er3  1  0.499997  0.000007  0.665224  1
  Er  Er4  1  0.999997  0.500004  0.163017  1
  Er  Er5  1  0.999998  0.999998  0.669645  1
  Er  Er6  1  0.999998  0.999998  0.330355  1
  Er  Er7  1  0.999997  0.500004  0.836983  1
  Er  Er8  1  0.727638  0.232051  0.000000  1
  Er  Er9  1  0.750823  0.744249  0.500000  1
  Er  Er10  1  0.751729  0.378516  0.379045  1
  Er  Er11  1  0.731139  0.882174  0.883508  1
  Er  Er12  1  0.731139  0.882174  0.116492  1
  Er  Er13  1  0.751729  0.378516  0.620955  1
  Er  Er14  1  0.272358  0.767942  0.000000  1
  Er  Er15  1  0.249135  0.255741  0.500000  1
  Er  Er16  1  0.268864  0.117831  0.116494  1
  Er  Er17  1  0.248286  0.621484  0.620964  1
  Er  Er18  1  0.248286  0.621484  0.379036  1
  Er  Er19  1  0.268864  0.117831  0.883506  1
  Si  Si20  1  0.740812  0.600631  0.000000  1
  Si  Si21  1  0.752798  0.105150  0.500000  1
  Si  Si22  1  0.746403  0.198230  0.198795  1
  Si  Si23  1  0.751972  0.697289  0.697969  1
  Si  Si24  1  0.751972  0.697289  0.302031  1
  Si  Si25  1  0.746403  0.198230  0.801205  1
  Si  Si26  1  0.259181  0.399359  0.000000  1
  Si  Si27  1  0.247215  0.894854  0.500000  1
  Si  Si28  1  0.248035  0.302714  0.302031  1
  Si  Si29  1  0.253598  0.801768  0.801207  1
  Si  Si30  1  0.253598  0.801768  0.198793  1
  Si  Si31  1  0.248035  0.302714  0.697969  1
  N  N32  1  0.500003  0.000003  0.000000  1
