# generated using pymatgen
data_Yb10ZnCu3HgPt
_symmetry_space_group_name_H-M   'P 1'
_cell_length_a   8.95857122
_cell_length_b   8.95996618
_cell_length_c   8.95900122
_cell_angle_alpha   129.10307219
_cell_angle_beta   129.09845882
_cell_angle_gamma   74.85007175
_symmetry_Int_Tables_number   1
_chemical_formula_structural   Yb10ZnCu3HgPt
_chemical_formula_sum   'Yb10 Zn1 Cu3 Hg1 Pt1'
_cell_volume   421.82503308
_cell_formula_units_Z   1
loop_
 _symmetry_equiv_pos_site_id
 _symmetry_equiv_pos_as_xyz
  1  'x, y, z'
loop_
 _atom_site_type_symbol
 _atom_site_label
 _atom_site_symmetry_multiplicity
 _atom_site_fract_x
 _atom_site_fract_y
 _atom_site_fract_z
 _atom_site_occupancy
  Yb  Yb0  1  0.497574  0.501693  0.997893  1
  Yb  Yb1  1  0.000327  0.996208  0.997893  1
  Yb  Yb2  1  0.529892  0.029249  0.834800  1
  Yb  Yb3  1  0.191608  0.692181  0.157735  1
  Yb  Yb4  1  0.030803  0.198061  0.503143  1
  Yb  Yb5  1  0.698602  0.531331  0.504323  1
  Yb  Yb6  1  0.466117  0.965539  0.157692  1
  Yb  Yb7  1  0.804881  0.305519  0.834756  1
  Yb  Yb8  1  0.972351  0.805089  0.503163  1
  Yb  Yb9  1  0.305728  0.473007  0.504342  1
  Zn  Zn10  1  0.750773  0.750842  0.001617  1
  Cu  Cu11  1  0.875862  0.375861  0.251730  1
  Cu  Cu12  1  0.617826  0.882590  0.500463  1
  Cu  Cu13  1  0.382639  0.117876  0.500462  1
  Hg  Hg14  1  0.250854  0.250789  0.001641  1
  Pt  Pt15  1  0.124164  0.624164  0.748345  1
