# generated using pymatgen
data_Tb2Al3Cu3Si2
_symmetry_space_group_name_H-M   'P 1'
_cell_length_a   8.22811505
_cell_length_b   8.22811552
_cell_length_c   8.22811494
_cell_angle_alpha   139.37710218
_cell_angle_beta   100.41034750
_cell_angle_gamma   93.45657572
_symmetry_Int_Tables_number   1
_chemical_formula_structural   Tb2Al3Cu3Si2
_chemical_formula_sum   'Tb4 Al6 Cu6 Si4'
_cell_volume   339.33864901
_cell_formula_units_Z   2
loop_
 _symmetry_equiv_pos_site_id
 _symmetry_equiv_pos_as_xyz
  1  'x, y, z'
loop_
 _atom_site_type_symbol
 _atom_site_label
 _atom_site_symmetry_multiplicity
 _atom_site_fract_x
 _atom_site_fract_y
 _atom_site_fract_z
 _atom_site_occupancy
  Tb  Tb0  1  0.620510  0.873536  0.746973  1
  Tb  Tb1  1  0.379490  0.126464  0.253027  1
  Tb  Tb2  1  0.873436  0.626464  0.246973  1
  Tb  Tb3  1  0.126564  0.373536  0.753027  1
  Al  Al4  1  0.000000  0.250000  0.250000  1
  Al  Al5  1  0.000000  0.750000  0.750000  1
  Al  Al6  1  0.249599  0.499599  0.250000  1
  Al  Al7  1  0.750401  0.000401  0.250000  1
  Al  Al8  1  0.750401  0.500401  0.750000  1
  Al  Al9  1  0.249599  0.999599  0.750000  1
  Cu  Cu10  1  0.985104  0.124622  0.860482  1
  Cu  Cu11  1  0.500000  0.750000  0.250000  1
  Cu  Cu12  1  0.264140  0.624622  0.639518  1
  Cu  Cu13  1  0.735860  0.375378  0.360482  1
  Cu  Cu14  1  0.014896  0.875378  0.139518  1
  Cu  Cu15  1  0.500000  0.250000  0.750000  1
  Si  Si16  1  0.477298  0.618456  0.858843  1
  Si  Si17  1  0.759614  0.118456  0.641157  1
  Si  Si18  1  0.240386  0.881544  0.358843  1
  Si  Si19  1  0.522702  0.381544  0.141157  1
