# generated using pymatgen
data_CeY2(RhPb)3
_symmetry_space_group_name_H-M   'P 1'
_cell_length_a   7.72752789
_cell_length_b   7.81156808
_cell_length_c   3.90083500
_cell_angle_alpha   90.00000000
_cell_angle_beta   90.00000000
_cell_angle_gamma   120.36040515
_symmetry_Int_Tables_number   1
_chemical_formula_structural   CeY2(RhPb)3
_chemical_formula_sum   'Ce1 Y2 Rh3 Pb3'
_cell_volume   203.17876322
_cell_formula_units_Z   1
loop_
 _symmetry_equiv_pos_site_id
 _symmetry_equiv_pos_as_xyz
  1  'x, y, z'
loop_
 _atom_site_type_symbol
 _atom_site_label
 _atom_site_symmetry_multiplicity
 _atom_site_fract_x
 _atom_site_fract_y
 _atom_site_fract_z
 _atom_site_occupancy
  Ce  Ce0  1  0.000000  0.588453  0.500000  1
  Y  Y1  1  0.404277  0.404631  0.500000  1
  Y  Y2  1  0.595723  0.000354  0.500000  1
  Rh  Rh3  1  0.000000  0.992988  0.500000  1
  Rh  Rh4  1  0.684402  0.348981  0.000000  1
  Rh  Rh5  1  0.315598  0.664580  0.000000  1
  Pb  Pb6  1  0.728221  0.737029  0.000000  1
  Pb  Pb7  1  0.271779  0.008808  0.000000  1
  Pb  Pb8  1  0.000000  0.254174  0.000000  1
