# generated using pymatgen
data_Ti3Al3CuRu5
_symmetry_space_group_name_H-M   'P 1'
_cell_length_a   4.28590300
_cell_length_b   6.18712800
_cell_length_c   12.78551600
_cell_angle_alpha   89.99994085
_cell_angle_beta   89.99841359
_cell_angle_gamma   89.99984571
_symmetry_Int_Tables_number   1
_chemical_formula_structural   Ti3Al3CuRu5
_chemical_formula_sum   'Ti6 Al6 Cu2 Ru10'
_cell_volume   339.03903132
_cell_formula_units_Z   2
loop_
 _symmetry_equiv_pos_site_id
 _symmetry_equiv_pos_as_xyz
  1  'x, y, z'
loop_
 _atom_site_type_symbol
 _atom_site_label
 _atom_site_symmetry_multiplicity
 _atom_site_fract_x
 _atom_site_fract_y
 _atom_site_fract_z
 _atom_site_occupancy
  Ti  Ti0  1  0.000069  0.000000  0.006712  1
  Ti  Ti1  1  0.500161  0.500000  0.167100  1
  Ti  Ti2  1  0.000157  0.000000  0.333334  1
  Ti  Ti3  1  0.499998  0.499999  0.499558  1
  Ti  Ti4  1  0.999838  0.999998  0.659949  1
  Ti  Ti5  1  0.499820  0.499999  0.833340  1
  Al  Al6  1  0.000033  0.500000  0.000625  1
  Al  Al7  1  0.500164  0.999999  0.166539  1
  Al  Al8  1  0.000175  0.500000  0.333307  1
  Al  Al9  1  0.499992  0.999999  0.500125  1
  Al  Al10  1  0.999807  0.500000  0.666053  1
  Al  Al11  1  0.499778  0.000000  0.833334  1
  Cu  Cu12  1  0.999817  0.249826  0.833343  1
  Cu  Cu13  1  0.999817  0.750170  0.833342  1
  Ru  Ru14  1  0.500030  0.250352  0.993493  1
  Ru  Ru15  1  0.500030  0.749648  0.993494  1
  Ru  Ru16  1  0.000143  0.249723  0.163633  1
  Ru  Ru17  1  0.000144  0.750276  0.163633  1
  Ru  Ru18  1  0.500131  0.250817  0.333334  1
  Ru  Ru19  1  0.500131  0.749183  0.333334  1
  Ru  Ru20  1  0.999998  0.249733  0.503031  1
  Ru  Ru21  1  0.999998  0.750266  0.503031  1
  Ru  Ru22  1  0.499880  0.250337  0.673176  1
  Ru  Ru23  1  0.499880  0.749662  0.673176  1
