# generated using pymatgen
data_DyErNbIr3
_symmetry_space_group_name_H-M   'P 1'
_cell_length_a   5.26128457
_cell_length_b   5.26128462
_cell_length_c   5.26128564
_cell_angle_alpha   64.67862420
_cell_angle_beta   64.67863007
_cell_angle_gamma   64.67862869
_symmetry_Int_Tables_number   1
_chemical_formula_structural   DyErNbIr3
_chemical_formula_sum   'Dy1 Er1 Nb1 Ir3'
_cell_volume   113.53259837
_cell_formula_units_Z   1
loop_
 _symmetry_equiv_pos_site_id
 _symmetry_equiv_pos_as_xyz
  1  'x, y, z'
loop_
 _atom_site_type_symbol
 _atom_site_label
 _atom_site_symmetry_multiplicity
 _atom_site_fract_x
 _atom_site_fract_y
 _atom_site_fract_z
 _atom_site_occupancy
  Dy  Dy0  1  0.251125  0.251125  0.251125  1
  Er  Er1  1  0.998176  0.998176  0.998176  1
  Nb  Nb2  1  0.625055  0.625055  0.625055  1
  Ir  Ir3  1  0.625347  0.625347  0.124951  1
  Ir  Ir4  1  0.625347  0.124951  0.625347  1
  Ir  Ir5  1  0.124951  0.625347  0.625347  1
