# generated using pymatgen
data_ErPa2Zn3PdPt2
_symmetry_space_group_name_H-M   'P 1'
_cell_length_a   7.36155537
_cell_length_b   7.36155694
_cell_length_c   3.77238600
_cell_angle_alpha   90.00000000
_cell_angle_beta   90.00000000
_cell_angle_gamma   119.54676929
_symmetry_Int_Tables_number   1
_chemical_formula_structural   ErPa2Zn3PdPt2
_chemical_formula_sum   'Er1 Pa2 Zn3 Pd1 Pt2'
_cell_volume   177.84898815
_cell_formula_units_Z   1
loop_
 _symmetry_equiv_pos_site_id
 _symmetry_equiv_pos_as_xyz
  1  'x, y, z'
loop_
 _atom_site_type_symbol
 _atom_site_label
 _atom_site_symmetry_multiplicity
 _atom_site_fract_x
 _atom_site_fract_y
 _atom_site_fract_z
 _atom_site_occupancy
  Er  Er0  1  0.402486  0.402486  0.000000  1
  Pa  Pa1  1  0.591042  0.001919  0.000000  1
  Pa  Pa2  1  0.001919  0.591042  0.000000  1
  Zn  Zn3  1  0.254070  0.010841  0.500000  1
  Zn  Zn4  1  0.010841  0.254070  0.500000  1
  Zn  Zn5  1  0.736882  0.736882  0.500000  1
  Pd  Pd6  1  0.990881  0.990881  0.000000  1
  Pt  Pt7  1  0.331972  0.679906  0.500000  1
  Pt  Pt8  1  0.679906  0.331972  0.500000  1
