# generated using pymatgen
data_Lu6ScV(Co4P3)4
_symmetry_space_group_name_H-M   'P 1'
_cell_length_a   3.67208000
_cell_length_b   10.53943200
_cell_length_c   12.18563100
_cell_angle_alpha   90.00000000
_cell_angle_beta   90.00000000
_cell_angle_gamma   90.00000000
_symmetry_Int_Tables_number   1
_chemical_formula_structural   Lu6ScV(Co4P3)4
_chemical_formula_sum   'Lu6 Sc1 V1 Co16 P12'
_cell_volume   471.60387317
_cell_formula_units_Z   1
loop_
 _symmetry_equiv_pos_site_id
 _symmetry_equiv_pos_as_xyz
  1  'x, y, z'
loop_
 _atom_site_type_symbol
 _atom_site_label
 _atom_site_symmetry_multiplicity
 _atom_site_fract_x
 _atom_site_fract_y
 _atom_site_fract_z
 _atom_site_occupancy
  Lu  Lu0  1  0.000000  0.500000  0.524077  1
  Lu  Lu1  1  0.500000  0.000000  0.471310  1
  Lu  Lu2  1  0.500000  0.819023  0.204488  1
  Lu  Lu3  1  0.500000  0.180977  0.204488  1
  Lu  Lu4  1  0.000000  0.676962  0.795060  1
  Lu  Lu5  1  0.000000  0.323038  0.795060  1
  Sc  Sc6  1  0.000000  0.000000  0.844737  1
  V  V7  1  0.500000  0.500000  0.157111  1
  Co  Co8  1  0.500000  0.500000  0.702493  1
  Co  Co9  1  0.000000  0.000000  0.297563  1
  Co  Co10  1  0.000000  0.500000  0.988808  1
  Co  Co11  1  0.500000  0.000000  0.015610  1
  Co  Co12  1  0.500000  0.335828  0.996583  1
  Co  Co13  1  0.500000  0.664172  0.996583  1
  Co  Co14  1  0.000000  0.172109  0.009759  1
  Co  Co15  1  0.000000  0.827891  0.009759  1
  Co  Co16  1  0.500000  0.297016  0.430987  1
  Co  Co17  1  0.500000  0.702984  0.430987  1
  Co  Co18  1  0.000000  0.205816  0.565900  1
  Co  Co19  1  0.000000  0.794184  0.565900  1
  Co  Co20  1  0.500000  0.875906  0.702659  1
  Co  Co21  1  0.500000  0.124094  0.702659  1
  Co  Co22  1  0.000000  0.621418  0.294075  1
  Co  Co23  1  0.000000  0.378582  0.294075  1
  P  P24  1  0.500000  0.500000  0.882522  1
  P  P25  1  0.000000  0.000000  0.118134  1
  P  P26  1  0.500000  0.500000  0.350897  1
  P  P27  1  0.000000  0.000000  0.639245  1
  P  P28  1  0.500000  0.313085  0.615518  1
  P  P29  1  0.500000  0.686915  0.615518  1
  P  P30  1  0.000000  0.188629  0.382231  1
  P  P31  1  0.000000  0.811371  0.382231  1
  P  P32  1  0.500000  0.836836  0.894089  1
  P  P33  1  0.500000  0.163164  0.894089  1
  P  P34  1  0.000000  0.653572  0.112400  1
  P  P35  1  0.000000  0.346428  0.112400  1
