# generated using pymatgen
data_Dy4MnV3B16
_symmetry_space_group_name_H-M   'P 1'
_cell_length_a   3.44910600
_cell_length_b   5.97299683
_cell_length_c   11.55694900
_cell_angle_alpha   89.91945043
_cell_angle_beta   90.00000000
_cell_angle_gamma   90.00000000
_symmetry_Int_Tables_number   1
_chemical_formula_structural   Dy4MnV3B16
_chemical_formula_sum   'Dy4 Mn1 V3 B16'
_cell_volume   238.09024039
_cell_formula_units_Z   1
loop_
 _symmetry_equiv_pos_site_id
 _symmetry_equiv_pos_as_xyz
  1  'x, y, z'
loop_
 _atom_site_type_symbol
 _atom_site_label
 _atom_site_symmetry_multiplicity
 _atom_site_fract_x
 _atom_site_fract_y
 _atom_site_fract_z
 _atom_site_occupancy
  Dy  Dy0  1  0.500000  0.375644  0.150427  1
  Dy  Dy1  1  0.500000  0.625152  0.850859  1
  Dy  Dy2  1  0.500000  0.124587  0.652045  1
  Dy  Dy3  1  0.500000  0.875964  0.346818  1
  Mn  Mn4  1  0.500000  0.875613  0.080808  1
  V  V5  1  0.500000  0.373066  0.415037  1
  V  V6  1  0.500000  0.626993  0.582408  1
  V  V7  1  0.500000  0.124713  0.920642  1
  B  B8  1  0.000000  0.109557  0.048856  1
  B  B9  1  0.000000  0.884318  0.955691  1
  B  B10  1  0.000000  0.384876  0.547105  1
  B  B11  1  0.000000  0.614831  0.451969  1
  B  B12  1  0.000000  0.135369  0.466751  1
  B  B13  1  0.000000  0.864606  0.532560  1
  B  B14  1  0.000000  0.364200  0.969213  1
  B  B15  1  0.000000  0.638981  0.033415  1
  B  B16  1  0.000000  0.020413  0.190096  1
  B  B17  1  0.000000  0.976067  0.809473  1
  B  B18  1  0.000000  0.475722  0.692932  1
  B  B19  1  0.000000  0.525596  0.306039  1
  B  B20  1  0.000000  0.213828  0.312577  1
  B  B21  1  0.000000  0.785492  0.686574  1
  B  B22  1  0.000000  0.283990  0.816114  1
  B  B23  1  0.000000  0.720423  0.181590  1
