# generated using pymatgen
data_Ta6Be15(CoCu3)2
_symmetry_space_group_name_H-M   'P 1'
_cell_length_a   7.59591003
_cell_length_b   7.61829093
_cell_length_c   7.61819309
_cell_angle_alpha   60.03151149
_cell_angle_beta   60.09568010
_cell_angle_gamma   60.09549867
_symmetry_Int_Tables_number   1
_chemical_formula_structural   Ta6Be15(CoCu3)2
_chemical_formula_sum   'Ta6 Be15 Co2 Cu6'
_cell_volume   312.25107053
_cell_formula_units_Z   1
loop_
 _symmetry_equiv_pos_site_id
 _symmetry_equiv_pos_as_xyz
  1  'x, y, z'
loop_
 _atom_site_type_symbol
 _atom_site_label
 _atom_site_symmetry_multiplicity
 _atom_site_fract_x
 _atom_site_fract_y
 _atom_site_fract_z
 _atom_site_occupancy
  Ta  Ta0  1  0.213610  0.197305  0.802683  1
  Ta  Ta1  1  0.201535  0.788725  0.808220  1
  Ta  Ta2  1  0.798493  0.191775  0.211281  1
  Ta  Ta3  1  0.190284  0.806706  0.193296  1
  Ta  Ta4  1  0.786391  0.197332  0.802651  1
  Ta  Ta5  1  0.809719  0.806652  0.193320  1
  Be  Be6  1  0.500002  0.493699  0.506314  1
  Be  Be7  1  0.501381  0.498638  0.997933  1
  Be  Be8  1  0.000041  0.499532  0.500449  1
  Be  Be9  1  0.499984  0.005157  0.994820  1
  Be  Be10  1  0.997899  0.002083  0.501350  1
  Be  Be11  1  0.002083  0.498654  0.997899  1
  Be  Be12  1  0.498599  0.002072  0.501371  1
  Be  Be13  1  0.827488  0.516063  0.828952  1
  Be  Be14  1  0.172523  0.171035  0.483946  1
  Be  Be15  1  0.478879  0.175909  0.168644  1
  Be  Be16  1  0.176533  0.175928  0.168630  1
  Be  Be17  1  0.521096  0.831375  0.824081  1
  Be  Be18  1  0.823441  0.831364  0.824057  1
  Be  Be19  1  0.822534  0.829645  0.525260  1
  Be  Be20  1  0.177471  0.474735  0.170367  1
  Co  Co21  1  0.623465  0.132800  0.620281  1
  Co  Co22  1  0.376539  0.379719  0.867196  1
  Cu  Cu23  1  0.868322  0.378739  0.376403  1
  Cu  Cu24  1  0.376616  0.378735  0.376400  1
  Cu  Cu25  1  0.131589  0.623705  0.621225  1
  Cu  Cu26  1  0.623506  0.623672  0.621188  1
  Cu  Cu27  1  0.621052  0.623032  0.134797  1
  Cu  Cu28  1  0.378924  0.865217  0.376983  1
