# generated using pymatgen
data_Yb10CuIr3
_symmetry_space_group_name_H-M   'P 1'
_cell_length_a   8.51792809
_cell_length_b   8.48220095
_cell_length_c   7.52138953
_cell_angle_alpha   82.77766319
_cell_angle_beta   83.08185016
_cell_angle_gamma   44.13282808
_symmetry_Int_Tables_number   1
_chemical_formula_structural   Yb10CuIr3
_chemical_formula_sum   'Yb10 Cu1 Ir3'
_cell_volume   375.03914135
_cell_formula_units_Z   1
loop_
 _symmetry_equiv_pos_site_id
 _symmetry_equiv_pos_as_xyz
  1  'x, y, z'
loop_
 _atom_site_type_symbol
 _atom_site_label
 _atom_site_symmetry_multiplicity
 _atom_site_fract_x
 _atom_site_fract_y
 _atom_site_fract_z
 _atom_site_occupancy
  Yb  Yb0  1  0.041372  0.788874  0.916632  1
  Yb  Yb1  1  0.207163  0.967251  0.578981  1
  Yb  Yb2  1  0.975560  0.208953  0.078688  1
  Yb  Yb3  1  0.797957  0.032175  0.427720  1
  Yb  Yb4  1  0.359689  0.199489  0.815815  1
  Yb  Yb5  1  0.797065  0.637683  0.677929  1
  Yb  Yb6  1  0.636052  0.790983  0.178521  1
  Yb  Yb7  1  0.190085  0.369219  0.328951  1
  Yb  Yb8  1  0.577550  0.428235  0.741045  1
  Yb  Yb9  1  0.420318  0.582012  0.254938  1
  Cu  Cu10  1  0.599809  0.179402  0.079790  1
  Ir  Ir11  1  0.179930  0.599489  0.581406  1
  Ir  Ir12  1  0.396108  0.820122  0.921889  1
  Ir  Ir13  1  0.821344  0.396113  0.417692  1
