# generated using pymatgen
data_K2In4Au3
_symmetry_space_group_name_H-M   'P 1'
_cell_length_a   15.48293100
_cell_length_b   15.48293212
_cell_length_c   4.73602600
_cell_angle_alpha   90.00000000
_cell_angle_beta   90.00000000
_cell_angle_gamma   120.00000401
_symmetry_Int_Tables_number   1
_chemical_formula_structural   K2In4Au3
_chemical_formula_sum   'K8 In16 Au12'
_cell_volume   983.22085153
_cell_formula_units_Z   4
loop_
 _symmetry_equiv_pos_site_id
 _symmetry_equiv_pos_as_xyz
  1  'x, y, z'
loop_
 _atom_site_type_symbol
 _atom_site_label
 _atom_site_symmetry_multiplicity
 _atom_site_fract_x
 _atom_site_fract_y
 _atom_site_fract_z
 _atom_site_occupancy
  K  K0  1  0.452938  0.000000  0.000000  1
  K  K1  1  0.000000  0.452938  0.000000  1
  K  K2  1  0.547062  0.547062  0.000000  1
  K  K3  1  0.333333  0.666667  0.000000  1
  K  K4  1  0.666667  0.333333  0.000000  1
  K  K5  1  0.817412  0.000000  0.500000  1
  K  K6  1  0.000000  0.817412  0.500000  1
  K  K7  1  0.182588  0.182588  0.500000  1
  In  In8  1  0.182494  0.380226  0.000000  1
  In  In9  1  0.619774  0.802269  0.000000  1
  In  In10  1  0.380226  0.182494  0.000000  1
  In  In11  1  0.197731  0.817506  0.000000  1
  In  In12  1  0.802269  0.619774  0.000000  1
  In  In13  1  0.817506  0.197731  0.000000  1
  In  In14  1  0.279650  0.000000  0.500000  1
  In  In15  1  0.000000  0.279650  0.500000  1
  In  In16  1  0.720350  0.720350  0.500000  1
  In  In17  1  0.351520  0.476520  0.500000  1
  In  In18  1  0.523480  0.875000  0.500000  1
  In  In19  1  0.476520  0.351520  0.500000  1
  In  In20  1  0.125000  0.648480  0.500000  1
  In  In21  1  0.875000  0.523480  0.500000  1
  In  In22  1  0.648480  0.125000  0.500000  1
  In  In23  1  0.000000  0.000000  0.000000  1
  Au  Au24  1  0.171897  0.487155  0.500000  1
  Au  Au25  1  0.512845  0.684742  0.500000  1
  Au  Au26  1  0.487155  0.171897  0.500000  1
  Au  Au27  1  0.315258  0.828103  0.500000  1
  Au  Au28  1  0.684742  0.512845  0.500000  1
  Au  Au29  1  0.828103  0.315258  0.500000  1
  Au  Au30  1  0.180598  0.000000  0.000000  1
  Au  Au31  1  0.000000  0.180598  0.000000  1
  Au  Au32  1  0.819402  0.819402  0.000000  1
  Au  Au33  1  0.654372  0.000000  0.000000  1
  Au  Au34  1  0.000000  0.654372  0.000000  1
  Au  Au35  1  0.345628  0.345628  0.000000  1
