# generated using pymatgen
data_Mg6Ta5NbIr12
_symmetry_space_group_name_H-M   'P 1'
_cell_length_a   4.24721600
_cell_length_b   7.01270400
_cell_length_c   12.66659000
_cell_angle_alpha   90.00000000
_cell_angle_beta   90.00006301
_cell_angle_gamma   90.00000000
_symmetry_Int_Tables_number   1
_chemical_formula_structural   Mg6Ta5NbIr12
_chemical_formula_sum   'Mg6 Ta5 Nb1 Ir12'
_cell_volume   377.26765253
_cell_formula_units_Z   1
loop_
 _symmetry_equiv_pos_site_id
 _symmetry_equiv_pos_as_xyz
  1  'x, y, z'
loop_
 _atom_site_type_symbol
 _atom_site_label
 _atom_site_symmetry_multiplicity
 _atom_site_fract_x
 _atom_site_fract_y
 _atom_site_fract_z
 _atom_site_occupancy
  Mg  Mg0  1  0.000000  0.500000  0.000000  1
  Mg  Mg1  1  0.499995  0.000000  0.166261  1
  Mg  Mg2  1  0.999988  0.500000  0.333418  1
  Mg  Mg3  1  0.499999  0.000000  0.500000  1
  Mg  Mg4  1  0.000012  0.500000  0.666582  1
  Mg  Mg5  1  0.500004  0.000000  0.833738  1
  Ta  Ta6  1  0.499994  0.500000  0.166953  1
  Ta  Ta7  1  0.999981  0.000000  0.333127  1
  Ta  Ta8  1  0.499999  0.500000  0.500000  1
  Ta  Ta9  1  0.000019  0.000000  0.666873  1
  Ta  Ta10  1  0.500007  0.500000  0.833047  1
  Nb  Nb11  1  0.000000  0.000000  0.000000  1
  Ir  Ir12  1  0.500001  0.253126  0.000000  1
  Ir  Ir13  1  0.500001  0.746874  0.000000  1
  Ir  Ir14  1  0.999981  0.251817  0.167331  1
  Ir  Ir15  1  0.999981  0.748182  0.167331  1
  Ir  Ir16  1  0.499997  0.249255  0.333457  1
  Ir  Ir17  1  0.499997  0.750746  0.333457  1
  Ir  Ir18  1  0.000000  0.250229  0.500000  1
  Ir  Ir19  1  0.000000  0.749772  0.500000  1
  Ir  Ir20  1  0.500002  0.249255  0.666542  1
  Ir  Ir21  1  0.500002  0.750746  0.666542  1
  Ir  Ir22  1  0.000019  0.251817  0.832669  1
  Ir  Ir23  1  0.000019  0.748182  0.832669  1
