# generated using pymatgen
data_ErZn4Ni
_symmetry_space_group_name_H-M   'P 1'
_cell_length_a   5.14218400
_cell_length_b   5.14218452
_cell_length_c   4.20907100
_cell_angle_alpha   90.00000000
_cell_angle_beta   90.00000000
_cell_angle_gamma   120.00000951
_symmetry_Int_Tables_number   1
_chemical_formula_structural   ErZn4Ni
_chemical_formula_sum   'Er1 Zn4 Ni1'
_cell_volume   96.38559024
_cell_formula_units_Z   1
loop_
 _symmetry_equiv_pos_site_id
 _symmetry_equiv_pos_as_xyz
  1  'x, y, z'
loop_
 _atom_site_type_symbol
 _atom_site_label
 _atom_site_symmetry_multiplicity
 _atom_site_fract_x
 _atom_site_fract_y
 _atom_site_fract_z
 _atom_site_occupancy
  Er  Er0  1  0.333333  0.666667  0.000000  1
  Zn  Zn1  1  0.000000  0.000000  0.000000  1
  Zn  Zn2  1  0.339233  0.169617  0.500000  1
  Zn  Zn3  1  0.830383  0.169617  0.500000  1
  Zn  Zn4  1  0.830383  0.660767  0.500000  1
  Ni  Ni5  1  0.666667  0.333333  0.000000  1
