# generated using pymatgen
data_Tm4LuB4P8Ir19
_symmetry_space_group_name_H-M   'P 1'
_cell_length_a   12.39864303
_cell_length_b   12.37095372
_cell_length_c   3.94948300
_cell_angle_alpha   90.00000000
_cell_angle_beta   90.00000000
_cell_angle_gamma   119.68168890
_symmetry_Int_Tables_number   1
_chemical_formula_structural   Tm4LuB4P8Ir19
_chemical_formula_sum   'Tm4 Lu1 B4 P8 Ir19'
_cell_volume   526.29871208
_cell_formula_units_Z   1
loop_
 _symmetry_equiv_pos_site_id
 _symmetry_equiv_pos_as_xyz
  1  'x, y, z'
loop_
 _atom_site_type_symbol
 _atom_site_label
 _atom_site_symmetry_multiplicity
 _atom_site_fract_x
 _atom_site_fract_y
 _atom_site_fract_z
 _atom_site_occupancy
  Tm  Tm0  1  0.675059  0.331084  0.500000  1
  Tm  Tm1  1  0.181981  0.187379  0.000000  1
  Tm  Tm2  1  0.815342  0.002791  0.000000  1
  Tm  Tm3  1  0.002077  0.816582  0.000000  1
  Lu  Lu4  1  0.332767  0.666660  0.500000  1
  B  B5  1  0.305357  0.814898  0.000000  1
  B  B6  1  0.178499  0.487912  0.000000  1
  B  B7  1  0.509533  0.691976  0.000000  1
  B  B8  1  0.823782  0.303442  0.000000  1
  P  P9  1  0.486987  0.173667  0.000000  1
  P  P10  1  0.692313  0.513535  0.000000  1
  P  P11  1  0.358369  0.363956  0.500000  1
  P  P12  1  0.640564  0.001085  0.500000  1
  P  P13  1  0.005909  0.640134  0.500000  1
  P  P14  1  0.816729  0.820590  0.500000  1
  P  P15  1  0.179929  0.998203  0.500000  1
  P  P16  1  0.002490  0.185740  0.500000  1
  Ir  Ir17  1  0.199450  0.817834  0.500000  1
  Ir  Ir18  1  0.182102  0.382495  0.500000  1
  Ir  Ir19  1  0.619353  0.804012  0.500000  1
  Ir  Ir20  1  0.821907  0.200794  0.500000  1
  Ir  Ir21  1  0.375110  0.181220  0.500000  1
  Ir  Ir22  1  0.807629  0.624409  0.500000  1
  Ir  Ir23  1  0.135988  0.637525  0.000000  1
  Ir  Ir24  1  0.359728  0.501721  0.000000  1
  Ir  Ir25  1  0.496128  0.857964  0.000000  1
  Ir  Ir26  1  0.643230  0.130077  0.000000  1
  Ir  Ir27  1  0.490874  0.363170  0.000000  1
  Ir  Ir28  1  0.868721  0.497387  0.000000  1
  Ir  Ir29  1  0.539253  0.548822  0.500000  1
  Ir  Ir30  1  0.454113  0.994985  0.500000  1
  Ir  Ir31  1  0.003285  0.455801  0.500000  1
  Ir  Ir32  1  0.701369  0.707105  0.000000  1
  Ir  Ir33  1  0.292635  0.994179  0.000000  1
  Ir  Ir34  1  0.002161  0.299978  0.000000  1
  Ir  Ir35  1  0.999274  0.000891  0.500000  1
