# generated using pymatgen
data_Y5Pd9
_symmetry_space_group_name_H-M   'P 1'
_cell_length_a   9.83200600
_cell_length_b   9.83200600
_cell_length_c   5.78528000
_cell_angle_alpha   90.00000000
_cell_angle_beta   90.00000000
_cell_angle_gamma   90.00000000
_symmetry_Int_Tables_number   1
_chemical_formula_structural   Y5Pd9
_chemical_formula_sum   'Y10 Pd18'
_cell_volume   559.25342551
_cell_formula_units_Z   2
loop_
 _symmetry_equiv_pos_site_id
 _symmetry_equiv_pos_as_xyz
  1  'x, y, z'
loop_
 _atom_site_type_symbol
 _atom_site_label
 _atom_site_symmetry_multiplicity
 _atom_site_fract_x
 _atom_site_fract_y
 _atom_site_fract_z
 _atom_site_occupancy
  Y  Y0  1  0.453284  0.808331  0.000000  1
  Y  Y1  1  0.546716  0.191669  0.000000  1
  Y  Y2  1  0.191669  0.546716  0.000000  1
  Y  Y3  1  0.808331  0.453284  0.000000  1
  Y  Y4  1  0.500000  0.500000  0.500000  1
  Y  Y5  1  0.308331  0.046716  0.500000  1
  Y  Y6  1  0.691669  0.953284  0.500000  1
  Y  Y7  1  0.953284  0.691669  0.500000  1
  Y  Y8  1  0.046716  0.308331  0.500000  1
  Y  Y9  1  0.000000  0.000000  0.000000  1
  Pd  Pd10  1  0.191034  0.808966  0.250329  1
  Pd  Pd11  1  0.808966  0.191034  0.749671  1
  Pd  Pd12  1  0.808966  0.191034  0.250329  1
  Pd  Pd13  1  0.191034  0.808966  0.749671  1
  Pd  Pd14  1  0.439268  0.780609  0.500000  1
  Pd  Pd15  1  0.560732  0.219391  0.500000  1
  Pd  Pd16  1  0.219391  0.560732  0.500000  1
  Pd  Pd17  1  0.780609  0.439268  0.500000  1
  Pd  Pd18  1  0.308966  0.308966  0.249671  1
  Pd  Pd19  1  0.691034  0.691034  0.750329  1
  Pd  Pd20  1  0.691034  0.691034  0.249671  1
  Pd  Pd21  1  0.308966  0.308966  0.750329  1
  Pd  Pd22  1  0.280609  0.060732  0.000000  1
  Pd  Pd23  1  0.719391  0.939268  0.000000  1
  Pd  Pd24  1  0.939268  0.719391  0.000000  1
  Pd  Pd25  1  0.060732  0.280609  0.000000  1
  Pd  Pd26  1  0.000000  0.000000  0.500000  1
  Pd  Pd27  1  0.500000  0.500000  0.000000  1
