# generated using pymatgen
data_Pr4TmBe4P8Ir19
_symmetry_space_group_name_H-M   'P 1'
_cell_length_a   12.73320744
_cell_length_b   12.64788901
_cell_length_c   3.97787300
_cell_angle_alpha   90.00000000
_cell_angle_beta   90.00000000
_cell_angle_gamma   120.09284566
_symmetry_Int_Tables_number   1
_chemical_formula_structural   Pr4TmBe4P8Ir19
_chemical_formula_sum   'Pr4 Tm1 Be4 P8 Ir19'
_cell_volume   554.28143145
_cell_formula_units_Z   1
loop_
 _symmetry_equiv_pos_site_id
 _symmetry_equiv_pos_as_xyz
  1  'x, y, z'
loop_
 _atom_site_type_symbol
 _atom_site_label
 _atom_site_symmetry_multiplicity
 _atom_site_fract_x
 _atom_site_fract_y
 _atom_site_fract_z
 _atom_site_occupancy
  Pr  Pr0  1  0.333707  0.666264  0.500000  1
  Pr  Pr1  1  0.184279  0.190475  0.000000  1
  Pr  Pr2  1  0.809466  0.999776  0.000000  1
  Pr  Pr3  1  0.003410  0.813787  0.000000  1
  Tm  Tm4  1  0.677198  0.331596  0.500000  1
  Be  Be5  1  0.314520  0.838234  0.000000  1
  Be  Be6  1  0.162013  0.475382  0.000000  1
  Be  Be7  1  0.523643  0.685531  0.000000  1
  Be  Be8  1  0.828222  0.307085  0.000000  1
  P  P9  1  0.486789  0.180072  0.000000  1
  P  P10  1  0.698633  0.515742  0.000000  1
  P  P11  1  0.363512  0.376734  0.500000  1
  P  P12  1  0.623508  0.992582  0.500000  1
  P  P13  1  0.008613  0.629468  0.500000  1
  P  P14  1  0.815275  0.815756  0.500000  1
  P  P15  1  0.185634  0.003113  0.500000  1
  P  P16  1  0.994350  0.184251  0.500000  1
  Ir  Ir17  1  0.197432  0.821395  0.500000  1
  Ir  Ir18  1  0.176696  0.377223  0.500000  1
  Ir  Ir19  1  0.623048  0.802221  0.500000  1
  Ir  Ir20  1  0.809207  0.190591  0.500000  1
  Ir  Ir21  1  0.383602  0.191176  0.500000  1
  Ir  Ir22  1  0.802872  0.616717  0.500000  1
  Ir  Ir23  1  0.124835  0.640766  0.000000  1
  Ir  Ir24  1  0.357840  0.481864  0.000000  1
  Ir  Ir25  1  0.516042  0.873238  0.000000  1
  Ir  Ir26  1  0.632184  0.129866  0.000000  1
  Ir  Ir27  1  0.502357  0.370239  0.000000  1
  Ir  Ir28  1  0.874367  0.507809  0.000000  1
  Ir  Ir29  1  0.547053  0.553839  0.500000  1
  Ir  Ir30  1  0.443673  0.992048  0.500000  1
  Ir  Ir31  1  0.995140  0.443037  0.500000  1
  Ir  Ir32  1  0.715684  0.710337  0.000000  1
  Ir  Ir33  1  0.290889  0.007947  0.000000  1
  Ir  Ir34  1  0.994678  0.283727  0.000000  1
  Ir  Ir35  1  0.999628  0.000111  0.500000  1
