# generated using pymatgen
data_Sc3In3Ni2Ag
_symmetry_space_group_name_H-M   'P 1'
_cell_length_a   7.51341800
_cell_length_b   7.51341812
_cell_length_c   3.50962400
_cell_angle_alpha   90.00000000
_cell_angle_beta   90.00000000
_cell_angle_gamma   119.99999183
_symmetry_Int_Tables_number   1
_chemical_formula_structural   Sc3In3Ni2Ag
_chemical_formula_sum   'Sc3 In3 Ni2 Ag1'
_cell_volume   171.57988317
_cell_formula_units_Z   1
loop_
 _symmetry_equiv_pos_site_id
 _symmetry_equiv_pos_as_xyz
  1  'x, y, z'
loop_
 _atom_site_type_symbol
 _atom_site_label
 _atom_site_symmetry_multiplicity
 _atom_site_fract_x
 _atom_site_fract_y
 _atom_site_fract_z
 _atom_site_occupancy
  Sc  Sc0  1  0.613751  0.033990  0.000000  1
  Sc  Sc1  1  0.966010  0.579761  0.000000  1
  Sc  Sc2  1  0.420239  0.386249  0.000000  1
  In  In3  1  0.257439  0.995327  0.500000  1
  In  In4  1  0.004673  0.262114  0.500000  1
  In  In5  1  0.737886  0.742561  0.500000  1
  Ni  Ni6  1  0.666667  0.333333  0.500000  1
  Ni  Ni7  1  0.000000  0.000000  0.000000  1
  Ag  Ag8  1  0.333333  0.666667  0.500000  1
