# generated using pymatgen
data_Tb6Dy2Sc12Si15Bi
_symmetry_space_group_name_H-M   'P 1'
_cell_length_a   7.18395609
_cell_length_b   7.43435544
_cell_length_c   14.10269554
_cell_angle_alpha   90.06461567
_cell_angle_beta   88.87513539
_cell_angle_gamma   90.18776410
_symmetry_Int_Tables_number   1
_chemical_formula_structural   Tb6Dy2Sc12Si15Bi
_chemical_formula_sum   'Tb6 Dy2 Sc12 Si15 Bi1'
_cell_volume   753.04831325
_cell_formula_units_Z   1
loop_
 _symmetry_equiv_pos_site_id
 _symmetry_equiv_pos_as_xyz
  1  'x, y, z'
loop_
 _atom_site_type_symbol
 _atom_site_label
 _atom_site_symmetry_multiplicity
 _atom_site_fract_x
 _atom_site_fract_y
 _atom_site_fract_z
 _atom_site_occupancy
  Tb  Tb0  1  0.012605  0.176445  0.096758  1
  Tb  Tb1  1  0.987710  0.825025  0.903957  1
  Tb  Tb2  1  0.488356  0.675500  0.903852  1
  Tb  Tb3  1  0.991469  0.831396  0.598491  1
  Tb  Tb4  1  0.512194  0.324599  0.097372  1
  Tb  Tb5  1  0.001218  0.169777  0.398883  1
  Dy  Dy6  1  0.512269  0.318285  0.397542  1
  Dy  Dy7  1  0.510470  0.685839  0.601301  1
  Sc  Sc8  1  0.163209  0.500901  0.756286  1
  Sc  Sc9  1  0.836193  0.498998  0.251322  1
  Sc  Sc10  1  0.336496  0.001566  0.249975  1
  Sc  Sc11  1  0.665286  0.999050  0.751393  1
  Sc  Sc12  1  0.347302  0.156209  0.632102  1
  Sc  Sc13  1  0.660381  0.826924  0.372278  1
  Sc  Sc14  1  0.156521  0.683342  0.369179  1
  Sc  Sc15  1  0.668057  0.823045  0.123951  1
  Sc  Sc16  1  0.824837  0.326016  0.625884  1
  Sc  Sc17  1  0.330117  0.175248  0.875335  1
  Sc  Sc18  1  0.830867  0.323592  0.875633  1
  Sc  Sc19  1  0.169090  0.676476  0.124857  1
  Si  Si20  1  0.035101  0.120160  0.751010  1
  Si  Si21  1  0.962053  0.884326  0.246169  1
  Si  Si22  1  0.462124  0.617046  0.247570  1
  Si  Si23  1  0.534787  0.383598  0.752904  1
  Si  Si24  1  0.288383  0.867813  0.752869  1
  Si  Si25  1  0.711645  0.125717  0.246659  1
  Si  Si26  1  0.210816  0.374476  0.249051  1
  Si  Si27  1  0.792517  0.627522  0.751606  1
  Si  Si28  1  0.814140  0.541304  0.456396  1
  Si  Si29  1  0.333615  0.963635  0.460045  1
  Si  Si30  1  0.844401  0.534519  0.039762  1
  Si  Si31  1  0.667615  0.038642  0.538456  1
  Si  Si32  1  0.154799  0.465265  0.961319  1
  Si  Si33  1  0.654676  0.034756  0.960246  1
  Si  Si34  1  0.343903  0.965981  0.040030  1
  Bi  Bi35  1  0.184775  0.457010  0.539558  1
