# generated using pymatgen
data_Sc3Al2AgC
_symmetry_space_group_name_H-M   'P 1'
_cell_length_a   8.80942985
_cell_length_b   8.80942979
_cell_length_c   8.80942900
_cell_angle_alpha   59.99999920
_cell_angle_beta   59.99999944
_cell_angle_gamma   59.99999506
_symmetry_Int_Tables_number   1
_chemical_formula_structural   Sc3Al2AgC
_chemical_formula_sum   'Sc12 Al8 Ag4 C4'
_cell_volume   483.42414895
_cell_formula_units_Z   4
loop_
 _symmetry_equiv_pos_site_id
 _symmetry_equiv_pos_as_xyz
  1  'x, y, z'
loop_
 _atom_site_type_symbol
 _atom_site_label
 _atom_site_symmetry_multiplicity
 _atom_site_fract_x
 _atom_site_fract_y
 _atom_site_fract_z
 _atom_site_occupancy
  Sc  Sc0  1  0.938989  0.938989  0.561011  1
  Sc  Sc1  1  0.688989  0.311011  0.311011  1
  Sc  Sc2  1  0.311011  0.688989  0.688989  1
  Sc  Sc3  1  0.688989  0.688989  0.311011  1
  Sc  Sc4  1  0.688989  0.311011  0.688989  1
  Sc  Sc5  1  0.311011  0.688989  0.311011  1
  Sc  Sc6  1  0.561011  0.938989  0.561011  1
  Sc  Sc7  1  0.561011  0.938989  0.938989  1
  Sc  Sc8  1  0.938989  0.561011  0.561011  1
  Sc  Sc9  1  0.938989  0.561011  0.938989  1
  Sc  Sc10  1  0.311011  0.311011  0.688989  1
  Sc  Sc11  1  0.561011  0.561011  0.938989  1
  Al  Al12  1  0.919251  0.242249  0.919251  1
  Al  Al13  1  0.330749  0.330749  0.007751  1
  Al  Al14  1  0.007751  0.330749  0.330749  1
  Al  Al15  1  0.330749  0.330749  0.330749  1
  Al  Al16  1  0.242249  0.919251  0.919251  1
  Al  Al17  1  0.919251  0.919251  0.919251  1
  Al  Al18  1  0.919251  0.919251  0.242249  1
  Al  Al19  1  0.330749  0.007751  0.330749  1
  Ag  Ag20  1  0.125000  0.625000  0.125000  1
  Ag  Ag21  1  0.125000  0.125000  0.625000  1
  Ag  Ag22  1  0.625000  0.125000  0.125000  1
  Ag  Ag23  1  0.125000  0.125000  0.125000  1
  C  C24  1  0.625000  0.125000  0.625000  1
  C  C25  1  0.625000  0.625000  0.125000  1
  C  C26  1  0.125000  0.625000  0.625000  1
  C  C27  1  0.625000  0.625000  0.625000  1
