# generated using pymatgen
data_Ba4La7NpSe16
_symmetry_space_group_name_H-M   'P 1'
_cell_length_a   4.42315200
_cell_length_b   13.07001757
_cell_length_c   15.78772080
_cell_angle_alpha   90.12130894
_cell_angle_beta   90.00000000
_cell_angle_gamma   90.00000000
_symmetry_Int_Tables_number   1
_chemical_formula_structural   Ba4La7NpSe16
_chemical_formula_sum   'Ba4 La7 Np1 Se16'
_cell_volume   912.69674064
_cell_formula_units_Z   1
loop_
 _symmetry_equiv_pos_site_id
 _symmetry_equiv_pos_as_xyz
  1  'x, y, z'
loop_
 _atom_site_type_symbol
 _atom_site_label
 _atom_site_symmetry_multiplicity
 _atom_site_fract_x
 _atom_site_fract_y
 _atom_site_fract_z
 _atom_site_occupancy
  Ba  Ba0  1  0.250000  0.242566  0.338314  1
  Ba  Ba1  1  0.250000  0.743482  0.159891  1
  Ba  Ba2  1  0.750000  0.758004  0.663373  1
  Ba  Ba3  1  0.750000  0.256216  0.839729  1
  La  La4  1  0.250000  0.080778  0.602386  1
  La  La5  1  0.250000  0.583008  0.898666  1
  La  La6  1  0.750000  0.918406  0.397757  1
  La  La7  1  0.750000  0.417208  0.102168  1
  La  La8  1  0.250000  0.571514  0.390317  1
  La  La9  1  0.250000  0.069571  0.107793  1
  La  La10  1  0.750000  0.429413  0.609706  1
  Np  Np11  1  0.750000  0.932665  0.888925  1
  Se  Se12  1  0.250000  0.080272  0.918750  1
  Se  Se13  1  0.250000  0.583494  0.580023  1
  Se  Se14  1  0.750000  0.916371  0.074982  1
  Se  Se15  1  0.750000  0.416812  0.420264  1
  Se  Se16  1  0.250000  0.292690  0.679790  1
  Se  Se17  1  0.250000  0.798908  0.826201  1
  Se  Se18  1  0.750000  0.707011  0.320481  1
  Se  Se19  1  0.750000  0.205833  0.178536  1
  Se  Se20  1  0.250000  0.368295  0.974209  1
  Se  Se21  1  0.250000  0.867868  0.524968  1
  Se  Se22  1  0.750000  0.630031  0.025952  1
  Se  Se23  1  0.750000  0.131742  0.476257  1
  Se  Se24  1  0.250000  0.476692  0.216959  1
  Se  Se25  1  0.250000  0.976779  0.282491  1
  Se  Se26  1  0.750000  0.525002  0.783087  1
  Se  Se27  1  0.750000  0.019372  0.718025  1
