# generated using pymatgen
data_La5(CoB3)2
_symmetry_space_group_name_H-M   'P 1'
_cell_length_a   9.08402754
_cell_length_b   9.08402698
_cell_length_c   9.08402818
_cell_angle_alpha   35.08586769
_cell_angle_beta   35.08587305
_cell_angle_gamma   35.08586402
_symmetry_Int_Tables_number   1
_chemical_formula_structural   La5(CoB3)2
_chemical_formula_sum   'La5 Co2 B6'
_cell_volume   221.17256977
_cell_formula_units_Z   1
loop_
 _symmetry_equiv_pos_site_id
 _symmetry_equiv_pos_as_xyz
  1  'x, y, z'
loop_
 _atom_site_type_symbol
 _atom_site_label
 _atom_site_symmetry_multiplicity
 _atom_site_fract_x
 _atom_site_fract_y
 _atom_site_fract_z
 _atom_site_occupancy
  La  La0  1  0.582103  0.582103  0.582103  1
  La  La1  1  0.417897  0.417897  0.417897  1
  La  La2  1  0.750455  0.750455  0.750455  1
  La  La3  1  0.249545  0.249545  0.249545  1
  La  La4  1  0.000000  0.000000  0.000000  1
  Co  Co5  1  0.876272  0.876272  0.876272  1
  Co  Co6  1  0.123728  0.123728  0.123728  1
  B  B7  1  0.500000  0.832629  0.167371  1
  B  B8  1  0.167371  0.500000  0.832629  1
  B  B9  1  0.832629  0.167371  0.500000  1
  B  B10  1  0.500000  0.167371  0.832629  1
  B  B11  1  0.832629  0.500000  0.167371  1
  B  B12  1  0.167371  0.832629  0.500000  1
