# generated using pymatgen
data_TbHo3ReRuC4
_symmetry_space_group_name_H-M   'P 1'
_cell_length_a   5.09817300
_cell_length_b   6.53086700
_cell_length_c   9.80332900
_cell_angle_alpha   90.00000000
_cell_angle_beta   90.00000000
_cell_angle_gamma   90.00000000
_symmetry_Int_Tables_number   1
_chemical_formula_structural   TbHo3ReRuC4
_chemical_formula_sum   'Tb2 Ho6 Re2 Ru2 C8'
_cell_volume   326.40664078
_cell_formula_units_Z   2
loop_
 _symmetry_equiv_pos_site_id
 _symmetry_equiv_pos_as_xyz
  1  'x, y, z'
loop_
 _atom_site_type_symbol
 _atom_site_label
 _atom_site_symmetry_multiplicity
 _atom_site_fract_x
 _atom_site_fract_y
 _atom_site_fract_z
 _atom_site_occupancy
  Tb  Tb0  1  0.250000  0.466904  0.785095  1
  Tb  Tb1  1  0.750000  0.033096  0.285095  1
  Ho  Ho2  1  0.250000  0.969372  0.715012  1
  Ho  Ho3  1  0.750000  0.530628  0.215012  1
  Ho  Ho4  1  0.250000  0.824774  0.055166  1
  Ho  Ho5  1  0.750000  0.675226  0.555166  1
  Ho  Ho6  1  0.250000  0.320947  0.442688  1
  Ho  Ho7  1  0.750000  0.179053  0.942688  1
  Re  Re8  1  0.250000  0.778878  0.365159  1
  Re  Re9  1  0.750000  0.721122  0.865159  1
  Ru  Ru10  1  0.250000  0.278195  0.133823  1
  Ru  Ru11  1  0.750000  0.221805  0.633823  1
  C  C12  1  0.250000  0.172941  0.949101  1
  C  C13  1  0.750000  0.822545  0.051631  1
  C  C14  1  0.250000  0.677455  0.551631  1
  C  C15  1  0.750000  0.327059  0.449101  1
  C  C16  1  0.250000  0.044179  0.260280  1
  C  C17  1  0.750000  0.455821  0.760280  1
  C  C18  1  0.250000  0.545725  0.242046  1
  C  C19  1  0.750000  0.954275  0.742046  1
