# generated using pymatgen
data_Dy3YCo17(TcP4)3
_symmetry_space_group_name_H-M   'P 1'
_cell_length_a   3.70043600
_cell_length_b   10.35481263
_cell_length_c   11.80483166
_cell_angle_alpha   89.97616856
_cell_angle_beta   90.00000000
_cell_angle_gamma   90.00000000
_symmetry_Int_Tables_number   1
_chemical_formula_structural   Dy3YCo17(TcP4)3
_chemical_formula_sum   'Dy3 Y1 Co17 Tc3 P12'
_cell_volume   452.32948979
_cell_formula_units_Z   1
loop_
 _symmetry_equiv_pos_site_id
 _symmetry_equiv_pos_as_xyz
  1  'x, y, z'
loop_
 _atom_site_type_symbol
 _atom_site_label
 _atom_site_symmetry_multiplicity
 _atom_site_fract_x
 _atom_site_fract_y
 _atom_site_fract_z
 _atom_site_occupancy
  Dy  Dy0  1  0.250000  0.915285  0.204613  1
  Dy  Dy1  1  0.750000  0.414707  0.296065  1
  Dy  Dy2  1  0.750000  0.083893  0.795524  1
  Y  Y3  1  0.250000  0.582160  0.702555  1
  Co  Co4  1  0.750000  0.215496  0.509756  1
  Co  Co5  1  0.250000  0.405626  0.488119  1
  Co  Co6  1  0.250000  0.093096  0.988859  1
  Co  Co7  1  0.750000  0.592455  0.510000  1
  Co  Co8  1  0.750000  0.907212  0.011157  1
  Co  Co9  1  0.250000  0.220311  0.176995  1
  Co  Co10  1  0.250000  0.277611  0.675969  1
  Co  Co11  1  0.750000  0.778376  0.822842  1
  Co  Co12  1  0.750000  0.721681  0.323249  1
  Co  Co13  1  0.250000  0.886267  0.701308  1
  Co  Co14  1  0.250000  0.613663  0.202366  1
  Co  Co15  1  0.750000  0.116214  0.301288  1
  Co  Co16  1  0.750000  0.385408  0.797833  1
  Co  Co17  1  0.250000  0.464423  0.932236  1
  Co  Co18  1  0.250000  0.035684  0.432326  1
  Co  Co19  1  0.750000  0.535923  0.068672  1
  Co  Co20  1  0.750000  0.967100  0.568354  1
  Tc  Tc21  1  0.250000  0.711038  0.989462  1
  Tc  Tc22  1  0.250000  0.789527  0.489422  1
  Tc  Tc23  1  0.750000  0.288855  0.010776  1
  P  P24  1  0.250000  0.419493  0.113638  1
  P  P25  1  0.250000  0.081721  0.611869  1
  P  P26  1  0.750000  0.579163  0.886554  1
  P  P27  1  0.750000  0.921078  0.387092  1
  P  P28  1  0.250000  0.270265  0.864789  1
  P  P29  1  0.250000  0.229991  0.368958  1
  P  P30  1  0.750000  0.729918  0.134608  1
  P  P31  1  0.750000  0.771166  0.633128  1
  P  P32  1  0.250000  0.596024  0.391595  1
  P  P33  1  0.250000  0.903534  0.890781  1
  P  P34  1  0.750000  0.398177  0.606639  1
  P  P35  1  0.750000  0.097456  0.110602  1
