# generated using pymatgen
data_Nd4Mg3Ag10
_symmetry_space_group_name_H-M   'P 1'
_cell_length_a   8.74547922
_cell_length_b   8.74547935
_cell_length_c   10.47251700
_cell_angle_alpha   90.00000000
_cell_angle_beta   90.00000000
_cell_angle_gamma   108.01600573
_symmetry_Int_Tables_number   1
_chemical_formula_structural   Nd4Mg3Ag10
_chemical_formula_sum   'Nd8 Mg6 Ag20'
_cell_volume   761.70216869
_cell_formula_units_Z   2
loop_
 _symmetry_equiv_pos_site_id
 _symmetry_equiv_pos_as_xyz
  1  'x, y, z'
loop_
 _atom_site_type_symbol
 _atom_site_label
 _atom_site_symmetry_multiplicity
 _atom_site_fract_x
 _atom_site_fract_y
 _atom_site_fract_z
 _atom_site_occupancy
  Nd  Nd0  1  0.702110  0.297890  0.000000  1
  Nd  Nd1  1  0.297890  0.702110  0.000000  1
  Nd  Nd2  1  0.797890  0.202110  0.500000  1
  Nd  Nd3  1  0.202110  0.797890  0.500000  1
  Nd  Nd4  1  0.304515  0.304515  0.202710  1
  Nd  Nd5  1  0.695485  0.695485  0.797290  1
  Nd  Nd6  1  0.195485  0.195485  0.702710  1
  Nd  Nd7  1  0.804515  0.804515  0.297290  1
  Mg  Mg8  1  0.019455  0.519455  0.250000  1
  Mg  Mg9  1  0.980545  0.480545  0.750000  1
  Mg  Mg10  1  0.480545  0.980545  0.750000  1
  Mg  Mg11  1  0.519455  0.019455  0.250000  1
  Mg  Mg12  1  0.000000  0.000000  0.000000  1
  Mg  Mg13  1  0.500000  0.500000  0.500000  1
  Ag  Ag14  1  0.097349  0.097349  0.404735  1
  Ag  Ag15  1  0.902651  0.902651  0.595265  1
  Ag  Ag16  1  0.402651  0.402651  0.904735  1
  Ag  Ag17  1  0.597349  0.597349  0.095265  1
  Ag  Ag18  1  0.895356  0.173148  0.206271  1
  Ag  Ag19  1  0.104644  0.826852  0.793729  1
  Ag  Ag20  1  0.604644  0.326852  0.706271  1
  Ag  Ag21  1  0.673148  0.395356  0.293729  1
  Ag  Ag22  1  0.395356  0.673148  0.293729  1
  Ag  Ag23  1  0.326852  0.604644  0.706271  1
  Ag  Ag24  1  0.826852  0.104644  0.793729  1
  Ag  Ag25  1  0.173148  0.895356  0.206271  1
  Ag  Ag26  1  0.931274  0.659532  0.026680  1
  Ag  Ag27  1  0.068726  0.340468  0.973320  1
  Ag  Ag28  1  0.568726  0.840468  0.526680  1
  Ag  Ag29  1  0.159532  0.431274  0.473320  1
  Ag  Ag30  1  0.431274  0.159532  0.473320  1
  Ag  Ag31  1  0.840468  0.568726  0.526680  1
  Ag  Ag32  1  0.340468  0.068726  0.973320  1
  Ag  Ag33  1  0.659532  0.931274  0.026680  1
