# generated using pymatgen
data_Th(Si2Ir3)2
_symmetry_space_group_name_H-M   'P 1'
_cell_length_a   7.06776100
_cell_length_b   7.06776075
_cell_length_c   3.88404300
_cell_angle_alpha   90.00000000
_cell_angle_beta   90.00000000
_cell_angle_gamma   120.00000584
_symmetry_Int_Tables_number   1
_chemical_formula_structural   Th(Si2Ir3)2
_chemical_formula_sum   'Th1 Si4 Ir6'
_cell_volume   168.02671262
_cell_formula_units_Z   1
loop_
 _symmetry_equiv_pos_site_id
 _symmetry_equiv_pos_as_xyz
  1  'x, y, z'
loop_
 _atom_site_type_symbol
 _atom_site_label
 _atom_site_symmetry_multiplicity
 _atom_site_fract_x
 _atom_site_fract_y
 _atom_site_fract_z
 _atom_site_occupancy
  Th  Th0  1  0.000000  0.000000  0.000000  1
  Si  Si1  1  0.666667  0.333333  0.000000  1
  Si  Si2  1  0.200556  0.799444  0.500000  1
  Si  Si3  1  0.200556  0.401114  0.500000  1
  Si  Si4  1  0.598886  0.799444  0.500000  1
  Ir  Ir5  1  0.467647  0.532353  0.000000  1
  Ir  Ir6  1  0.467647  0.935292  0.000000  1
  Ir  Ir7  1  0.064708  0.532353  0.000000  1
  Ir  Ir8  1  0.802311  0.197689  0.500000  1
  Ir  Ir9  1  0.802311  0.604623  0.500000  1
  Ir  Ir10  1  0.395377  0.197689  0.500000  1
