# generated using pymatgen
data_Hf2PtBr12
_symmetry_space_group_name_H-M   'P 1'
_cell_length_a   9.53000419
_cell_length_b   9.53000330
_cell_length_c   7.19423051
_cell_angle_alpha   72.13373604
_cell_angle_beta   72.13374140
_cell_angle_gamma   81.44739690
_symmetry_Int_Tables_number   1
_chemical_formula_structural   Hf2PtBr12
_chemical_formula_sum   'Hf2 Pt1 Br12'
_cell_volume   590.81181838
_cell_formula_units_Z   1
loop_
 _symmetry_equiv_pos_site_id
 _symmetry_equiv_pos_as_xyz
  1  'x, y, z'
loop_
 _atom_site_type_symbol
 _atom_site_label
 _atom_site_symmetry_multiplicity
 _atom_site_fract_x
 _atom_site_fract_y
 _atom_site_fract_z
 _atom_site_occupancy
  Hf  Hf0  1  0.270018  0.270018  0.737125  1
  Hf  Hf1  1  0.729982  0.729982  0.262875  1
  Pt  Pt2  1  0.000000  0.000000  0.000000  1
  Br  Br3  1  0.971782  0.246908  0.755325  1
  Br  Br4  1  0.246908  0.971782  0.755325  1
  Br  Br5  1  0.028218  0.753092  0.244675  1
  Br  Br6  1  0.753092  0.028218  0.244675  1
  Br  Br7  1  0.207820  0.516574  0.799349  1
  Br  Br8  1  0.516574  0.207820  0.799349  1
  Br  Br9  1  0.792180  0.483426  0.200651  1
  Br  Br10  1  0.483426  0.792180  0.200651  1
  Br  Br11  1  0.129448  0.129448  0.149484  1
  Br  Br12  1  0.870552  0.870552  0.850516  1
  Br  Br13  1  0.660010  0.660010  0.640951  1
  Br  Br14  1  0.339990  0.339990  0.359049  1
