# generated using pymatgen
data_Y20Cd3Hg3Os2
_symmetry_space_group_name_H-M   'P 1'
_cell_length_a   9.64380618
_cell_length_b   9.64539052
_cell_length_c   9.84512300
_cell_angle_alpha   90.00000000
_cell_angle_beta   90.00000000
_cell_angle_gamma   120.01674943
_symmetry_Int_Tables_number   1
_chemical_formula_structural   Y20Cd3Hg3Os2
_chemical_formula_sum   'Y20 Cd3 Hg3 Os2'
_cell_volume   792.95171569
_cell_formula_units_Z   1
loop_
 _symmetry_equiv_pos_site_id
 _symmetry_equiv_pos_as_xyz
  1  'x, y, z'
loop_
 _atom_site_type_symbol
 _atom_site_label
 _atom_site_symmetry_multiplicity
 _atom_site_fract_x
 _atom_site_fract_y
 _atom_site_fract_z
 _atom_site_occupancy
  Y  Y0  1  0.999990  0.999992  0.491109  1
  Y  Y1  1  0.999990  0.999992  0.008891  1
  Y  Y2  1  0.209258  0.790740  0.439575  1
  Y  Y3  1  0.209253  0.418516  0.439564  1
  Y  Y4  1  0.581463  0.790735  0.439571  1
  Y  Y5  1  0.790531  0.209460  0.559485  1
  Y  Y6  1  0.790537  0.581079  0.559493  1
  Y  Y7  1  0.418939  0.209468  0.559470  1
  Y  Y8  1  0.790531  0.209460  0.940515  1
  Y  Y9  1  0.790537  0.581079  0.940507  1
  Y  Y10  1  0.418939  0.209468  0.940530  1
  Y  Y11  1  0.209258  0.790740  0.060425  1
  Y  Y12  1  0.209253  0.418516  0.060436  1
  Y  Y13  1  0.581463  0.790735  0.060429  1
  Y  Y14  1  0.540699  0.459305  0.250000  1
  Y  Y15  1  0.540695  0.081390  0.250000  1
  Y  Y16  1  0.918581  0.459293  0.250000  1
  Y  Y17  1  0.459416  0.540610  0.750000  1
  Y  Y18  1  0.459416  0.918810  0.750000  1
  Y  Y19  1  0.081195  0.540599  0.750000  1
  Cd  Cd20  1  0.113125  0.886833  0.750000  1
  Cd  Cd21  1  0.113125  0.226301  0.750000  1
  Cd  Cd22  1  0.773708  0.886858  0.750000  1
  Hg  Hg23  1  0.879897  0.120165  0.250000  1
  Hg  Hg24  1  0.879905  0.759729  0.250000  1
  Hg  Hg25  1  0.240264  0.120123  0.250000  1
  Os  Os26  1  0.333360  0.666683  0.250000  1
  Os  Os27  1  0.666667  0.333326  0.750000  1
