# generated using pymatgen
data_Lu4Tc2OsRu5
_symmetry_space_group_name_H-M   'P 1'
_cell_length_a   5.19618891
_cell_length_b   5.25732206
_cell_length_c   8.90681800
_cell_angle_alpha   90.00000000
_cell_angle_beta   90.00000000
_cell_angle_gamma   119.61741740
_symmetry_Int_Tables_number   1
_chemical_formula_structural   Lu4Tc2OsRu5
_chemical_formula_sum   'Lu4 Tc2 Os1 Ru5'
_cell_volume   211.52617700
_cell_formula_units_Z   1
loop_
 _symmetry_equiv_pos_site_id
 _symmetry_equiv_pos_as_xyz
  1  'x, y, z'
loop_
 _atom_site_type_symbol
 _atom_site_label
 _atom_site_symmetry_multiplicity
 _atom_site_fract_x
 _atom_site_fract_y
 _atom_site_fract_z
 _atom_site_occupancy
  Lu  Lu0  1  0.336604  0.668539  0.433731  1
  Lu  Lu1  1  0.669297  0.333763  0.565740  1
  Lu  Lu2  1  0.669297  0.333763  0.934260  1
  Lu  Lu3  1  0.336604  0.668539  0.066269  1
  Tc  Tc4  1  0.164035  0.827159  0.750000  1
  Tc  Tc5  1  0.331364  0.165930  0.250000  1
  Os  Os6  1  0.163375  0.337147  0.750000  1
  Ru  Ru7  1  0.818565  0.652331  0.250000  1
  Ru  Ru8  1  0.647950  0.825135  0.750000  1
  Ru  Ru9  1  0.022573  0.010220  0.000605  1
  Ru  Ru10  1  0.817760  0.167254  0.250000  1
  Ru  Ru11  1  0.022573  0.010220  0.499395  1
