# generated using pymatgen
data_Tb8Lu9Sc3Si15P
_symmetry_space_group_name_H-M   'P 1'
_cell_length_a   7.22925076
_cell_length_b   7.55285885
_cell_length_c   14.28443300
_cell_angle_alpha   90.00000000
_cell_angle_beta   90.00000000
_cell_angle_gamma   90.21568106
_symmetry_Int_Tables_number   1
_chemical_formula_structural   Tb8Lu9Sc3Si15P
_chemical_formula_sum   'Tb8 Lu9 Sc3 Si15 P1'
_cell_volume   779.94609387
_cell_formula_units_Z   1
loop_
 _symmetry_equiv_pos_site_id
 _symmetry_equiv_pos_as_xyz
  1  'x, y, z'
loop_
 _atom_site_type_symbol
 _atom_site_label
 _atom_site_symmetry_multiplicity
 _atom_site_fract_x
 _atom_site_fract_y
 _atom_site_fract_z
 _atom_site_occupancy
  Tb  Tb0  1  0.012757  0.175622  0.097094  1
  Tb  Tb1  1  0.989684  0.825085  0.898568  1
  Tb  Tb2  1  0.489058  0.676846  0.902856  1
  Tb  Tb3  1  0.989684  0.825085  0.601432  1
  Tb  Tb4  1  0.512525  0.321574  0.096783  1
  Tb  Tb5  1  0.012757  0.175622  0.402906  1
  Tb  Tb6  1  0.512525  0.321574  0.403217  1
  Tb  Tb7  1  0.489058  0.676846  0.597144  1
  Lu  Lu8  1  0.838107  0.491267  0.250000  1
  Lu  Lu9  1  0.325551  0.172178  0.627191  1
  Lu  Lu10  1  0.669067  0.823881  0.376382  1
  Lu  Lu11  1  0.170233  0.678880  0.376427  1
  Lu  Lu12  1  0.669067  0.823881  0.123618  1
  Lu  Lu13  1  0.829268  0.323756  0.626170  1
  Lu  Lu14  1  0.325551  0.172178  0.872809  1
  Lu  Lu15  1  0.829268  0.323756  0.873830  1
  Lu  Lu16  1  0.170233  0.678880  0.123573  1
  Sc  Sc17  1  0.160841  0.508445  0.750000  1
  Sc  Sc18  1  0.338106  0.007703  0.250000  1
  Sc  Sc19  1  0.662764  0.993489  0.750000  1
  Si  Si20  1  0.968628  0.893216  0.250000  1
  Si  Si21  1  0.465694  0.609018  0.250000  1
  Si  Si22  1  0.526251  0.390887  0.750000  1
  Si  Si23  1  0.299971  0.855446  0.750000  1
  Si  Si24  1  0.712866  0.127156  0.250000  1
  Si  Si25  1  0.218946  0.367528  0.250000  1
  Si  Si26  1  0.787413  0.634194  0.750000  1
  Si  Si27  1  0.157404  0.465643  0.540654  1
  Si  Si28  1  0.842254  0.534056  0.462546  1
  Si  Si29  1  0.340435  0.968668  0.460557  1
  Si  Si30  1  0.842254  0.534056  0.037454  1
  Si  Si31  1  0.660383  0.033562  0.541367  1
  Si  Si32  1  0.157404  0.465643  0.959346  1
  Si  Si33  1  0.660383  0.033562  0.958633  1
  Si  Si34  1  0.340435  0.968668  0.039443  1
  P  P35  1  0.023180  0.122150  0.750000  1
