# generated using pymatgen
data_Dy8Zr9Si16W3
_symmetry_space_group_name_H-M   'P 1'
_cell_length_a   7.22882290
_cell_length_b   7.22882335
_cell_length_c   13.26136721
_cell_angle_alpha   89.91824477
_cell_angle_beta   90.08175604
_cell_angle_gamma   89.96452624
_symmetry_Int_Tables_number   1
_chemical_formula_structural   Dy8Zr9Si16W3
_chemical_formula_sum   'Dy8 Zr9 Si16 W3'
_cell_volume   692.98291935
_cell_formula_units_Z   1
loop_
 _symmetry_equiv_pos_site_id
 _symmetry_equiv_pos_as_xyz
  1  'x, y, z'
loop_
 _atom_site_type_symbol
 _atom_site_label
 _atom_site_symmetry_multiplicity
 _atom_site_fract_x
 _atom_site_fract_y
 _atom_site_fract_z
 _atom_site_occupancy
  Dy  Dy0  1  0.996076  0.654207  0.036370  1
  Dy  Dy1  1  0.000610  0.347072  0.535608  1
  Dy  Dy2  1  0.654207  0.996076  0.963630  1
  Dy  Dy3  1  0.151214  0.502508  0.783005  1
  Dy  Dy4  1  0.847554  0.499795  0.287592  1
  Dy  Dy5  1  0.502508  0.151214  0.216995  1
  Dy  Dy6  1  0.499795  0.847554  0.712408  1
  Dy  Dy7  1  0.347072  0.000610  0.464392  1
  Zr  Zr8  1  0.353927  0.506261  0.376260  1
  Zr  Zr9  1  0.854551  0.993399  0.376311  1
  Zr  Zr10  1  0.004585  0.143445  0.126766  1
  Zr  Zr11  1  0.993399  0.854551  0.623689  1
  Zr  Zr12  1  0.506261  0.353927  0.623740  1
  Zr  Zr13  1  0.143445  0.004585  0.873234  1
  Zr  Zr14  1  0.323354  0.323354  0.000000  1
  Zr  Zr15  1  0.495608  0.646925  0.128559  1
  Zr  Zr16  1  0.646925  0.495608  0.871441  1
  Si  Si17  1  0.051882  0.704392  0.434104  1
  Si  Si18  1  0.944507  0.295225  0.931513  1
  Si  Si19  1  0.704392  0.051882  0.565896  1
  Si  Si20  1  0.202403  0.452801  0.187532  1
  Si  Si21  1  0.794879  0.551955  0.681997  1
  Si  Si22  1  0.452801  0.202403  0.812468  1
  Si  Si23  1  0.551955  0.794879  0.318003  1
  Si  Si24  1  0.295225  0.944507  0.068487  1
  Si  Si25  1  0.798446  0.858432  0.185120  1
  Si  Si26  1  0.298698  0.642051  0.566221  1
  Si  Si27  1  0.705551  0.359229  0.066645  1
  Si  Si28  1  0.642051  0.298698  0.433779  1
  Si  Si29  1  0.359229  0.705551  0.933355  1
  Si  Si30  1  0.141381  0.201410  0.316709  1
  Si  Si31  1  0.201410  0.141381  0.683291  1
  Si  Si32  1  0.858432  0.798446  0.814880  1
  W  W33  1  0.677201  0.677201  0.500000  1
  W  W34  1  0.822376  0.176087  0.748135  1
  W  W35  1  0.176087  0.822376  0.251865  1
