# generated using pymatgen
data_Y4Ni15P12Ru5
_symmetry_space_group_name_H-M   'P 1'
_cell_length_a   3.72580000
_cell_length_b   10.58634628
_cell_length_c   11.90098554
_cell_angle_alpha   90.21773900
_cell_angle_beta   90.00000000
_cell_angle_gamma   90.00000000
_symmetry_Int_Tables_number   1
_chemical_formula_structural   Y4Ni15P12Ru5
_chemical_formula_sum   'Y4 Ni15 P12 Ru5'
_cell_volume   469.40252938
_cell_formula_units_Z   1
loop_
 _symmetry_equiv_pos_site_id
 _symmetry_equiv_pos_as_xyz
  1  'x, y, z'
loop_
 _atom_site_type_symbol
 _atom_site_label
 _atom_site_symmetry_multiplicity
 _atom_site_fract_x
 _atom_site_fract_y
 _atom_site_fract_z
 _atom_site_occupancy
  Y  Y0  1  0.250000  0.591873  0.705756  1
  Y  Y1  1  0.250000  0.911188  0.203962  1
  Y  Y2  1  0.750000  0.409098  0.291186  1
  Y  Y3  1  0.750000  0.088683  0.796217  1
  Ni  Ni4  1  0.250000  0.090333  0.988895  1
  Ni  Ni5  1  0.750000  0.594874  0.509718  1
  Ni  Ni6  1  0.750000  0.910970  0.011627  1
  Ni  Ni7  1  0.250000  0.218175  0.181580  1
  Ni  Ni8  1  0.250000  0.275956  0.685653  1
  Ni  Ni9  1  0.750000  0.782190  0.819573  1
  Ni  Ni10  1  0.750000  0.721023  0.315547  1
  Ni  Ni11  1  0.250000  0.888138  0.701651  1
  Ni  Ni12  1  0.250000  0.610261  0.199575  1
  Ni  Ni13  1  0.750000  0.109857  0.298970  1
  Ni  Ni14  1  0.750000  0.392196  0.799420  1
  Ni  Ni15  1  0.250000  0.468751  0.930379  1
  Ni  Ni16  1  0.250000  0.032505  0.430283  1
  Ni  Ni17  1  0.750000  0.532265  0.068344  1
  Ni  Ni18  1  0.750000  0.965568  0.569678  1
  P  P19  1  0.250000  0.412917  0.110850  1
  P  P20  1  0.250000  0.083317  0.612542  1
  P  P21  1  0.750000  0.587182  0.888375  1
  P  P22  1  0.750000  0.914122  0.388294  1
  P  P23  1  0.250000  0.271251  0.875617  1
  P  P24  1  0.250000  0.228106  0.374470  1
  P  P25  1  0.750000  0.729710  0.124021  1
  P  P26  1  0.750000  0.771041  0.626591  1
  P  P27  1  0.250000  0.597332  0.385939  1
  P  P28  1  0.250000  0.904847  0.889231  1
  P  P29  1  0.750000  0.402946  0.613534  1
  P  P30  1  0.750000  0.095744  0.111702  1
  Ru  Ru31  1  0.250000  0.715575  0.987159  1
  Ru  Ru32  1  0.250000  0.785848  0.484192  1
  Ru  Ru33  1  0.750000  0.284625  0.012784  1
  Ru  Ru34  1  0.750000  0.210182  0.514897  1
  Ru  Ru35  1  0.250000  0.411349  0.491783  1
