# generated using pymatgen
data_Cs2Fe3NiAs4
_symmetry_space_group_name_H-M   'P 1'
_cell_length_a   7.99850000
_cell_length_b   8.00007094
_cell_length_c   5.47341900
_cell_angle_alpha   90.00000000
_cell_angle_beta   90.00000000
_cell_angle_gamma   139.89509985
_symmetry_Int_Tables_number   1
_chemical_formula_structural   Cs2Fe3NiAs4
_chemical_formula_sum   'Cs2 Fe3 Ni1 As4'
_cell_volume   225.61834965
_cell_formula_units_Z   1
loop_
 _symmetry_equiv_pos_site_id
 _symmetry_equiv_pos_as_xyz
  1  'x, y, z'
loop_
 _atom_site_type_symbol
 _atom_site_label
 _atom_site_symmetry_multiplicity
 _atom_site_fract_x
 _atom_site_fract_y
 _atom_site_fract_z
 _atom_site_occupancy
  Cs  Cs0  1  0.000000  0.000000  0.002038  1
  Cs  Cs1  1  0.500000  0.500000  0.497887  1
  Fe  Fe2  1  0.500000  0.000000  0.749970  1
  Fe  Fe3  1  0.000000  0.500000  0.749987  1
  Fe  Fe4  1  0.500000  0.000000  0.250055  1
  Ni  Ni5  1  0.000000  0.500000  0.250152  1
  As  As6  1  0.657966  0.329644  0.993905  1
  As  As7  1  0.170404  0.842073  0.506052  1
  As  As8  1  0.829596  0.157927  0.506052  1
  As  As9  1  0.342034  0.670356  0.993905  1
