# generated using pymatgen
data_PrCuSn2Pt
_symmetry_space_group_name_H-M   'P 1'
_cell_length_a   4.48799400
_cell_length_b   4.48799400
_cell_length_c   11.06868800
_cell_angle_alpha   90.00000000
_cell_angle_beta   90.00000000
_cell_angle_gamma   90.00000000
_symmetry_Int_Tables_number   1
_chemical_formula_structural   PrCuSn2Pt
_chemical_formula_sum   'Pr2 Cu2 Sn4 Pt2'
_cell_volume   222.94651147
_cell_formula_units_Z   2
loop_
 _symmetry_equiv_pos_site_id
 _symmetry_equiv_pos_as_xyz
  1  'x, y, z'
loop_
 _atom_site_type_symbol
 _atom_site_label
 _atom_site_symmetry_multiplicity
 _atom_site_fract_x
 _atom_site_fract_y
 _atom_site_fract_z
 _atom_site_occupancy
  Pr  Pr0  1  0.000000  0.500000  0.236457  1
  Pr  Pr1  1  0.500000  0.000000  0.763543  1
  Cu  Cu2  1  0.000000  0.000000  0.000000  1
  Cu  Cu3  1  0.500000  0.500000  0.000000  1
  Sn  Sn4  1  0.000000  0.000000  0.500000  1
  Sn  Sn5  1  0.500000  0.500000  0.500000  1
  Sn  Sn6  1  0.000000  0.500000  0.874651  1
  Sn  Sn7  1  0.500000  0.000000  0.125349  1
  Pt  Pt8  1  0.000000  0.500000  0.636394  1
  Pt  Pt9  1  0.500000  0.000000  0.363606  1
