# generated using pymatgen
data_Nb8AlGeSe16
_symmetry_space_group_name_H-M   'P 1'
_cell_length_a   7.01337000
_cell_length_b   7.01337086
_cell_length_c   13.54348100
_cell_angle_alpha   90.00000000
_cell_angle_beta   90.00000000
_cell_angle_gamma   120.00000538
_symmetry_Int_Tables_number   1
_chemical_formula_structural   Nb8AlGeSe16
_chemical_formula_sum   'Nb8 Al1 Ge1 Se16'
_cell_volume   576.91850139
_cell_formula_units_Z   1
loop_
 _symmetry_equiv_pos_site_id
 _symmetry_equiv_pos_as_xyz
  1  'x, y, z'
loop_
 _atom_site_type_symbol
 _atom_site_label
 _atom_site_symmetry_multiplicity
 _atom_site_fract_x
 _atom_site_fract_y
 _atom_site_fract_z
 _atom_site_occupancy
  Nb  Nb0  1  0.000000  0.000000  0.261231  1
  Nb  Nb1  1  0.000000  0.000000  0.738769  1
  Nb  Nb2  1  0.507354  0.014706  0.261725  1
  Nb  Nb3  1  0.492646  0.985294  0.738275  1
  Nb  Nb4  1  0.985294  0.492646  0.261725  1
  Nb  Nb5  1  0.014706  0.507354  0.738275  1
  Nb  Nb6  1  0.507354  0.492646  0.261725  1
  Nb  Nb7  1  0.492646  0.507354  0.738275  1
  Al  Al8  1  0.000000  0.000000  0.500000  1
  Ge  Ge9  1  0.000000  0.000000  0.000000  1
  Se  Se10  1  0.333333  0.666667  0.612101  1
  Se  Se11  1  0.666667  0.333333  0.387899  1
  Se  Se12  1  0.666667  0.333333  0.134202  1
  Se  Se13  1  0.333333  0.666667  0.865798  1
  Se  Se14  1  0.168378  0.336755  0.139268  1
  Se  Se15  1  0.831622  0.663245  0.860732  1
  Se  Se16  1  0.663245  0.831622  0.139268  1
  Se  Se17  1  0.831741  0.663482  0.615433  1
  Se  Se18  1  0.336755  0.168378  0.860732  1
  Se  Se19  1  0.168259  0.336518  0.384567  1
  Se  Se20  1  0.168378  0.831622  0.139268  1
  Se  Se21  1  0.336518  0.168259  0.615433  1
  Se  Se22  1  0.831622  0.168378  0.860732  1
  Se  Se23  1  0.663482  0.831741  0.384567  1
  Se  Se24  1  0.831741  0.168259  0.615433  1
  Se  Se25  1  0.168259  0.831741  0.384567  1
