# generated using pymatgen
data_YbPa2O6
_symmetry_space_group_name_H-M   'P 1'
_cell_length_a   6.54012151
_cell_length_b   6.54012010
_cell_length_c   6.54012105
_cell_angle_alpha   145.77753828
_cell_angle_beta   131.20905342
_cell_angle_gamma   60.94371569
_symmetry_Int_Tables_number   1
_chemical_formula_structural   YbPa2O6
_chemical_formula_sum   'Yb1 Pa2 O6'
_cell_volume   117.20091563
_cell_formula_units_Z   1
loop_
 _symmetry_equiv_pos_site_id
 _symmetry_equiv_pos_as_xyz
  1  'x, y, z'
loop_
 _atom_site_type_symbol
 _atom_site_label
 _atom_site_symmetry_multiplicity
 _atom_site_fract_x
 _atom_site_fract_y
 _atom_site_fract_z
 _atom_site_occupancy
  Yb  Yb0  1  0.000000  0.000000  0.000000  1
  Pa  Pa1  1  0.663113  0.663113  0.000000  1
  Pa  Pa2  1  0.336887  0.336887  0.000000  1
  O  O3  1  0.568714  0.827022  0.741693  1
  O  O4  1  0.266755  0.500000  0.766755  1
  O  O5  1  0.914671  0.172978  0.741693  1
  O  O6  1  0.085329  0.827022  0.258307  1
  O  O7  1  0.733245  0.500000  0.233245  1
  O  O8  1  0.431286  0.172978  0.258307  1
