# generated using pymatgen
data_Np4MnAl18Pd5
_symmetry_space_group_name_H-M   'P 1'
_cell_length_a   7.62200818
_cell_length_b   7.62204539
_cell_length_c   9.47529516
_cell_angle_alpha   89.80498804
_cell_angle_beta   89.81134565
_cell_angle_gamma   119.15970528
_symmetry_Int_Tables_number   1
_chemical_formula_structural   Np4MnAl18Pd5
_chemical_formula_sum   'Np4 Mn1 Al18 Pd5'
_cell_volume   480.69568947
_cell_formula_units_Z   1
loop_
 _symmetry_equiv_pos_site_id
 _symmetry_equiv_pos_as_xyz
  1  'x, y, z'
loop_
 _atom_site_type_symbol
 _atom_site_label
 _atom_site_symmetry_multiplicity
 _atom_site_fract_x
 _atom_site_fract_y
 _atom_site_fract_z
 _atom_site_occupancy
  Np  Np0  1  0.994564  0.674515  0.243897  1
  Np  Np1  1  0.005428  0.325477  0.756120  1
  Np  Np2  1  0.674559  0.994665  0.243811  1
  Np  Np3  1  0.325459  0.005387  0.756128  1
  Mn  Mn4  1  0.999972  0.000035  0.000004  1
  Al  Al5  1  0.129020  0.129074  0.245731  1
  Al  Al6  1  0.870893  0.870921  0.754267  1
  Al  Al7  1  0.001469  0.330560  0.076527  1
  Al  Al8  1  0.998454  0.669361  0.923500  1
  Al  Al9  1  0.000234  0.663011  0.576254  1
  Al  Al10  1  0.337046  0.999787  0.423740  1
  Al  Al11  1  0.999654  0.336828  0.423731  1
  Al  Al12  1  0.663078  0.000264  0.576176  1
  Al  Al13  1  0.669428  0.998495  0.923572  1
  Al  Al14  1  0.330643  0.001538  0.076492  1
  Al  Al15  1  0.331798  0.331798  0.557538  1
  Al  Al16  1  0.668191  0.668284  0.442437  1
  Al  Al17  1  0.671747  0.671802  0.050424  1
  Al  Al18  1  0.328224  0.328255  0.949593  1
  Al  Al19  1  0.341735  0.549268  0.250307  1
  Al  Al20  1  0.658347  0.450764  0.749716  1
  Al  Al21  1  0.549278  0.341613  0.250310  1
  Al  Al22  1  0.450741  0.658317  0.749698  1
  Pd  Pd23  1  0.671564  0.328424  0.999987  1
  Pd  Pd24  1  0.328444  0.671577  0.000037  1
  Pd  Pd25  1  0.329436  0.670591  0.499978  1
  Pd  Pd26  1  0.670585  0.329400  0.500017  1
  Pd  Pd27  1  0.000008  0.999991  0.500008  1
