# generated using pymatgen
data_Yb2TlIn(Pt2O7)2
_symmetry_space_group_name_H-M   'P 1'
_cell_length_a   7.15248425
_cell_length_b   7.22948869
_cell_length_c   7.22948797
_cell_angle_alpha   60.80872129
_cell_angle_beta   60.62344314
_cell_angle_gamma   60.62345318
_symmetry_Int_Tables_number   1
_chemical_formula_structural   Yb2TlIn(Pt2O7)2
_chemical_formula_sum   'Yb2 Tl1 In1 Pt4 O14'
_cell_volume   268.42302412
_cell_formula_units_Z   1
loop_
 _symmetry_equiv_pos_site_id
 _symmetry_equiv_pos_as_xyz
  1  'x, y, z'
loop_
 _atom_site_type_symbol
 _atom_site_label
 _atom_site_symmetry_multiplicity
 _atom_site_fract_x
 _atom_site_fract_y
 _atom_site_fract_z
 _atom_site_occupancy
  Yb  Yb0  1  0.125000  0.625000  0.125000  1
  Yb  Yb1  1  0.125000  0.125000  0.625000  1
  Tl  Tl2  1  0.125000  0.125000  0.125000  1
  In  In3  1  0.625000  0.125000  0.125000  1
  Pt  Pt4  1  0.625000  0.625000  0.125000  1
  Pt  Pt5  1  0.625000  0.125000  0.625000  1
  Pt  Pt6  1  0.125000  0.625000  0.625000  1
  Pt  Pt7  1  0.625000  0.625000  0.625000  1
  O  O8  1  0.264963  0.239515  0.239515  1
  O  O9  1  0.699779  0.292180  0.292180  1
  O  O10  1  0.703797  0.289974  0.718473  1
  O  O11  1  0.291754  0.707269  0.291985  1
  O  O12  1  0.703797  0.718473  0.289974  1
  O  O13  1  0.291754  0.291985  0.707269  1
  O  O14  1  0.961574  0.537238  0.537238  1
  O  O15  1  0.288426  0.712762  0.712762  1
  O  O16  1  0.958246  0.958015  0.542731  1
  O  O17  1  0.546203  0.960026  0.531527  1
  O  O18  1  0.546203  0.531527  0.960026  1
  O  O19  1  0.958246  0.542731  0.958015  1
  O  O20  1  0.550221  0.957820  0.957820  1
  O  O21  1  0.985037  0.010485  0.010485  1
