# generated using pymatgen
data_Tb4Al18CuRuRh4
_symmetry_space_group_name_H-M   'P 1'
_cell_length_a   7.57221111
_cell_length_b   7.57221111
_cell_length_c   9.47541475
_cell_angle_alpha   90.13666089
_cell_angle_beta   90.13665527
_cell_angle_gamma   119.57567716
_symmetry_Int_Tables_number   1
_chemical_formula_structural   Tb4Al18CuRuRh4
_chemical_formula_sum   'Tb4 Al18 Cu1 Ru1 Rh4'
_cell_volume   472.50946506
_cell_formula_units_Z   1
loop_
 _symmetry_equiv_pos_site_id
 _symmetry_equiv_pos_as_xyz
  1  'x, y, z'
loop_
 _atom_site_type_symbol
 _atom_site_label
 _atom_site_symmetry_multiplicity
 _atom_site_fract_x
 _atom_site_fract_y
 _atom_site_fract_z
 _atom_site_occupancy
  Tb  Tb0  1  0.994813  0.670901  0.249241  1
  Tb  Tb1  1  0.004443  0.328403  0.750535  1
  Tb  Tb2  1  0.671597  0.995557  0.249465  1
  Tb  Tb3  1  0.329099  0.005187  0.750759  1
  Al  Al4  1  0.128762  0.129257  0.251594  1
  Al  Al5  1  0.870743  0.871238  0.748406  1
  Al  Al6  1  0.000244  0.338468  0.076179  1
  Al  Al7  1  0.997549  0.659960  0.924005  1
  Al  Al8  1  0.999811  0.665431  0.574368  1
  Al  Al9  1  0.334569  0.000189  0.425632  1
  Al  Al10  1  0.000462  0.335082  0.425682  1
  Al  Al11  1  0.664918  0.999538  0.574318  1
  Al  Al12  1  0.661532  0.999756  0.923821  1
  Al  Al13  1  0.340040  0.002451  0.075995  1
  Al  Al14  1  0.333350  0.333579  0.549910  1
  Al  Al15  1  0.666421  0.666650  0.450090  1
  Al  Al16  1  0.663945  0.662101  0.050282  1
  Al  Al17  1  0.337899  0.336055  0.949718  1
  Al  Al18  1  0.338336  0.549093  0.250174  1
  Al  Al19  1  0.661159  0.450341  0.750861  1
  Al  Al20  1  0.549659  0.338841  0.249139  1
  Al  Al21  1  0.450907  0.661664  0.749826  1
  Cu  Cu22  1  0.999788  0.000212  0.000000  1
  Ru  Ru23  1  0.672010  0.327990  0.000000  1
  Rh  Rh24  1  0.328278  0.671722  0.000000  1
  Rh  Rh25  1  0.328103  0.671897  0.500000  1
  Rh  Rh26  1  0.671674  0.328326  0.500000  1
  Rh  Rh27  1  0.999890  0.000110  0.500000  1
