# generated using pymatgen
data_Ce4In2CuRh9
_symmetry_space_group_name_H-M   'P 1'
_cell_length_a   5.78313300
_cell_length_b   5.78313107
_cell_length_c   8.55945700
_cell_angle_alpha   90.00000000
_cell_angle_beta   90.00000000
_cell_angle_gamma   97.63903264
_symmetry_Int_Tables_number   1
_chemical_formula_structural   Ce4In2CuRh9
_chemical_formula_sum   'Ce4 In2 Cu1 Rh9'
_cell_volume   283.72718767
_cell_formula_units_Z   1
loop_
 _symmetry_equiv_pos_site_id
 _symmetry_equiv_pos_as_xyz
  1  'x, y, z'
loop_
 _atom_site_type_symbol
 _atom_site_label
 _atom_site_symmetry_multiplicity
 _atom_site_fract_x
 _atom_site_fract_y
 _atom_site_fract_z
 _atom_site_occupancy
  Ce  Ce0  1  0.777530  0.222401  0.503845  1
  Ce  Ce1  1  0.222401  0.777530  0.996155  1
  Ce  Ce2  1  0.222401  0.777530  0.503845  1
  Ce  Ce3  1  0.777530  0.222401  0.996155  1
  In  In4  1  0.499978  0.499978  0.750000  1
  In  In5  1  0.499861  0.499861  0.250000  1
  Cu  Cu6  1  0.000340  0.000340  0.250000  1
  Rh  Rh7  1  0.738227  0.738227  0.002428  1
  Rh  Rh8  1  0.738227  0.738227  0.497572  1
  Rh  Rh9  1  0.261823  0.261823  0.002369  1
  Rh  Rh10  1  0.261823  0.261823  0.497631  1
  Rh  Rh11  1  0.499939  0.999994  0.750000  1
  Rh  Rh12  1  0.500063  0.999989  0.250000  1
  Rh  Rh13  1  0.999876  0.999876  0.750000  1
  Rh  Rh14  1  0.999994  0.499939  0.750000  1
  Rh  Rh15  1  0.999989  0.500063  0.250000  1
