# generated using pymatgen
data_Pr4YRu2
_symmetry_space_group_name_H-M   'P 1'
_cell_length_a   8.87825350
_cell_length_b   8.87825585
_cell_length_c   7.33953052
_cell_angle_alpha   84.31589065
_cell_angle_beta   84.31589540
_cell_angle_gamma   43.99144658
_symmetry_Int_Tables_number   1
_chemical_formula_structural   Pr4YRu2
_chemical_formula_sum   'Pr8 Y2 Ru4'
_cell_volume   399.51735555
_cell_formula_units_Z   2
loop_
 _symmetry_equiv_pos_site_id
 _symmetry_equiv_pos_as_xyz
  1  'x, y, z'
loop_
 _atom_site_type_symbol
 _atom_site_label
 _atom_site_symmetry_multiplicity
 _atom_site_fract_x
 _atom_site_fract_y
 _atom_site_fract_z
 _atom_site_occupancy
  Pr  Pr0  1  0.204837  0.977550  0.584948  1
  Pr  Pr1  1  0.022450  0.795163  0.915052  1
  Pr  Pr2  1  0.208281  0.361540  0.313495  1
  Pr  Pr3  1  0.638460  0.791719  0.186505  1
  Pr  Pr4  1  0.791719  0.638460  0.686505  1
  Pr  Pr5  1  0.361540  0.208281  0.813495  1
  Pr  Pr6  1  0.977550  0.204837  0.084948  1
  Pr  Pr7  1  0.795163  0.022450  0.415052  1
  Y  Y8  1  0.570030  0.429970  0.750000  1
  Y  Y9  1  0.429970  0.570030  0.250000  1
  Ru  Ru10  1  0.183573  0.602074  0.572149  1
  Ru  Ru11  1  0.397926  0.816427  0.927851  1
  Ru  Ru12  1  0.816427  0.397926  0.427851  1
  Ru  Ru13  1  0.602074  0.183573  0.072149  1
