# generated using pymatgen
data_Dy4Pa(B3Os)2
_symmetry_space_group_name_H-M   'P 1'
_cell_length_a   5.51100665
_cell_length_b   5.51100560
_cell_length_c   8.31634143
_cell_angle_alpha   70.65011699
_cell_angle_beta   70.65011646
_cell_angle_gamma   59.99997677
_symmetry_Int_Tables_number   1
_chemical_formula_structural   Dy4Pa(B3Os)2
_chemical_formula_sum   'Dy4 Pa1 B6 Os2'
_cell_volume   202.09586580
_cell_formula_units_Z   1
loop_
 _symmetry_equiv_pos_site_id
 _symmetry_equiv_pos_as_xyz
  1  'x, y, z'
loop_
 _atom_site_type_symbol
 _atom_site_label
 _atom_site_symmetry_multiplicity
 _atom_site_fract_x
 _atom_site_fract_y
 _atom_site_fract_z
 _atom_site_occupancy
  Dy  Dy0  1  0.252496  0.252496  0.242514  1
  Dy  Dy1  1  0.747504  0.747504  0.757486  1
  Dy  Dy2  1  0.414387  0.414387  0.756837  1
  Dy  Dy3  1  0.585613  0.585613  0.243163  1
  Pa  Pa4  1  0.000000  0.000000  0.000000  1
  B  B5  1  0.173772  0.826228  0.500000  1
  B  B6  1  0.826228  0.500000  0.500000  1
  B  B7  1  0.500000  0.173772  0.500000  1
  B  B8  1  0.173772  0.500000  0.500000  1
  B  B9  1  0.500000  0.826228  0.500000  1
  B  B10  1  0.826228  0.173772  0.500000  1
  Os  Os11  1  0.109154  0.109154  0.672540  1
  Os  Os12  1  0.890846  0.890846  0.327460  1
