# generated using pymatgen
data_K3Nd(VSe4)2
_symmetry_space_group_name_H-M   'P 1'
_cell_length_a   9.46490888
_cell_length_b   10.55461528
_cell_length_c   11.28358700
_cell_angle_alpha   107.26311820
_cell_angle_beta   103.21670663
_cell_angle_gamma   114.05372784
_symmetry_Int_Tables_number   1
_chemical_formula_structural   K3Nd(VSe4)2
_chemical_formula_sum   'K6 Nd2 V4 Se16'
_cell_volume   900.51362805
_cell_formula_units_Z   2
loop_
 _symmetry_equiv_pos_site_id
 _symmetry_equiv_pos_as_xyz
  1  'x, y, z'
loop_
 _atom_site_type_symbol
 _atom_site_label
 _atom_site_symmetry_multiplicity
 _atom_site_fract_x
 _atom_site_fract_y
 _atom_site_fract_z
 _atom_site_occupancy
  K  K0  1  0.000002  0.499995  0.999997  1
  K  K1  1  0.500000  0.499990  0.999993  1
  K  K2  1  0.256261  0.006144  0.012350  1
  K  K3  1  0.490148  0.740039  0.480116  1
  K  K4  1  0.509862  0.259944  0.519876  1
  K  K5  1  0.743728  0.993830  0.987637  1
  Nd  Nd6  1  0.991490  0.241503  0.483010  1
  Nd  Nd7  1  0.008521  0.758489  0.516991  1
  V  V8  1  0.744337  0.345482  0.250791  1
  V  V9  1  0.005876  0.905123  0.250646  1
  V  V10  1  0.994110  0.094977  0.749409  1
  V  V11  1  0.255575  0.654473  0.749147  1
  Se  Se12  1  0.642958  0.268656  0.024069  1
  Se  Se13  1  0.881074  0.755285  0.023971  1
  Se  Se14  1  0.138235  0.160687  0.287881  1
  Se  Se15  1  0.649644  0.127279  0.288076  1
  Se  Se16  1  0.033334  0.477024  0.342085  1
  Se  Se17  1  0.808656  0.865171  0.342134  1
  Se  Se18  1  0.204872  0.855851  0.351446  1
  Se  Se19  1  0.646463  0.495742  0.351481  1
  Se  Se20  1  0.353548  0.504260  0.648526  1
  Se  Se21  1  0.795116  0.144138  0.648541  1
  Se  Se22  1  0.191320  0.134818  0.657856  1
  Se  Se23  1  0.966709  0.522978  0.657921  1
  Se  Se24  1  0.350370  0.872717  0.711919  1
  Se  Se25  1  0.861783  0.839331  0.712117  1
  Se  Se26  1  0.118945  0.244724  0.976056  1
  Se  Se27  1  0.357059  0.731344  0.975953  1
