# generated using pymatgen
data_Ba2PrNd(DySe4)2
_symmetry_space_group_name_H-M   'P 1'
_cell_length_a   4.28851800
_cell_length_b   12.95623700
_cell_length_c   15.43219900
_cell_angle_alpha   90.00000000
_cell_angle_beta   90.00000000
_cell_angle_gamma   90.00000000
_symmetry_Int_Tables_number   1
_chemical_formula_structural   Ba2PrNd(DySe4)2
_chemical_formula_sum   'Ba4 Pr2 Nd2 Dy4 Se16'
_cell_volume   857.46013086
_cell_formula_units_Z   2
loop_
 _symmetry_equiv_pos_site_id
 _symmetry_equiv_pos_as_xyz
  1  'x, y, z'
loop_
 _atom_site_type_symbol
 _atom_site_label
 _atom_site_symmetry_multiplicity
 _atom_site_fract_x
 _atom_site_fract_y
 _atom_site_fract_z
 _atom_site_occupancy
  Ba  Ba0  1  0.250000  0.758685  0.339126  1
  Ba  Ba1  1  0.250000  0.258685  0.160874  1
  Ba  Ba2  1  0.750000  0.241341  0.660681  1
  Ba  Ba3  1  0.750000  0.741341  0.839319  1
  Pr  Pr4  1  0.750000  0.571690  0.609826  1
  Pr  Pr5  1  0.750000  0.071690  0.890174  1
  Nd  Nd6  1  0.250000  0.428668  0.389934  1
  Nd  Nd7  1  0.250000  0.928668  0.110066  1
  Dy  Dy8  1  0.250000  0.423950  0.900516  1
  Dy  Dy9  1  0.250000  0.923950  0.599484  1
  Dy  Dy10  1  0.750000  0.576114  0.099583  1
  Dy  Dy11  1  0.750000  0.076114  0.400417  1
  Se  Se12  1  0.250000  0.215540  0.828426  1
  Se  Se13  1  0.250000  0.715540  0.671574  1
  Se  Se14  1  0.750000  0.785355  0.171045  1
  Se  Se15  1  0.750000  0.285355  0.328955  1
  Se  Se16  1  0.250000  0.126452  0.522457  1
  Se  Se17  1  0.250000  0.626452  0.977543  1
  Se  Se18  1  0.750000  0.873435  0.477488  1
  Se  Se19  1  0.750000  0.373435  0.022512  1
  Se  Se20  1  0.250000  0.521552  0.212209  1
  Se  Se21  1  0.250000  0.021552  0.287791  1
  Se  Se22  1  0.750000  0.478206  0.788170  1
  Se  Se23  1  0.750000  0.978206  0.711830  1
  Se  Se24  1  0.250000  0.415027  0.579876  1
  Se  Se25  1  0.250000  0.915027  0.920124  1
  Se  Se26  1  0.750000  0.583984  0.419081  1
  Se  Se27  1  0.750000  0.083984  0.080919  1
