# generated using pymatgen
data_La2Dy(InIr6)3
_symmetry_space_group_name_H-M   'P 1'
_cell_length_a   8.96734250
_cell_length_b   8.96734250
_cell_length_c   5.23751600
_cell_angle_alpha   90.00000000
_cell_angle_beta   90.00000000
_cell_angle_gamma   89.79394231
_symmetry_Int_Tables_number   1
_chemical_formula_structural   La2Dy(InIr6)3
_chemical_formula_sum   'La2 Dy1 In3 Ir18'
_cell_volume   421.16286279
_cell_formula_units_Z   1
loop_
 _symmetry_equiv_pos_site_id
 _symmetry_equiv_pos_as_xyz
  1  'x, y, z'
loop_
 _atom_site_type_symbol
 _atom_site_label
 _atom_site_symmetry_multiplicity
 _atom_site_fract_x
 _atom_site_fract_y
 _atom_site_fract_z
 _atom_site_occupancy
  La  La0  1  0.499248  0.504572  0.000000  1
  La  La1  1  0.004572  0.999248  0.000000  1
  Dy  Dy2  1  0.618645  0.118645  0.000000  1
  In  In3  1  0.377358  0.877358  0.000000  1
  In  In4  1  0.120558  0.378947  0.000000  1
  In  In5  1  0.878947  0.620558  0.000000  1
  Ir  Ir6  1  0.498412  0.998412  0.500000  1
  Ir  Ir7  1  0.002149  0.502149  0.500000  1
  Ir  Ir8  1  0.703663  0.556104  0.500000  1
  Ir  Ir9  1  0.296547  0.441572  0.500000  1
  Ir  Ir10  1  0.203513  0.942414  0.500000  1
  Ir  Ir11  1  0.794049  0.059393  0.500000  1
  Ir  Ir12  1  0.442414  0.703513  0.500000  1
  Ir  Ir13  1  0.559393  0.294049  0.500000  1
  Ir  Ir14  1  0.056104  0.203663  0.500000  1
  Ir  Ir15  1  0.941572  0.796547  0.500000  1
  Ir  Ir16  1  0.822858  0.322858  0.754736  1
  Ir  Ir17  1  0.180051  0.680051  0.756809  1
  Ir  Ir18  1  0.318413  0.180107  0.755448  1
  Ir  Ir19  1  0.680107  0.818413  0.755448  1
  Ir  Ir20  1  0.180051  0.680051  0.243191  1
  Ir  Ir21  1  0.822858  0.322858  0.245264  1
  Ir  Ir22  1  0.680107  0.818413  0.244552  1
  Ir  Ir23  1  0.318413  0.180107  0.244552  1
