# generated using pymatgen
data_TmZr5(Sc2Sb3)2
_symmetry_space_group_name_H-M   'P 1'
_cell_length_a   8.51080941
_cell_length_b   8.61057988
_cell_length_c   5.85647700
_cell_angle_alpha   90.00000000
_cell_angle_beta   90.00000000
_cell_angle_gamma   119.69702855
_symmetry_Int_Tables_number   1
_chemical_formula_structural   TmZr5(Sc2Sb3)2
_chemical_formula_sum   'Tm1 Zr5 Sc4 Sb6'
_cell_volume   372.81049954
_cell_formula_units_Z   1
loop_
 _symmetry_equiv_pos_site_id
 _symmetry_equiv_pos_as_xyz
  1  'x, y, z'
loop_
 _atom_site_type_symbol
 _atom_site_label
 _atom_site_symmetry_multiplicity
 _atom_site_fract_x
 _atom_site_fract_y
 _atom_site_fract_z
 _atom_site_occupancy
  Tm  Tm0  1  0.755788  0.998136  0.250000  1
  Zr  Zr1  1  0.998857  0.738584  0.250000  1
  Zr  Zr2  1  0.666909  0.333498  0.999742  1
  Zr  Zr3  1  0.333654  0.669451  0.999722  1
  Zr  Zr4  1  0.333654  0.669451  0.500278  1
  Zr  Zr5  1  0.666909  0.333498  0.500258  1
  Sc  Sc6  1  0.742900  0.743120  0.750000  1
  Sc  Sc7  1  0.249816  0.999992  0.750000  1
  Sc  Sc8  1  0.999894  0.260174  0.750000  1
  Sc  Sc9  1  0.255959  0.255328  0.250000  1
  Sb  Sb10  1  0.382190  0.383140  0.750000  1
  Sb  Sb11  1  0.616067  0.000698  0.750000  1
  Sb  Sb12  1  0.999721  0.616704  0.750000  1
  Sb  Sb13  1  0.610397  0.608335  0.250000  1
  Sb  Sb14  1  0.383325  0.001633  0.250000  1
  Sb  Sb15  1  0.003959  0.388259  0.250000  1
