# generated using pymatgen
data_Ba2Er3Lu(Si3O10)2
_symmetry_space_group_name_H-M   'P 1'
_cell_length_a   5.42788905
_cell_length_b   12.29563510
_cell_length_c   6.86923841
_cell_angle_alpha   90.06389417
_cell_angle_beta   106.54435541
_cell_angle_gamma   89.93262899
_symmetry_Int_Tables_number   1
_chemical_formula_structural   Ba2Er3Lu(Si3O10)2
_chemical_formula_sum   'Ba2 Er3 Lu1 Si6 O20'
_cell_volume   439.46804984
_cell_formula_units_Z   1
loop_
 _symmetry_equiv_pos_site_id
 _symmetry_equiv_pos_as_xyz
  1  'x, y, z'
loop_
 _atom_site_type_symbol
 _atom_site_label
 _atom_site_symmetry_multiplicity
 _atom_site_fract_x
 _atom_site_fract_y
 _atom_site_fract_z
 _atom_site_occupancy
  Ba  Ba0  1  0.761114  0.250651  0.016660  1
  Ba  Ba1  1  0.239013  0.748970  0.983026  1
  Er  Er2  1  0.844325  0.899312  0.317383  1
  Er  Er3  1  0.155127  0.099686  0.682402  1
  Er  Er4  1  0.155242  0.401301  0.681545  1
  Lu  Lu5  1  0.843528  0.600330  0.317951  1
  Si  Si6  1  0.304688  0.059591  0.213563  1
  Si  Si7  1  0.304894  0.441451  0.213450  1
  Si  Si8  1  0.579202  0.250036  0.488262  1
  Si  Si9  1  0.419792  0.748983  0.511667  1
  Si  Si10  1  0.697088  0.559955  0.788026  1
  Si  Si11  1  0.694764  0.939807  0.785818  1
  O  O12  1  0.160988  0.120380  0.000797  1
  O  O13  1  0.159872  0.381640  0.999752  1
  O  O14  1  0.447221  0.554976  0.194925  1
  O  O15  1  0.440224  0.944249  0.193539  1
  O  O16  1  0.546794  0.142787  0.337864  1
  O  O17  1  0.543913  0.356549  0.336690  1
  O  O18  1  0.102518  0.047751  0.352972  1
  O  O19  1  0.102155  0.455271  0.352501  1
  O  O20  1  0.122570  0.747566  0.365495  1
  O  O21  1  0.632590  0.748316  0.384643  1
  O  O22  1  0.366603  0.250143  0.615037  1
  O  O23  1  0.875961  0.250592  0.634730  1
  O  O24  1  0.896071  0.550197  0.644761  1
  O  O25  1  0.897210  0.951386  0.646558  1
  O  O26  1  0.454847  0.643841  0.666638  1
  O  O27  1  0.452149  0.857077  0.660165  1
  O  O28  1  0.559775  0.055173  0.806364  1
  O  O29  1  0.560707  0.444557  0.804847  1
  O  O30  1  0.841158  0.618572  0.003382  1
  O  O31  1  0.837897  0.878904  0.998596  1
