# generated using pymatgen
data_Tb16Ga6TcIr
_symmetry_space_group_name_H-M   'P 1'
_cell_length_a   10.10960900
_cell_length_b   10.10960993
_cell_length_c   7.07668700
_cell_angle_alpha   90.00000000
_cell_angle_beta   90.00000000
_cell_angle_gamma   120.00000023
_symmetry_Int_Tables_number   1
_chemical_formula_structural   Tb16Ga6TcIr
_chemical_formula_sum   'Tb16 Ga6 Tc1 Ir1'
_cell_volume   626.36773143
_cell_formula_units_Z   1
loop_
 _symmetry_equiv_pos_site_id
 _symmetry_equiv_pos_as_xyz
  1  'x, y, z'
loop_
 _atom_site_type_symbol
 _atom_site_label
 _atom_site_symmetry_multiplicity
 _atom_site_fract_x
 _atom_site_fract_y
 _atom_site_fract_z
 _atom_site_occupancy
  Tb  Tb0  1  0.830601  0.661205  0.487803  1
  Tb  Tb1  1  0.338795  0.169399  0.487803  1
  Tb  Tb2  1  0.830601  0.169399  0.487803  1
  Tb  Tb3  1  0.170775  0.341548  0.988975  1
  Tb  Tb4  1  0.658452  0.829225  0.988975  1
  Tb  Tb5  1  0.170775  0.829225  0.988975  1
  Tb  Tb6  1  0.666667  0.333333  0.163007  1
  Tb  Tb7  1  0.333333  0.666667  0.663503  1
  Tb  Tb8  1  0.536294  0.072586  0.794206  1
  Tb  Tb9  1  0.927414  0.463706  0.794206  1
  Tb  Tb10  1  0.536294  0.463706  0.794206  1
  Tb  Tb11  1  0.465401  0.930803  0.296587  1
  Tb  Tb12  1  0.069197  0.534599  0.296587  1
  Tb  Tb13  1  0.465401  0.534599  0.296587  1
  Tb  Tb14  1  0.000000  0.000000  0.764718  1
  Tb  Tb15  1  0.000000  0.000000  0.265045  1
  Ga  Ga16  1  0.836030  0.672059  0.043098  1
  Ga  Ga17  1  0.327941  0.163970  0.043098  1
  Ga  Ga18  1  0.836030  0.163970  0.043098  1
  Ga  Ga19  1  0.165027  0.330053  0.545334  1
  Ga  Ga20  1  0.669947  0.834973  0.545334  1
  Ga  Ga21  1  0.165027  0.834973  0.545334  1
  Tc  Tc22  1  0.666667  0.333333  0.546555  1
  Ir  Ir23  1  0.333333  0.666667  0.055229  1
