# generated using pymatgen
data_Sm7Lu(SiBr6)2
_symmetry_space_group_name_H-M   'P 1'
_cell_length_a   4.13807400
_cell_length_b   13.45336440
_cell_length_c   14.27718394
_cell_angle_alpha   89.61838467
_cell_angle_beta   90.00000000
_cell_angle_gamma   90.00000000
_symmetry_Int_Tables_number   1
_chemical_formula_structural   Sm7Lu(SiBr6)2
_chemical_formula_sum   'Sm7 Lu1 Si2 Br12'
_cell_volume   794.80772622
_cell_formula_units_Z   1
loop_
 _symmetry_equiv_pos_site_id
 _symmetry_equiv_pos_as_xyz
  1  'x, y, z'
loop_
 _atom_site_type_symbol
 _atom_site_label
 _atom_site_symmetry_multiplicity
 _atom_site_fract_x
 _atom_site_fract_y
 _atom_site_fract_z
 _atom_site_occupancy
  Sm  Sm0  1  0.500000  0.119746  0.339546  1
  Sm  Sm1  1  0.500000  0.881146  0.659462  1
  Sm  Sm2  1  0.500000  0.617185  0.159817  1
  Sm  Sm3  1  0.500000  0.380457  0.841683  1
  Sm  Sm4  1  0.000000  0.119091  0.578326  1
  Sm  Sm5  1  0.000000  0.881213  0.420924  1
  Sm  Sm6  1  0.000000  0.616402  0.922708  1
  Lu  Lu7  1  0.000000  0.384608  0.076494  1
  Si  Si8  1  0.500000  0.000437  0.499207  1
  Si  Si9  1  0.500000  0.496399  0.002371  1
  Br  Br10  1  0.500000  0.255477  0.158394  1
  Br  Br11  1  0.500000  0.754233  0.837783  1
  Br  Br12  1  0.500000  0.743192  0.336366  1
  Br  Br13  1  0.500000  0.255750  0.664415  1
  Br  Br14  1  0.000000  0.256620  0.410660  1
  Br  Br15  1  0.000000  0.743833  0.588689  1
  Br  Br16  1  0.000000  0.754887  0.088088  1
  Br  Br17  1  0.000000  0.245987  0.919941  1
  Br  Br18  1  0.000000  0.002945  0.241962  1
  Br  Br19  1  0.000000  0.998280  0.757029  1
  Br  Br20  1  0.000000  0.493555  0.252153  1
  Br  Br21  1  0.000000  0.498555  0.743982  1
