# generated using pymatgen
data_NaSm6CoCl12
_symmetry_space_group_name_H-M   'P 1'
_cell_length_a   9.17241231
_cell_length_b   8.96235208
_cell_length_c   8.95374594
_cell_angle_alpha   106.30477275
_cell_angle_beta   107.46348691
_cell_angle_gamma   107.11082794
_symmetry_Int_Tables_number   1
_chemical_formula_structural   NaSm6CoCl12
_chemical_formula_sum   'Na1 Sm6 Co1 Cl12'
_cell_volume   613.61549541
_cell_formula_units_Z   1
loop_
 _symmetry_equiv_pos_site_id
 _symmetry_equiv_pos_as_xyz
  1  'x, y, z'
loop_
 _atom_site_type_symbol
 _atom_site_label
 _atom_site_symmetry_multiplicity
 _atom_site_fract_x
 _atom_site_fract_y
 _atom_site_fract_z
 _atom_site_occupancy
  Na  Na0  1  0.500000  0.500000  0.500000  1
  Sm  Sm1  1  0.113392  0.315015  0.023453  1
  Sm  Sm2  1  0.328599  0.025242  0.123880  1
  Sm  Sm3  1  0.025241  0.113841  0.314942  1
  Sm  Sm4  1  0.974760  0.886159  0.685059  1
  Sm  Sm5  1  0.671401  0.974759  0.876120  1
  Sm  Sm6  1  0.886608  0.684985  0.976547  1
  Co  Co7  1  0.000000  0.000000  0.000000  1
  Cl  Cl8  1  0.208362  0.680174  0.073756  1
  Cl  Cl9  1  0.445402  0.359120  0.153720  1
  Cl  Cl10  1  0.685001  0.073976  0.207791  1
  Cl  Cl11  1  0.928963  0.789573  0.319669  1
  Cl  Cl12  1  0.157585  0.450365  0.362301  1
  Cl  Cl13  1  0.359924  0.152493  0.453561  1
  Cl  Cl14  1  0.640076  0.847507  0.546440  1
  Cl  Cl15  1  0.842416  0.549635  0.637699  1
  Cl  Cl16  1  0.071038  0.210427  0.680332  1
  Cl  Cl17  1  0.315000  0.926025  0.792209  1
  Cl  Cl18  1  0.554598  0.640880  0.846281  1
  Cl  Cl19  1  0.791638  0.319826  0.926244  1
