# generated using pymatgen
data_Cs12K5Rb(AlSb4)2
_symmetry_space_group_name_H-M   'P 1'
_cell_length_a   11.14614000
_cell_length_b   11.21968129
_cell_length_c   11.79445300
_cell_angle_alpha   90.00000000
_cell_angle_beta   90.00000000
_cell_angle_gamma   119.78340914
_symmetry_Int_Tables_number   1
_chemical_formula_structural   Cs12K5Rb(AlSb4)2
_chemical_formula_sum   'Cs12 K5 Rb1 Al2 Sb8'
_cell_volume   1280.13912751
_cell_formula_units_Z   1
loop_
 _symmetry_equiv_pos_site_id
 _symmetry_equiv_pos_as_xyz
  1  'x, y, z'
loop_
 _atom_site_type_symbol
 _atom_site_label
 _atom_site_symmetry_multiplicity
 _atom_site_fract_x
 _atom_site_fract_y
 _atom_site_fract_z
 _atom_site_occupancy
  Cs  Cs0  1  0.208860  0.417719  0.542482  1
  Cs  Cs1  1  0.791152  0.208831  0.042553  1
  Cs  Cs2  1  0.417677  0.208831  0.042553  1
  Cs  Cs3  1  0.581849  0.791272  0.542027  1
  Cs  Cs4  1  0.209424  0.791272  0.542027  1
  Cs  Cs5  1  0.790797  0.581596  0.456477  1
  Cs  Cs6  1  0.791152  0.208831  0.457447  1
  Cs  Cs7  1  0.790797  0.581596  0.043523  1
  Cs  Cs8  1  0.417677  0.208831  0.457447  1
  Cs  Cs9  1  0.581849  0.791272  0.957973  1
  Cs  Cs10  1  0.208860  0.417719  0.957518  1
  Cs  Cs11  1  0.209424  0.791272  0.957973  1
  K  K12  1  0.119397  0.238792  0.250000  1
  K  K13  1  0.880835  0.120184  0.750000  1
  K  K14  1  0.239347  0.120184  0.750000  1
  K  K15  1  0.761593  0.880958  0.250000  1
  K  K16  1  0.119367  0.880958  0.250000  1
  Rb  Rb17  1  0.881438  0.762877  0.750000  1
  Al  Al18  1  0.333573  0.667146  0.250000  1
  Al  Al19  1  0.666363  0.332724  0.750000  1
  Sb  Sb20  1  0.472336  0.528503  0.250000  1
  Sb  Sb21  1  0.944062  0.468043  0.750000  1
  Sb  Sb22  1  0.528247  0.056494  0.750000  1
  Sb  Sb23  1  0.471526  0.943052  0.250000  1
  Sb  Sb24  1  0.056167  0.528503  0.250000  1
  Sb  Sb25  1  0.523982  0.468043  0.750000  1
  Sb  Sb26  1  0.001124  0.002249  0.002367  1
  Sb  Sb27  1  0.001124  0.002249  0.497633  1
