# generated using pymatgen
data_DyTm3(MoN3)4
_symmetry_space_group_name_H-M   'P 1'
_cell_length_a   7.29212054
_cell_length_b   7.29212024
_cell_length_c   6.23421335
_cell_angle_alpha   73.31720584
_cell_angle_beta   73.31719970
_cell_angle_gamma   80.97025355
_symmetry_Int_Tables_number   1
_chemical_formula_structural   DyTm3(MoN3)4
_chemical_formula_sum   'Dy1 Tm3 Mo4 N12'
_cell_volume   303.17962165
_cell_formula_units_Z   1
loop_
 _symmetry_equiv_pos_site_id
 _symmetry_equiv_pos_as_xyz
  1  'x, y, z'
loop_
 _atom_site_type_symbol
 _atom_site_label
 _atom_site_symmetry_multiplicity
 _atom_site_fract_x
 _atom_site_fract_y
 _atom_site_fract_z
 _atom_site_occupancy
  Dy  Dy0  1  0.292198  0.707802  0.750000  1
  Tm  Tm1  1  0.912862  0.087138  0.750000  1
  Tm  Tm2  1  0.709109  0.290891  0.250000  1
  Tm  Tm3  1  0.085441  0.914559  0.250000  1
  Mo  Mo4  1  0.801049  0.618437  0.772969  1
  Mo  Mo5  1  0.198719  0.380514  0.228830  1
  Mo  Mo6  1  0.619486  0.801281  0.271170  1
  Mo  Mo7  1  0.381563  0.198951  0.727031  1
  N  N8  1  0.216525  0.000963  0.848199  1
  N  N9  1  0.370753  0.346238  0.428103  1
  N  N10  1  0.632673  0.653778  0.569120  1
  N  N11  1  0.627378  0.108695  0.661835  1
  N  N12  1  0.999037  0.783475  0.651801  1
  N  N13  1  0.781560  0.002212  0.152045  1
  N  N14  1  0.109056  0.626486  0.165550  1
  N  N15  1  0.891305  0.372622  0.838165  1
  N  N16  1  0.997788  0.218440  0.347955  1
  N  N17  1  0.346222  0.367327  0.930880  1
  N  N18  1  0.653762  0.629247  0.071897  1
  N  N19  1  0.373514  0.890944  0.334450  1
