# generated using pymatgen
data_Ce20Si15Pt
_symmetry_space_group_name_H-M   'P 1'
_cell_length_a   7.60423500
_cell_length_b   7.93668266
_cell_length_c   15.04764200
_cell_angle_alpha   90.00000000
_cell_angle_beta   90.00000000
_cell_angle_gamma   90.09819437
_symmetry_Int_Tables_number   1
_chemical_formula_structural   Ce20Si15Pt
_chemical_formula_sum   'Ce20 Si15 Pt1'
_cell_volume   908.15997585
_cell_formula_units_Z   1
loop_
 _symmetry_equiv_pos_site_id
 _symmetry_equiv_pos_as_xyz
  1  'x, y, z'
loop_
 _atom_site_type_symbol
 _atom_site_label
 _atom_site_symmetry_multiplicity
 _atom_site_fract_x
 _atom_site_fract_y
 _atom_site_fract_z
 _atom_site_occupancy
  Ce  Ce0  1  0.679144  0.178824  0.624241  1
  Ce  Ce1  1  0.186137  0.319947  0.874088  1
  Ce  Ce2  1  0.319774  0.817004  0.123969  1
  Ce  Ce3  1  0.820370  0.682612  0.376671  1
  Ce  Ce4  1  0.319774  0.817004  0.376031  1
  Ce  Ce5  1  0.820370  0.682612  0.123329  1
  Ce  Ce6  1  0.679144  0.178824  0.875759  1
  Ce  Ce7  1  0.186137  0.319947  0.625912  1
  Ce  Ce8  1  0.522871  0.683894  0.597157  1
  Ce  Ce9  1  0.025028  0.819517  0.900952  1
  Ce  Ce10  1  0.471292  0.314978  0.101282  1
  Ce  Ce11  1  0.972690  0.182442  0.399691  1
  Ce  Ce12  1  0.471292  0.314978  0.398718  1
  Ce  Ce13  1  0.972690  0.182442  0.100309  1
  Ce  Ce14  1  0.522871  0.683894  0.902843  1
  Ce  Ce15  1  0.025028  0.819517  0.599048  1
  Ce  Ce16  1  0.853273  0.500663  0.750000  1
  Ce  Ce17  1  0.359453  0.992963  0.750000  1
  Ce  Ce18  1  0.141141  0.499311  0.250000  1
  Ce  Ce19  1  0.642633  0.998349  0.250000  1
  Si  Si20  1  0.642907  0.975236  0.460021  1
  Si  Si21  1  0.144857  0.524138  0.038269  1
  Si  Si22  1  0.355946  0.026431  0.961210  1
  Si  Si23  1  0.858802  0.471612  0.539537  1
  Si  Si24  1  0.355946  0.026431  0.538790  1
  Si  Si25  1  0.858802  0.471612  0.960463  1
  Si  Si26  1  0.642907  0.975236  0.039979  1
  Si  Si27  1  0.144857  0.524138  0.461731  1
  Si  Si28  1  0.976317  0.095592  0.750000  1
  Si  Si29  1  0.525916  0.591944  0.250000  1
  Si  Si30  1  0.025722  0.906281  0.250000  1
  Si  Si31  1  0.743758  0.873742  0.750000  1
  Si  Si32  1  0.231408  0.635214  0.750000  1
  Si  Si33  1  0.259875  0.126081  0.250000  1
  Si  Si34  1  0.759794  0.373531  0.250000  1
  Pt  Pt35  1  0.481076  0.413064  0.750000  1
