# generated using pymatgen
data_Tb3(SnRu)2
_symmetry_space_group_name_H-M   'P 1'
_cell_length_a   5.74253100
_cell_length_b   8.23550000
_cell_length_c   13.92848800
_cell_angle_alpha   90.00000000
_cell_angle_beta   90.00000000
_cell_angle_gamma   90.00000000
_symmetry_Int_Tables_number   1
_chemical_formula_structural   Tb3(SnRu)2
_chemical_formula_sum   'Tb12 Sn8 Ru8'
_cell_volume   658.71460729
_cell_formula_units_Z   4
loop_
 _symmetry_equiv_pos_site_id
 _symmetry_equiv_pos_as_xyz
  1  'x, y, z'
loop_
 _atom_site_type_symbol
 _atom_site_label
 _atom_site_symmetry_multiplicity
 _atom_site_fract_x
 _atom_site_fract_y
 _atom_site_fract_z
 _atom_site_occupancy
  Tb  Tb0  1  0.838110  0.906199  0.592552  1
  Tb  Tb1  1  0.161890  0.406199  0.907448  1
  Tb  Tb2  1  0.838110  0.593801  0.092552  1
  Tb  Tb3  1  0.620212  0.282559  0.750000  1
  Tb  Tb4  1  0.620212  0.217441  0.250000  1
  Tb  Tb5  1  0.838110  0.593801  0.407448  1
  Tb  Tb6  1  0.379788  0.717441  0.250000  1
  Tb  Tb7  1  0.161890  0.093801  0.092552  1
  Tb  Tb8  1  0.161890  0.093801  0.407448  1
  Tb  Tb9  1  0.379788  0.782559  0.750000  1
  Tb  Tb10  1  0.161890  0.406199  0.592552  1
  Tb  Tb11  1  0.838110  0.906199  0.907448  1
  Sn  Sn12  1  0.355164  0.750000  0.500000  1
  Sn  Sn13  1  0.355164  0.750000  0.000000  1
  Sn  Sn14  1  0.111210  0.120860  0.750000  1
  Sn  Sn15  1  0.644836  0.250000  0.500000  1
  Sn  Sn16  1  0.111210  0.379140  0.250000  1
  Sn  Sn17  1  0.888790  0.879140  0.250000  1
  Sn  Sn18  1  0.888790  0.620860  0.750000  1
  Sn  Sn19  1  0.644836  0.250000  0.000000  1
  Ru  Ru20  1  0.350956  0.036694  0.908372  1
  Ru  Ru21  1  0.350956  0.463306  0.091628  1
  Ru  Ru22  1  0.649044  0.963306  0.091628  1
  Ru  Ru23  1  0.649044  0.536694  0.908372  1
  Ru  Ru24  1  0.649044  0.963306  0.408372  1
  Ru  Ru25  1  0.649044  0.536694  0.591628  1
  Ru  Ru26  1  0.350956  0.463306  0.408372  1
  Ru  Ru27  1  0.350956  0.036694  0.591628  1
