# generated using pymatgen
data_Y8Al3Ir
_symmetry_space_group_name_H-M   'P 1'
_cell_length_a   10.26250300
_cell_length_b   10.26250212
_cell_length_c   6.99703400
_cell_angle_alpha   90.00000000
_cell_angle_beta   90.00000000
_cell_angle_gamma   120.00000606
_symmetry_Int_Tables_number   1
_chemical_formula_structural   Y8Al3Ir
_chemical_formula_sum   'Y16 Al6 Ir2'
_cell_volume   638.19169219
_cell_formula_units_Z   2
loop_
 _symmetry_equiv_pos_site_id
 _symmetry_equiv_pos_as_xyz
  1  'x, y, z'
loop_
 _atom_site_type_symbol
 _atom_site_label
 _atom_site_symmetry_multiplicity
 _atom_site_fract_x
 _atom_site_fract_y
 _atom_site_fract_z
 _atom_site_occupancy
  Y  Y0  1  0.173103  0.826897  0.996083  1
  Y  Y1  1  0.346205  0.173103  0.496083  1
  Y  Y2  1  0.826897  0.653795  0.496083  1
  Y  Y3  1  0.173103  0.346205  0.996083  1
  Y  Y4  1  0.653795  0.826897  0.996083  1
  Y  Y5  1  0.826897  0.173103  0.496083  1
  Y  Y6  1  0.333333  0.666667  0.662421  1
  Y  Y7  1  0.666667  0.333333  0.162421  1
  Y  Y8  1  0.467571  0.532429  0.290211  1
  Y  Y9  1  0.935140  0.467571  0.790211  1
  Y  Y10  1  0.532429  0.064860  0.790211  1
  Y  Y11  1  0.467571  0.935140  0.290211  1
  Y  Y12  1  0.064860  0.532429  0.290211  1
  Y  Y13  1  0.532429  0.467571  0.790211  1
  Y  Y14  1  0.000000  0.000000  0.271703  1
  Y  Y15  1  0.000000  0.000000  0.771703  1
  Al  Al16  1  0.163123  0.836877  0.535685  1
  Al  Al17  1  0.326246  0.163123  0.035685  1
  Al  Al18  1  0.836877  0.673754  0.035685  1
  Al  Al19  1  0.163123  0.326246  0.535685  1
  Al  Al20  1  0.673754  0.836877  0.535685  1
  Al  Al21  1  0.836877  0.163123  0.035685  1
  Ir  Ir22  1  0.333333  0.666667  0.061940  1
  Ir  Ir23  1  0.666667  0.333333  0.561940  1
