# generated using pymatgen
data_Tb3Dy(NiB10)2
_symmetry_space_group_name_H-M   'P 1'
_cell_length_a   4.14878200
_cell_length_b   5.55956100
_cell_length_c   11.10711400
_cell_angle_alpha   89.99912354
_cell_angle_beta   90.00000000
_cell_angle_gamma   90.00000000
_symmetry_Int_Tables_number   1
_chemical_formula_structural   Tb3Dy(NiB10)2
_chemical_formula_sum   'Tb3 Dy1 Ni2 B20'
_cell_volume   256.19010060
_cell_formula_units_Z   1
loop_
 _symmetry_equiv_pos_site_id
 _symmetry_equiv_pos_as_xyz
  1  'x, y, z'
loop_
 _atom_site_type_symbol
 _atom_site_label
 _atom_site_symmetry_multiplicity
 _atom_site_fract_x
 _atom_site_fract_y
 _atom_site_fract_z
 _atom_site_occupancy
  Tb  Tb0  1  0.500000  0.813758  0.637382  1
  Tb  Tb1  1  0.500000  0.313694  0.862393  1
  Tb  Tb2  1  0.500000  0.686028  0.137542  1
  Dy  Dy3  1  0.500000  0.185811  0.362395  1
  Ni  Ni4  1  0.000000  0.000183  0.000521  1
  Ni  Ni5  1  0.000000  0.499795  0.499694  1
  B  B6  1  0.000000  0.374432  0.041302  1
  B  B7  1  0.000000  0.625800  0.959134  1
  B  B8  1  0.000000  0.125752  0.540664  1
  B  B9  1  0.000000  0.874391  0.458741  1
  B  B10  1  0.000000  0.341428  0.198706  1
  B  B11  1  0.000000  0.658328  0.801639  1
  B  B12  1  0.000000  0.158231  0.698185  1
  B  B13  1  0.000000  0.841378  0.301471  1
  B  B14  1  0.000000  0.030260  0.186813  1
  B  B15  1  0.000000  0.969876  0.813365  1
  B  B16  1  0.000000  0.469745  0.686535  1
  B  B17  1  0.000000  0.530028  0.313422  1
  B  B18  1  0.301453  0.201907  0.114922  1
  B  B19  1  0.698635  0.798439  0.885557  1
  B  B20  1  0.301365  0.798439  0.885557  1
  B  B21  1  0.698594  0.298232  0.614264  1
  B  B22  1  0.698547  0.201907  0.114922  1
  B  B23  1  0.301471  0.701961  0.385305  1
  B  B24  1  0.698529  0.701961  0.385305  1
  B  B25  1  0.301406  0.298232  0.614264  1
