# generated using pymatgen
data_Y4Ho6(GaBi)3
_symmetry_space_group_name_H-M   'P 1'
_cell_length_a   8.83256200
_cell_length_b   8.87003225
_cell_length_c   6.53656200
_cell_angle_alpha   90.00000000
_cell_angle_beta   90.00000000
_cell_angle_gamma   119.86036469
_symmetry_Int_Tables_number   1
_chemical_formula_structural   Y4Ho6(GaBi)3
_chemical_formula_sum   'Y4 Ho6 Ga3 Bi3'
_cell_volume   444.12095978
_cell_formula_units_Z   1
loop_
 _symmetry_equiv_pos_site_id
 _symmetry_equiv_pos_as_xyz
  1  'x, y, z'
loop_
 _atom_site_type_symbol
 _atom_site_label
 _atom_site_symmetry_multiplicity
 _atom_site_fract_x
 _atom_site_fract_y
 _atom_site_fract_z
 _atom_site_occupancy
  Y  Y0  1  0.233698  0.000000  0.250000  1
  Y  Y1  1  0.017233  0.250747  0.250000  1
  Y  Y2  1  0.766485  0.749253  0.250000  1
  Y  Y3  1  0.754438  0.000000  0.750000  1
  Ho  Ho4  1  0.324010  0.667836  0.004812  1
  Ho  Ho5  1  0.656175  0.332164  0.495188  1
  Ho  Ho6  1  0.656175  0.332164  0.004812  1
  Ho  Ho7  1  0.324010  0.667836  0.495188  1
  Ho  Ho8  1  0.243448  0.226887  0.750000  1
  Ho  Ho9  1  0.016561  0.773113  0.750000  1
  Ga  Ga10  1  0.998460  0.601625  0.250000  1
  Ga  Ga11  1  0.396835  0.398375  0.250000  1
  Ga  Ga12  1  0.399787  0.000000  0.750000  1
  Bi  Bi13  1  0.611646  0.000000  0.250000  1
  Bi  Bi14  1  0.604656  0.608273  0.750000  1
  Bi  Bi15  1  0.996382  0.391727  0.750000  1
