# generated using pymatgen
data_Tb4DyHo11(CdNi)4
_symmetry_space_group_name_H-M   'P 1'
_cell_length_a   9.54199744
_cell_length_b   9.54199708
_cell_length_c   9.53782600
_cell_angle_alpha   60.01445905
_cell_angle_beta   60.01446029
_cell_angle_gamma   60.01674530
_symmetry_Int_Tables_number   1
_chemical_formula_structural   Tb4DyHo11(CdNi)4
_chemical_formula_sum   'Tb4 Dy1 Ho11 Cd4 Ni4'
_cell_volume   614.27495849
_cell_formula_units_Z   1
loop_
 _symmetry_equiv_pos_site_id
 _symmetry_equiv_pos_as_xyz
  1  'x, y, z'
loop_
 _atom_site_type_symbol
 _atom_site_label
 _atom_site_symmetry_multiplicity
 _atom_site_fract_x
 _atom_site_fract_y
 _atom_site_fract_z
 _atom_site_occupancy
  Tb  Tb0  1  0.598913  0.598913  0.598588  1
  Tb  Tb1  1  0.598913  0.598913  0.203587  1
  Tb  Tb2  1  0.599738  0.202075  0.599094  1
  Tb  Tb3  1  0.202075  0.599738  0.599094  1
  Dy  Dy4  1  0.186015  0.186015  0.813985  1
  Ho  Ho5  1  0.062189  0.438003  0.438064  1
  Ho  Ho6  1  0.438003  0.062189  0.061744  1
  Ho  Ho7  1  0.438003  0.062189  0.438064  1
  Ho  Ho8  1  0.062189  0.438003  0.061744  1
  Ho  Ho9  1  0.438395  0.438395  0.061605  1
  Ho  Ho10  1  0.062324  0.062324  0.437676  1
  Ho  Ho11  1  0.185955  0.813864  0.814480  1
  Ho  Ho12  1  0.813864  0.185955  0.185701  1
  Ho  Ho13  1  0.813864  0.185955  0.814480  1
  Ho  Ho14  1  0.185955  0.813864  0.185701  1
  Ho  Ho15  1  0.814571  0.814571  0.185429  1
  Cd  Cd16  1  0.831300  0.831300  0.831580  1
  Cd  Cd17  1  0.831300  0.831300  0.505821  1
  Cd  Cd18  1  0.831197  0.505434  0.831685  1
  Cd  Cd19  1  0.505434  0.831197  0.831685  1
  Ni  Ni20  1  0.392158  0.392158  0.392492  1
  Ni  Ni21  1  0.392158  0.392158  0.823192  1
  Ni  Ni22  1  0.391818  0.823671  0.392255  1
  Ni  Ni23  1  0.823671  0.391818  0.392255  1
