# generated using pymatgen
data_CaSm(Ga2Ag)2
_symmetry_space_group_name_H-M   'P 1'
_cell_length_a   4.41267100
_cell_length_b   7.04342499
_cell_length_c   10.46598445
_cell_angle_alpha   89.35345701
_cell_angle_beta   90.00000000
_cell_angle_gamma   90.00000000
_symmetry_Int_Tables_number   1
_chemical_formula_structural   CaSm(Ga2Ag)2
_chemical_formula_sum   'Ca2 Sm2 Ga8 Ag4'
_cell_volume   325.26540630
_cell_formula_units_Z   2
loop_
 _symmetry_equiv_pos_site_id
 _symmetry_equiv_pos_as_xyz
  1  'x, y, z'
loop_
 _atom_site_type_symbol
 _atom_site_label
 _atom_site_symmetry_multiplicity
 _atom_site_fract_x
 _atom_site_fract_y
 _atom_site_fract_z
 _atom_site_occupancy
  Ca  Ca0  1  0.250000  0.777609  0.827750  1
  Ca  Ca1  1  0.750000  0.222391  0.172250  1
  Sm  Sm2  1  0.750000  0.720597  0.329170  1
  Sm  Sm3  1  0.250000  0.279403  0.670830  1
  Ga  Ga4  1  0.250000  0.926020  0.152499  1
  Ga  Ga5  1  0.750000  0.073980  0.847501  1
  Ga  Ga6  1  0.750000  0.574523  0.650479  1
  Ga  Ga7  1  0.250000  0.425477  0.349521  1
  Ga  Ga8  1  0.250000  0.704046  0.536158  1
  Ga  Ga9  1  0.750000  0.295954  0.463842  1
  Ga  Ga10  1  0.750000  0.798005  0.035646  1
  Ga  Ga11  1  0.250000  0.201995  0.964354  1
  Ag  Ag12  1  0.250000  0.542586  0.098017  1
  Ag  Ag13  1  0.750000  0.457414  0.901983  1
  Ag  Ag14  1  0.750000  0.956252  0.597766  1
  Ag  Ag15  1  0.250000  0.043748  0.402234  1
