# generated using pymatgen
data_DyZn2Pt2Au
_symmetry_space_group_name_H-M   'P 1'
_cell_length_a   5.25514439
_cell_length_b   5.23591547
_cell_length_c   5.23591572
_cell_angle_alpha   63.96710187
_cell_angle_beta   59.87843927
_cell_angle_gamma   59.87842808
_symmetry_Int_Tables_number   1
_chemical_formula_structural   DyZn2Pt2Au
_chemical_formula_sum   'Dy1 Zn2 Pt2 Au1'
_cell_volume   104.36360549
_cell_formula_units_Z   1
loop_
 _symmetry_equiv_pos_site_id
 _symmetry_equiv_pos_as_xyz
  1  'x, y, z'
loop_
 _atom_site_type_symbol
 _atom_site_label
 _atom_site_symmetry_multiplicity
 _atom_site_fract_x
 _atom_site_fract_y
 _atom_site_fract_z
 _atom_site_occupancy
  Dy  Dy0  1  0.990270  0.009730  0.009730  1
  Zn  Zn1  1  0.132034  0.617282  0.617282  1
  Zn  Zn2  1  0.633402  0.617282  0.617282  1
  Pt  Pt3  1  0.628436  0.623015  0.120113  1
  Pt  Pt4  1  0.628436  0.120113  0.623015  1
  Au  Au5  1  0.237421  0.262579  0.262579  1
