# generated using pymatgen
data_Pr5NdHg10
_symmetry_space_group_name_H-M   'P 1'
_cell_length_a   6.57138400
_cell_length_b   6.57138472
_cell_length_c   10.65464100
_cell_angle_alpha   90.00000000
_cell_angle_beta   90.00000000
_cell_angle_gamma   105.90574596
_symmetry_Int_Tables_number   1
_chemical_formula_structural   Pr5NdHg10
_chemical_formula_sum   'Pr5 Nd1 Hg10'
_cell_volume   442.48486676
_cell_formula_units_Z   1
loop_
 _symmetry_equiv_pos_site_id
 _symmetry_equiv_pos_as_xyz
  1  'x, y, z'
loop_
 _atom_site_type_symbol
 _atom_site_label
 _atom_site_symmetry_multiplicity
 _atom_site_fract_x
 _atom_site_fract_y
 _atom_site_fract_z
 _atom_site_occupancy
  Pr  Pr0  1  0.590240  0.590240  0.250000  1
  Pr  Pr1  1  0.203467  0.796570  0.500057  1
  Pr  Pr2  1  0.203467  0.796570  0.999943  1
  Pr  Pr3  1  0.796570  0.203467  0.500057  1
  Pr  Pr4  1  0.796570  0.203467  0.999943  1
  Nd  Nd5  1  0.409615  0.409615  0.750000  1
  Hg  Hg6  1  0.997573  0.997572  0.250000  1
  Hg  Hg7  1  0.002809  0.002808  0.750000  1
  Hg  Hg8  1  0.302880  0.302880  0.033676  1
  Hg  Hg9  1  0.697002  0.697002  0.965716  1
  Hg  Hg10  1  0.302880  0.302880  0.466324  1
  Hg  Hg11  1  0.697002  0.697002  0.534284  1
  Hg  Hg12  1  0.486848  0.050348  0.250000  1
  Hg  Hg13  1  0.949728  0.513001  0.750000  1
  Hg  Hg14  1  0.513001  0.949728  0.750000  1
  Hg  Hg15  1  0.050348  0.486848  0.250000  1
