# generated using pymatgen
data_Eu2AlCrH10
_symmetry_space_group_name_H-M   'P 1'
_cell_length_a   4.43085800
_cell_length_b   4.84999900
_cell_length_c   11.99612200
_cell_angle_alpha   95.23563653
_cell_angle_beta   90.00000000
_cell_angle_gamma   90.00000000
_symmetry_Int_Tables_number   1
_chemical_formula_structural   Eu2AlCrH10
_chemical_formula_sum   'Eu4 Al2 Cr2 H20'
_cell_volume   256.71699230
_cell_formula_units_Z   2
loop_
 _symmetry_equiv_pos_site_id
 _symmetry_equiv_pos_as_xyz
  1  'x, y, z'
loop_
 _atom_site_type_symbol
 _atom_site_label
 _atom_site_symmetry_multiplicity
 _atom_site_fract_x
 _atom_site_fract_y
 _atom_site_fract_z
 _atom_site_occupancy
  Eu  Eu0  1  0.283614  0.173729  0.665053  1
  Eu  Eu1  1  0.783614  0.326271  0.334947  1
  Eu  Eu2  1  0.236780  0.782721  0.145653  1
  Eu  Eu3  1  0.736780  0.717279  0.854347  1
  Al  Al4  1  0.184251  0.855859  0.412161  1
  Al  Al5  1  0.684251  0.644141  0.587839  1
  Cr  Cr6  1  0.281802  0.234176  0.935376  1
  Cr  Cr7  1  0.781802  0.265824  0.064624  1
  H  H8  1  0.516308  0.379182  0.510359  1
  H  H9  1  0.016308  0.120818  0.489641  1
  H  H10  1  0.018735  0.478948  0.994155  1
  H  H11  1  0.518735  0.021052  0.005845  1
  H  H12  1  0.201940  0.970981  0.837391  1
  H  H13  1  0.701940  0.529019  0.162609  1
  H  H14  1  0.323900  0.072563  0.319319  1
  H  H15  1  0.823900  0.427437  0.680681  1
  H  H16  1  0.197424  0.448454  0.836656  1
  H  H17  1  0.697424  0.051546  0.163344  1
  H  H18  1  0.307909  0.568567  0.330965  1
  H  H19  1  0.807909  0.931433  0.669035  1
  H  H20  1  0.567955  0.214325  0.842490  1
  H  H21  1  0.067955  0.285675  0.157510  1
  H  H22  1  0.873223  0.827890  0.321363  1
  H  H23  1  0.373223  0.672110  0.678637  1
  H  H24  1  0.017494  0.018473  0.994782  1
  H  H25  1  0.517494  0.481527  0.005218  1
  H  H26  1  0.488664  0.882259  0.505976  1
  H  H27  1  0.988664  0.617741  0.494024  1
