# generated using pymatgen
data_Zr3AlZn2Ni3
_symmetry_space_group_name_H-M   'P 1'
_cell_length_a   6.85154500
_cell_length_b   6.93165375
_cell_length_c   3.47730000
_cell_angle_alpha   90.00000000
_cell_angle_beta   90.00000000
_cell_angle_gamma   119.61841578
_symmetry_Int_Tables_number   1
_chemical_formula_structural   Zr3AlZn2Ni3
_chemical_formula_sum   'Zr3 Al1 Zn2 Ni3'
_cell_volume   143.56721042
_cell_formula_units_Z   1
loop_
 _symmetry_equiv_pos_site_id
 _symmetry_equiv_pos_as_xyz
  1  'x, y, z'
loop_
 _atom_site_type_symbol
 _atom_site_label
 _atom_site_symmetry_multiplicity
 _atom_site_fract_x
 _atom_site_fract_y
 _atom_site_fract_z
 _atom_site_occupancy
  Zr  Zr0  1  0.002368  0.411864  0.500000  1
  Zr  Zr1  1  0.590504  0.588136  0.500000  1
  Zr  Zr2  1  0.401711  0.000000  0.500000  1
  Al  Al3  1  0.750925  0.000000  0.000000  1
  Zn  Zn4  1  0.995838  0.740410  0.000000  1
  Zn  Zn5  1  0.255429  0.259590  0.000000  1
  Ni  Ni6  1  0.995566  0.000000  0.500000  1
  Ni  Ni7  1  0.340389  0.673120  0.000000  1
  Ni  Ni8  1  0.667270  0.326880  0.000000  1
