# generated using pymatgen
data_Nd8Mn3MoN12
_symmetry_space_group_name_H-M   'P 1'
_cell_length_a   6.11038337
_cell_length_b   6.11110397
_cell_length_c   11.90936341
_cell_angle_alpha   88.32187528
_cell_angle_beta   88.00946045
_cell_angle_gamma   128.22896299
_symmetry_Int_Tables_number   1
_chemical_formula_structural   Nd8Mn3MoN12
_chemical_formula_sum   'Nd8 Mn3 Mo1 N12'
_cell_volume   348.39732246
_cell_formula_units_Z   1
loop_
 _symmetry_equiv_pos_site_id
 _symmetry_equiv_pos_as_xyz
  1  'x, y, z'
loop_
 _atom_site_type_symbol
 _atom_site_label
 _atom_site_symmetry_multiplicity
 _atom_site_fract_x
 _atom_site_fract_y
 _atom_site_fract_z
 _atom_site_occupancy
  Nd  Nd0  1  0.563323  0.974088  0.849093  1
  Nd  Nd1  1  0.029760  0.430192  0.649546  1
  Nd  Nd2  1  0.419897  0.025543  0.150579  1
  Nd  Nd3  1  0.976957  0.561505  0.361289  1
  Nd  Nd4  1  0.346012  0.132623  0.569557  1
  Nd  Nd5  1  0.869905  0.654678  0.919360  1
  Nd  Nd6  1  0.656573  0.867281  0.433021  1
  Nd  Nd7  1  0.127609  0.345705  0.063807  1
  Mn  Mn8  1  0.717559  0.720885  0.675526  1
  Mn  Mn9  1  0.288578  0.291596  0.824832  1
  Mn  Mn10  1  0.313196  0.302945  0.328824  1
  Mo  Mo11  1  0.715357  0.709350  0.172876  1
  N  N12  1  0.616229  0.381663  0.746279  1
  N  N13  1  0.368851  0.625070  0.248697  1
  N  N14  1  0.529134  0.869163  0.634173  1
  N  N15  1  0.116323  0.469834  0.868607  1
  N  N16  1  0.475103  0.118284  0.373723  1
  N  N17  1  0.865139  0.517520  0.125224  1
  N  N18  1  0.660981  0.852667  0.035890  1
  N  N19  1  0.149030  0.341797  0.466696  1
  N  N20  1  0.337144  0.146395  0.959038  1
  N  N21  1  0.857566  0.664522  0.543594  1
  N  N22  1  0.992563  0.999744  0.749133  1
  N  N23  1  0.007213  0.996951  0.250635  1
