# generated using pymatgen
data_Sc10Sn6Se
_symmetry_space_group_name_H-M   'P 1'
_cell_length_a   6.12034200
_cell_length_b   8.58202799
_cell_length_c   8.58205100
_cell_angle_alpha   119.99974975
_cell_angle_beta   89.99996539
_cell_angle_gamma   89.99964726
_symmetry_Int_Tables_number   1
_chemical_formula_structural   Sc10Sn6Se
_chemical_formula_sum   'Sc10 Sn6 Se1'
_cell_volume   390.38078729
_cell_formula_units_Z   1
loop_
 _symmetry_equiv_pos_site_id
 _symmetry_equiv_pos_as_xyz
  1  'x, y, z'
loop_
 _atom_site_type_symbol
 _atom_site_label
 _atom_site_symmetry_multiplicity
 _atom_site_fract_x
 _atom_site_fract_y
 _atom_site_fract_z
 _atom_site_occupancy
  Sc  Sc0  1  0.499998  0.333332  0.666668  1
  Sc  Sc1  1  0.500007  0.666663  0.333337  1
  Sc  Sc2  1  0.999998  0.666667  0.333335  1
  Sc  Sc3  1  0.000001  0.333336  0.666673  1
  Sc  Sc4  1  0.756516  0.250426  0.999999  1
  Sc  Sc5  1  0.756506  0.749569  0.749568  1
  Sc  Sc6  1  0.756505  0.999996  0.250429  1
  Sc  Sc7  1  0.243487  0.749572  0.000000  1
  Sc  Sc8  1  0.243495  0.250433  0.250431  1
  Sc  Sc9  1  0.243488  0.000004  0.749570  1
  Sn  Sn10  1  0.750766  0.606859  0.000015  1
  Sn  Sn11  1  0.750765  0.393150  0.393140  1
  Sn  Sn12  1  0.750765  0.999987  0.606846  1
  Sn  Sn13  1  0.249242  0.393154  0.000011  1
  Sn  Sn14  1  0.249235  0.606862  0.606844  1
  Sn  Sn15  1  0.249229  0.999990  0.393139  1
  Se  Se16  1  0.499998  0.000001  0.999998  1
