# generated using pymatgen
data_TbEr2Ta2Bi3O14
_symmetry_space_group_name_H-M   'P 1'
_cell_length_a   6.42870910
_cell_length_b   6.71935685
_cell_length_c   7.62345389
_cell_angle_alpha   106.69898076
_cell_angle_beta   89.51519028
_cell_angle_gamma   98.17622753
_symmetry_Int_Tables_number   1
_chemical_formula_structural   TbEr2Ta2Bi3O14
_chemical_formula_sum   'Tb1 Er2 Ta2 Bi3 O14'
_cell_volume   312.03244030
_cell_formula_units_Z   1
loop_
 _symmetry_equiv_pos_site_id
 _symmetry_equiv_pos_as_xyz
  1  'x, y, z'
loop_
 _atom_site_type_symbol
 _atom_site_label
 _atom_site_symmetry_multiplicity
 _atom_site_fract_x
 _atom_site_fract_y
 _atom_site_fract_z
 _atom_site_occupancy
  Tb  Tb0  1  0.548817  0.994412  0.755152  1
  Er  Er1  1  0.453559  0.003217  0.250424  1
  Er  Er2  1  0.252946  0.537461  0.883106  1
  Ta  Ta3  1  0.004548  0.009580  0.502193  1
  Ta  Ta4  1  0.006473  0.008005  0.000502  1
  Bi  Bi5  1  0.744842  0.489112  0.116216  1
  Bi  Bi6  1  0.724352  0.452870  0.610775  1
  Bi  Bi7  1  0.263838  0.539896  0.391943  1
  O  O8  1  0.444146  0.653455  0.165900  1
  O  O9  1  0.538999  0.344310  0.822662  1
  O  O10  1  0.295405  0.921945  0.952956  1
  O  O11  1  0.712881  0.039164  0.054744  1
  O  O12  1  0.290322  0.922591  0.512513  1
  O  O13  1  0.711482  0.080702  0.485368  1
  O  O14  1  0.521927  0.349449  0.346914  1
  O  O15  1  0.454600  0.643752  0.659818  1
  O  O16  1  0.937334  0.678626  0.955480  1
  O  O17  1  0.091887  0.304410  0.026271  1
  O  O18  1  0.094505  0.311581  0.626593  1
  O  O19  1  0.898227  0.706428  0.378213  1
  O  O20  1  0.911982  0.952319  0.738162  1
  O  O21  1  0.096928  0.056717  0.264093  1
