# generated using pymatgen
data_YbTh7(TlPt2)4
_symmetry_space_group_name_H-M   'P 1'
_cell_length_a   8.05815800
_cell_length_b   8.05815882
_cell_length_c   7.57006900
_cell_angle_alpha   90.00000000
_cell_angle_beta   90.00000000
_cell_angle_gamma   90.22260215
_symmetry_Int_Tables_number   1
_chemical_formula_structural   YbTh7(TlPt2)4
_chemical_formula_sum   'Yb1 Th7 Tl4 Pt8'
_cell_volume   491.55052176
_cell_formula_units_Z   1
loop_
 _symmetry_equiv_pos_site_id
 _symmetry_equiv_pos_as_xyz
  1  'x, y, z'
loop_
 _atom_site_type_symbol
 _atom_site_label
 _atom_site_symmetry_multiplicity
 _atom_site_fract_x
 _atom_site_fract_y
 _atom_site_fract_z
 _atom_site_occupancy
  Yb  Yb0  1  0.167361  0.832639  0.000000  1
  Th  Th1  1  0.674566  0.677207  0.000000  1
  Th  Th2  1  0.331496  0.332348  0.500000  1
  Th  Th3  1  0.825630  0.174370  0.500000  1
  Th  Th4  1  0.667652  0.668504  0.500000  1
  Th  Th5  1  0.322793  0.325434  0.000000  1
  Th  Th6  1  0.176482  0.823518  0.500000  1
  Th  Th7  1  0.835824  0.164176  0.000000  1
  Tl  Tl8  1  0.494375  0.997994  0.753945  1
  Tl  Tl9  1  0.494375  0.997994  0.246055  1
  Tl  Tl10  1  0.002006  0.505625  0.753945  1
  Tl  Tl11  1  0.002006  0.505625  0.246055  1
  Pt  Pt12  1  0.869147  0.872911  0.739391  1
  Pt  Pt13  1  0.127089  0.130853  0.739391  1
  Pt  Pt14  1  0.631313  0.368687  0.759233  1
  Pt  Pt15  1  0.631313  0.368687  0.240767  1
  Pt  Pt16  1  0.375168  0.624832  0.243716  1
  Pt  Pt17  1  0.127089  0.130853  0.260609  1
  Pt  Pt18  1  0.869147  0.872911  0.260609  1
  Pt  Pt19  1  0.375168  0.624832  0.756284  1
