# generated using pymatgen
data_Hf3Mn3Si2As
_symmetry_space_group_name_H-M   'P 1'
_cell_length_a   6.70456900
_cell_length_b   6.70456832
_cell_length_c   3.43445000
_cell_angle_alpha   90.00000000
_cell_angle_beta   90.00000000
_cell_angle_gamma   120.00000830
_symmetry_Int_Tables_number   1
_chemical_formula_structural   Hf3Mn3Si2As
_chemical_formula_sum   'Hf3 Mn3 Si2 As1'
_cell_volume   133.69940630
_cell_formula_units_Z   1
loop_
 _symmetry_equiv_pos_site_id
 _symmetry_equiv_pos_as_xyz
  1  'x, y, z'
loop_
 _atom_site_type_symbol
 _atom_site_label
 _atom_site_symmetry_multiplicity
 _atom_site_fract_x
 _atom_site_fract_y
 _atom_site_fract_z
 _atom_site_occupancy
  Hf  Hf0  1  0.398479  0.404750  0.500000  1
  Hf  Hf1  1  0.595250  0.993729  0.500000  1
  Hf  Hf2  1  0.006271  0.601521  0.500000  1
  Mn  Mn3  1  0.006469  0.250517  0.000000  1
  Mn  Mn4  1  0.244048  0.993531  0.000000  1
  Mn  Mn5  1  0.749483  0.755952  0.000000  1
  Si  Si6  1  0.000000  0.000000  0.500000  1
  Si  Si7  1  0.333333  0.666667  0.000000  1
  As  As8  1  0.666667  0.333333  0.000000  1
