# generated using pymatgen
data_Y3Ho3Co2(P3Ir4)4
_symmetry_space_group_name_H-M   'P 1'
_cell_length_a   3.92733700
_cell_length_b   11.08971101
_cell_length_c   12.77492401
_cell_angle_alpha   90.00405252
_cell_angle_beta   90.00000000
_cell_angle_gamma   90.00000000
_symmetry_Int_Tables_number   1
_chemical_formula_structural   Y3Ho3Co2(P3Ir4)4
_chemical_formula_sum   'Y3 Ho3 Co2 P12 Ir16'
_cell_volume   556.38667728
_cell_formula_units_Z   1
loop_
 _symmetry_equiv_pos_site_id
 _symmetry_equiv_pos_as_xyz
  1  'x, y, z'
loop_
 _atom_site_type_symbol
 _atom_site_label
 _atom_site_symmetry_multiplicity
 _atom_site_fract_x
 _atom_site_fract_y
 _atom_site_fract_z
 _atom_site_occupancy
  Y  Y0  1  0.000000  0.500000  0.522414  1
  Y  Y1  1  0.500000  0.000000  0.477568  1
  Y  Y2  1  0.000000  0.316005  0.799577  1
  Ho  Ho3  1  0.500000  0.815888  0.200472  1
  Ho  Ho4  1  0.500000  0.184099  0.200477  1
  Ho  Ho5  1  0.000000  0.684149  0.799530  1
  Co  Co6  1  0.000000  0.500151  0.977245  1
  Co  Co7  1  0.500000  0.999967  0.022927  1
  P  P8  1  0.500000  0.500245  0.880384  1
  P  P9  1  0.000000  0.999982  0.119668  1
  P  P10  1  0.500000  0.499998  0.357925  1
  P  P11  1  0.000000  0.000037  0.642093  1
  P  P12  1  0.500000  0.315625  0.619268  1
  P  P13  1  0.500000  0.684450  0.619472  1
  P  P14  1  0.000000  0.184414  0.380516  1
  P  P15  1  0.000000  0.815578  0.380527  1
  P  P16  1  0.500000  0.851870  0.896501  1
  P  P17  1  0.500000  0.147842  0.896604  1
  P  P18  1  0.000000  0.648122  0.103511  1
  P  P19  1  0.000000  0.351864  0.103502  1
  Ir  Ir20  1  0.500000  0.500011  0.177836  1
  Ir  Ir21  1  0.000000  0.999927  0.822210  1
  Ir  Ir22  1  0.500000  0.500355  0.702684  1
  Ir  Ir23  1  0.000000  0.999997  0.297136  1
  Ir  Ir24  1  0.500000  0.339058  0.998104  1
  Ir  Ir25  1  0.500000  0.661013  0.997912  1
  Ir  Ir26  1  0.000000  0.160847  0.002283  1
  Ir  Ir27  1  0.000000  0.839025  0.002113  1
  Ir  Ir28  1  0.500000  0.292813  0.429180  1
  Ir  Ir29  1  0.500000  0.707201  0.429197  1
  Ir  Ir30  1  0.000000  0.207090  0.570641  1
  Ir  Ir31  1  0.000000  0.792831  0.570789  1
  Ir  Ir32  1  0.500000  0.870045  0.714854  1
  Ir  Ir33  1  0.500000  0.129499  0.714624  1
  Ir  Ir34  1  0.000000  0.629930  0.285131  1
  Ir  Ir35  1  0.000000  0.370072  0.285124  1
