# generated using pymatgen
data_La16Cd3HgIr3Ru
_symmetry_space_group_name_H-M   'P 1'
_cell_length_a   10.12623243
_cell_length_b   10.11376419
_cell_length_c   10.11444536
_cell_angle_alpha   60.00222477
_cell_angle_beta   60.01166936
_cell_angle_gamma   60.04072346
_symmetry_Int_Tables_number   1
_chemical_formula_structural   La16Cd3HgIr3Ru
_chemical_formula_sum   'La16 Cd3 Hg1 Ir3 Ru1'
_cell_volume   732.76866696
_cell_formula_units_Z   1
loop_
 _symmetry_equiv_pos_site_id
 _symmetry_equiv_pos_as_xyz
  1  'x, y, z'
loop_
 _atom_site_type_symbol
 _atom_site_label
 _atom_site_symmetry_multiplicity
 _atom_site_fract_x
 _atom_site_fract_y
 _atom_site_fract_z
 _atom_site_occupancy
  La  La0  1  0.902033  0.903532  0.904275  1
  La  La1  1  0.442939  0.437455  0.059974  1
  La  La2  1  0.060337  0.058596  0.440605  1
  La  La3  1  0.442939  0.059631  0.059974  1
  La  La4  1  0.309756  0.690747  0.308750  1
  La  La5  1  0.689565  0.690578  0.308523  1
  La  La6  1  0.689565  0.311333  0.308523  1
  La  La7  1  0.293275  0.902112  0.902503  1
  La  La8  1  0.902033  0.290160  0.904275  1
  La  La9  1  0.309140  0.689962  0.690110  1
  La  La10  1  0.902146  0.903673  0.290508  1
  La  La11  1  0.059652  0.440928  0.058492  1
  La  La12  1  0.309140  0.310788  0.690110  1
  La  La13  1  0.060337  0.440463  0.440605  1
  La  La14  1  0.442255  0.060475  0.436794  1
  La  La15  1  0.688892  0.310607  0.689893  1
  Cd  Cd16  1  0.988163  0.670812  0.670211  1
  Cd  Cd17  1  0.671292  0.987404  0.670375  1
  Cd  Cd18  1  0.671292  0.670929  0.670375  1
  Hg  Hg19  1  0.668703  0.668520  0.994257  1
  Ir  Ir20  1  0.110039  0.109037  0.671886  1
  Ir  Ir21  1  0.110334  0.109188  0.108706  1
  Ir  Ir22  1  0.110334  0.671772  0.108706  1
  Ru  Ru23  1  0.665839  0.111296  0.111567  1
