# generated using pymatgen
data_KBa6Cu3Te14
_symmetry_space_group_name_H-M   'P 1'
_cell_length_a   14.32841400
_cell_length_b   14.32841305
_cell_length_c   9.13561600
_cell_angle_alpha   90.00000000
_cell_angle_beta   90.00000000
_cell_angle_gamma   119.99999758
_symmetry_Int_Tables_number   1
_chemical_formula_structural   KBa6Cu3Te14
_chemical_formula_sum   'K2 Ba12 Cu6 Te28'
_cell_volume   1624.29419684
_cell_formula_units_Z   2
loop_
 _symmetry_equiv_pos_site_id
 _symmetry_equiv_pos_as_xyz
  1  'x, y, z'
loop_
 _atom_site_type_symbol
 _atom_site_label
 _atom_site_symmetry_multiplicity
 _atom_site_fract_x
 _atom_site_fract_y
 _atom_site_fract_z
 _atom_site_occupancy
  K  K0  1  0.000000  0.000000  0.500000  1
  K  K1  1  0.000000  0.000000  0.000000  1
  Ba  Ba2  1  0.243808  0.792135  0.250000  1
  Ba  Ba3  1  0.451672  0.243808  0.750000  1
  Ba  Ba4  1  0.548328  0.792135  0.750000  1
  Ba  Ba5  1  0.792135  0.548328  0.750000  1
  Ba  Ba6  1  0.756192  0.548328  0.250000  1
  Ba  Ba7  1  0.243808  0.451672  0.750000  1
  Ba  Ba8  1  0.792135  0.243808  0.250000  1
  Ba  Ba9  1  0.756192  0.207865  0.750000  1
  Ba  Ba10  1  0.207865  0.451672  0.250000  1
  Ba  Ba11  1  0.207865  0.756192  0.750000  1
  Ba  Ba12  1  0.548328  0.756192  0.250000  1
  Ba  Ba13  1  0.451672  0.207865  0.250000  1
  Cu  Cu14  1  0.806948  0.000000  0.250000  1
  Cu  Cu15  1  0.806948  0.806948  0.750000  1
  Cu  Cu16  1  0.000000  0.806948  0.250000  1
  Cu  Cu17  1  0.193052  0.000000  0.750000  1
  Cu  Cu18  1  0.193052  0.193052  0.250000  1
  Cu  Cu19  1  0.000000  0.193052  0.750000  1
  Te  Te20  1  0.175839  0.000000  0.250000  1
  Te  Te21  1  0.333333  0.666667  0.000000  1
  Te  Te22  1  0.000000  0.317757  0.525816  1
  Te  Te23  1  0.824161  0.000000  0.750000  1
  Te  Te24  1  0.682243  0.682243  0.974184  1
  Te  Te25  1  0.317757  0.000000  0.974184  1
  Te  Te26  1  0.000000  0.175839  0.250000  1
  Te  Te27  1  0.000000  0.682243  0.474184  1
  Te  Te28  1  0.000000  0.682243  0.025816  1
  Te  Te29  1  0.000000  0.465691  0.750000  1
  Te  Te30  1  0.317757  0.317757  0.025816  1
  Te  Te31  1  0.824161  0.824161  0.250000  1
  Te  Te32  1  0.465691  0.000000  0.750000  1
  Te  Te33  1  0.682243  0.000000  0.025816  1
  Te  Te34  1  0.666667  0.333333  0.500000  1
  Te  Te35  1  0.666667  0.333333  0.000000  1
  Te  Te36  1  0.682243  0.000000  0.474184  1
  Te  Te37  1  0.534309  0.534309  0.750000  1
  Te  Te38  1  0.465691  0.465691  0.250000  1
  Te  Te39  1  0.317757  0.000000  0.525816  1
  Te  Te40  1  0.682243  0.682243  0.525816  1
  Te  Te41  1  0.000000  0.317757  0.974184  1
  Te  Te42  1  0.333333  0.666667  0.500000  1
  Te  Te43  1  0.317757  0.317757  0.474184  1
  Te  Te44  1  0.000000  0.534309  0.250000  1
  Te  Te45  1  0.534309  0.000000  0.250000  1
  Te  Te46  1  0.000000  0.824161  0.750000  1
  Te  Te47  1  0.175839  0.175839  0.750000  1
