# generated using pymatgen
data_Cs4KTl(ReH9)3
_symmetry_space_group_name_H-M   'P 1'
_cell_length_a   10.04536701
_cell_length_b   10.24176414
_cell_length_c   6.05959100
_cell_angle_alpha   90.00000000
_cell_angle_beta   90.00000000
_cell_angle_gamma   120.43310875
_symmetry_Int_Tables_number   1
_chemical_formula_structural   Cs4KTl(ReH9)3
_chemical_formula_sum   'Cs4 K1 Tl1 Re3 H27'
_cell_volume   537.52979518
_cell_formula_units_Z   1
loop_
 _symmetry_equiv_pos_site_id
 _symmetry_equiv_pos_as_xyz
  1  'x, y, z'
loop_
 _atom_site_type_symbol
 _atom_site_label
 _atom_site_symmetry_multiplicity
 _atom_site_fract_x
 _atom_site_fract_y
 _atom_site_fract_z
 _atom_site_occupancy
  Cs  Cs0  1  0.999318  0.255990  0.500000  1
  Cs  Cs1  1  0.999111  0.592320  0.000000  1
  Cs  Cs2  1  0.413669  0.413789  0.000000  1
  Cs  Cs3  1  0.588127  0.999655  0.000000  1
  K  K4  1  0.260206  0.996467  0.500000  1
  Tl  Tl5  1  0.736034  0.733273  0.500000  1
  Re  Re6  1  0.658832  0.335622  0.500000  1
  Re  Re7  1  0.341069  0.676529  0.500000  1
  Re  Re8  1  0.001475  0.990115  0.000000  1
  H  H9  1  0.759694  0.311920  0.707777  1
  H  H10  1  0.687392  0.466255  0.700531  1
  H  H11  1  0.527240  0.228881  0.700086  1
  H  H12  1  0.240163  0.552376  0.292392  1
  H  H13  1  0.527240  0.228881  0.299914  1
  H  H14  1  0.759694  0.311920  0.292223  1
  H  H15  1  0.687392  0.466255  0.299469  1
  H  H16  1  0.312297  0.779126  0.698985  1
  H  H17  1  0.472411  0.701837  0.701916  1
  H  H18  1  0.169321  0.988845  0.000000  1
  H  H19  1  0.833923  0.822529  0.000000  1
  H  H20  1  0.000187  0.154348  0.000000  1
  H  H21  1  0.877727  0.986691  0.197178  1
  H  H22  1  0.123721  0.109876  0.801117  1
  H  H23  1  0.000642  0.873765  0.796197  1
  H  H24  1  0.000642  0.873765  0.203803  1
  H  H25  1  0.123721  0.109876  0.198883  1
  H  H26  1  0.877727  0.986691  0.802822  1
  H  H27  1  0.155030  0.632768  0.500000  1
  H  H28  1  0.487894  0.857316  0.500000  1
  H  H29  1  0.369446  0.527327  0.500000  1
  H  H30  1  0.509507  0.366922  0.500000  1
  H  H31  1  0.845234  0.476706  0.500000  1
  H  H32  1  0.629042  0.158028  0.500000  1
  H  H33  1  0.240163  0.552376  0.707608  1
  H  H34  1  0.312297  0.779126  0.301015  1
  H  H35  1  0.472411  0.701837  0.298084  1
