# generated using pymatgen
data_Sm4HoP12Pd3Ru16
_symmetry_space_group_name_H-M   'P 1'
_cell_length_a   12.64765300
_cell_length_b   12.64765343
_cell_length_c   3.99181400
_cell_angle_alpha   90.00000000
_cell_angle_beta   90.00000000
_cell_angle_gamma   120.00000150
_symmetry_Int_Tables_number   1
_chemical_formula_structural   Sm4HoP12Pd3Ru16
_chemical_formula_sum   'Sm4 Ho1 P12 Pd3 Ru16'
_cell_volume   552.99451082
_cell_formula_units_Z   1
loop_
 _symmetry_equiv_pos_site_id
 _symmetry_equiv_pos_as_xyz
  1  'x, y, z'
loop_
 _atom_site_type_symbol
 _atom_site_label
 _atom_site_symmetry_multiplicity
 _atom_site_fract_x
 _atom_site_fract_y
 _atom_site_fract_z
 _atom_site_occupancy
  Sm  Sm0  1  0.000082  0.181828  0.500000  1
  Sm  Sm1  1  0.818172  0.818254  0.500000  1
  Sm  Sm2  1  0.181746  0.999918  0.500000  1
  Sm  Sm3  1  0.666667  0.333333  0.000000  1
  Ho  Ho4  1  0.333333  0.666667  0.000000  1
  P  P5  1  0.000744  0.812906  0.000000  1
  P  P6  1  0.187094  0.187839  0.000000  1
  P  P7  1  0.812161  0.999256  0.000000  1
  P  P8  1  0.699701  0.178633  0.500000  1
  P  P9  1  0.821367  0.521067  0.500000  1
  P  P10  1  0.478933  0.300299  0.500000  1
  P  P11  1  0.180638  0.699445  0.500000  1
  P  P12  1  0.518807  0.819362  0.500000  1
  P  P13  1  0.300555  0.481193  0.500000  1
  P  P14  1  0.999818  0.367627  0.000000  1
  P  P15  1  0.632373  0.632191  0.000000  1
  P  P16  1  0.367809  0.000182  0.000000  1
  Pd  Pd17  1  0.999878  0.553394  0.000000  1
  Pd  Pd18  1  0.446606  0.446484  0.000000  1
  Pd  Pd19  1  0.553516  0.000122  0.000000  1
  Ru  Ru20  1  0.000925  0.711746  0.500000  1
  Ru  Ru21  1  0.288254  0.289179  0.500000  1
  Ru  Ru22  1  0.710821  0.999075  0.500000  1
  Ru  Ru23  1  0.806281  0.185282  0.000000  1
  Ru  Ru24  1  0.814718  0.621000  0.000000  1
  Ru  Ru25  1  0.379000  0.193719  0.000000  1
  Ru  Ru26  1  0.186806  0.805855  0.000000  1
  Ru  Ru27  1  0.619050  0.813194  0.000000  1
  Ru  Ru28  1  0.194145  0.380950  0.000000  1
  Ru  Ru29  1  0.877188  0.369023  0.500000  1
  Ru  Ru30  1  0.630977  0.508165  0.500000  1
  Ru  Ru31  1  0.491835  0.122812  0.500000  1
  Ru  Ru32  1  0.369687  0.875346  0.500000  1
  Ru  Ru33  1  0.505659  0.630313  0.500000  1
  Ru  Ru34  1  0.124654  0.494341  0.500000  1
  Ru  Ru35  1  0.000000  0.000000  0.000000  1
