# generated using pymatgen
data_Hf2Zr4MnI12
_symmetry_space_group_name_H-M   'P 1'
_cell_length_a   9.47568919
_cell_length_b   9.43187226
_cell_length_c   9.40389200
_cell_angle_alpha   106.62053823
_cell_angle_beta   106.95976201
_cell_angle_gamma   106.78634748
_symmetry_Int_Tables_number   1
_chemical_formula_structural   Hf2Zr4MnI12
_chemical_formula_sum   'Hf2 Zr4 Mn1 I12'
_cell_volume   703.92931759
_cell_formula_units_Z   1
loop_
 _symmetry_equiv_pos_site_id
 _symmetry_equiv_pos_as_xyz
  1  'x, y, z'
loop_
 _atom_site_type_symbol
 _atom_site_label
 _atom_site_symmetry_multiplicity
 _atom_site_fract_x
 _atom_site_fract_y
 _atom_site_fract_z
 _atom_site_occupancy
  Hf  Hf0  1  0.971234  0.723551  0.908649  1
  Hf  Hf1  1  0.275110  0.090545  0.027834  1
  Zr  Zr2  1  0.092593  0.028625  0.280405  1
  Zr  Zr3  1  0.907830  0.972306  0.719151  1
  Zr  Zr4  1  0.719090  0.907511  0.971651  1
  Zr  Zr5  1  0.028511  0.282682  0.092699  1
  Mn  Mn6  1  0.997992  0.001541  0.000406  1
  I  I7  1  0.922860  0.310380  0.776611  1
  I  I8  1  0.690825  0.221921  0.077565  1
  I  I9  1  0.440356  0.139849  0.362567  1
  I  I10  1  0.860911  0.632469  0.562639  1
  I  I11  1  0.225426  0.077865  0.695283  1
  I  I12  1  0.638072  0.558917  0.859584  1
  I  I13  1  0.367352  0.436426  0.138379  1
  I  I14  1  0.779160  0.922117  0.310954  1
  I  I15  1  0.141719  0.366927  0.441859  1
  I  I16  1  0.559656  0.859313  0.632731  1
  I  I17  1  0.304991  0.778904  0.923102  1
  I  I18  1  0.076310  0.688151  0.217930  1
