# generated using pymatgen
data_Zr6Mn6NbCo16
_symmetry_space_group_name_H-M   'P 1'
_cell_length_a   8.24206448
_cell_length_b   8.24271179
_cell_length_c   8.24057400
_cell_angle_alpha   59.98846451
_cell_angle_beta   59.99265689
_cell_angle_gamma   59.99233917
_symmetry_Int_Tables_number   1
_chemical_formula_structural   Zr6Mn6NbCo16
_chemical_formula_sum   'Zr6 Mn6 Nb1 Co16'
_cell_volume   395.78694586
_cell_formula_units_Z   1
loop_
 _symmetry_equiv_pos_site_id
 _symmetry_equiv_pos_as_xyz
  1  'x, y, z'
loop_
 _atom_site_type_symbol
 _atom_site_label
 _atom_site_symmetry_multiplicity
 _atom_site_fract_x
 _atom_site_fract_y
 _atom_site_fract_z
 _atom_site_occupancy
  Zr  Zr0  1  0.709209  0.290803  0.290840  1
  Zr  Zr1  1  0.290800  0.290838  0.709178  1
  Zr  Zr2  1  0.290791  0.709197  0.709160  1
  Zr  Zr3  1  0.709200  0.709162  0.290822  1
  Zr  Zr4  1  0.290790  0.709195  0.290857  1
  Zr  Zr5  1  0.709210  0.290805  0.709143  1
  Mn  Mn6  1  0.000000  0.500000  0.000000  1
  Mn  Mn7  1  0.000000  0.000000  0.500000  1
  Mn  Mn8  1  0.500000  0.500000  0.000000  1
  Mn  Mn9  1  0.500000  0.000000  0.500000  1
  Mn  Mn10  1  0.500000  0.000000  0.000000  1
  Mn  Mn11  1  0.000000  0.500000  0.500000  1
  Nb  Nb12  1  0.000000  0.000000  0.000000  1
  Co  Co13  1  0.123797  0.123879  0.628557  1
  Co  Co14  1  0.674357  0.976982  0.674309  1
  Co  Co15  1  0.371418  0.876126  0.876233  1
  Co  Co16  1  0.023122  0.325656  0.325631  1
  Co  Co17  1  0.976878  0.674344  0.674369  1
  Co  Co18  1  0.325586  0.325647  0.023170  1
  Co  Co19  1  0.674414  0.674353  0.976830  1
  Co  Co20  1  0.628582  0.123874  0.123767  1
  Co  Co21  1  0.674429  0.674372  0.674374  1
  Co  Co22  1  0.876203  0.876121  0.371443  1
  Co  Co23  1  0.123819  0.123906  0.123780  1
  Co  Co24  1  0.876175  0.371450  0.876196  1
  Co  Co25  1  0.876181  0.876094  0.876220  1
  Co  Co26  1  0.325571  0.325628  0.325626  1
  Co  Co27  1  0.123825  0.628550  0.123804  1
  Co  Co28  1  0.325643  0.023018  0.325691  1
