# generated using pymatgen
data_Tm4TaOs6W
_symmetry_space_group_name_H-M   'P 1'
_cell_length_a   5.50392815
_cell_length_b   5.50392738
_cell_length_c   8.43667001
_cell_angle_alpha   89.99495498
_cell_angle_beta   90.00504161
_cell_angle_gamma   119.95757546
_symmetry_Int_Tables_number   1
_chemical_formula_structural   Tm4TaOs6W
_chemical_formula_sum   'Tm4 Ta1 Os6 W1'
_cell_volume   221.42805463
_cell_formula_units_Z   1
loop_
 _symmetry_equiv_pos_site_id
 _symmetry_equiv_pos_as_xyz
  1  'x, y, z'
loop_
 _atom_site_type_symbol
 _atom_site_label
 _atom_site_symmetry_multiplicity
 _atom_site_fract_x
 _atom_site_fract_y
 _atom_site_fract_z
 _atom_site_occupancy
  Tm  Tm0  1  0.666669  0.333331  0.565280  1
  Tm  Tm1  1  0.333331  0.666669  0.434720  1
  Tm  Tm2  1  0.333331  0.666669  0.063345  1
  Tm  Tm3  1  0.666669  0.333331  0.936655  1
  Ta  Ta4  1  0.000000  0.000000  0.500000  1
  Os  Os5  1  0.173403  0.346799  0.752510  1
  Os  Os6  1  0.173442  0.826558  0.752505  1
  Os  Os7  1  0.653201  0.826597  0.752510  1
  Os  Os8  1  0.826597  0.653201  0.247490  1
  Os  Os9  1  0.826558  0.173442  0.247495  1
  Os  Os10  1  0.346799  0.173403  0.247490  1
  W  W11  1  0.000000  0.000000  0.000000  1
