# generated using pymatgen
data_Th2Nb3Co9As7
_symmetry_space_group_name_H-M   'P 1'
_cell_length_a   3.90408100
_cell_length_b   9.56470071
_cell_length_c   9.56470100
_cell_angle_alpha   119.99999754
_cell_angle_beta   90.00000000
_cell_angle_gamma   90.00000000
_symmetry_Int_Tables_number   1
_chemical_formula_structural   Th2Nb3Co9As7
_chemical_formula_sum   'Th2 Nb3 Co9 As7'
_cell_volume   309.30877808
_cell_formula_units_Z   1
loop_
 _symmetry_equiv_pos_site_id
 _symmetry_equiv_pos_as_xyz
  1  'x, y, z'
loop_
 _atom_site_type_symbol
 _atom_site_label
 _atom_site_symmetry_multiplicity
 _atom_site_fract_x
 _atom_site_fract_y
 _atom_site_fract_z
 _atom_site_occupancy
  Th  Th0  1  0.000000  0.666667  0.333333  1
  Th  Th1  1  0.500000  0.333333  0.666667  1
  Nb  Nb2  1  0.500000  0.779476  0.895198  1
  Nb  Nb3  1  0.500000  0.115722  0.220524  1
  Nb  Nb4  1  0.500000  0.104802  0.884278  1
  Co  Co5  1  0.000000  0.568602  0.933130  1
  Co  Co6  1  0.000000  0.364528  0.431398  1
  Co  Co7  1  0.000000  0.066870  0.635472  1
  Co  Co8  1  0.000000  0.872075  0.155392  1
  Co  Co9  1  0.000000  0.283317  0.127925  1
  Co  Co10  1  0.000000  0.844608  0.716683  1
  Co  Co11  1  0.500000  0.945925  0.382213  1
  Co  Co12  1  0.500000  0.436287  0.054075  1
  Co  Co13  1  0.500000  0.617787  0.563713  1
  As  As14  1  0.000000  0.000000  0.000000  1
  As  As15  1  0.500000  0.706937  0.114527  1
  As  As16  1  0.500000  0.407591  0.293063  1
  As  As17  1  0.500000  0.885473  0.592409  1
  As  As18  1  0.000000  0.588359  0.691334  1
  As  As19  1  0.000000  0.102976  0.411641  1
  As  As20  1  0.000000  0.308666  0.897024  1
