# generated using pymatgen
data_La10Bi6AsBr
_symmetry_space_group_name_H-M   'P 1'
_cell_length_a   9.79622900
_cell_length_b   9.79622996
_cell_length_c   6.93751900
_cell_angle_alpha   90.00000000
_cell_angle_beta   90.00000000
_cell_angle_gamma   120.00000012
_symmetry_Int_Tables_number   1
_chemical_formula_structural   La10Bi6AsBr
_chemical_formula_sum   'La10 Bi6 As1 Br1'
_cell_volume   576.57089685
_cell_formula_units_Z   1
loop_
 _symmetry_equiv_pos_site_id
 _symmetry_equiv_pos_as_xyz
  1  'x, y, z'
loop_
 _atom_site_type_symbol
 _atom_site_label
 _atom_site_symmetry_multiplicity
 _atom_site_fract_x
 _atom_site_fract_y
 _atom_site_fract_z
 _atom_site_occupancy
  La  La0  1  0.742781  0.000000  0.737887  1
  La  La1  1  0.000000  0.257219  0.262113  1
  La  La2  1  0.742781  0.742781  0.262113  1
  La  La3  1  0.333333  0.666667  0.500000  1
  La  La4  1  0.333333  0.666667  0.000000  1
  La  La5  1  0.666667  0.333333  0.500000  1
  La  La6  1  0.666667  0.333333  0.000000  1
  La  La7  1  0.257219  0.000000  0.262113  1
  La  La8  1  0.257219  0.257219  0.737887  1
  La  La9  1  0.000000  0.742781  0.737887  1
  Bi  Bi10  1  0.389433  0.000000  0.750811  1
  Bi  Bi11  1  0.610567  0.000000  0.249189  1
  Bi  Bi12  1  0.000000  0.610567  0.249189  1
  Bi  Bi13  1  0.610567  0.610567  0.750811  1
  Bi  Bi14  1  0.000000  0.389433  0.750811  1
  Bi  Bi15  1  0.389433  0.389433  0.249189  1
  As  As16  1  0.000000  0.000000  0.500000  1
  Br  Br17  1  0.000000  0.000000  0.000000  1
