# generated using pymatgen
data_YbPr19Si15Ge
_symmetry_space_group_name_H-M   'P 1'
_cell_length_a   7.93209085
_cell_length_b   7.92811736
_cell_length_c   15.28248800
_cell_angle_alpha   90.30311241
_cell_angle_beta   89.83015857
_cell_angle_gamma   90.25245968
_symmetry_Int_Tables_number   1
_chemical_formula_structural   YbPr19Si15Ge
_chemical_formula_sum   'Yb1 Pr19 Si15 Ge1'
_cell_volume   961.03596793
_cell_formula_units_Z   1
loop_
 _symmetry_equiv_pos_site_id
 _symmetry_equiv_pos_as_xyz
  1  'x, y, z'
loop_
 _atom_site_type_symbol
 _atom_site_label
 _atom_site_symmetry_multiplicity
 _atom_site_fract_x
 _atom_site_fract_y
 _atom_site_fract_z
 _atom_site_occupancy
  Yb  Yb0  1  0.310063  0.309727  0.000258  1
  Pr  Pr1  1  0.192702  0.810961  0.250832  1
  Pr  Pr2  1  0.807320  0.192088  0.749355  1
  Pr  Pr3  1  0.691238  0.692356  0.498904  1
  Pr  Pr4  1  0.376830  0.012749  0.448154  1
  Pr  Pr5  1  0.489736  0.874102  0.699294  1
  Pr  Pr6  1  0.511233  0.121334  0.196861  1
  Pr  Pr7  1  0.875335  0.488041  0.300165  1
  Pr  Pr8  1  0.120480  0.512686  0.804133  1
  Pr  Pr9  1  0.622549  0.990467  0.947949  1
  Pr  Pr10  1  0.010624  0.378968  0.550744  1
  Pr  Pr11  1  0.991060  0.622107  0.052759  1
  Pr  Pr12  1  0.127767  0.984266  0.877324  1
  Pr  Pr13  1  0.515459  0.626617  0.126309  1
  Pr  Pr14  1  0.480909  0.375280  0.626330  1
  Pr  Pr15  1  0.627045  0.515118  0.874937  1
  Pr  Pr16  1  0.373830  0.480304  0.373292  1
  Pr  Pr17  1  0.872633  0.019238  0.376420  1
  Pr  Pr18  1  0.984267  0.125608  0.123144  1
  Pr  Pr19  1  0.016265  0.869432  0.623319  1
  Si  Si20  1  0.333995  0.700316  0.950499  1
  Si  Si21  1  0.666654  0.303969  0.451333  1
  Si  Si22  1  0.701907  0.334285  0.050394  1
  Si  Si23  1  0.303543  0.668043  0.548417  1
  Si  Si24  1  0.805231  0.830789  0.201915  1
  Si  Si25  1  0.168552  0.195485  0.297099  1
  Si  Si26  1  0.832103  0.804237  0.799347  1
  Si  Si27  1  0.287602  0.918228  0.059813  1
  Si  Si28  1  0.578839  0.787937  0.308954  1
  Si  Si29  1  0.424833  0.209864  0.810555  1
  Si  Si30  1  0.787089  0.578392  0.691540  1
  Si  Si31  1  0.210902  0.421297  0.190406  1
  Si  Si32  1  0.710101  0.078714  0.560018  1
  Si  Si33  1  0.919146  0.287101  0.940323  1
  Si  Si34  1  0.079194  0.711885  0.439591  1
  Ge  Ge35  1  0.192961  0.168011  0.699313  1
