# generated using pymatgen
data_Ca2ScPaO6
_symmetry_space_group_name_H-M   'P 1'
_cell_length_a   5.89013100
_cell_length_b   5.70247986
_cell_length_c   9.97581405
_cell_angle_alpha   55.59143977
_cell_angle_beta   90.00000000
_cell_angle_gamma   90.00000000
_symmetry_Int_Tables_number   1
_chemical_formula_structural   Ca2ScPaO6
_chemical_formula_sum   'Ca4 Sc2 Pa2 O12'
_cell_volume   276.44345754
_cell_formula_units_Z   2
loop_
 _symmetry_equiv_pos_site_id
 _symmetry_equiv_pos_as_xyz
  1  'x, y, z'
loop_
 _atom_site_type_symbol
 _atom_site_label
 _atom_site_symmetry_multiplicity
 _atom_site_fract_x
 _atom_site_fract_y
 _atom_site_fract_z
 _atom_site_occupancy
  Ca  Ca0  1  0.450276  0.235528  0.750755  1
  Ca  Ca1  1  0.549724  0.764472  0.249245  1
  Ca  Ca2  1  0.950276  0.764472  0.749245  1
  Ca  Ca3  1  0.049724  0.235528  0.250755  1
  Sc  Sc4  1  0.000000  0.000000  0.000000  1
  Sc  Sc5  1  0.500000  0.000000  0.500000  1
  Pa  Pa6  1  0.000000  0.500000  0.500000  1
  Pa  Pa7  1  0.500000  0.500000  0.000000  1
  O  O8  1  0.047990  0.361587  0.753259  1
  O  O9  1  0.952010  0.638413  0.246741  1
  O  O10  1  0.547990  0.638413  0.746741  1
  O  O11  1  0.452010  0.361587  0.253259  1
  O  O12  1  0.698539  0.869027  0.939776  1
  O  O13  1  0.301461  0.130973  0.060224  1
  O  O14  1  0.198539  0.130973  0.560224  1
  O  O15  1  0.801461  0.869027  0.439776  1
  O  O16  1  0.194995  0.760663  0.937960  1
  O  O17  1  0.805005  0.239337  0.062040  1
  O  O18  1  0.694995  0.239337  0.562040  1
  O  O19  1  0.305005  0.760663  0.437960  1
