# generated using pymatgen
data_Ho2Er2Ga12Ir
_symmetry_space_group_name_H-M   'P 1'
_cell_length_a   7.43215136
_cell_length_b   7.44680860
_cell_length_c   7.43215068
_cell_angle_alpha   109.46985057
_cell_angle_beta   109.39410377
_cell_angle_gamma   109.46983410
_symmetry_Int_Tables_number   1
_chemical_formula_structural   Ho2Er2Ga12Ir
_chemical_formula_sum   'Ho2 Er2 Ga12 Ir1'
_cell_volume   316.96005221
_cell_formula_units_Z   1
loop_
 _symmetry_equiv_pos_site_id
 _symmetry_equiv_pos_as_xyz
  1  'x, y, z'
loop_
 _atom_site_type_symbol
 _atom_site_label
 _atom_site_symmetry_multiplicity
 _atom_site_fract_x
 _atom_site_fract_y
 _atom_site_fract_z
 _atom_site_occupancy
  Ho  Ho0  1  0.000000  0.000000  0.500000  1
  Ho  Ho1  1  0.500000  0.000000  0.000000  1
  Er  Er2  1  0.000000  0.500000  0.000000  1
  Er  Er3  1  0.500000  0.500000  0.500000  1
  Ga  Ga4  1  0.749987  0.250265  0.500279  1
  Ga  Ga5  1  0.750000  0.500000  0.250000  1
  Ga  Ga6  1  0.500279  0.250265  0.749987  1
  Ga  Ga7  1  0.250000  0.500000  0.750000  1
  Ga  Ga8  1  0.250013  0.749735  0.499721  1
  Ga  Ga9  1  0.499721  0.749735  0.250013  1
  Ga  Ga10  1  0.707574  0.707320  0.999745  1
  Ga  Ga11  1  0.292493  0.000000  0.292493  1
  Ga  Ga12  1  0.000255  0.292680  0.292426  1
  Ga  Ga13  1  0.292426  0.292680  0.000255  1
  Ga  Ga14  1  0.707507  0.000000  0.707507  1
  Ga  Ga15  1  0.999745  0.707320  0.707574  1
  Ir  Ir16  1  0.000000  0.000000  0.000000  1
