# generated using pymatgen
data_ScNbSiB2Ru5
_symmetry_space_group_name_H-M   'P 1'
_cell_length_a   9.31804180
_cell_length_b   9.31804180
_cell_length_c   2.97600300
_cell_angle_alpha   90.00000000
_cell_angle_beta   90.00000000
_cell_angle_gamma   89.57927849
_symmetry_Int_Tables_number   1
_chemical_formula_structural   ScNbSiB2Ru5
_chemical_formula_sum   'Sc2 Nb2 Si2 B4 Ru10'
_cell_volume   258.38718173
_cell_formula_units_Z   2
loop_
 _symmetry_equiv_pos_site_id
 _symmetry_equiv_pos_as_xyz
  1  'x, y, z'
loop_
 _atom_site_type_symbol
 _atom_site_label
 _atom_site_symmetry_multiplicity
 _atom_site_fract_x
 _atom_site_fract_y
 _atom_site_fract_z
 _atom_site_occupancy
  Sc  Sc0  1  0.826399  0.673601  0.000000  1
  Sc  Sc1  1  0.173601  0.326399  0.000000  1
  Nb  Nb2  1  0.324781  0.824781  0.000000  1
  Nb  Nb3  1  0.675219  0.175219  0.000000  1
  Si  Si4  1  0.500000  0.500000  0.000000  1
  Si  Si5  1  0.000000  0.000000  0.000000  1
  B  B6  1  0.626164  0.873836  0.000000  1
  B  B7  1  0.373836  0.126164  0.000000  1
  B  B8  1  0.123471  0.623471  0.000000  1
  B  B9  1  0.876529  0.376529  0.000000  1
  Ru  Ru10  1  0.564119  0.711763  0.500000  1
  Ru  Ru11  1  0.435881  0.288237  0.500000  1
  Ru  Ru12  1  0.073562  0.791683  0.500000  1
  Ru  Ru13  1  0.926438  0.208317  0.500000  1
  Ru  Ru14  1  0.291683  0.573562  0.500000  1
  Ru  Ru15  1  0.708317  0.426438  0.500000  1
  Ru  Ru16  1  0.211763  0.064119  0.500000  1
  Ru  Ru17  1  0.788237  0.935881  0.500000  1
  Ru  Ru18  1  0.500000  0.000000  0.500000  1
  Ru  Ru19  1  0.000000  0.500000  0.500000  1
