# generated using pymatgen
data_La4Al13GaCu2
_symmetry_space_group_name_H-M   'P 1'
_cell_length_a   6.10052566
_cell_length_b   6.10621555
_cell_length_c   11.80973281
_cell_angle_alpha   75.01745888
_cell_angle_beta   75.03175254
_cell_angle_gamma   90.00000103
_symmetry_Int_Tables_number   1
_chemical_formula_structural   La4Al13GaCu2
_chemical_formula_sum   'La4 Al13 Ga1 Cu2'
_cell_volume   409.49852632
_cell_formula_units_Z   1
loop_
 _symmetry_equiv_pos_site_id
 _symmetry_equiv_pos_as_xyz
  1  'x, y, z'
loop_
 _atom_site_type_symbol
 _atom_site_label
 _atom_site_symmetry_multiplicity
 _atom_site_fract_x
 _atom_site_fract_y
 _atom_site_fract_z
 _atom_site_occupancy
  La  La0  1  0.999006  0.999006  0.001989  1
  La  La1  1  0.501574  0.501574  0.996851  1
  La  La2  1  0.751887  0.251887  0.496227  1
  La  La3  1  0.248527  0.748527  0.502948  1
  Al  Al4  1  0.200584  0.200584  0.598833  1
  Al  Al5  1  0.808868  0.808868  0.382266  1
  Al  Al6  1  0.610792  0.130390  0.252066  1
  Al  Al7  1  0.137140  0.617543  0.252066  1
  Al  Al8  1  0.610792  0.617543  0.252066  1
  Al  Al9  1  0.137140  0.130390  0.252066  1
  Al  Al10  1  0.868915  0.358278  0.753162  1
  Al  Al11  1  0.377924  0.888558  0.753162  1
  Al  Al12  1  0.868915  0.888558  0.753162  1
  Al  Al13  1  0.377924  0.358278  0.753162  1
  Al  Al14  1  0.692384  0.692384  0.615232  1
  Al  Al15  1  0.058565  0.558565  0.882870  1
  Al  Al16  1  0.449629  0.949629  0.100740  1
  Ga  Ga17  1  0.943324  0.443324  0.113353  1
  Cu  Cu18  1  0.310845  0.310845  0.378311  1
  Cu  Cu19  1  0.560098  0.060098  0.879805  1
