# generated using pymatgen
data_Ba3Mo2WO9
_symmetry_space_group_name_H-M   'P 1'
_cell_length_a   5.92141700
_cell_length_b   5.92141801
_cell_length_c   7.27197200
_cell_angle_alpha   90.00000000
_cell_angle_beta   90.00000000
_cell_angle_gamma   119.99998879
_symmetry_Int_Tables_number   1
_chemical_formula_structural   Ba3Mo2WO9
_chemical_formula_sum   'Ba3 Mo2 W1 O9'
_cell_volume   220.81788456
_cell_formula_units_Z   1
loop_
 _symmetry_equiv_pos_site_id
 _symmetry_equiv_pos_as_xyz
  1  'x, y, z'
loop_
 _atom_site_type_symbol
 _atom_site_label
 _atom_site_symmetry_multiplicity
 _atom_site_fract_x
 _atom_site_fract_y
 _atom_site_fract_z
 _atom_site_occupancy
  Ba  Ba0  1  0.000000  0.000000  0.500000  1
  Ba  Ba1  1  0.666667  0.333333  0.812523  1
  Ba  Ba2  1  0.333333  0.666667  0.187477  1
  Mo  Mo3  1  0.666667  0.333333  0.328836  1
  Mo  Mo4  1  0.333333  0.666667  0.671164  1
  W  W5  1  0.000000  0.000000  0.000000  1
  O  O6  1  0.685862  0.842930  0.845394  1
  O  O7  1  0.314138  0.157070  0.154606  1
  O  O8  1  0.000000  0.500000  0.500000  1
  O  O9  1  0.500000  0.000000  0.500000  1
  O  O10  1  0.157070  0.314138  0.845394  1
  O  O11  1  0.842930  0.685862  0.154606  1
  O  O12  1  0.500000  0.500000  0.500000  1
  O  O13  1  0.157070  0.842930  0.845394  1
  O  O14  1  0.842930  0.157070  0.154606  1
