# generated using pymatgen
data_Ti17Re2Si16W
_symmetry_space_group_name_H-M   'P 1'
_cell_length_a   6.65884591
_cell_length_b   6.65953870
_cell_length_c   12.17858856
_cell_angle_alpha   90.12073041
_cell_angle_beta   90.27365831
_cell_angle_gamma   90.00271049
_symmetry_Int_Tables_number   1
_chemical_formula_structural   Ti17Re2Si16W
_chemical_formula_sum   'Ti17 Re2 Si16 W1'
_cell_volume   540.05022604
_cell_formula_units_Z   1
loop_
 _symmetry_equiv_pos_site_id
 _symmetry_equiv_pos_as_xyz
  1  'x, y, z'
loop_
 _atom_site_type_symbol
 _atom_site_label
 _atom_site_symmetry_multiplicity
 _atom_site_fract_x
 _atom_site_fract_y
 _atom_site_fract_z
 _atom_site_occupancy
  Ti  Ti0  1  0.351920  0.497776  0.872392  1
  Ti  Ti1  1  0.652169  0.505363  0.371587  1
  Ti  Ti2  1  0.495961  0.349319  0.129587  1
  Ti  Ti3  1  0.503288  0.648465  0.626322  1
  Ti  Ti4  1  0.003910  0.849691  0.120717  1
  Ti  Ti5  1  0.148332  0.999071  0.376755  1
  Ti  Ti6  1  0.850018  0.005379  0.878898  1
  Ti  Ti7  1  0.000177  0.339151  0.222791  1
  Ti  Ti8  1  0.155021  0.502096  0.471161  1
  Ti  Ti9  1  0.838333  0.499091  0.972027  1
  Ti  Ti10  1  0.500142  0.158270  0.528917  1
  Ti  Ti11  1  0.500373  0.839906  0.026974  1
  Ti  Ti12  1  0.000181  0.657358  0.720833  1
  Ti  Ti13  1  0.344591  0.002827  0.778617  1
  Ti  Ti14  1  0.661981  0.999875  0.278550  1
  Ti  Ti15  1  0.670480  0.328020  0.750730  1
  Ti  Ti16  1  0.830441  0.829313  0.499102  1
  Re  Re17  1  0.171761  0.169617  0.001849  1
  Re  Re18  1  0.327883  0.670684  0.247799  1
  Si  Si19  1  0.045015  0.303569  0.816686  1
  Si  Si20  1  0.197349  0.541290  0.064253  1
  Si  Si21  1  0.800539  0.456579  0.564262  1
  Si  Si22  1  0.541180  0.198359  0.935912  1
  Si  Si23  1  0.454469  0.801919  0.433977  1
  Si  Si24  1  0.959469  0.698251  0.313851  1
  Si  Si25  1  0.302978  0.041197  0.185728  1
  Si  Si26  1  0.695905  0.954676  0.685617  1
  Si  Si27  1  0.294277  0.359591  0.674200  1
  Si  Si28  1  0.141617  0.795494  0.921883  1
  Si  Si29  1  0.857180  0.206329  0.424407  1
  Si  Si30  1  0.794102  0.141449  0.077558  1
  Si  Si31  1  0.206674  0.857676  0.575794  1
  Si  Si32  1  0.705297  0.641742  0.172630  1
  Si  Si33  1  0.359218  0.296084  0.328146  1
  Si  Si34  1  0.642815  0.706141  0.825432  1
  W  W35  1  0.994955  0.148379  0.624055  1
