# generated using pymatgen
data_NpPa(NbN2)2
_symmetry_space_group_name_H-M   'P 1'
_cell_length_a   3.29396700
_cell_length_b   5.70980870
_cell_length_c   11.01449530
_cell_angle_alpha   89.91144648
_cell_angle_beta   90.00000000
_cell_angle_gamma   90.00000000
_symmetry_Int_Tables_number   1
_chemical_formula_structural   NpPa(NbN2)2
_chemical_formula_sum   'Np2 Pa2 Nb4 N8'
_cell_volume   207.15951478
_cell_formula_units_Z   2
loop_
 _symmetry_equiv_pos_site_id
 _symmetry_equiv_pos_as_xyz
  1  'x, y, z'
loop_
 _atom_site_type_symbol
 _atom_site_label
 _atom_site_symmetry_multiplicity
 _atom_site_fract_x
 _atom_site_fract_y
 _atom_site_fract_z
 _atom_site_occupancy
  Np  Np0  1  0.250000  0.575747  0.858654  1
  Np  Np1  1  0.750000  0.424253  0.141346  1
  Pa  Pa2  1  0.750000  0.923584  0.354280  1
  Pa  Pa3  1  0.250000  0.076416  0.645720  1
  Nb  Nb4  1  0.250000  0.923330  0.098018  1
  Nb  Nb5  1  0.750000  0.076670  0.901982  1
  Nb  Nb6  1  0.750000  0.575354  0.599195  1
  Nb  Nb7  1  0.250000  0.424646  0.400805  1
  N  N8  1  0.250000  0.662911  0.246303  1
  N  N9  1  0.750000  0.337089  0.753697  1
  N  N10  1  0.750000  0.841821  0.744380  1
  N  N11  1  0.250000  0.158179  0.255620  1
  N  N12  1  0.250000  0.765312  0.504301  1
  N  N13  1  0.750000  0.234688  0.495699  1
  N  N14  1  0.750000  0.735571  0.003866  1
  N  N15  1  0.250000  0.264429  0.996134  1
