# generated using pymatgen
data_Nd11Tm(SiBr3)4
_symmetry_space_group_name_H-M   'P 1'
_cell_length_a   10.43495632
_cell_length_b   10.42993924
_cell_length_c   10.38346274
_cell_angle_alpha   109.50453754
_cell_angle_beta   109.52499987
_cell_angle_gamma   109.57582854
_symmetry_Int_Tables_number   1
_chemical_formula_structural   Nd11Tm(SiBr3)4
_chemical_formula_sum   'Nd11 Tm1 Si4 Br12'
_cell_volume   867.88231161
_cell_formula_units_Z   1
loop_
 _symmetry_equiv_pos_site_id
 _symmetry_equiv_pos_as_xyz
  1  'x, y, z'
loop_
 _atom_site_type_symbol
 _atom_site_label
 _atom_site_symmetry_multiplicity
 _atom_site_fract_x
 _atom_site_fract_y
 _atom_site_fract_z
 _atom_site_occupancy
  Nd  Nd0  1  0.262126  0.012129  0.024254  1
  Nd  Nd1  1  0.025016  0.263292  0.012943  1
  Nd  Nd2  1  0.487934  0.749651  0.012941  1
  Nd  Nd3  1  0.750868  0.238454  0.263184  1
  Nd  Nd4  1  0.012314  0.024726  0.263185  1
  Nd  Nd5  1  0.012817  0.489172  0.751500  1
  Nd  Nd6  1  0.238683  0.262329  0.751503  1
  Nd  Nd7  1  0.261042  0.747692  0.236915  1
  Nd  Nd8  1  0.238726  0.477261  0.489940  1
  Nd  Nd9  1  0.475875  0.489227  0.236926  1
  Nd  Nd10  1  0.751208  0.012680  0.489936  1
  Tm  Tm11  1  0.482719  0.232707  0.465430  1
  Si  Si12  1  0.000142  0.250141  0.500283  1
  Si  Si13  1  0.250178  0.500176  0.000353  1
  Si  Si14  1  0.500314  0.003387  0.253987  1
  Si  Si15  1  0.253681  0.250601  0.254000  1
  Br  Br16  1  0.755526  0.745979  0.250923  1
  Br  Br17  1  0.504927  0.249588  0.996122  1
  Br  Br18  1  0.263760  0.008279  0.506614  1
  Br  Br19  1  0.508536  0.494558  0.746256  1
  Br  Br20  1  0.995749  0.990994  0.746202  1
  Br  Br21  1  0.745655  0.995653  0.991308  1
  Br  Br22  1  0.504596  0.754595  0.509190  1
  Br  Br23  1  0.742854  0.498339  0.506617  1
  Br  Br24  1  0.995396  0.504947  0.250913  1
  Br  Br25  1  0.991186  0.746531  0.996120  1
  Br  Br26  1  0.250454  0.755211  0.746203  1
  Br  Br27  1  0.737720  0.251701  0.746250  1
