# generated using pymatgen
data_ErTh7(Si3Rh)4
_symmetry_space_group_name_H-M   'P 1'
_cell_length_a   8.20133200
_cell_length_b   8.22875791
_cell_length_c   8.40428400
_cell_angle_alpha   90.00000000
_cell_angle_beta   90.00000000
_cell_angle_gamma   119.88980852
_symmetry_Int_Tables_number   1
_chemical_formula_structural   ErTh7(Si3Rh)4
_chemical_formula_sum   'Er1 Th7 Si12 Rh4'
_cell_volume   491.73507177
_cell_formula_units_Z   1
loop_
 _symmetry_equiv_pos_site_id
 _symmetry_equiv_pos_as_xyz
  1  'x, y, z'
loop_
 _atom_site_type_symbol
 _atom_site_label
 _atom_site_symmetry_multiplicity
 _atom_site_fract_x
 _atom_site_fract_y
 _atom_site_fract_z
 _atom_site_occupancy
  Er  Er0  1  0.501129  0.002258  0.750000  1
  Th  Th1  1  0.000013  0.000025  0.250000  1
  Th  Th2  1  0.000062  0.000124  0.750000  1
  Th  Th3  1  0.499119  0.500781  0.250000  1
  Th  Th4  1  0.499210  0.998421  0.250000  1
  Th  Th5  1  0.001662  0.500781  0.250000  1
  Th  Th6  1  0.501045  0.498722  0.750000  1
  Th  Th7  1  0.997677  0.498722  0.750000  1
  Si  Si8  1  0.831499  0.165581  0.501337  1
  Si  Si9  1  0.834605  0.669211  0.497699  1
  Si  Si10  1  0.334081  0.165581  0.501337  1
  Si  Si11  1  0.831499  0.165581  0.998663  1
  Si  Si12  1  0.834605  0.669211  0.002301  1
  Si  Si13  1  0.334081  0.165581  0.998663  1
  Si  Si14  1  0.168536  0.834275  0.997366  1
  Si  Si15  1  0.665740  0.834275  0.997366  1
  Si  Si16  1  0.165550  0.331099  0.001055  1
  Si  Si17  1  0.168536  0.834275  0.502634  1
  Si  Si18  1  0.665740  0.834275  0.502634  1
  Si  Si19  1  0.165550  0.331099  0.498945  1
  Rh  Rh20  1  0.667582  0.335163  0.501492  1
  Rh  Rh21  1  0.667582  0.335163  0.998508  1
  Rh  Rh22  1  0.332448  0.664897  0.991229  1
  Rh  Rh23  1  0.332448  0.664897  0.508771  1
