# generated using pymatgen
data_YHo4(In2Pd)2
_symmetry_space_group_name_H-M   'P 1'
_cell_length_a   3.60606100
_cell_length_b   8.15994400
_cell_length_c   18.24007700
_cell_angle_alpha   90.00000000
_cell_angle_beta   90.00000000
_cell_angle_gamma   90.00000000
_symmetry_Int_Tables_number   1
_chemical_formula_structural   YHo4(In2Pd)2
_chemical_formula_sum   'Y2 Ho8 In8 Pd4'
_cell_volume   536.71893191
_cell_formula_units_Z   2
loop_
 _symmetry_equiv_pos_site_id
 _symmetry_equiv_pos_as_xyz
  1  'x, y, z'
loop_
 _atom_site_type_symbol
 _atom_site_label
 _atom_site_symmetry_multiplicity
 _atom_site_fract_x
 _atom_site_fract_y
 _atom_site_fract_z
 _atom_site_occupancy
  Y  Y0  1  0.000000  0.500000  0.500000  1
  Y  Y1  1  0.000000  0.000000  0.000000  1
  Ho  Ho2  1  0.000000  0.739115  0.280668  1
  Ho  Ho3  1  0.000000  0.260885  0.719332  1
  Ho  Ho4  1  0.000000  0.760885  0.780668  1
  Ho  Ho5  1  0.000000  0.239115  0.219332  1
  Ho  Ho6  1  0.000000  0.617538  0.083242  1
  Ho  Ho7  1  0.000000  0.382462  0.916758  1
  Ho  Ho8  1  0.000000  0.882462  0.583242  1
  Ho  Ho9  1  0.000000  0.117538  0.416758  1
  In  In10  1  0.500000  0.709055  0.932198  1
  In  In11  1  0.500000  0.290945  0.067802  1
  In  In12  1  0.500000  0.790945  0.432198  1
  In  In13  1  0.500000  0.209055  0.567802  1
  In  In14  1  0.500000  0.580781  0.650213  1
  In  In15  1  0.500000  0.419219  0.349787  1
  In  In16  1  0.500000  0.919219  0.150213  1
  In  In17  1  0.500000  0.080781  0.849787  1
  Pd  Pd18  1  0.500000  0.522924  0.196095  1
  Pd  Pd19  1  0.500000  0.477076  0.803905  1
  Pd  Pd20  1  0.500000  0.977076  0.696095  1
  Pd  Pd21  1  0.500000  0.022924  0.303905  1
