# generated using pymatgen
data_Dy3Ho2Lu3Au4
_symmetry_space_group_name_H-M   'P 1'
_cell_length_a   4.87893500
_cell_length_b   7.11036452
_cell_length_c   8.85407239
_cell_angle_alpha   90.01465903
_cell_angle_beta   90.00000000
_cell_angle_gamma   90.00000000
_symmetry_Int_Tables_number   1
_chemical_formula_structural   Dy3Ho2Lu3Au4
_chemical_formula_sum   'Dy3 Ho2 Lu3 Au4'
_cell_volume   307.15667123
_cell_formula_units_Z   1
loop_
 _symmetry_equiv_pos_site_id
 _symmetry_equiv_pos_as_xyz
  1  'x, y, z'
loop_
 _atom_site_type_symbol
 _atom_site_label
 _atom_site_symmetry_multiplicity
 _atom_site_fract_x
 _atom_site_fract_y
 _atom_site_fract_z
 _atom_site_occupancy
  Dy  Dy0  1  0.250000  0.987357  0.323781  1
  Dy  Dy1  1  0.750000  0.515536  0.822183  1
  Dy  Dy2  1  0.750000  0.015859  0.678391  1
  Ho  Ho3  1  0.750000  0.648558  0.419122  1
  Ho  Ho4  1  0.250000  0.483303  0.176228  1
  Lu  Lu5  1  0.250000  0.852044  0.923083  1
  Lu  Lu6  1  0.250000  0.352907  0.579252  1
  Lu  Lu7  1  0.750000  0.148197  0.077961  1
  Au  Au8  1  0.250000  0.251599  0.899807  1
  Au  Au9  1  0.250000  0.753515  0.604087  1
  Au  Au10  1  0.750000  0.746954  0.096637  1
  Au  Au11  1  0.750000  0.244171  0.399467  1
