# generated using pymatgen
data_Y4ReMo2PN12
_symmetry_space_group_name_H-M   'P 1'
_cell_length_a   7.26279997
_cell_length_b   7.25690969
_cell_length_c   6.08219165
_cell_angle_alpha   74.31219456
_cell_angle_beta   74.88308262
_cell_angle_gamma   82.76006331
_symmetry_Int_Tables_number   1
_chemical_formula_structural   Y4ReMo2PN12
_chemical_formula_sum   'Y4 Re1 Mo2 P1 N12'
_cell_volume   297.41205017
_cell_formula_units_Z   1
loop_
 _symmetry_equiv_pos_site_id
 _symmetry_equiv_pos_as_xyz
  1  'x, y, z'
loop_
 _atom_site_type_symbol
 _atom_site_label
 _atom_site_symmetry_multiplicity
 _atom_site_fract_x
 _atom_site_fract_y
 _atom_site_fract_z
 _atom_site_occupancy
  Y  Y0  1  0.906188  0.087012  0.756295  1
  Y  Y1  1  0.098633  0.904519  0.248981  1
  Y  Y2  1  0.697156  0.283977  0.251931  1
  Y  Y3  1  0.310810  0.707853  0.737152  1
  Re  Re4  1  0.786559  0.629503  0.777791  1
  Mo  Mo5  1  0.201051  0.378771  0.228531  1
  Mo  Mo6  1  0.383763  0.197008  0.734528  1
  P  P7  1  0.613821  0.813364  0.270542  1
  N  N8  1  0.659389  0.659945  0.078193  1
  N  N9  1  0.388327  0.865528  0.334267  1
  N  N10  1  0.364108  0.358802  0.442805  1
  N  N11  1  0.111889  0.619174  0.151696  1
  N  N12  1  0.000311  0.213361  0.341864  1
  N  N13  1  0.764875  0.980563  0.159489  1
  N  N14  1  0.213142  0.002549  0.844398  1
  N  N15  1  0.622743  0.101253  0.655438  1
  N  N16  1  0.370596  0.366267  0.937209  1
  N  N17  1  0.863115  0.381894  0.842608  1
  N  N18  1  0.649460  0.678353  0.540475  1
  N  N19  1  0.994066  0.770305  0.665806  1
