# generated using pymatgen
data_Tb2V3P7Ir2Rh7
_symmetry_space_group_name_H-M   'P 1'
_cell_length_a   3.86903700
_cell_length_b   9.55724996
_cell_length_c   9.55278862
_cell_angle_alpha   119.94805949
_cell_angle_beta   89.99956572
_cell_angle_gamma   90.00038755
_symmetry_Int_Tables_number   1
_chemical_formula_structural   Tb2V3P7Ir2Rh7
_chemical_formula_sum   'Tb2 V3 P7 Ir2 Rh7'
_cell_volume   306.07206481
_cell_formula_units_Z   1
loop_
 _symmetry_equiv_pos_site_id
 _symmetry_equiv_pos_as_xyz
  1  'x, y, z'
loop_
 _atom_site_type_symbol
 _atom_site_label
 _atom_site_symmetry_multiplicity
 _atom_site_fract_x
 _atom_site_fract_y
 _atom_site_fract_z
 _atom_site_occupancy
  Tb  Tb0  1  0.261773  0.666505  0.333261  1
  Tb  Tb1  1  0.761571  0.333127  0.666658  1
  V  V2  1  0.762078  0.092619  0.875150  1
  V  V3  1  0.762047  0.124627  0.217485  1
  V  V4  1  0.762033  0.781916  0.906927  1
  P  P5  1  0.262463  0.001689  0.000625  1
  P  P6  1  0.761911  0.884927  0.596799  1
  P  P7  1  0.761923  0.402726  0.287895  1
  P  P8  1  0.761919  0.711494  0.115492  1
  P  P9  1  0.261720  0.117679  0.412683  1
  P  P10  1  0.261681  0.587009  0.704154  1
  P  P11  1  0.261705  0.295759  0.883331  1
  Ir  Ir12  1  0.261956  0.886360  0.158326  1
  Ir  Ir13  1  0.261951  0.841727  0.728163  1
  Rh  Rh14  1  0.262002  0.272603  0.113958  1
  Rh  Rh15  1  0.761865  0.611512  0.560203  1
  Rh  Rh16  1  0.761890  0.439194  0.051246  1
  Rh  Rh17  1  0.761895  0.948043  0.388518  1
  Rh  Rh18  1  0.261857  0.367760  0.436648  1
  Rh  Rh19  1  0.261878  0.562665  0.929894  1
  Rh  Rh20  1  0.261883  0.070061  0.632585  1
