# generated using pymatgen
data_TbDy2Lu2Pb3
_symmetry_space_group_name_H-M   'P 1'
_cell_length_a   6.53572200
_cell_length_b   9.02039565
_cell_length_c   9.02291600
_cell_angle_alpha   120.01248888
_cell_angle_beta   89.99910447
_cell_angle_gamma   90.00101833
_symmetry_Int_Tables_number   1
_chemical_formula_structural   TbDy2Lu2Pb3
_chemical_formula_sum   'Tb2 Dy4 Lu4 Pb6'
_cell_volume   460.61919910
_cell_formula_units_Z   2
loop_
 _symmetry_equiv_pos_site_id
 _symmetry_equiv_pos_as_xyz
  1  'x, y, z'
loop_
 _atom_site_type_symbol
 _atom_site_label
 _atom_site_symmetry_multiplicity
 _atom_site_fract_x
 _atom_site_fract_y
 _atom_site_fract_z
 _atom_site_occupancy
  Tb  Tb0  1  0.749999  0.238087  0.000073  1
  Tb  Tb1  1  0.750008  0.761948  0.761990  1
  Dy  Dy2  1  0.750001  0.000024  0.238132  1
  Dy  Dy3  1  0.249997  0.762061  0.000076  1
  Dy  Dy4  1  0.250003  0.237913  0.238006  1
  Dy  Dy5  1  0.249994  0.999975  0.761899  1
  Lu  Lu6  1  0.499962  0.333313  0.666654  1
  Lu  Lu7  1  0.499960  0.666657  0.333307  1
  Lu  Lu8  1  0.000043  0.666696  0.333296  1
  Lu  Lu9  1  0.000046  0.333337  0.666659  1
  Pb  Pb10  1  0.749987  0.603957  0.000074  1
  Pb  Pb11  1  0.750007  0.396094  0.396209  1
  Pb  Pb12  1  0.750005  0.999956  0.603626  1
  Pb  Pb13  1  0.249987  0.396063  0.000003  1
  Pb  Pb14  1  0.249998  0.603883  0.603839  1
  Pb  Pb15  1  0.250003  0.000040  0.396158  1
