# generated using pymatgen
data_Tm8Si16Mo11W
_symmetry_space_group_name_H-M   'P 1'
_cell_length_a   6.72781578
_cell_length_b   6.91257802
_cell_length_c   12.87439800
_cell_angle_alpha   90.00000000
_cell_angle_beta   90.00000000
_cell_angle_gamma   89.94389473
_symmetry_Int_Tables_number   1
_chemical_formula_structural   Tm8Si16Mo11W
_chemical_formula_sum   'Tm8 Si16 Mo11 W1'
_cell_volume   598.74356690
_cell_formula_units_Z   1
loop_
 _symmetry_equiv_pos_site_id
 _symmetry_equiv_pos_as_xyz
  1  'x, y, z'
loop_
 _atom_site_type_symbol
 _atom_site_label
 _atom_site_symmetry_multiplicity
 _atom_site_fract_x
 _atom_site_fract_y
 _atom_site_fract_z
 _atom_site_occupancy
  Tm  Tm0  1  0.996492  0.167628  0.093677  1
  Tm  Tm1  1  0.003812  0.832063  0.906232  1
  Tm  Tm2  1  0.503585  0.667676  0.906067  1
  Tm  Tm3  1  0.003812  0.832063  0.593768  1
  Tm  Tm4  1  0.496077  0.332127  0.093772  1
  Tm  Tm5  1  0.996492  0.167628  0.406323  1
  Tm  Tm6  1  0.496077  0.332127  0.406228  1
  Tm  Tm7  1  0.503585  0.667676  0.593933  1
  Si  Si8  1  0.034556  0.131153  0.750000  1
  Si  Si9  1  0.964865  0.867638  0.250000  1
  Si  Si10  1  0.465278  0.632265  0.250000  1
  Si  Si11  1  0.535235  0.367882  0.750000  1
  Si  Si12  1  0.302657  0.867226  0.750000  1
  Si  Si13  1  0.697257  0.132163  0.250000  1
  Si  Si14  1  0.197110  0.368179  0.250000  1
  Si  Si15  1  0.802507  0.632869  0.750000  1
  Si  Si16  1  0.161166  0.459792  0.546807  1
  Si  Si17  1  0.839269  0.540583  0.452929  1
  Si  Si18  1  0.339516  0.958917  0.453051  1
  Si  Si19  1  0.839269  0.540583  0.047071  1
  Si  Si20  1  0.660534  0.041139  0.547130  1
  Si  Si21  1  0.161166  0.459792  0.953193  1
  Si  Si22  1  0.660534  0.041139  0.952870  1
  Si  Si23  1  0.339516  0.958917  0.046949  1
  Mo  Mo24  1  0.832687  0.497127  0.250000  1
  Mo  Mo25  1  0.332917  0.002499  0.250000  1
  Mo  Mo26  1  0.666836  0.997627  0.750000  1
  Mo  Mo27  1  0.329787  0.164700  0.624960  1
  Mo  Mo28  1  0.669714  0.835409  0.375275  1
  Mo  Mo29  1  0.169228  0.665078  0.375053  1
  Mo  Mo30  1  0.669714  0.835409  0.124725  1
  Mo  Mo31  1  0.831455  0.335531  0.625042  1
  Mo  Mo32  1  0.329787  0.164700  0.875040  1
  Mo  Mo33  1  0.831455  0.335531  0.874958  1
  Mo  Mo34  1  0.169228  0.665078  0.124947  1
  W  W35  1  0.166820  0.502088  0.750000  1
