# generated using pymatgen
data_Y3Sc7(Si5Ir2)4
_symmetry_space_group_name_H-M   'P 1'
_cell_length_a   12.45439482
_cell_length_b   12.45439482
_cell_length_c   4.14206800
_cell_angle_alpha   90.00000000
_cell_angle_beta   90.00000000
_cell_angle_gamma   90.10083260
_symmetry_Int_Tables_number   1
_chemical_formula_structural   Y3Sc7(Si5Ir2)4
_chemical_formula_sum   'Y3 Sc7 Si20 Ir8'
_cell_volume   642.48325113
_cell_formula_units_Z   1
loop_
 _symmetry_equiv_pos_site_id
 _symmetry_equiv_pos_as_xyz
  1  'x, y, z'
loop_
 _atom_site_type_symbol
 _atom_site_label
 _atom_site_symmetry_multiplicity
 _atom_site_fract_x
 _atom_site_fract_y
 _atom_site_fract_z
 _atom_site_occupancy
  Y  Y0  1  0.115620  0.615621  0.500000  1
  Y  Y1  1  0.884379  0.384380  0.500000  1
  Y  Y2  1  0.615145  0.884855  0.500000  1
  Sc  Sc3  1  0.384793  0.115207  0.500000  1
  Sc  Sc4  1  0.673621  0.174364  0.500000  1
  Sc  Sc5  1  0.325636  0.826379  0.500000  1
  Sc  Sc6  1  0.175162  0.324838  0.500000  1
  Sc  Sc7  1  0.825539  0.674461  0.500000  1
  Sc  Sc8  1  0.000414  0.000084  0.000000  1
  Sc  Sc9  1  0.499916  0.499586  0.000000  1
  Si  Si10  1  0.566171  0.067961  0.000000  1
  Si  Si11  1  0.432039  0.933829  0.000000  1
  Si  Si12  1  0.068121  0.431879  0.000000  1
  Si  Si13  1  0.932203  0.567797  0.000000  1
  Si  Si14  1  0.201163  0.165089  0.000000  1
  Si  Si15  1  0.800382  0.834731  0.000000  1
  Si  Si16  1  0.165881  0.801454  0.000000  1
  Si  Si17  1  0.698546  0.334119  0.000000  1
  Si  Si18  1  0.834262  0.199614  0.000000  1
  Si  Si19  1  0.300386  0.665738  0.000000  1
  Si  Si20  1  0.665269  0.699618  0.000000  1
  Si  Si21  1  0.334911  0.298837  0.000000  1
  Si  Si22  1  0.007396  0.150533  0.500000  1
  Si  Si23  1  0.993021  0.849530  0.500000  1
  Si  Si24  1  0.152568  0.993889  0.500000  1
  Si  Si25  1  0.506111  0.347432  0.500000  1
  Si  Si26  1  0.848918  0.007690  0.500000  1
  Si  Si27  1  0.492310  0.651082  0.500000  1
  Si  Si28  1  0.650470  0.506979  0.500000  1
  Si  Si29  1  0.349467  0.492604  0.500000  1
  Ir  Ir30  1  0.021166  0.243474  0.000000  1
  Ir  Ir31  1  0.979542  0.756445  0.000000  1
  Ir  Ir32  1  0.245922  0.980870  0.000000  1
  Ir  Ir33  1  0.519130  0.254078  0.000000  1
  Ir  Ir34  1  0.755087  0.020750  0.000000  1
  Ir  Ir35  1  0.479250  0.744913  0.000000  1
  Ir  Ir36  1  0.743555  0.520458  0.000000  1
  Ir  Ir37  1  0.256526  0.478834  0.000000  1
