# generated using pymatgen
data_Nd3Ga6Ni8Rh
_symmetry_space_group_name_H-M   'P 1'
_cell_length_a   8.81079100
_cell_length_b   9.00339838
_cell_length_c   4.14374200
_cell_angle_alpha   90.00000000
_cell_angle_beta   90.00000000
_cell_angle_gamma   119.29482505
_symmetry_Int_Tables_number   1
_chemical_formula_structural   Nd3Ga6Ni8Rh
_chemical_formula_sum   'Nd3 Ga6 Ni8 Rh1'
_cell_volume   286.67318270
_cell_formula_units_Z   1
loop_
 _symmetry_equiv_pos_site_id
 _symmetry_equiv_pos_as_xyz
  1  'x, y, z'
loop_
 _atom_site_type_symbol
 _atom_site_label
 _atom_site_symmetry_multiplicity
 _atom_site_fract_x
 _atom_site_fract_y
 _atom_site_fract_z
 _atom_site_occupancy
  Nd  Nd0  1  0.333130  0.663849  0.500000  1
  Nd  Nd1  1  0.669282  0.336151  0.500000  1
  Nd  Nd2  1  0.009536  0.000000  0.000000  1
  Ga  Ga3  1  0.471097  0.000000  0.000000  1
  Ga  Ga4  1  0.992503  0.468138  0.000000  1
  Ga  Ga5  1  0.524364  0.531862  0.000000  1
  Ga  Ga6  1  0.727748  0.000000  0.500000  1
  Ga  Ga7  1  0.996236  0.720260  0.500000  1
  Ga  Ga8  1  0.275975  0.279740  0.500000  1
  Ni  Ni9  1  0.198832  0.370757  0.000000  1
  Ni  Ni10  1  0.631595  0.833773  0.000000  1
  Ni  Ni11  1  0.163971  0.778247  0.000000  1
  Ni  Ni12  1  0.828074  0.629243  0.000000  1
  Ni  Ni13  1  0.797822  0.166227  0.000000  1
  Ni  Ni14  1  0.385724  0.221753  0.000000  1
  Ni  Ni15  1  0.995659  0.286575  0.500000  1
  Ni  Ni16  1  0.709085  0.713425  0.500000  1
  Rh  Rh17  1  0.289367  0.000000  0.500000  1
