# generated using pymatgen
data_CeDyEr2(AsPt)4
_symmetry_space_group_name_H-M   'P 1'
_cell_length_a   4.28324500
_cell_length_b   4.28324477
_cell_length_c   15.50461200
_cell_angle_alpha   90.00000000
_cell_angle_beta   90.00000000
_cell_angle_gamma   119.99999408
_symmetry_Int_Tables_number   1
_chemical_formula_structural   CeDyEr2(AsPt)4
_chemical_formula_sum   'Ce1 Dy1 Er2 As4 Pt4'
_cell_volume   246.34137983
_cell_formula_units_Z   1
loop_
 _symmetry_equiv_pos_site_id
 _symmetry_equiv_pos_as_xyz
  1  'x, y, z'
loop_
 _atom_site_type_symbol
 _atom_site_label
 _atom_site_symmetry_multiplicity
 _atom_site_fract_x
 _atom_site_fract_y
 _atom_site_fract_z
 _atom_site_occupancy
  Ce  Ce0  1  0.000000  0.000000  0.000000  1
  Dy  Dy1  1  0.000000  0.000000  0.500000  1
  Er  Er2  1  0.000000  0.000000  0.252303  1
  Er  Er3  1  0.000000  0.000000  0.747697  1
  As  As4  1  0.333333  0.666667  0.885130  1
  As  As5  1  0.666667  0.333333  0.114870  1
  As  As6  1  0.666667  0.333333  0.386502  1
  As  As7  1  0.333333  0.666667  0.613498  1
  Pt  Pt8  1  0.333333  0.666667  0.358625  1
  Pt  Pt9  1  0.666667  0.333333  0.641375  1
  Pt  Pt10  1  0.666667  0.333333  0.855762  1
  Pt  Pt11  1  0.333333  0.666667  0.144238  1
