# generated using pymatgen
data_HoB2IrRu
_symmetry_space_group_name_H-M   'P 1'
_cell_length_a   6.78044524
_cell_length_b   5.97319250
_cell_length_c   5.53589310
_cell_angle_alpha   72.07812374
_cell_angle_beta   56.95032251
_cell_angle_gamma   50.97155985
_symmetry_Int_Tables_number   1
_chemical_formula_structural   HoB2IrRu
_chemical_formula_sum   'Ho2 B4 Ir2 Ru2'
_cell_volume   145.77171286
_cell_formula_units_Z   2
loop_
 _symmetry_equiv_pos_site_id
 _symmetry_equiv_pos_as_xyz
  1  'x, y, z'
loop_
 _atom_site_type_symbol
 _atom_site_label
 _atom_site_symmetry_multiplicity
 _atom_site_fract_x
 _atom_site_fract_y
 _atom_site_fract_z
 _atom_site_occupancy
  Ho  Ho0  1  0.744512  0.744512  0.755488  1
  Ho  Ho1  1  0.494512  0.494512  0.505488  1
  B  B2  1  0.066470  0.436538  0.062777  1
  B  B3  1  0.815785  0.187223  0.813462  1
  B  B4  1  0.436538  0.066470  0.434215  1
  B  B5  1  0.187223  0.815785  0.183530  1
  Ir  Ir6  1  0.865893  0.865893  0.134107  1
  Ir  Ir7  1  0.115893  0.115893  0.384107  1
  Ru  Ru8  1  0.386587  0.386587  0.113413  1
  Ru  Ru9  1  0.136587  0.136587  0.863413  1
