# generated using pymatgen
data_Tb8Er7Tm(Ga3Co)2
_symmetry_space_group_name_H-M   'P 1'
_cell_length_a   9.96497200
_cell_length_b   9.96497072
_cell_length_c   6.98085600
_cell_angle_alpha   90.00000000
_cell_angle_beta   90.00000000
_cell_angle_gamma   119.99999761
_symmetry_Int_Tables_number   1
_chemical_formula_structural   Tb8Er7Tm(Ga3Co)2
_chemical_formula_sum   'Tb8 Er7 Tm1 Ga6 Co2'
_cell_volume   600.33191414
_cell_formula_units_Z   1
loop_
 _symmetry_equiv_pos_site_id
 _symmetry_equiv_pos_as_xyz
  1  'x, y, z'
loop_
 _atom_site_type_symbol
 _atom_site_label
 _atom_site_symmetry_multiplicity
 _atom_site_fract_x
 _atom_site_fract_y
 _atom_site_fract_z
 _atom_site_occupancy
  Tb  Tb0  1  0.536223  0.072445  0.791683  1
  Tb  Tb1  1  0.927555  0.463777  0.791683  1
  Tb  Tb2  1  0.536223  0.463777  0.791683  1
  Tb  Tb3  1  0.463734  0.927471  0.291728  1
  Tb  Tb4  1  0.072529  0.536266  0.291728  1
  Tb  Tb5  1  0.463734  0.536266  0.291728  1
  Tb  Tb6  1  0.000000  0.000000  0.769247  1
  Tb  Tb7  1  0.000000  0.000000  0.269233  1
  Er  Er8  1  0.826598  0.653197  0.487579  1
  Er  Er9  1  0.346803  0.173402  0.487579  1
  Er  Er10  1  0.826598  0.173402  0.487579  1
  Er  Er11  1  0.173393  0.346787  0.987501  1
  Er  Er12  1  0.653213  0.826607  0.987501  1
  Er  Er13  1  0.173393  0.826607  0.987501  1
  Er  Er14  1  0.666667  0.333333  0.174608  1
  Tm  Tm15  1  0.333333  0.666667  0.674676  1
  Ga  Ga16  1  0.836267  0.672534  0.042781  1
  Ga  Ga17  1  0.327466  0.163733  0.042781  1
  Ga  Ga18  1  0.836267  0.163733  0.042781  1
  Ga  Ga19  1  0.163784  0.327568  0.542828  1
  Ga  Ga20  1  0.672432  0.836216  0.542828  1
  Ga  Ga21  1  0.163784  0.836216  0.542828  1
  Co  Co22  1  0.666667  0.333333  0.552983  1
  Co  Co23  1  0.333333  0.666667  0.053030  1
