# generated using pymatgen
data_Sr2Al3SiPd6
_symmetry_space_group_name_H-M   'P 1'
_cell_length_a   6.83142312
_cell_length_b   6.85152382
_cell_length_c   6.83142400
_cell_angle_alpha   129.59948284
_cell_angle_beta   113.82249075
_cell_angle_gamma   87.53148548
_symmetry_Int_Tables_number   1
_chemical_formula_structural   Sr2Al3SiPd6
_chemical_formula_sum   'Sr2 Al3 Si1 Pd6'
_cell_volume   214.70471286
_cell_formula_units_Z   1
loop_
 _symmetry_equiv_pos_site_id
 _symmetry_equiv_pos_as_xyz
  1  'x, y, z'
loop_
 _atom_site_type_symbol
 _atom_site_label
 _atom_site_symmetry_multiplicity
 _atom_site_fract_x
 _atom_site_fract_y
 _atom_site_fract_z
 _atom_site_occupancy
  Sr  Sr0  1  0.000401  0.969354  0.968952  1
  Sr  Sr1  1  0.498948  0.043436  0.544489  1
  Al  Al2  1  0.344791  0.396716  0.051925  1
  Al  Al3  1  0.814654  0.255689  0.441036  1
  Al  Al4  1  0.656963  0.706653  0.049689  1
  Si  Si5  1  0.182512  0.625217  0.442706  1
  Pd  Pd6  1  0.968423  0.503305  0.969503  1
  Pd  Pd7  1  0.533800  0.503305  0.534881  1
  Pd  Pd8  1  0.040937  0.997340  0.541135  1
  Pd  Pd9  1  0.777472  0.493322  0.268433  1
  Pd  Pd10  1  0.224891  0.493322  0.715850  1
  Pd  Pd11  1  0.456206  0.997340  0.956403  1
