# generated using pymatgen
data_Be3Fe5Re4
_symmetry_space_group_name_H-M   'P 1'
_cell_length_a   4.58748975
_cell_length_b   4.53724847
_cell_length_c   7.44653444
_cell_angle_alpha   90.00000477
_cell_angle_beta   89.88145261
_cell_angle_gamma   119.63838107
_symmetry_Int_Tables_number   1
_chemical_formula_structural   Be3Fe5Re4
_chemical_formula_sum   'Be3 Fe5 Re4'
_cell_volume   134.71696767
_cell_formula_units_Z   1
loop_
 _symmetry_equiv_pos_site_id
 _symmetry_equiv_pos_as_xyz
  1  'x, y, z'
loop_
 _atom_site_type_symbol
 _atom_site_label
 _atom_site_symmetry_multiplicity
 _atom_site_fract_x
 _atom_site_fract_y
 _atom_site_fract_z
 _atom_site_occupancy
  Be  Be0  1  0.000000  0.000906  0.500000  1
  Be  Be1  1  0.831187  0.165833  0.257373  1
  Be  Be2  1  0.168813  0.334646  0.742627  1
  Fe  Fe3  1  0.000000  0.012240  0.000000  1
  Fe  Fe4  1  0.829834  0.661355  0.252067  1
  Fe  Fe5  1  0.170166  0.831521  0.747933  1
  Fe  Fe6  1  0.661081  0.828673  0.744389  1
  Fe  Fe7  1  0.338919  0.167592  0.255611  1
  Re  Re8  1  0.332494  0.663737  0.066224  1
  Re  Re9  1  0.675942  0.339098  0.564533  1
  Re  Re10  1  0.667506  0.331242  0.933776  1
  Re  Re11  1  0.324058  0.663157  0.435467  1
