# generated using pymatgen
data_Ho4Zn2B4IrRh9
_symmetry_space_group_name_H-M   'P 1'
_cell_length_a   9.51168500
_cell_length_b   9.51168500
_cell_length_c   3.18584600
_cell_angle_alpha   90.00000000
_cell_angle_beta   90.00000000
_cell_angle_gamma   89.73725691
_symmetry_Int_Tables_number   1
_chemical_formula_structural   Ho4Zn2B4IrRh9
_chemical_formula_sum   'Ho4 Zn2 B4 Ir1 Rh9'
_cell_volume   288.22731166
_cell_formula_units_Z   1
loop_
 _symmetry_equiv_pos_site_id
 _symmetry_equiv_pos_as_xyz
  1  'x, y, z'
loop_
 _atom_site_type_symbol
 _atom_site_label
 _atom_site_symmetry_multiplicity
 _atom_site_fract_x
 _atom_site_fract_y
 _atom_site_fract_z
 _atom_site_occupancy
  Ho  Ho0  1  0.322424  0.822424  0.000000  1
  Ho  Ho1  1  0.677576  0.177576  0.000000  1
  Ho  Ho2  1  0.175699  0.324301  0.000000  1
  Ho  Ho3  1  0.824301  0.675699  0.000000  1
  Zn  Zn4  1  0.500000  0.500000  0.000000  1
  Zn  Zn5  1  0.000000  0.000000  0.000000  1
  B  B6  1  0.122841  0.622841  0.000000  1
  B  B7  1  0.877159  0.377159  0.000000  1
  B  B8  1  0.377696  0.122304  0.000000  1
  B  B9  1  0.622304  0.877696  0.000000  1
  Ir  Ir10  1  0.500000  0.000000  0.500000  1
  Rh  Rh11  1  0.569924  0.719603  0.500000  1
  Rh  Rh12  1  0.430076  0.280397  0.500000  1
  Rh  Rh13  1  0.931093  0.220388  0.500000  1
  Rh  Rh14  1  0.068907  0.779612  0.500000  1
  Rh  Rh15  1  0.780397  0.930076  0.500000  1
  Rh  Rh16  1  0.219603  0.069924  0.500000  1
  Rh  Rh17  1  0.279612  0.568907  0.500000  1
  Rh  Rh18  1  0.720388  0.431093  0.500000  1
  Rh  Rh19  1  0.000000  0.500000  0.500000  1
