# generated using pymatgen
data_Nd3InSn2Pt3
_symmetry_space_group_name_H-M   'P 1'
_cell_length_a   7.65900484
_cell_length_b   7.66818920
_cell_length_c   4.13949700
_cell_angle_alpha   90.00000000
_cell_angle_beta   90.00000000
_cell_angle_gamma   120.03966569
_symmetry_Int_Tables_number   1
_chemical_formula_structural   Nd3InSn2Pt3
_chemical_formula_sum   'Nd3 In1 Sn2 Pt3'
_cell_volume   210.46003697
_cell_formula_units_Z   1
loop_
 _symmetry_equiv_pos_site_id
 _symmetry_equiv_pos_as_xyz
  1  'x, y, z'
loop_
 _atom_site_type_symbol
 _atom_site_label
 _atom_site_symmetry_multiplicity
 _atom_site_fract_x
 _atom_site_fract_y
 _atom_site_fract_z
 _atom_site_occupancy
  Nd  Nd0  1  0.590941  0.589911  0.000000  1
  Nd  Nd1  1  0.409059  0.998970  0.000000  1
  Nd  Nd2  1  0.000000  0.412397  0.000000  1
  In  In3  1  0.000000  0.745719  0.500000  1
  Sn  Sn4  1  0.253015  0.250978  0.500000  1
  Sn  Sn5  1  0.746985  0.997963  0.500000  1
  Pt  Pt6  1  0.000000  0.004056  0.000000  1
  Pt  Pt7  1  0.333761  0.666884  0.500000  1
  Pt  Pt8  1  0.666239  0.333122  0.500000  1
