# generated using pymatgen
data_Sc12CdCo5
_symmetry_space_group_name_H-M   'P 1'
_cell_length_a   7.69584393
_cell_length_b   7.69584382
_cell_length_c   7.69584226
_cell_angle_alpha   105.94784152
_cell_angle_beta   111.93968526
_cell_angle_gamma   110.58567005
_symmetry_Int_Tables_number   1
_chemical_formula_structural   Sc12CdCo5
_chemical_formula_sum   'Sc12 Cd1 Co5'
_cell_volume   349.83093805
_cell_formula_units_Z   1
loop_
 _symmetry_equiv_pos_site_id
 _symmetry_equiv_pos_as_xyz
  1  'x, y, z'
loop_
 _atom_site_type_symbol
 _atom_site_label
 _atom_site_symmetry_multiplicity
 _atom_site_fract_x
 _atom_site_fract_y
 _atom_site_fract_z
 _atom_site_occupancy
  Sc  Sc0  1  0.462215  0.278296  0.183919  1
  Sc  Sc1  1  0.094378  0.278296  0.816081  1
  Sc  Sc2  1  0.905622  0.721704  0.183919  1
  Sc  Sc3  1  0.537785  0.721704  0.816081  1
  Sc  Sc4  1  0.303688  0.618335  0.314648  1
  Sc  Sc5  1  0.303688  0.989041  0.685352  1
  Sc  Sc6  1  0.696312  0.381665  0.685352  1
  Sc  Sc7  1  0.696312  0.010959  0.314648  1
  Sc  Sc8  1  0.192146  0.221632  0.413777  1
  Sc  Sc9  1  0.807854  0.778368  0.586223  1
  Sc  Sc10  1  0.192146  0.778368  0.970513  1
  Sc  Sc11  1  0.807854  0.221632  0.029487  1
  Cd  Cd12  1  0.000000  0.500000  0.500000  1
  Co  Co13  1  0.500000  0.619069  0.119069  1
  Co  Co14  1  0.500000  0.380931  0.880931  1
  Co  Co15  1  0.363423  0.000000  0.363423  1
  Co  Co16  1  0.636577  0.000000  0.636577  1
  Co  Co17  1  0.000000  0.000000  0.000000  1
