# generated using pymatgen
data_Na2CaI4
_symmetry_space_group_name_H-M   'P 1'
_cell_length_a   8.05094226
_cell_length_b   8.05094217
_cell_length_c   4.61517400
_cell_angle_alpha   90.00000000
_cell_angle_beta   90.00000000
_cell_angle_gamma   109.74997634
_symmetry_Int_Tables_number   1
_chemical_formula_structural   Na2CaI4
_chemical_formula_sum   'Na2 Ca1 I4'
_cell_volume   281.54797885
_cell_formula_units_Z   1
loop_
 _symmetry_equiv_pos_site_id
 _symmetry_equiv_pos_as_xyz
  1  'x, y, z'
loop_
 _atom_site_type_symbol
 _atom_site_label
 _atom_site_symmetry_multiplicity
 _atom_site_fract_x
 _atom_site_fract_y
 _atom_site_fract_z
 _atom_site_occupancy
  Na  Na0  1  0.000000  0.500000  0.500000  1
  Na  Na1  1  0.500000  0.000000  0.500000  1
  Ca  Ca2  1  0.000000  0.000000  0.000000  1
  I  I3  1  0.765635  0.765635  0.500000  1
  I  I4  1  0.234365  0.234365  0.500000  1
  I  I5  1  0.239555  0.760445  0.000000  1
  I  I6  1  0.760445  0.239555  0.000000  1
