# generated using pymatgen
data_Y2Al4Pt3
_symmetry_space_group_name_H-M   'P 1'
_cell_length_a   13.58121200
_cell_length_b   13.58121184
_cell_length_c   4.26818100
_cell_angle_alpha   90.00000000
_cell_angle_beta   90.00000000
_cell_angle_gamma   119.99999552
_symmetry_Int_Tables_number   1
_chemical_formula_structural   Y2Al4Pt3
_chemical_formula_sum   'Y8 Al16 Pt12'
_cell_volume   681.78984998
_cell_formula_units_Z   4
loop_
 _symmetry_equiv_pos_site_id
 _symmetry_equiv_pos_as_xyz
  1  'x, y, z'
loop_
 _atom_site_type_symbol
 _atom_site_label
 _atom_site_symmetry_multiplicity
 _atom_site_fract_x
 _atom_site_fract_y
 _atom_site_fract_z
 _atom_site_occupancy
  Y  Y0  1  0.177497  0.000000  0.500000  1
  Y  Y1  1  0.822503  0.822503  0.500000  1
  Y  Y2  1  0.000000  0.177497  0.500000  1
  Y  Y3  1  0.666667  0.333333  0.000000  1
  Y  Y4  1  0.333333  0.666667  0.000000  1
  Y  Y5  1  0.549553  0.000000  0.000000  1
  Y  Y6  1  0.450447  0.450447  0.000000  1
  Y  Y7  1  0.000000  0.549553  0.000000  1
  Al  Al8  1  0.467902  0.123946  0.500000  1
  Al  Al9  1  0.876054  0.343956  0.500000  1
  Al  Al10  1  0.656044  0.532098  0.500000  1
  Al  Al11  1  0.532098  0.656044  0.500000  1
  Al  Al12  1  0.343956  0.876054  0.500000  1
  Al  Al13  1  0.123946  0.467902  0.500000  1
  Al  Al14  1  0.379381  0.198799  0.000000  1
  Al  Al15  1  0.801201  0.180584  0.000000  1
  Al  Al16  1  0.819416  0.620619  0.000000  1
  Al  Al17  1  0.620619  0.819416  0.000000  1
  Al  Al18  1  0.000000  0.000000  0.000000  1
  Al  Al19  1  0.180584  0.801201  0.000000  1
  Al  Al20  1  0.722836  0.000000  0.500000  1
  Al  Al21  1  0.277164  0.277164  0.500000  1
  Al  Al22  1  0.000000  0.722836  0.500000  1
  Al  Al23  1  0.198799  0.379381  0.000000  1
  Pt  Pt24  1  0.000000  0.348201  0.000000  1
  Pt  Pt25  1  0.348201  0.000000  0.000000  1
  Pt  Pt26  1  0.487429  0.319043  0.500000  1
  Pt  Pt27  1  0.680957  0.168384  0.500000  1
  Pt  Pt28  1  0.831616  0.512571  0.500000  1
  Pt  Pt29  1  0.512571  0.831616  0.500000  1
  Pt  Pt30  1  0.168384  0.680957  0.500000  1
  Pt  Pt31  1  0.319043  0.487429  0.500000  1
  Pt  Pt32  1  0.000000  0.818967  0.000000  1
  Pt  Pt33  1  0.181033  0.181033  0.000000  1
  Pt  Pt34  1  0.818967  0.000000  0.000000  1
  Pt  Pt35  1  0.651799  0.651799  0.000000  1
