# generated using pymatgen
data_DyEr2(SiIr)2
_symmetry_space_group_name_H-M   'P 1'
_cell_length_a   5.54243305
_cell_length_b   5.54243225
_cell_length_c   13.18311178
_cell_angle_alpha   89.89211624
_cell_angle_beta   90.10788333
_cell_angle_gamma   136.86114526
_symmetry_Int_Tables_number   1
_chemical_formula_structural   DyEr2(SiIr)2
_chemical_formula_sum   'Dy2 Er4 Si4 Ir4'
_cell_volume   276.90267717
_cell_formula_units_Z   2
loop_
 _symmetry_equiv_pos_site_id
 _symmetry_equiv_pos_as_xyz
  1  'x, y, z'
loop_
 _atom_site_type_symbol
 _atom_site_label
 _atom_site_symmetry_multiplicity
 _atom_site_fract_x
 _atom_site_fract_y
 _atom_site_fract_z
 _atom_site_occupancy
  Dy  Dy0  1  0.774078  0.225922  0.604472  1
  Dy  Dy1  1  0.225922  0.774078  0.395528  1
  Er  Er2  1  0.517792  0.482208  0.249816  1
  Er  Er3  1  0.773987  0.226013  0.895572  1
  Er  Er4  1  0.482208  0.517792  0.750184  1
  Er  Er5  1  0.226013  0.773987  0.104428  1
  Si  Si6  1  0.061703  0.938297  0.590426  1
  Si  Si7  1  0.061892  0.938108  0.909701  1
  Si  Si8  1  0.938297  0.061703  0.409574  1
  Si  Si9  1  0.938108  0.061892  0.090299  1
  Ir  Ir10  1  0.811332  0.188668  0.249611  1
  Ir  Ir11  1  0.188668  0.811332  0.750389  1
  Ir  Ir12  1  0.500000  0.500000  0.000000  1
  Ir  Ir13  1  0.500000  0.500000  0.500000  1
