# generated using pymatgen
data_Ac2YSnBRh6
_symmetry_space_group_name_H-M   'P 1'
_cell_length_a   6.03599000
_cell_length_b   6.03598891
_cell_length_c   13.78607800
_cell_angle_alpha   90.00000000
_cell_angle_beta   90.00000000
_cell_angle_gamma   119.99999499
_symmetry_Int_Tables_number   1
_chemical_formula_structural   Ac2YSnBRh6
_chemical_formula_sum   'Ac4 Y2 Sn2 B2 Rh12'
_cell_volume   434.97903955
_cell_formula_units_Z   2
loop_
 _symmetry_equiv_pos_site_id
 _symmetry_equiv_pos_as_xyz
  1  'x, y, z'
loop_
 _atom_site_type_symbol
 _atom_site_label
 _atom_site_symmetry_multiplicity
 _atom_site_fract_x
 _atom_site_fract_y
 _atom_site_fract_z
 _atom_site_occupancy
  Ac  Ac0  1  0.333333  0.666667  0.399602  1
  Ac  Ac1  1  0.666667  0.333333  0.899602  1
  Ac  Ac2  1  0.666667  0.333333  0.600398  1
  Ac  Ac3  1  0.333333  0.666667  0.100398  1
  Y  Y4  1  0.000000  0.000000  0.750000  1
  Y  Y5  1  0.000000  0.000000  0.250000  1
  Sn  Sn6  1  0.333333  0.666667  0.750000  1
  Sn  Sn7  1  0.666667  0.333333  0.250000  1
  B  B8  1  0.000000  0.000000  0.500000  1
  B  B9  1  0.000000  0.000000  0.000000  1
  Rh  Rh10  1  0.338450  0.169226  0.412750  1
  Rh  Rh11  1  0.830774  0.169226  0.412750  1
  Rh  Rh12  1  0.830774  0.661550  0.412750  1
  Rh  Rh13  1  0.169226  0.338450  0.912750  1
  Rh  Rh14  1  0.661550  0.830774  0.587250  1
  Rh  Rh15  1  0.661550  0.830774  0.912750  1
  Rh  Rh16  1  0.338450  0.169226  0.087250  1
  Rh  Rh17  1  0.169226  0.338450  0.587250  1
  Rh  Rh18  1  0.169226  0.830774  0.587250  1
  Rh  Rh19  1  0.830774  0.169226  0.087250  1
  Rh  Rh20  1  0.830774  0.661550  0.087250  1
  Rh  Rh21  1  0.169226  0.830774  0.912750  1
