# generated using pymatgen
data_Pr2Al9CoPt2
_symmetry_space_group_name_H-M   'P 1'
_cell_length_a   7.62877325
_cell_length_b   7.62877190
_cell_length_c   9.57956000
_cell_angle_alpha   89.83718485
_cell_angle_beta   89.83719065
_cell_angle_gamma   119.60738314
_symmetry_Int_Tables_number   1
_chemical_formula_structural   Pr2Al9CoPt2
_chemical_formula_sum   'Pr4 Al18 Co2 Pt4'
_cell_volume   484.71138934
_cell_formula_units_Z   2
loop_
 _symmetry_equiv_pos_site_id
 _symmetry_equiv_pos_as_xyz
  1  'x, y, z'
loop_
 _atom_site_type_symbol
 _atom_site_label
 _atom_site_symmetry_multiplicity
 _atom_site_fract_x
 _atom_site_fract_y
 _atom_site_fract_z
 _atom_site_occupancy
  Pr  Pr0  1  0.004993  0.330689  0.750005  1
  Pr  Pr1  1  0.333636  0.008773  0.749641  1
  Pr  Pr2  1  0.991227  0.666364  0.250359  1
  Pr  Pr3  1  0.669311  0.995007  0.249995  1
  Al  Al4  1  0.657302  0.989411  0.927768  1
  Al  Al5  1  0.000004  0.674544  0.571522  1
  Al  Al6  1  0.128503  0.127364  0.256116  1
  Al  Al7  1  0.658885  0.666186  0.048109  1
  Al  Al8  1  0.326244  0.326694  0.547979  1
  Al  Al9  1  0.333814  0.341115  0.951891  1
  Al  Al10  1  0.673306  0.673756  0.452021  1
  Al  Al11  1  0.333531  0.990613  0.071867  1
  Al  Al12  1  0.002109  0.326044  0.428153  1
  Al  Al13  1  0.339969  0.549590  0.242422  1
  Al  Al14  1  0.010589  0.342698  0.072232  1
  Al  Al15  1  0.540612  0.339653  0.249894  1
  Al  Al16  1  0.660347  0.459388  0.750106  1
  Al  Al17  1  0.872636  0.871497  0.743884  1
  Al  Al18  1  0.009387  0.666469  0.928133  1
  Al  Al19  1  0.673956  0.997891  0.571847  1
  Al  Al20  1  0.325456  0.999996  0.428478  1
  Al  Al21  1  0.450410  0.660031  0.757578  1
  Co  Co22  1  0.000202  0.999798  0.500000  1
  Co  Co23  1  0.330980  0.669020  0.000000  1
  Pt  Pt24  1  0.671142  0.328858  0.500000  1
  Pt  Pt25  1  0.671445  0.328555  0.000000  1
  Pt  Pt26  1  0.329619  0.670381  0.500000  1
  Pt  Pt27  1  0.000383  0.999617  0.000000  1
