# generated using pymatgen
data_Rb2YU(AuSe3)2
_symmetry_space_group_name_H-M   'P 1'
_cell_length_a   4.20105500
_cell_length_b   8.11570624
_cell_length_c   10.79479870
_cell_angle_alpha   88.97762443
_cell_angle_beta   90.00000000
_cell_angle_gamma   74.99979053
_symmetry_Int_Tables_number   1
_chemical_formula_structural   Rb2YU(AuSe3)2
_chemical_formula_sum   'Rb2 Y1 U1 Au2 Se6'
_cell_volume   355.44178219
_cell_formula_units_Z   1
loop_
 _symmetry_equiv_pos_site_id
 _symmetry_equiv_pos_as_xyz
  1  'x, y, z'
loop_
 _atom_site_type_symbol
 _atom_site_label
 _atom_site_symmetry_multiplicity
 _atom_site_fract_x
 _atom_site_fract_y
 _atom_site_fract_z
 _atom_site_occupancy
  Rb  Rb0  1  0.249980  0.500039  0.236214  1
  Rb  Rb1  1  0.750020  0.499960  0.763787  1
  Y  Y2  1  0.000000  0.000000  0.000000  1
  U  U3  1  0.000000  0.000000  0.500000  1
  Au  Au4  1  0.545418  0.909165  0.250180  1
  Au  Au5  1  0.454582  0.090834  0.749820  1
  Se  Se6  1  0.624053  0.751893  0.044722  1
  Se  Se7  1  0.935925  0.128151  0.260384  1
  Se  Se8  1  0.619806  0.760386  0.464692  1
  Se  Se9  1  0.380194  0.239613  0.535308  1
  Se  Se10  1  0.064075  0.871850  0.739616  1
  Se  Se11  1  0.375947  0.248107  0.955278  1
