# generated using pymatgen
data_Dy15Tm5Sn7Pb9
_symmetry_space_group_name_H-M   'P 1'
_cell_length_a   8.09002000
_cell_length_b   8.13651316
_cell_length_c   15.44240300
_cell_angle_alpha   90.00408425
_cell_angle_beta   89.99975920
_cell_angle_gamma   90.05029263
_symmetry_Int_Tables_number   1
_chemical_formula_structural   Dy15Tm5Sn7Pb9
_chemical_formula_sum   'Dy15 Tm5 Sn7 Pb9'
_cell_volume   1016.48889839
_cell_formula_units_Z   1
loop_
 _symmetry_equiv_pos_site_id
 _symmetry_equiv_pos_as_xyz
  1  'x, y, z'
loop_
 _atom_site_type_symbol
 _atom_site_label
 _atom_site_symmetry_multiplicity
 _atom_site_fract_x
 _atom_site_fract_y
 _atom_site_fract_z
 _atom_site_occupancy
  Dy  Dy0  1  0.880590  0.661186  0.623288  1
  Dy  Dy1  1  0.619504  0.161137  0.377515  1
  Dy  Dy2  1  0.119591  0.337312  0.122458  1
  Dy  Dy3  1  0.619575  0.161358  0.122551  1
  Dy  Dy4  1  0.119416  0.337314  0.377326  1
  Dy  Dy5  1  0.380368  0.838346  0.623229  1
  Dy  Dy6  1  0.880801  0.661082  0.876876  1
  Dy  Dy7  1  0.537533  0.324532  0.895998  1
  Dy  Dy8  1  0.038092  0.174786  0.604283  1
  Dy  Dy9  1  0.465050  0.675337  0.397328  1
  Dy  Dy10  1  0.960133  0.826762  0.101429  1
  Dy  Dy11  1  0.464957  0.675442  0.102420  1
  Dy  Dy12  1  0.960276  0.826908  0.398587  1
  Dy  Dy13  1  0.537502  0.324671  0.604142  1
  Dy  Dy14  1  0.038118  0.174727  0.895735  1
  Tm  Tm15  1  0.380084  0.838553  0.876517  1
  Tm  Tm16  1  0.211219  0.503678  0.750201  1
  Tm  Tm17  1  0.710652  0.996373  0.750166  1
  Tm  Tm18  1  0.787143  0.494948  0.250004  1
  Tm  Tm19  1  0.291046  0.006380  0.249955  1
  Sn  Sn20  1  0.575517  0.622903  0.750456  1
  Sn  Sn21  1  0.076655  0.877354  0.750311  1
  Sn  Sn22  1  0.424460  0.377028  0.249999  1
  Sn  Sn23  1  0.923736  0.121218  0.249950  1
  Sn  Sn24  1  0.345464  0.148555  0.750233  1
  Sn  Sn25  1  0.845276  0.350744  0.750014  1
  Sn  Sn26  1  0.655608  0.850389  0.249984  1
  Pb  Pb27  1  0.281073  0.030685  0.040756  1
  Pb  Pb28  1  0.781669  0.467467  0.458606  1
  Pb  Pb29  1  0.718595  0.968545  0.542556  1
  Pb  Pb30  1  0.219900  0.532742  0.958124  1
  Pb  Pb31  1  0.717291  0.968181  0.957314  1
  Pb  Pb32  1  0.219273  0.531598  0.541701  1
  Pb  Pb33  1  0.280650  0.031400  0.458574  1
  Pb  Pb34  1  0.781618  0.467442  0.041419  1
  Pb  Pb35  1  0.151558  0.652916  0.249991  1
