# generated using pymatgen
data_Yb10Ga2Cu3Pt
_symmetry_space_group_name_H-M   'P 1'
_cell_length_a   8.89382707
_cell_length_b   8.89382636
_cell_length_c   8.88975351
_cell_angle_alpha   128.87973534
_cell_angle_beta   128.87972960
_cell_angle_gamma   75.23824659
_symmetry_Int_Tables_number   1
_chemical_formula_structural   Yb10Ga2Cu3Pt
_chemical_formula_sum   'Yb10 Ga2 Cu3 Pt1'
_cell_volume   414.74055199
_cell_formula_units_Z   1
loop_
 _symmetry_equiv_pos_site_id
 _symmetry_equiv_pos_as_xyz
  1  'x, y, z'
loop_
 _atom_site_type_symbol
 _atom_site_label
 _atom_site_symmetry_multiplicity
 _atom_site_fract_x
 _atom_site_fract_y
 _atom_site_fract_z
 _atom_site_occupancy
  Yb  Yb0  1  0.531684  0.027402  0.838943  1
  Yb  Yb1  1  0.192741  0.688458  0.161057  1
  Yb  Yb2  1  0.030171  0.188942  0.500000  1
  Yb  Yb3  1  0.685622  0.535483  0.500000  1
  Yb  Yb4  1  0.472598  0.968316  0.161057  1
  Yb  Yb5  1  0.811542  0.307259  0.838943  1
  Yb  Yb6  1  0.964517  0.814378  0.500000  1
  Yb  Yb7  1  0.311058  0.469829  0.500000  1
  Yb  Yb8  1  0.501362  0.503565  0.004926  1
  Yb  Yb9  1  0.996435  0.998638  0.995074  1
  Ga  Ga10  1  0.251182  0.248818  0.000000  1
  Ga  Ga11  1  0.751182  0.748818  0.000000  1
  Cu  Cu12  1  0.378223  0.121777  0.500000  1
  Cu  Cu13  1  0.115988  0.614978  0.730967  1
  Cu  Cu14  1  0.885022  0.384012  0.269033  1
  Pt  Pt15  1  0.620679  0.879321  0.500000  1
