# generated using pymatgen
data_TbDyTm6(CdNi)2
_symmetry_space_group_name_H-M   'P 1'
_cell_length_a   9.44713877
_cell_length_b   9.44713987
_cell_length_c   9.46011000
_cell_angle_alpha   59.95457390
_cell_angle_beta   59.95457005
_cell_angle_gamma   59.91758744
_symmetry_Int_Tables_number   1
_chemical_formula_structural   TbDyTm6(CdNi)2
_chemical_formula_sum   'Tb2 Dy2 Tm12 Cd4 Ni4'
_cell_volume   596.22808566
_cell_formula_units_Z   2
loop_
 _symmetry_equiv_pos_site_id
 _symmetry_equiv_pos_as_xyz
  1  'x, y, z'
loop_
 _atom_site_type_symbol
 _atom_site_label
 _atom_site_symmetry_multiplicity
 _atom_site_fract_x
 _atom_site_fract_y
 _atom_site_fract_z
 _atom_site_occupancy
  Tb  Tb0  1  0.351817  0.948482  0.349850  1
  Tb  Tb1  1  0.948482  0.351817  0.349850  1
  Dy  Dy2  1  0.349808  0.349808  0.347969  1
  Dy  Dy3  1  0.349808  0.349808  0.952415  1
  Tm  Tm4  1  0.812486  0.187409  0.188102  1
  Tm  Tm5  1  0.187409  0.812486  0.812003  1
  Tm  Tm6  1  0.187409  0.812486  0.188102  1
  Tm  Tm7  1  0.812486  0.187409  0.812003  1
  Tm  Tm8  1  0.188713  0.188713  0.811287  1
  Tm  Tm9  1  0.813250  0.813250  0.186750  1
  Tm  Tm10  1  0.935916  0.564058  0.564425  1
  Tm  Tm11  1  0.564058  0.935916  0.935601  1
  Tm  Tm12  1  0.564058  0.935916  0.564425  1
  Tm  Tm13  1  0.935916  0.564058  0.935601  1
  Tm  Tm14  1  0.564957  0.564957  0.935043  1
  Tm  Tm15  1  0.936433  0.936433  0.563567  1
  Cd  Cd16  1  0.581135  0.581135  0.582706  1
  Cd  Cd17  1  0.581135  0.581135  0.255026  1
  Cd  Cd18  1  0.580918  0.254284  0.582400  1
  Cd  Cd19  1  0.254284  0.580918  0.582400  1
  Ni  Ni20  1  0.141888  0.141888  0.142965  1
  Ni  Ni21  1  0.141888  0.141888  0.573262  1
  Ni  Ni22  1  0.141180  0.574570  0.142126  1
  Ni  Ni23  1  0.574570  0.141180  0.142126  1
