# generated using pymatgen
data_Ac(ErS2)3
_symmetry_space_group_name_H-M   'P 1'
_cell_length_a   4.04172300
_cell_length_b   11.16166667
_cell_length_c   11.41658160
_cell_angle_alpha   71.19899443
_cell_angle_beta   90.00000000
_cell_angle_gamma   90.00000000
_symmetry_Int_Tables_number   1
_chemical_formula_structural   Ac(ErS2)3
_chemical_formula_sum   'Ac2 Er6 S12'
_cell_volume   487.54890408
_cell_formula_units_Z   2
loop_
 _symmetry_equiv_pos_site_id
 _symmetry_equiv_pos_as_xyz
  1  'x, y, z'
loop_
 _atom_site_type_symbol
 _atom_site_label
 _atom_site_symmetry_multiplicity
 _atom_site_fract_x
 _atom_site_fract_y
 _atom_site_fract_z
 _atom_site_occupancy
  Ac  Ac0  1  0.750000  0.552094  0.802423  1
  Ac  Ac1  1  0.250000  0.447906  0.197577  1
  Er  Er2  1  0.250000  0.823740  0.000302  1
  Er  Er3  1  0.750000  0.946236  0.665749  1
  Er  Er4  1  0.250000  0.053764  0.334251  1
  Er  Er5  1  0.750000  0.662434  0.410226  1
  Er  Er6  1  0.250000  0.337566  0.589774  1
  Er  Er7  1  0.750000  0.176260  0.999698  1
  S  S8  1  0.750000  0.893813  0.442835  1
  S  S9  1  0.250000  0.106187  0.557165  1
  S  S10  1  0.750000  0.298428  0.747749  1
  S  S11  1  0.250000  0.701572  0.252251  1
  S  S12  1  0.750000  0.977461  0.888860  1
  S  S13  1  0.250000  0.022539  0.111140  1
  S  S14  1  0.750000  0.627918  0.035537  1
  S  S15  1  0.250000  0.372082  0.964463  1
  S  S16  1  0.750000  0.225465  0.231315  1
  S  S17  1  0.250000  0.774535  0.768685  1
  S  S18  1  0.750000  0.418044  0.412541  1
  S  S19  1  0.250000  0.581956  0.587459  1
