# generated using pymatgen
data_Dy4Y3Tm13Pt16
_symmetry_space_group_name_H-M   'P 1'
_cell_length_a   7.43568501
_cell_length_b   7.50834586
_cell_length_c   14.61296705
_cell_angle_alpha   90.00274088
_cell_angle_beta   89.99263217
_cell_angle_gamma   89.96044014
_symmetry_Int_Tables_number   1
_chemical_formula_structural   Dy4Y3Tm13Pt16
_chemical_formula_sum   'Dy4 Y3 Tm13 Pt16'
_cell_volume   815.83728758
_cell_formula_units_Z   1
loop_
 _symmetry_equiv_pos_site_id
 _symmetry_equiv_pos_as_xyz
  1  'x, y, z'
loop_
 _atom_site_type_symbol
 _atom_site_label
 _atom_site_symmetry_multiplicity
 _atom_site_fract_x
 _atom_site_fract_y
 _atom_site_fract_z
 _atom_site_occupancy
  Dy  Dy0  1  0.498611  0.679479  0.093124  1
  Dy  Dy1  1  0.501595  0.320462  0.592969  1
  Dy  Dy2  1  0.001436  0.179528  0.907069  1
  Dy  Dy3  1  0.001121  0.178716  0.592683  1
  Y  Y4  1  0.501236  0.320748  0.907089  1
  Y  Y5  1  0.498754  0.679591  0.407102  1
  Y  Y6  1  0.998948  0.820537  0.092868  1
  Tm  Tm7  1  0.681157  0.989828  0.250329  1
  Tm  Tm8  1  0.180935  0.510362  0.250315  1
  Tm  Tm9  1  0.818991  0.489748  0.749843  1
  Tm  Tm10  1  0.319007  0.010107  0.749949  1
  Tm  Tm11  1  0.656162  0.832675  0.622416  1
  Tm  Tm12  1  0.156136  0.667460  0.877407  1
  Tm  Tm13  1  0.843986  0.332429  0.377537  1
  Tm  Tm14  1  0.343803  0.167479  0.122659  1
  Tm  Tm15  1  0.343271  0.167166  0.377693  1
  Tm  Tm16  1  0.843957  0.332402  0.122698  1
  Tm  Tm17  1  0.155580  0.667950  0.622215  1
  Tm  Tm18  1  0.656093  0.832381  0.877514  1
  Tm  Tm19  1  0.997640  0.819644  0.406763  1
  Pt  Pt20  1  0.817598  0.642526  0.251224  1
  Pt  Pt21  1  0.315836  0.858288  0.250333  1
  Pt  Pt22  1  0.683648  0.141762  0.749691  1
  Pt  Pt23  1  0.183352  0.358170  0.749802  1
  Pt  Pt24  1  0.546588  0.384607  0.250041  1
  Pt  Pt25  1  0.045973  0.114862  0.250620  1
  Pt  Pt26  1  0.953798  0.884454  0.749954  1
  Pt  Pt27  1  0.453706  0.615732  0.749806  1
  Pt  Pt28  1  0.818063  0.534777  0.541600  1
  Pt  Pt29  1  0.317678  0.965934  0.958025  1
  Pt  Pt30  1  0.684712  0.032566  0.457616  1
  Pt  Pt31  1  0.182189  0.466102  0.042059  1
  Pt  Pt32  1  0.181294  0.467773  0.457408  1
  Pt  Pt33  1  0.682072  0.034070  0.042029  1
  Pt  Pt34  1  0.317228  0.965758  0.541567  1
  Pt  Pt35  1  0.817852  0.533925  0.957985  1
