# generated using pymatgen
data_LiYb2CdPd4
_symmetry_space_group_name_H-M   'P 1'
_cell_length_a   6.16140223
_cell_length_b   5.74222253
_cell_length_c   5.74222248
_cell_angle_alpha   64.89135021
_cell_angle_beta   57.55431992
_cell_angle_gamma   57.55431512
_symmetry_Int_Tables_number   1
_chemical_formula_structural   LiYb2CdPd4
_chemical_formula_sum   'Li1 Yb2 Cd1 Pd4'
_cell_volume   142.00185748
_cell_formula_units_Z   1
loop_
 _symmetry_equiv_pos_site_id
 _symmetry_equiv_pos_as_xyz
  1  'x, y, z'
loop_
 _atom_site_type_symbol
 _atom_site_label
 _atom_site_symmetry_multiplicity
 _atom_site_fract_x
 _atom_site_fract_y
 _atom_site_fract_z
 _atom_site_occupancy
  Li  Li0  1  0.000000  0.000000  0.000000  1
  Yb  Yb1  1  0.000000  0.500000  0.500000  1
  Yb  Yb2  1  0.500000  0.000000  0.000000  1
  Cd  Cd3  1  0.500000  0.500000  0.500000  1
  Pd  Pd4  1  0.000000  0.000000  0.500000  1
  Pd  Pd5  1  0.500000  0.000000  0.500000  1
  Pd  Pd6  1  0.500000  0.500000  0.000000  1
  Pd  Pd7  1  0.000000  0.500000  0.000000  1
