# generated using pymatgen
data_Pm2Mo2N5
_symmetry_space_group_name_H-M   'P 1'
_cell_length_a   7.43311000
_cell_length_b   4.01266600
_cell_length_c   4.01266600
_cell_angle_alpha   90.00000000
_cell_angle_beta   90.00000000
_cell_angle_gamma   90.00000000
_symmetry_Int_Tables_number   1
_chemical_formula_structural   Pm2Mo2N5
_chemical_formula_sum   'Pm2 Mo2 N5'
_cell_volume   119.68413465
_cell_formula_units_Z   1
loop_
 _symmetry_equiv_pos_site_id
 _symmetry_equiv_pos_as_xyz
  1  'x, y, z'
loop_
 _atom_site_type_symbol
 _atom_site_label
 _atom_site_symmetry_multiplicity
 _atom_site_fract_x
 _atom_site_fract_y
 _atom_site_fract_z
 _atom_site_occupancy
  Pm  Pm0  1  0.000000  0.000000  0.000000  1
  Pm  Pm1  1  0.500000  0.000000  0.000000  1
  Mo  Mo2  1  0.243634  0.499999  0.499999  1
  Mo  Mo3  1  0.756367  0.499999  0.499999  1
  N  N4  1  0.223331  0.499999  0.000000  1
  N  N5  1  0.776670  0.499999  0.000000  1
  N  N6  1  0.223331  0.000000  0.499999  1
  N  N7  1  0.776670  0.000000  0.499999  1
  N  N8  1  0.500000  0.499999  0.499999  1
