# generated using pymatgen
data_DyPa2Ga8Os3
_symmetry_space_group_name_H-M   'P 1'
_cell_length_a   8.10116343
_cell_length_b   8.10116405
_cell_length_c   8.10116425
_cell_angle_alpha   149.27204859
_cell_angle_beta   104.66877210
_cell_angle_gamma   83.52129924
_symmetry_Int_Tables_number   1
_chemical_formula_structural   DyPa2Ga8Os3
_chemical_formula_sum   'Dy1 Pa2 Ga8 Os3'
_cell_volume   256.82919814
_cell_formula_units_Z   1
loop_
 _symmetry_equiv_pos_site_id
 _symmetry_equiv_pos_as_xyz
  1  'x, y, z'
loop_
 _atom_site_type_symbol
 _atom_site_label
 _atom_site_symmetry_multiplicity
 _atom_site_fract_x
 _atom_site_fract_y
 _atom_site_fract_z
 _atom_site_occupancy
  Dy  Dy0  1  0.500000  0.500000  0.000000  1
  Pa  Pa1  1  0.163953  0.163953  0.000000  1
  Pa  Pa2  1  0.836047  0.836047  0.000000  1
  Ga  Ga3  1  0.099294  0.375393  0.723902  1
  Ga  Ga4  1  0.900706  0.624607  0.276098  1
  Ga  Ga5  1  0.651490  0.375393  0.276098  1
  Ga  Ga6  1  0.348510  0.624607  0.723902  1
  Ga  Ga7  1  0.795087  0.167684  0.627403  1
  Ga  Ga8  1  0.204913  0.832316  0.372597  1
  Ga  Ga9  1  0.540282  0.167684  0.372597  1
  Ga  Ga10  1  0.459718  0.832316  0.627403  1
  Os  Os11  1  0.000000  0.500000  0.500000  1
  Os  Os12  1  0.792185  0.000000  0.792185  1
  Os  Os13  1  0.207815  0.000000  0.207815  1
