# generated using pymatgen
data_GdNp(Si7Ir3)2
_symmetry_space_group_name_H-M   'P 1'
_cell_length_a   8.08022768
_cell_length_b   8.08022771
_cell_length_c   8.08022700
_cell_angle_alpha   56.78065589
_cell_angle_beta   56.78065575
_cell_angle_gamma   56.78066183
_symmetry_Int_Tables_number   1
_chemical_formula_structural   GdNp(Si7Ir3)2
_chemical_formula_sum   'Gd1 Np1 Si14 Ir6'
_cell_volume   345.31950724
_cell_formula_units_Z   1
loop_
 _symmetry_equiv_pos_site_id
 _symmetry_equiv_pos_as_xyz
  1  'x, y, z'
loop_
 _atom_site_type_symbol
 _atom_site_label
 _atom_site_symmetry_multiplicity
 _atom_site_fract_x
 _atom_site_fract_y
 _atom_site_fract_z
 _atom_site_occupancy
  Gd  Gd0  1  0.500000  0.500000  0.500000  1
  Np  Np1  1  0.000000  0.000000  0.000000  1
  Si  Si2  1  0.851029  0.063708  0.673697  1
  Si  Si3  1  0.673697  0.851029  0.063708  1
  Si  Si4  1  0.063708  0.673697  0.851029  1
  Si  Si5  1  0.649537  0.827058  0.434693  1
  Si  Si6  1  0.249751  0.249751  0.249751  1
  Si  Si7  1  0.750249  0.750249  0.750249  1
  Si  Si8  1  0.172942  0.565307  0.350463  1
  Si  Si9  1  0.565307  0.350463  0.172942  1
  Si  Si10  1  0.350463  0.172942  0.565307  1
  Si  Si11  1  0.936292  0.326303  0.148971  1
  Si  Si12  1  0.326303  0.148971  0.936292  1
  Si  Si13  1  0.148971  0.936292  0.326303  1
  Si  Si14  1  0.827058  0.434693  0.649537  1
  Si  Si15  1  0.434693  0.649537  0.827058  1
  Ir  Ir16  1  0.749561  0.068772  0.431730  1
  Ir  Ir17  1  0.431730  0.749561  0.068772  1
  Ir  Ir18  1  0.068772  0.431730  0.749561  1
  Ir  Ir19  1  0.250439  0.931228  0.568270  1
  Ir  Ir20  1  0.568270  0.250439  0.931228  1
  Ir  Ir21  1  0.931228  0.568270  0.250439  1
