# generated using pymatgen
data_DyTh3(Ni2Sn)2
_symmetry_space_group_name_H-M   'P 1'
_cell_length_a   7.53634696
_cell_length_b   7.53634696
_cell_length_c   3.74108900
_cell_angle_alpha   90.00000000
_cell_angle_beta   90.00000000
_cell_angle_gamma   91.01727073
_symmetry_Int_Tables_number   1
_chemical_formula_structural   DyTh3(Ni2Sn)2
_chemical_formula_sum   'Dy1 Th3 Ni4 Sn2'
_cell_volume   212.44736740
_cell_formula_units_Z   1
loop_
 _symmetry_equiv_pos_site_id
 _symmetry_equiv_pos_as_xyz
  1  'x, y, z'
loop_
 _atom_site_type_symbol
 _atom_site_label
 _atom_site_symmetry_multiplicity
 _atom_site_fract_x
 _atom_site_fract_y
 _atom_site_fract_z
 _atom_site_occupancy
  Dy  Dy0  1  0.824251  0.675749  0.500000  1
  Th  Th1  1  0.675977  0.175666  0.500000  1
  Th  Th2  1  0.324334  0.824023  0.500000  1
  Th  Th3  1  0.173078  0.326922  0.500000  1
  Ni  Ni4  1  0.879667  0.373164  0.000000  1
  Ni  Ni5  1  0.126836  0.620333  0.000000  1
  Ni  Ni6  1  0.374713  0.125287  0.000000  1
  Ni  Ni7  1  0.618704  0.881296  0.000000  1
  Sn  Sn8  1  0.508438  0.505998  0.000000  1
  Sn  Sn9  1  0.994002  0.991562  0.000000  1
