# generated using pymatgen
data_ErSc7Ti10(Si8Mo)2
_symmetry_space_group_name_H-M   'P 1'
_cell_length_a   6.86381561
_cell_length_b   6.86693121
_cell_length_c   12.58656257
_cell_angle_alpha   89.93155260
_cell_angle_beta   90.07852760
_cell_angle_gamma   89.95214918
_symmetry_Int_Tables_number   1
_chemical_formula_structural   ErSc7Ti10(Si8Mo)2
_chemical_formula_sum   'Er1 Sc7 Ti10 Si16 Mo2'
_cell_volume   593.24566594
_cell_formula_units_Z   1
loop_
 _symmetry_equiv_pos_site_id
 _symmetry_equiv_pos_as_xyz
  1  'x, y, z'
loop_
 _atom_site_type_symbol
 _atom_site_label
 _atom_site_symmetry_multiplicity
 _atom_site_fract_x
 _atom_site_fract_y
 _atom_site_fract_z
 _atom_site_occupancy
  Er  Er0  1  0.997321  0.659780  0.032963  1
  Sc  Sc1  1  0.341483  0.000675  0.466596  1
  Sc  Sc2  1  0.498343  0.841686  0.716861  1
  Sc  Sc3  1  0.498490  0.158131  0.217559  1
  Sc  Sc4  1  0.842791  0.499960  0.282870  1
  Sc  Sc5  1  0.158787  0.500159  0.783452  1
  Sc  Sc6  1  0.655883  0.001015  0.966750  1
  Sc  Sc7  1  0.001590  0.341659  0.532506  1
  Ti  Ti8  1  0.827237  0.172743  0.749417  1
  Ti  Ti9  1  0.672586  0.672988  0.499715  1
  Ti  Ti10  1  0.151907  0.005810  0.874276  1
  Ti  Ti11  1  0.493912  0.649855  0.124735  1
  Ti  Ti12  1  0.505974  0.350979  0.624894  1
  Ti  Ti13  1  0.649252  0.491362  0.874763  1
  Ti  Ti14  1  0.350307  0.506384  0.375458  1
  Ti  Ti15  1  0.851056  0.994042  0.375210  1
  Ti  Ti16  1  0.007352  0.150412  0.125981  1
  Ti  Ti17  1  0.994119  0.851235  0.624439  1
  Si  Si18  1  0.204472  0.136650  0.679466  1
  Si  Si19  1  0.368328  0.705440  0.928503  1
  Si  Si20  1  0.637055  0.295207  0.429887  1
  Si  Si21  1  0.701146  0.360451  0.069602  1
  Si  Si22  1  0.295366  0.636738  0.570305  1
  Si  Si23  1  0.792133  0.868560  0.183124  1
  Si  Si24  1  0.136207  0.204163  0.321173  1
  Si  Si25  1  0.862245  0.796531  0.818011  1
  Si  Si26  1  0.299510  0.955826  0.065135  1
  Si  Si27  1  0.544777  0.796989  0.315798  1
  Si  Si28  1  0.453032  0.202260  0.814664  1
  Si  Si29  1  0.797961  0.546333  0.684436  1
  Si  Si30  1  0.205799  0.451639  0.186995  1
  Si  Si31  1  0.702034  0.046635  0.565122  1
  Si  Si32  1  0.953082  0.291211  0.933795  1
  Si  Si33  1  0.046926  0.702363  0.434716  1
  Mo  Mo34  1  0.327498  0.326004  0.000228  1
  Mo  Mo35  1  0.174038  0.828126  0.250594  1
