# generated using pymatgen
data_Nd4HoCo16(P4Ru)3
_symmetry_space_group_name_H-M   'P 1'
_cell_length_a   12.14110185
_cell_length_b   12.15270007
_cell_length_c   3.75416100
_cell_angle_alpha   90.00000000
_cell_angle_beta   90.00000000
_cell_angle_gamma   120.03160403
_symmetry_Int_Tables_number   1
_chemical_formula_structural   Nd4HoCo16(P4Ru)3
_chemical_formula_sum   'Nd4 Ho1 Co16 P12 Ru3'
_cell_volume   479.55233749
_cell_formula_units_Z   1
loop_
 _symmetry_equiv_pos_site_id
 _symmetry_equiv_pos_as_xyz
  1  'x, y, z'
loop_
 _atom_site_type_symbol
 _atom_site_label
 _atom_site_symmetry_multiplicity
 _atom_site_fract_x
 _atom_site_fract_y
 _atom_site_fract_z
 _atom_site_occupancy
  Nd  Nd0  1  0.666163  0.332826  0.000000  1
  Nd  Nd1  1  0.333837  0.666664  0.000000  1
  Nd  Nd2  1  0.814205  0.814825  0.500000  1
  Nd  Nd3  1  0.185795  0.000620  0.500000  1
  Ho  Ho4  1  0.000000  0.187145  0.500000  1
  Co  Co5  1  0.876738  0.358595  0.500000  1
  Co  Co6  1  0.639642  0.516026  0.500000  1
  Co  Co7  1  0.483193  0.123575  0.500000  1
  Co  Co8  1  0.360358  0.876383  0.500000  1
  Co  Co9  1  0.516807  0.640383  0.500000  1
  Co  Co10  1  0.123262  0.481857  0.500000  1
  Co  Co11  1  0.805566  0.180668  0.000000  1
  Co  Co12  1  0.820199  0.622222  0.000000  1
  Co  Co13  1  0.376002  0.197652  0.000000  1
  Co  Co14  1  0.179801  0.802025  0.000000  1
  Co  Co15  1  0.623998  0.821652  0.000000  1
  Co  Co16  1  0.194434  0.375104  0.000000  1
  Co  Co17  1  0.281212  0.283286  0.500000  1
  Co  Co18  1  0.718788  0.002074  0.500000  1
  Co  Co19  1  0.000000  0.715758  0.500000  1
  Co  Co20  1  0.000000  0.001937  0.000000  1
  P  P21  1  0.688821  0.164710  0.500000  1
  P  P22  1  0.835582  0.523381  0.500000  1
  P  P23  1  0.474458  0.310937  0.500000  1
  P  P24  1  0.164418  0.687799  0.500000  1
  P  P25  1  0.525542  0.836479  0.500000  1
  P  P26  1  0.311179  0.475888  0.500000  1
  P  P27  1  0.179267  0.183096  0.000000  1
  P  P28  1  0.820733  0.003829  0.000000  1
  P  P29  1  0.000000  0.817121  0.000000  1
  P  P30  1  0.632403  0.632263  0.000000  1
  P  P31  1  0.367597  0.999860  0.000000  1
  P  P32  1  0.000000  0.364378  0.000000  1
  Ru  Ru33  1  0.443408  0.444340  0.000000  1
  Ru  Ru34  1  0.556592  0.000932  0.000000  1
  Ru  Ru35  1  0.000000  0.553709  0.000000  1
