# generated using pymatgen
data_La3Sm5Dy2C4I15
_symmetry_space_group_name_H-M   'P 1'
_cell_length_a   9.76601132
_cell_length_b   10.59272894
_cell_length_c   11.75235795
_cell_angle_alpha   93.37997597
_cell_angle_beta   114.11415769
_cell_angle_gamma   109.54085838
_symmetry_Int_Tables_number   1
_chemical_formula_structural   La3Sm5Dy2C4I15
_chemical_formula_sum   'La3 Sm5 Dy2 C4 I15'
_cell_volume   1018.35672632
_cell_formula_units_Z   1
loop_
 _symmetry_equiv_pos_site_id
 _symmetry_equiv_pos_as_xyz
  1  'x, y, z'
loop_
 _atom_site_type_symbol
 _atom_site_label
 _atom_site_symmetry_multiplicity
 _atom_site_fract_x
 _atom_site_fract_y
 _atom_site_fract_z
 _atom_site_occupancy
  La  La0  1  0.706503  0.569432  0.044971  1
  La  La1  1  0.293388  0.432495  0.955285  1
  La  La2  1  0.661412  0.253705  0.834931  1
  Sm  Sm3  1  0.591303  0.541405  0.337733  1
  Sm  Sm4  1  0.347557  0.745257  0.164597  1
  Sm  Sm5  1  0.770635  0.879306  0.254407  1
  Sm  Sm6  1  0.525640  0.185454  0.099341  1
  Sm  Sm7  1  0.230947  0.120270  0.746904  1
  Dy  Dy8  1  0.406939  0.457257  0.663954  1
  Dy  Dy9  1  0.473570  0.813828  0.902787  1
  C  C10  1  0.483130  0.299384  0.937312  1
  C  C11  1  0.516936  0.703083  0.060905  1
  C  C12  1  0.454732  0.363263  0.833072  1
  C  C13  1  0.544845  0.638238  0.164673  1
  I  I14  1  0.213869  0.904143  0.936787  1
  I  I15  1  0.115199  0.197383  0.478651  1
  I  I16  1  0.169328  0.566467  0.700598  1
  I  I17  1  0.400278  0.961803  0.654006  1
  I  I18  1  0.696899  0.736900  0.812007  1
  I  I19  1  0.291258  0.261064  0.183156  1
  I  I20  1  0.838216  0.437104  0.299728  1
  I  I21  1  0.888810  0.808041  0.525482  1
  I  I22  1  0.354633  0.624830  0.409276  1
  I  I23  1  0.053867  0.840403  0.222596  1
  I  I24  1  0.785783  0.086830  0.063470  1
  I  I25  1  0.638027  0.379266  0.586273  1
  I  I26  1  0.946734  0.159596  0.777008  1
  I  I27  1  0.592865  0.027307  0.347424  1
  I  I28  1  0.006695  0.506484  0.002664  1
