# generated using pymatgen
data_Ca2Ta3Hg2SbO14
_symmetry_space_group_name_H-M   'P 1'
_cell_length_a   7.48585451
_cell_length_b   7.48585344
_cell_length_c   7.33445960
_cell_angle_alpha   60.32181818
_cell_angle_beta   60.32181392
_cell_angle_gamma   61.21047730
_symmetry_Int_Tables_number   1
_chemical_formula_structural   Ca2Ta3Hg2SbO14
_chemical_formula_sum   'Ca2 Ta3 Hg2 Sb1 O14'
_cell_volume   294.63645039
_cell_formula_units_Z   1
loop_
 _symmetry_equiv_pos_site_id
 _symmetry_equiv_pos_as_xyz
  1  'x, y, z'
loop_
 _atom_site_type_symbol
 _atom_site_label
 _atom_site_symmetry_multiplicity
 _atom_site_fract_x
 _atom_site_fract_y
 _atom_site_fract_z
 _atom_site_occupancy
  Ca  Ca0  1  0.625000  0.125000  0.625000  1
  Ca  Ca1  1  0.125000  0.625000  0.625000  1
  Ta  Ta2  1  0.125000  0.625000  0.125000  1
  Ta  Ta3  1  0.125000  0.125000  0.125000  1
  Ta  Ta4  1  0.625000  0.125000  0.125000  1
  Hg  Hg5  1  0.625000  0.625000  0.625000  1
  Hg  Hg6  1  0.625000  0.625000  0.125000  1
  Sb  Sb7  1  0.125000  0.125000  0.625000  1
  O  O8  1  0.816611  0.816611  0.184404  1
  O  O9  1  0.809035  0.185323  0.803736  1
  O  O10  1  0.050875  0.050875  0.450110  1
  O  O11  1  0.813230  0.180326  0.197616  1
  O  O12  1  0.433389  0.433389  0.065596  1
  O  O13  1  0.069674  0.436770  0.052384  1
  O  O14  1  0.185323  0.809035  0.803736  1
  O  O15  1  0.440965  0.064677  0.446264  1
  O  O16  1  0.512170  0.512170  0.485727  1
  O  O17  1  0.180326  0.813230  0.197616  1
  O  O18  1  0.199125  0.199125  0.799890  1
  O  O19  1  0.737830  0.737830  0.764273  1
  O  O20  1  0.436770  0.069674  0.052384  1
  O  O21  1  0.064677  0.440965  0.446264  1
