# generated using pymatgen
data_ZnSiMo12(Rh3N2)2
_symmetry_space_group_name_H-M   'P 1'
_cell_length_a   6.83341527
_cell_length_b   6.82900421
_cell_length_c   6.82130298
_cell_angle_alpha   89.30115390
_cell_angle_beta   89.94929314
_cell_angle_gamma   89.95114131
_symmetry_Int_Tables_number   1
_chemical_formula_structural   ZnSiMo12(Rh3N2)2
_chemical_formula_sum   'Zn1 Si1 Mo12 Rh6 N4'
_cell_volume   318.29506448
_cell_formula_units_Z   1
loop_
 _symmetry_equiv_pos_site_id
 _symmetry_equiv_pos_as_xyz
  1  'x, y, z'
loop_
 _atom_site_type_symbol
 _atom_site_label
 _atom_site_symmetry_multiplicity
 _atom_site_fract_x
 _atom_site_fract_y
 _atom_site_fract_z
 _atom_site_occupancy
  Zn  Zn0  1  0.685617  0.177513  0.935980  1
  Si  Si1  1  0.183536  0.822023  0.067534  1
  Mo  Mo2  1  0.620590  0.047739  0.545877  1
  Mo  Mo3  1  0.121918  0.955670  0.452061  1
  Mo  Mo4  1  0.868038  0.541492  0.945211  1
  Mo  Mo5  1  0.371315  0.457549  0.051707  1
  Mo  Mo6  1  0.200972  0.625358  0.698648  1
  Mo  Mo7  1  0.301377  0.123913  0.788322  1
  Mo  Mo8  1  0.798649  0.879966  0.209945  1
  Mo  Mo9  1  0.702496  0.376568  0.303078  1
  Mo  Mo10  1  0.048000  0.210879  0.131328  1
  Mo  Mo11  1  0.956252  0.301110  0.627016  1
  Mo  Mo12  1  0.548434  0.791008  0.870182  1
  Mo  Mo13  1  0.461794  0.693912  0.378321  1
  Rh  Rh14  1  0.813797  0.689232  0.565824  1
  Rh  Rh15  1  0.310203  0.311718  0.431970  1
  Rh  Rh16  1  0.066616  0.579058  0.296224  1
  Rh  Rh17  1  0.425763  0.052196  0.175849  1
  Rh  Rh18  1  0.559283  0.432903  0.694890  1
  Rh  Rh19  1  0.947321  0.930525  0.830203  1
  N  N20  1  0.375545  0.872770  0.619372  1
  N  N21  1  0.874650  0.127581  0.380966  1
  N  N22  1  0.128585  0.374783  0.873059  1
  N  N23  1  0.629247  0.624533  0.126434  1
