# generated using pymatgen
data_Gd2Lu3(TcO6)2
_symmetry_space_group_name_H-M   'P 1'
_cell_length_a   6.76274481
_cell_length_b   6.76274497
_cell_length_c   7.45872977
_cell_angle_alpha   74.21248768
_cell_angle_beta   74.21249042
_cell_angle_gamma   49.44991718
_symmetry_Int_Tables_number   1
_chemical_formula_structural   Gd2Lu3(TcO6)2
_chemical_formula_sum   'Gd2 Lu3 Tc2 O12'
_cell_volume   247.29758359
_cell_formula_units_Z   1
loop_
 _symmetry_equiv_pos_site_id
 _symmetry_equiv_pos_as_xyz
  1  'x, y, z'
loop_
 _atom_site_type_symbol
 _atom_site_label
 _atom_site_symmetry_multiplicity
 _atom_site_fract_x
 _atom_site_fract_y
 _atom_site_fract_z
 _atom_site_occupancy
  Gd  Gd0  1  0.694995  0.694995  0.643904  1
  Gd  Gd1  1  0.305005  0.305005  0.356096  1
  Lu  Lu2  1  0.684242  0.684242  0.174311  1
  Lu  Lu3  1  0.315758  0.315758  0.825689  1
  Lu  Lu4  1  0.000000  0.000000  0.500000  1
  Tc  Tc5  1  0.786569  0.213431  0.000000  1
  Tc  Tc6  1  0.213431  0.786569  0.000000  1
  O  O7  1  0.998567  0.998567  0.208683  1
  O  O8  1  0.001433  0.001433  0.791317  1
  O  O9  1  0.586069  0.081597  0.079973  1
  O  O10  1  0.413931  0.918403  0.920027  1
  O  O11  1  0.918403  0.413931  0.920027  1
  O  O12  1  0.081597  0.586069  0.079973  1
  O  O13  1  0.502036  0.502036  0.176542  1
  O  O14  1  0.497964  0.497964  0.823458  1
  O  O15  1  0.402677  0.897846  0.419837  1
  O  O16  1  0.597323  0.102154  0.580163  1
  O  O17  1  0.102154  0.597323  0.580163  1
  O  O18  1  0.897846  0.402677  0.419837  1
