# generated using pymatgen
data_Dy3ErZnPt3
_symmetry_space_group_name_H-M   'P 1'
_cell_length_a   4.55493400
_cell_length_b   5.57219052
_cell_length_c   7.08016946
_cell_angle_alpha   90.29241174
_cell_angle_beta   90.00000000
_cell_angle_gamma   90.00000000
_symmetry_Int_Tables_number   1
_chemical_formula_structural   Dy3ErZnPt3
_chemical_formula_sum   'Dy3 Er1 Zn1 Pt3'
_cell_volume   179.69915813
_cell_formula_units_Z   1
loop_
 _symmetry_equiv_pos_site_id
 _symmetry_equiv_pos_as_xyz
  1  'x, y, z'
loop_
 _atom_site_type_symbol
 _atom_site_label
 _atom_site_symmetry_multiplicity
 _atom_site_fract_x
 _atom_site_fract_y
 _atom_site_fract_z
 _atom_site_occupancy
  Dy  Dy0  1  0.250000  0.641189  0.186952  1
  Dy  Dy1  1  0.750000  0.368538  0.807567  1
  Dy  Dy2  1  0.250000  0.850594  0.677896  1
  Er  Er3  1  0.750000  0.139013  0.328663  1
  Zn  Zn4  1  0.250000  0.137240  0.033967  1
  Pt  Pt5  1  0.750000  0.872290  0.969620  1
  Pt  Pt6  1  0.750000  0.656071  0.453818  1
  Pt  Pt7  1  0.250000  0.335067  0.541519  1
