# generated using pymatgen
data_Ce2UMnRu2
_symmetry_space_group_name_H-M   'P 1'
_cell_length_a   4.81447052
_cell_length_b   5.37513407
_cell_length_c   5.37513381
_cell_angle_alpha   65.59911742
_cell_angle_beta   68.26568402
_cell_angle_gamma   68.26568774
_symmetry_Int_Tables_number   1
_chemical_formula_structural   Ce2UMnRu2
_chemical_formula_sum   'Ce2 U1 Mn1 Ru2'
_cell_volume   113.72065255
_cell_formula_units_Z   1
loop_
 _symmetry_equiv_pos_site_id
 _symmetry_equiv_pos_as_xyz
  1  'x, y, z'
loop_
 _atom_site_type_symbol
 _atom_site_label
 _atom_site_symmetry_multiplicity
 _atom_site_fract_x
 _atom_site_fract_y
 _atom_site_fract_z
 _atom_site_occupancy
  Ce  Ce0  1  0.740339  0.748486  0.748486  1
  Ce  Ce1  1  0.509661  0.501514  0.501514  1
  U  U2  1  0.125000  0.125000  0.125000  1
  Mn  Mn3  1  0.625000  0.125000  0.125000  1
  Ru  Ru4  1  0.125000  0.125000  0.625000  1
  Ru  Ru5  1  0.125000  0.625000  0.125000  1
