# generated using pymatgen
data_Er6Tm2Sc12Si15Sn
_symmetry_space_group_name_H-M   'P 1'
_cell_length_a   7.09625949
_cell_length_b   7.38756513
_cell_length_c   14.00258309
_cell_angle_alpha   89.99945362
_cell_angle_beta   89.56042014
_cell_angle_gamma   89.99810021
_symmetry_Int_Tables_number   1
_chemical_formula_structural   Er6Tm2Sc12Si15Sn
_chemical_formula_sum   'Er6 Tm2 Sc12 Si15 Sn1'
_cell_volume   734.05091975
_cell_formula_units_Z   1
loop_
 _symmetry_equiv_pos_site_id
 _symmetry_equiv_pos_as_xyz
  1  'x, y, z'
loop_
 _atom_site_type_symbol
 _atom_site_label
 _atom_site_symmetry_multiplicity
 _atom_site_fract_x
 _atom_site_fract_y
 _atom_site_fract_z
 _atom_site_occupancy
  Er  Er0  1  0.012060  0.176691  0.096347  1
  Er  Er1  1  0.987886  0.823855  0.904600  1
  Er  Er2  1  0.488624  0.676982  0.904553  1
  Er  Er3  1  0.988562  0.829945  0.597985  1
  Er  Er4  1  0.511295  0.323006  0.096575  1
  Er  Er5  1  0.005845  0.170100  0.399405  1
  Tm  Tm6  1  0.513426  0.319349  0.399872  1
  Tm  Tm7  1  0.501228  0.685519  0.599588  1
  Sc  Sc8  1  0.162040  0.502990  0.755054  1
  Sc  Sc9  1  0.837306  0.496752  0.249370  1
  Sc  Sc10  1  0.337632  0.003546  0.249471  1
  Sc  Sc11  1  0.663769  0.996446  0.751557  1
  Sc  Sc12  1  0.342585  0.162229  0.630782  1
  Sc  Sc13  1  0.664463  0.825227  0.372699  1
  Sc  Sc14  1  0.163492  0.683940  0.369191  1
  Sc  Sc15  1  0.668086  0.822965  0.124234  1
  Sc  Sc16  1  0.823262  0.323223  0.626560  1
  Sc  Sc17  1  0.330627  0.175983  0.875551  1
  Sc  Sc18  1  0.830816  0.323116  0.875548  1
  Sc  Sc19  1  0.169071  0.677014  0.125120  1
  Si  Si20  1  0.034372  0.116402  0.751232  1
  Si  Si21  1  0.963987  0.887282  0.246855  1
  Si  Si22  1  0.466375  0.613319  0.248690  1
  Si  Si23  1  0.532079  0.387691  0.751989  1
  Si  Si24  1  0.286018  0.868132  0.752269  1
  Si  Si25  1  0.712914  0.128854  0.247610  1
  Si  Si26  1  0.212705  0.370726  0.249296  1
  Si  Si27  1  0.788638  0.629911  0.751335  1
  Si  Si28  1  0.828894  0.538356  0.458780  1
  Si  Si29  1  0.336999  0.964663  0.460197  1
  Si  Si30  1  0.841334  0.534178  0.039383  1
  Si  Si31  1  0.663268  0.036606  0.537950  1
  Si  Si32  1  0.157867  0.465170  0.961722  1
  Si  Si33  1  0.658216  0.034711  0.960730  1
  Si  Si34  1  0.340739  0.965820  0.039873  1
  Sn  Sn35  1  0.173519  0.459303  0.538027  1
