# generated using pymatgen
data_Li6Ga13Au
_symmetry_space_group_name_H-M   'P 1'
_cell_length_a   7.50138727
_cell_length_b   7.65321994
_cell_length_c   7.50138605
_cell_angle_alpha   68.73002929
_cell_angle_beta   69.08087868
_cell_angle_gamma   68.73002920
_symmetry_Int_Tables_number   1
_chemical_formula_structural   Li6Ga13Au
_chemical_formula_sum   'Li6 Ga13 Au1'
_cell_volume   361.15701015
_cell_formula_units_Z   1
loop_
 _symmetry_equiv_pos_site_id
 _symmetry_equiv_pos_as_xyz
  1  'x, y, z'
loop_
 _atom_site_type_symbol
 _atom_site_label
 _atom_site_symmetry_multiplicity
 _atom_site_fract_x
 _atom_site_fract_y
 _atom_site_fract_z
 _atom_site_occupancy
  Li  Li0  1  0.882015  0.469503  0.882015  1
  Li  Li1  1  0.466346  0.887860  0.870736  1
  Li  Li2  1  0.528739  0.119254  0.128609  1
  Li  Li3  1  0.870736  0.887860  0.466346  1
  Li  Li4  1  0.128609  0.119254  0.528739  1
  Li  Li5  1  0.119022  0.526619  0.119022  1
  Ga  Ga6  1  0.703354  0.185548  0.703354  1
  Ga  Ga7  1  0.298449  0.295610  0.815753  1
  Ga  Ga8  1  0.508834  0.824129  0.508834  1
  Ga  Ga9  1  0.704315  0.702208  0.182525  1
  Ga  Ga10  1  0.826855  0.508418  0.508573  1
  Ga  Ga11  1  0.295934  0.812570  0.295934  1
  Ga  Ga12  1  0.080555  0.082024  0.080555  1
  Ga  Ga13  1  0.508573  0.508418  0.826855  1
  Ga  Ga14  1  0.815753  0.295610  0.298449  1
  Ga  Ga15  1  0.174771  0.488982  0.492481  1
  Ga  Ga16  1  0.182525  0.702208  0.704315  1
  Ga  Ga17  1  0.492481  0.488982  0.174771  1
  Ga  Ga18  1  0.922899  0.927386  0.922899  1
  Au  Au19  1  0.489236  0.167554  0.489236  1
