# generated using pymatgen
data_In5Ni2B4Ir7
_symmetry_space_group_name_H-M   'P 1'
_cell_length_a   5.61172874
_cell_length_b   5.55805520
_cell_length_c   10.31796328
_cell_angle_alpha   90.02071609
_cell_angle_beta   89.97491627
_cell_angle_gamma   119.92472159
_symmetry_Int_Tables_number   1
_chemical_formula_structural   In5Ni2B4Ir7
_chemical_formula_sum   'In5 Ni2 B4 Ir7'
_cell_volume   278.91574115
_cell_formula_units_Z   1
loop_
 _symmetry_equiv_pos_site_id
 _symmetry_equiv_pos_as_xyz
  1  'x, y, z'
loop_
 _atom_site_type_symbol
 _atom_site_label
 _atom_site_symmetry_multiplicity
 _atom_site_fract_x
 _atom_site_fract_y
 _atom_site_fract_z
 _atom_site_occupancy
  In  In0  1  0.005650  0.000622  0.998438  1
  In  In1  1  0.996941  0.996866  0.338923  1
  In  In2  1  0.667333  0.336028  0.498194  1
  In  In3  1  0.332893  0.663708  0.498119  1
  In  In4  1  0.999693  0.998176  0.656236  1
  Ni  Ni5  1  0.493995  0.000506  0.002187  1
  Ni  Ni6  1  0.506514  0.507422  0.270017  1
  B  B7  1  0.663022  0.336113  0.146867  1
  B  B8  1  0.337693  0.665521  0.146970  1
  B  B9  1  0.665352  0.332241  0.855671  1
  B  B10  1  0.334334  0.667578  0.855592  1
  Ir  Ir11  1  0.999468  0.491445  0.001579  1
  Ir  Ir12  1  0.509013  0.510141  0.004062  1
  Ir  Ir13  1  0.491456  0.001147  0.271859  1
  Ir  Ir14  1  0.000071  0.492455  0.274483  1
  Ir  Ir15  1  0.476755  0.999823  0.729276  1
  Ir  Ir16  1  0.998583  0.477781  0.726737  1
  Ir  Ir17  1  0.520941  0.522130  0.724789  1
