# generated using pymatgen
data_Ce4Al6ZnRh
_symmetry_space_group_name_H-M   'P 1'
_cell_length_a   5.72124700
_cell_length_b   5.72124827
_cell_length_c   8.56873700
_cell_angle_alpha   90.00000000
_cell_angle_beta   90.00000000
_cell_angle_gamma   119.99998687
_symmetry_Int_Tables_number   1
_chemical_formula_structural   Ce4Al6ZnRh
_chemical_formula_sum   'Ce4 Al6 Zn1 Rh1'
_cell_volume   242.90082750
_cell_formula_units_Z   1
loop_
 _symmetry_equiv_pos_site_id
 _symmetry_equiv_pos_as_xyz
  1  'x, y, z'
loop_
 _atom_site_type_symbol
 _atom_site_label
 _atom_site_symmetry_multiplicity
 _atom_site_fract_x
 _atom_site_fract_y
 _atom_site_fract_z
 _atom_site_occupancy
  Ce  Ce0  1  0.333333  0.666667  0.914912  1
  Ce  Ce1  1  0.666667  0.333333  0.085088  1
  Ce  Ce2  1  0.666667  0.333333  0.411767  1
  Ce  Ce3  1  0.333333  0.666667  0.588233  1
  Al  Al4  1  0.833742  0.166258  0.741436  1
  Al  Al5  1  0.833742  0.667484  0.741436  1
  Al  Al6  1  0.332516  0.166258  0.741436  1
  Al  Al7  1  0.166258  0.833742  0.258564  1
  Al  Al8  1  0.166258  0.332516  0.258564  1
  Al  Al9  1  0.667484  0.833742  0.258564  1
  Zn  Zn10  1  0.000000  0.000000  0.000000  1
  Rh  Rh11  1  0.000000  0.000000  0.500000  1
