# generated using pymatgen
data_Dy5YTcSb2
_symmetry_space_group_name_H-M   'P 1'
_cell_length_a   8.19993400
_cell_length_b   8.18764594
_cell_length_c   4.24149300
_cell_angle_alpha   90.00000000
_cell_angle_beta   90.00000000
_cell_angle_gamma   120.04966673
_symmetry_Int_Tables_number   1
_chemical_formula_structural   Dy5YTcSb2
_chemical_formula_sum   'Dy5 Y1 Tc1 Sb2'
_cell_volume   246.49109062
_cell_formula_units_Z   1
loop_
 _symmetry_equiv_pos_site_id
 _symmetry_equiv_pos_as_xyz
  1  'x, y, z'
loop_
 _atom_site_type_symbol
 _atom_site_label
 _atom_site_symmetry_multiplicity
 _atom_site_fract_x
 _atom_site_fract_y
 _atom_site_fract_z
 _atom_site_occupancy
  Dy  Dy0  1  0.236069  0.000000  0.000000  1
  Dy  Dy1  1  0.763707  0.763416  0.000000  1
  Dy  Dy2  1  0.000290  0.236584  0.000000  1
  Dy  Dy3  1  0.398727  0.398687  0.500000  1
  Dy  Dy4  1  0.000040  0.601313  0.500000  1
  Y  Y5  1  0.600969  0.000000  0.500000  1
  Tc  Tc6  1  0.000301  0.000000  0.500000  1
  Sb  Sb7  1  0.333310  0.666725  0.000000  1
  Sb  Sb8  1  0.666586  0.333275  0.000000  1
