# generated using pymatgen
data_Ca3Nd(Si5Pt3)2
_symmetry_space_group_name_H-M   'P 1'
_cell_length_a   8.27933325
_cell_length_b   8.27175199
_cell_length_c   8.27175220
_cell_angle_alpha   137.62715734
_cell_angle_beta   104.52531840
_cell_angle_gamma   90.58316883
_symmetry_Int_Tables_number   1
_chemical_formula_structural   Ca3Nd(Si5Pt3)2
_chemical_formula_sum   'Ca3 Nd1 Si10 Pt6'
_cell_volume   352.60461886
_cell_formula_units_Z   1
loop_
 _symmetry_equiv_pos_site_id
 _symmetry_equiv_pos_as_xyz
  1  'x, y, z'
loop_
 _atom_site_type_symbol
 _atom_site_label
 _atom_site_symmetry_multiplicity
 _atom_site_fract_x
 _atom_site_fract_y
 _atom_site_fract_z
 _atom_site_occupancy
  Ca  Ca0  1  0.362563  0.628105  0.734458  1
  Ca  Ca1  1  0.105602  0.871215  0.234387  1
  Ca  Ca2  1  0.895641  0.129587  0.766055  1
  Nd  Nd3  1  0.637607  0.370826  0.266781  1
  Si  Si4  1  0.461324  0.111473  0.349852  1
  Si  Si5  1  0.537370  0.888089  0.649280  1
  Si  Si6  1  0.763961  0.613447  0.150514  1
  Si  Si7  1  0.236297  0.387371  0.848926  1
  Si  Si8  1  0.269349  0.519158  0.248168  1
  Si  Si9  1  0.730307  0.480223  0.750835  1
  Si  Si10  1  0.730307  0.979472  0.250085  1
  Si  Si11  1  0.269349  0.021181  0.750191  1
  Si  Si12  1  0.000642  0.250086  0.250814  1
  Si  Si13  1  0.000642  0.749827  0.750555  1
  Pt  Pt14  1  0.500533  0.251611  0.751826  1
  Pt  Pt15  1  0.500533  0.748707  0.248922  1
  Pt  Pt16  1  0.248590  0.134598  0.113992  1
  Pt  Pt17  1  0.748975  0.864149  0.884825  1
  Pt  Pt18  1  0.022010  0.636355  0.385654  1
  Pt  Pt19  1  0.978398  0.364520  0.613878  1
