# generated using pymatgen
data_Nb4SiP3Rh4
_symmetry_space_group_name_H-M   'P 1'
_cell_length_a   3.76914000
_cell_length_b   6.38520705
_cell_length_c   7.26392120
_cell_angle_alpha   90.30784418
_cell_angle_beta   90.00000000
_cell_angle_gamma   90.00000000
_symmetry_Int_Tables_number   1
_chemical_formula_structural   Nb4SiP3Rh4
_chemical_formula_sum   'Nb4 Si1 P3 Rh4'
_cell_volume   174.81637453
_cell_formula_units_Z   1
loop_
 _symmetry_equiv_pos_site_id
 _symmetry_equiv_pos_as_xyz
  1  'x, y, z'
loop_
 _atom_site_type_symbol
 _atom_site_label
 _atom_site_symmetry_multiplicity
 _atom_site_fract_x
 _atom_site_fract_y
 _atom_site_fract_z
 _atom_site_occupancy
  Nb  Nb0  1  0.250000  0.027802  0.832540  1
  Nb  Nb1  1  0.250000  0.527497  0.671450  1
  Nb  Nb2  1  0.750000  0.972676  0.165711  1
  Nb  Nb3  1  0.750000  0.469205  0.331095  1
  Si  Si4  1  0.250000  0.766538  0.374376  1
  P  P5  1  0.250000  0.263858  0.126184  1
  P  P6  1  0.750000  0.234717  0.624362  1
  P  P7  1  0.750000  0.736959  0.874418  1
  Rh  Rh8  1  0.250000  0.148009  0.438792  1
  Rh  Rh9  1  0.250000  0.645205  0.059545  1
  Rh  Rh10  1  0.750000  0.855350  0.563907  1
  Rh  Rh11  1  0.750000  0.352184  0.937622  1
