# generated using pymatgen
data_Sr(Al5Os)2
_symmetry_space_group_name_H-M   'P 1'
_cell_length_a   6.93038405
_cell_length_b   6.93038433
_cell_length_c   9.21267800
_cell_angle_alpha   90.00000000
_cell_angle_beta   90.00000000
_cell_angle_gamma   96.42842893
_symmetry_Int_Tables_number   1
_chemical_formula_structural   Sr(Al5Os)2
_chemical_formula_sum   'Sr2 Al20 Os4'
_cell_volume   439.70485495
_cell_formula_units_Z   2
loop_
 _symmetry_equiv_pos_site_id
 _symmetry_equiv_pos_as_xyz
  1  'x, y, z'
loop_
 _atom_site_type_symbol
 _atom_site_label
 _atom_site_symmetry_multiplicity
 _atom_site_fract_x
 _atom_site_fract_y
 _atom_site_fract_z
 _atom_site_occupancy
  Sr  Sr0  1  0.877375  0.122625  0.750000  1
  Sr  Sr1  1  0.122625  0.877375  0.250000  1
  Al  Al2  1  0.521102  0.782288  0.750000  1
  Al  Al3  1  0.782288  0.521102  0.250000  1
  Al  Al4  1  0.478898  0.217712  0.250000  1
  Al  Al5  1  0.217712  0.478898  0.750000  1
  Al  Al6  1  0.623005  0.376995  0.957042  1
  Al  Al7  1  0.376995  0.623005  0.042958  1
  Al  Al8  1  0.623005  0.376995  0.542958  1
  Al  Al9  1  0.376995  0.623005  0.457042  1
  Al  Al10  1  0.413793  0.143945  0.750000  1
  Al  Al11  1  0.143945  0.413793  0.250000  1
  Al  Al12  1  0.586207  0.856055  0.250000  1
  Al  Al13  1  0.856055  0.586207  0.750000  1
  Al  Al14  1  0.841028  0.158972  0.398932  1
  Al  Al15  1  0.158972  0.841028  0.601068  1
  Al  Al16  1  0.841028  0.158972  0.101068  1
  Al  Al17  1  0.158972  0.841028  0.898932  1
  Al  Al18  1  0.774069  0.774069  0.000000  1
  Al  Al19  1  0.774069  0.774069  0.500000  1
  Al  Al20  1  0.225931  0.225931  0.000000  1
  Al  Al21  1  0.225931  0.225931  0.500000  1
  Os  Os22  1  0.500000  0.000000  0.000000  1
  Os  Os23  1  0.000000  0.500000  0.000000  1
  Os  Os24  1  0.500000  0.000000  0.500000  1
  Os  Os25  1  0.000000  0.500000  0.500000  1
