# generated using pymatgen
data_SrCeReH6
_symmetry_space_group_name_H-M   'P 1'
_cell_length_a   5.34973216
_cell_length_b   5.34973221
_cell_length_c   5.34973300
_cell_angle_alpha   60.00000128
_cell_angle_beta   60.00000099
_cell_angle_gamma   59.99999738
_symmetry_Int_Tables_number   1
_chemical_formula_structural   SrCeReH6
_chemical_formula_sum   'Sr1 Ce1 Re1 H6'
_cell_volume   108.26328245
_cell_formula_units_Z   1
loop_
 _symmetry_equiv_pos_site_id
 _symmetry_equiv_pos_as_xyz
  1  'x, y, z'
loop_
 _atom_site_type_symbol
 _atom_site_label
 _atom_site_symmetry_multiplicity
 _atom_site_fract_x
 _atom_site_fract_y
 _atom_site_fract_z
 _atom_site_occupancy
  Sr  Sr0  1  0.749999  0.749999  0.749999  1
  Ce  Ce1  1  0.250001  0.250001  0.250001  1
  Re  Re2  1  0.000000  0.000000  0.000000  1
  H  H3  1  0.762525  0.762525  0.237474  1
  H  H4  1  0.762525  0.237474  0.237476  1
  H  H5  1  0.237474  0.762525  0.237476  1
  H  H6  1  0.237475  0.237475  0.762525  1
  H  H7  1  0.762524  0.237474  0.762525  1
  H  H8  1  0.237474  0.762524  0.762525  1
