# generated using pymatgen
data_Sm2SiPd14
_symmetry_space_group_name_H-M   'P 1'
_cell_length_a   8.95913800
_cell_length_b   8.95913800
_cell_length_c   7.15853300
_cell_angle_alpha   90.00000000
_cell_angle_beta   90.00000000
_cell_angle_gamma   90.00000000
_symmetry_Int_Tables_number   1
_chemical_formula_structural   Sm2SiPd14
_chemical_formula_sum   'Sm4 Si2 Pd28'
_cell_volume   574.58791007
_cell_formula_units_Z   2
loop_
 _symmetry_equiv_pos_site_id
 _symmetry_equiv_pos_as_xyz
  1  'x, y, z'
loop_
 _atom_site_type_symbol
 _atom_site_label
 _atom_site_symmetry_multiplicity
 _atom_site_fract_x
 _atom_site_fract_y
 _atom_site_fract_z
 _atom_site_occupancy
  Sm  Sm0  1  0.500000  0.000000  0.936059  1
  Sm  Sm1  1  0.000000  0.500000  0.063941  1
  Sm  Sm2  1  0.000000  0.000000  0.500000  1
  Sm  Sm3  1  0.500000  0.500000  0.500000  1
  Si  Si4  1  0.500000  0.000000  0.449134  1
  Si  Si5  1  0.000000  0.500000  0.550866  1
  Pd  Pd6  1  0.334575  0.834575  0.615688  1
  Pd  Pd7  1  0.334575  0.165425  0.615688  1
  Pd  Pd8  1  0.665425  0.834575  0.615688  1
  Pd  Pd9  1  0.665425  0.165425  0.615688  1
  Pd  Pd10  1  0.165425  0.665425  0.384312  1
  Pd  Pd11  1  0.165425  0.334575  0.384312  1
  Pd  Pd12  1  0.834575  0.665425  0.384312  1
  Pd  Pd13  1  0.834575  0.334575  0.384312  1
  Pd  Pd14  1  0.500000  0.770467  0.256889  1
  Pd  Pd15  1  0.500000  0.229533  0.256889  1
  Pd  Pd16  1  0.270467  0.000000  0.256889  1
  Pd  Pd17  1  0.729533  0.000000  0.256889  1
  Pd  Pd18  1  0.000000  0.729533  0.743111  1
  Pd  Pd19  1  0.000000  0.270467  0.743111  1
  Pd  Pd20  1  0.229533  0.500000  0.743111  1
  Pd  Pd21  1  0.770467  0.500000  0.743111  1
  Pd  Pd22  1  0.500000  0.348742  0.854882  1
  Pd  Pd23  1  0.500000  0.651258  0.854882  1
  Pd  Pd24  1  0.848742  0.000000  0.854882  1
  Pd  Pd25  1  0.151258  0.000000  0.854882  1
  Pd  Pd26  1  0.000000  0.151258  0.145118  1
  Pd  Pd27  1  0.000000  0.848742  0.145118  1
  Pd  Pd28  1  0.651258  0.500000  0.145118  1
  Pd  Pd29  1  0.348742  0.500000  0.145118  1
  Pd  Pd30  1  0.250000  0.750000  0.000000  1
  Pd  Pd31  1  0.250000  0.250000  0.000000  1
  Pd  Pd32  1  0.750000  0.750000  0.000000  1
  Pd  Pd33  1  0.750000  0.250000  0.000000  1
