# generated using pymatgen
data_NdNi9As2P3
_symmetry_space_group_name_H-M   'P 1'
_cell_length_a   6.62500900
_cell_length_b   6.62500917
_cell_length_c   10.80673700
_cell_angle_alpha   90.00000000
_cell_angle_beta   90.00000000
_cell_angle_gamma   120.00000415
_symmetry_Int_Tables_number   1
_chemical_formula_structural   NdNi9As2P3
_chemical_formula_sum   'Nd2 Ni18 As4 P6'
_cell_volume   410.76946471
_cell_formula_units_Z   2
loop_
 _symmetry_equiv_pos_site_id
 _symmetry_equiv_pos_as_xyz
  1  'x, y, z'
loop_
 _atom_site_type_symbol
 _atom_site_label
 _atom_site_symmetry_multiplicity
 _atom_site_fract_x
 _atom_site_fract_y
 _atom_site_fract_z
 _atom_site_occupancy
  Nd  Nd0  1  0.000000  0.000000  0.500000  1
  Nd  Nd1  1  0.000000  0.000000  0.000000  1
  Ni  Ni2  1  0.462795  0.925589  0.888702  1
  Ni  Ni3  1  0.925589  0.462795  0.111298  1
  Ni  Ni4  1  0.537205  0.074411  0.111298  1
  Ni  Ni5  1  0.074411  0.537205  0.611298  1
  Ni  Ni6  1  0.197266  0.394531  0.250000  1
  Ni  Ni7  1  0.802734  0.197266  0.750000  1
  Ni  Ni8  1  0.394531  0.197266  0.750000  1
  Ni  Ni9  1  0.605469  0.802734  0.250000  1
  Ni  Ni10  1  0.197266  0.802734  0.250000  1
  Ni  Ni11  1  0.802734  0.605469  0.750000  1
  Ni  Ni12  1  0.462795  0.925589  0.611298  1
  Ni  Ni13  1  0.537205  0.462795  0.388702  1
  Ni  Ni14  1  0.925589  0.462795  0.388702  1
  Ni  Ni15  1  0.074411  0.537205  0.888702  1
  Ni  Ni16  1  0.462795  0.537205  0.888702  1
  Ni  Ni17  1  0.537205  0.074411  0.388702  1
  Ni  Ni18  1  0.537205  0.462795  0.111298  1
  Ni  Ni19  1  0.462795  0.537205  0.611298  1
  As  As20  1  0.333333  0.666667  0.436684  1
  As  As21  1  0.666667  0.333333  0.936684  1
  As  As22  1  0.666667  0.333333  0.563316  1
  As  As23  1  0.333333  0.666667  0.063316  1
  P  P24  1  0.172911  0.345823  0.750000  1
  P  P25  1  0.827089  0.172911  0.250000  1
  P  P26  1  0.172911  0.827089  0.750000  1
  P  P27  1  0.827089  0.654177  0.250000  1
  P  P28  1  0.345823  0.172911  0.250000  1
  P  P29  1  0.654177  0.827089  0.750000  1
