# generated using pymatgen
data_In8NiIr3
_symmetry_space_group_name_H-M   'P 1'
_cell_length_a   10.36379011
_cell_length_b   9.51591490
_cell_length_c   5.51347101
_cell_angle_alpha   82.58449009
_cell_angle_beta   65.57582211
_cell_angle_gamma   33.01434061
_symmetry_Int_Tables_number   1
_chemical_formula_structural   In8NiIr3
_chemical_formula_sum   'In8 Ni1 Ir3'
_cell_volume   242.39582820
_cell_formula_units_Z   1
loop_
 _symmetry_equiv_pos_site_id
 _symmetry_equiv_pos_as_xyz
  1  'x, y, z'
loop_
 _atom_site_type_symbol
 _atom_site_label
 _atom_site_symmetry_multiplicity
 _atom_site_fract_x
 _atom_site_fract_y
 _atom_site_fract_z
 _atom_site_occupancy
  In  In0  1  0.590616  0.907702  0.594502  1
  In  In1  1  0.907702  0.590616  0.907180  1
  In  In2  1  0.915210  0.915210  0.084790  1
  In  In3  1  0.344390  0.657815  0.336332  1
  In  In4  1  0.085004  0.085004  0.914996  1
  In  In5  1  0.164706  0.164706  0.335294  1
  In  In6  1  0.657815  0.344390  0.661463  1
  In  In7  1  0.335411  0.335411  0.164589  1
  Ni  Ni8  1  0.621889  0.621889  0.878111  1
  Ir  Ir9  1  0.369238  0.369238  0.630762  1
  Ir  Ir10  1  0.880650  0.880650  0.619350  1
  Ir  Ir11  1  0.627369  0.627369  0.372631  1
