# generated using pymatgen
data_CeNd3(YH9)2
_symmetry_space_group_name_H-M   'P 1'
_cell_length_a   6.60669700
_cell_length_b   6.59721374
_cell_length_c   6.85143967
_cell_angle_alpha   90.34667454
_cell_angle_beta   90.00000000
_cell_angle_gamma   120.04756735
_symmetry_Int_Tables_number   1
_chemical_formula_structural   CeNd3(YH9)2
_chemical_formula_sum   'Ce1 Nd3 Y2 H18'
_cell_volume   258.48684057
_cell_formula_units_Z   1
loop_
 _symmetry_equiv_pos_site_id
 _symmetry_equiv_pos_as_xyz
  1  'x, y, z'
loop_
 _atom_site_type_symbol
 _atom_site_label
 _atom_site_symmetry_multiplicity
 _atom_site_fract_x
 _atom_site_fract_y
 _atom_site_fract_z
 _atom_site_occupancy
  Ce  Ce0  1  0.665820  0.000000  0.250000  1
  Nd  Nd1  1  0.664492  0.662750  0.749833  1
  Nd  Nd2  1  0.001742  0.337250  0.750167  1
  Nd  Nd3  1  0.333443  0.000000  0.750000  1
  Y  Y4  1  0.000056  0.663438  0.250171  1
  Y  Y5  1  0.336619  0.336562  0.249829  1
  H  H6  1  0.678665  0.655245  0.100764  1
  H  H7  1  0.352629  0.031093  0.097908  1
  H  H8  1  0.974231  0.326687  0.095006  1
  H  H9  1  0.325720  0.658959  0.194163  1
  H  H10  1  0.009275  0.000000  0.250000  1
  H  H11  1  0.666761  0.341041  0.305837  1
  H  H12  1  0.023420  0.344755  0.399236  1
  H  H13  1  0.321536  0.968907  0.402092  1
  H  H14  1  0.647543  0.673313  0.404994  1
  H  H15  1  0.677506  0.026817  0.592115  1
  H  H16  1  0.346001  0.321445  0.585249  1
  H  H17  1  0.976388  0.653309  0.585667  1
  H  H18  1  0.334836  0.667882  0.684387  1
  H  H19  1  0.998041  0.000000  0.750000  1
  H  H20  1  0.666954  0.332118  0.815613  1
  H  H21  1  0.024556  0.678555  0.914751  1
  H  H22  1  0.650689  0.973183  0.907885  1
  H  H23  1  0.323079  0.346691  0.914333  1
