# generated using pymatgen
data_CeThTcC2
_symmetry_space_group_name_H-M   'P 1'
_cell_length_a   5.29748000
_cell_length_b   6.67802500
_cell_length_c   9.97208200
_cell_angle_alpha   90.00000000
_cell_angle_beta   90.00000000
_cell_angle_gamma   90.00000000
_symmetry_Int_Tables_number   1
_chemical_formula_structural   CeThTcC2
_chemical_formula_sum   'Ce4 Th4 Tc4 C8'
_cell_volume   352.77939195
_cell_formula_units_Z   4
loop_
 _symmetry_equiv_pos_site_id
 _symmetry_equiv_pos_as_xyz
  1  'x, y, z'
loop_
 _atom_site_type_symbol
 _atom_site_label
 _atom_site_symmetry_multiplicity
 _atom_site_fract_x
 _atom_site_fract_y
 _atom_site_fract_z
 _atom_site_occupancy
  Ce  Ce0  1  0.250000  0.314309  0.048199  1
  Ce  Ce1  1  0.750000  0.185691  0.548199  1
  Ce  Ce2  1  0.250000  0.814309  0.451801  1
  Ce  Ce3  1  0.750000  0.685691  0.951801  1
  Th  Th4  1  0.250000  0.973770  0.781875  1
  Th  Th5  1  0.750000  0.526230  0.281875  1
  Th  Th6  1  0.250000  0.473770  0.718125  1
  Th  Th7  1  0.750000  0.026230  0.218125  1
  Tc  Tc8  1  0.250000  0.772963  0.137691  1
  Tc  Tc9  1  0.750000  0.727037  0.637691  1
  Tc  Tc10  1  0.250000  0.272963  0.362309  1
  Tc  Tc11  1  0.750000  0.227037  0.862309  1
  C  C12  1  0.250000  0.165559  0.552029  1
  C  C13  1  0.750000  0.334441  0.052029  1
  C  C14  1  0.250000  0.665559  0.947971  1
  C  C15  1  0.750000  0.834441  0.447971  1
  C  C16  1  0.250000  0.533765  0.255771  1
  C  C17  1  0.750000  0.966235  0.755771  1
  C  C18  1  0.250000  0.033765  0.244229  1
  C  C19  1  0.750000  0.466235  0.744229  1
