# generated using pymatgen
data_AcNiAgSn2
_symmetry_space_group_name_H-M   'P 1'
_cell_length_a   4.62740600
_cell_length_b   4.62740600
_cell_length_c   10.93998800
_cell_angle_alpha   90.00000000
_cell_angle_beta   90.00000000
_cell_angle_gamma   90.00000000
_symmetry_Int_Tables_number   1
_chemical_formula_structural   AcNiAgSn2
_chemical_formula_sum   'Ac2 Ni2 Ag2 Sn4'
_cell_volume   234.25671905
_cell_formula_units_Z   2
loop_
 _symmetry_equiv_pos_site_id
 _symmetry_equiv_pos_as_xyz
  1  'x, y, z'
loop_
 _atom_site_type_symbol
 _atom_site_label
 _atom_site_symmetry_multiplicity
 _atom_site_fract_x
 _atom_site_fract_y
 _atom_site_fract_z
 _atom_site_occupancy
  Ac  Ac0  1  0.000000  0.500000  0.256117  1
  Ac  Ac1  1  0.500000  0.000000  0.743883  1
  Ni  Ni2  1  0.000000  0.500000  0.614409  1
  Ni  Ni3  1  0.500000  0.000000  0.385591  1
  Ag  Ag4  1  0.000000  0.000000  0.000000  1
  Ag  Ag5  1  0.500000  0.500000  0.000000  1
  Sn  Sn6  1  0.000000  0.000000  0.500000  1
  Sn  Sn7  1  0.500000  0.500000  0.500000  1
  Sn  Sn8  1  0.000000  0.500000  0.847283  1
  Sn  Sn9  1  0.500000  0.000000  0.152717  1
