# generated using pymatgen
data_Pr4Al11Ga6SiIr6
_symmetry_space_group_name_H-M   'P 1'
_cell_length_a   7.60175262
_cell_length_b   7.58920774
_cell_length_c   9.73797673
_cell_angle_alpha   90.07793360
_cell_angle_beta   89.79559102
_cell_angle_gamma   119.72501259
_symmetry_Int_Tables_number   1
_chemical_formula_structural   Pr4Al11Ga6SiIr6
_chemical_formula_sum   'Pr4 Al11 Ga6 Si1 Ir6'
_cell_volume   487.86928761
_cell_formula_units_Z   1
loop_
 _symmetry_equiv_pos_site_id
 _symmetry_equiv_pos_as_xyz
  1  'x, y, z'
loop_
 _atom_site_type_symbol
 _atom_site_label
 _atom_site_symmetry_multiplicity
 _atom_site_fract_x
 _atom_site_fract_y
 _atom_site_fract_z
 _atom_site_occupancy
  Pr  Pr0  1  0.997279  0.663457  0.247045  1
  Pr  Pr1  1  0.002645  0.331227  0.753452  1
  Pr  Pr2  1  0.674919  0.003680  0.246898  1
  Pr  Pr3  1  0.330504  0.003651  0.750422  1
  Al  Al4  1  0.994986  0.670898  0.926931  1
  Al  Al5  1  0.996761  0.666020  0.569906  1
  Al  Al6  1  0.334108  0.000856  0.429325  1
  Al  Al7  1  0.003783  0.334396  0.433660  1
  Al  Al8  1  0.665290  0.996664  0.569971  1
  Al  Al9  1  0.659104  0.989968  0.926690  1
  Al  Al10  1  0.333395  0.002099  0.071857  1
  Al  Al11  1  0.335645  0.334716  0.550662  1
  Al  Al12  1  0.666501  0.666612  0.447445  1
  Al  Al13  1  0.664625  0.665463  0.054306  1
  Al  Al14  1  0.338140  0.335355  0.949837  1
  Ga  Ga15  1  0.133113  0.129484  0.250855  1
  Ga  Ga16  1  0.870132  0.871983  0.749887  1
  Ga  Ga17  1  0.345032  0.547116  0.251455  1
  Ga  Ga18  1  0.660816  0.454884  0.750268  1
  Ga  Ga19  1  0.543735  0.340292  0.249862  1
  Ga  Ga20  1  0.453402  0.658287  0.750026  1
  Si  Si21  1  0.000724  0.334245  0.067572  1
  Ir  Ir22  1  0.677120  0.329010  0.000711  1
  Ir  Ir23  1  0.319010  0.661044  0.001191  1
  Ir  Ir24  1  0.329103  0.669711  0.500029  1
  Ir  Ir25  1  0.670720  0.329363  0.499356  1
  Ir  Ir26  1  0.999397  0.008974  0.001085  1
  Ir  Ir27  1  0.000011  0.000542  0.499297  1
