# generated using pymatgen
data_NdEu4Ta3O14
_symmetry_space_group_name_H-M   'P 1'
_cell_length_a   7.67738072
_cell_length_b   7.67738070
_cell_length_c   7.67738063
_cell_angle_alpha   59.79047010
_cell_angle_beta   59.79047109
_cell_angle_gamma   59.79047154
_symmetry_Int_Tables_number   1
_chemical_formula_structural   NdEu4Ta3O14
_chemical_formula_sum   'Nd1 Eu4 Ta3 O14'
_cell_volume   318.45895148
_cell_formula_units_Z   1
loop_
 _symmetry_equiv_pos_site_id
 _symmetry_equiv_pos_as_xyz
  1  'x, y, z'
loop_
 _atom_site_type_symbol
 _atom_site_label
 _atom_site_symmetry_multiplicity
 _atom_site_fract_x
 _atom_site_fract_y
 _atom_site_fract_z
 _atom_site_occupancy
  Nd  Nd0  1  0.625000  0.625000  0.625000  1
  Eu  Eu1  1  0.625000  0.125000  0.125000  1
  Eu  Eu2  1  0.125000  0.625000  0.125000  1
  Eu  Eu3  1  0.125000  0.125000  0.625000  1
  Eu  Eu4  1  0.125000  0.125000  0.125000  1
  Ta  Ta5  1  0.125000  0.625000  0.625000  1
  Ta  Ta6  1  0.625000  0.125000  0.625000  1
  Ta  Ta7  1  0.625000  0.625000  0.125000  1
  O  O8  1  0.245580  0.245580  0.245580  1
  O  O9  1  0.004420  0.004420  0.004420  1
  O  O10  1  0.720305  0.720305  0.251515  1
  O  O11  1  0.321760  0.321760  0.704418  1
  O  O12  1  0.720305  0.251515  0.720305  1
  O  O13  1  0.321760  0.704418  0.321760  1
  O  O14  1  0.251515  0.720305  0.720305  1
  O  O15  1  0.704418  0.321760  0.321760  1
  O  O16  1  0.529695  0.529695  0.998485  1
  O  O17  1  0.928240  0.928240  0.545582  1
  O  O18  1  0.529695  0.998485  0.529695  1
  O  O19  1  0.928240  0.545582  0.928240  1
  O  O20  1  0.998485  0.529695  0.529695  1
  O  O21  1  0.545582  0.928240  0.928240  1
