# generated using pymatgen
data_Yb4Tc4NO11
_symmetry_space_group_name_H-M   'P 1'
_cell_length_a   5.34789966
_cell_length_b   5.62655204
_cell_length_c   7.66409700
_cell_angle_alpha   90.00000000
_cell_angle_beta   90.00000000
_cell_angle_gamma   90.18110584
_symmetry_Int_Tables_number   1
_chemical_formula_structural   Yb4Tc4NO11
_chemical_formula_sum   'Yb4 Tc4 N1 O11'
_cell_volume   230.61333370
_cell_formula_units_Z   1
loop_
 _symmetry_equiv_pos_site_id
 _symmetry_equiv_pos_as_xyz
  1  'x, y, z'
loop_
 _atom_site_type_symbol
 _atom_site_label
 _atom_site_symmetry_multiplicity
 _atom_site_fract_x
 _atom_site_fract_y
 _atom_site_fract_z
 _atom_site_occupancy
  Yb  Yb0  1  0.976398  0.054677  0.250000  1
  Yb  Yb1  1  0.531324  0.568935  0.250000  1
  Yb  Yb2  1  0.491530  0.437431  0.750001  1
  Yb  Yb3  1  0.015836  0.927937  0.750001  1
  Tc  Tc4  1  0.499674  0.000350  0.999176  1
  Tc  Tc5  1  0.010940  0.497038  0.012277  1
  Tc  Tc6  1  0.499674  0.000350  0.500823  1
  Tc  Tc7  1  0.010940  0.497038  0.487722  1
  N  N8  1  0.068083  0.490507  0.250000  1
  O  O9  1  0.693619  0.295826  0.051072  1
  O  O10  1  0.800318  0.801069  0.050777  1
  O  O11  1  0.390818  0.964907  0.250000  1
  O  O12  1  0.693619  0.295826  0.448929  1
  O  O13  1  0.800318  0.801069  0.449224  1
  O  O14  1  0.197894  0.199301  0.552486  1
  O  O15  1  0.305997  0.702052  0.551374  1
  O  O16  1  0.605661  0.034025  0.750001  1
  O  O17  1  0.903466  0.530315  0.750001  1
  O  O18  1  0.197894  0.199301  0.947514  1
  O  O19  1  0.305997  0.702052  0.948626  1
