# generated using pymatgen
data_Nd5Si2Rh
_symmetry_space_group_name_H-M   'P 1'
_cell_length_a   7.90097400
_cell_length_b   8.87715900
_cell_length_c   12.32020600
_cell_angle_alpha   90.00000000
_cell_angle_beta   90.00000000
_cell_angle_gamma   90.00000000
_symmetry_Int_Tables_number   1
_chemical_formula_structural   Nd5Si2Rh
_chemical_formula_sum   'Nd20 Si8 Rh4'
_cell_volume   864.11710269
_cell_formula_units_Z   4
loop_
 _symmetry_equiv_pos_site_id
 _symmetry_equiv_pos_as_xyz
  1  'x, y, z'
loop_
 _atom_site_type_symbol
 _atom_site_label
 _atom_site_symmetry_multiplicity
 _atom_site_fract_x
 _atom_site_fract_y
 _atom_site_fract_z
 _atom_site_occupancy
  Nd  Nd0  1  0.681808  0.465645  0.076330  1
  Nd  Nd1  1  0.181808  0.534355  0.423670  1
  Nd  Nd2  1  0.318192  0.965645  0.923670  1
  Nd  Nd3  1  0.818192  0.034355  0.576330  1
  Nd  Nd4  1  0.318192  0.534355  0.923670  1
  Nd  Nd5  1  0.818192  0.465645  0.576330  1
  Nd  Nd6  1  0.681808  0.034355  0.076330  1
  Nd  Nd7  1  0.181808  0.965645  0.423670  1
  Nd  Nd8  1  0.963822  0.750000  0.999894  1
  Nd  Nd9  1  0.463822  0.250000  0.500106  1
  Nd  Nd10  1  0.036178  0.250000  0.000106  1
  Nd  Nd11  1  0.536178  0.750000  0.499894  1
  Nd  Nd12  1  0.350593  0.750000  0.204954  1
  Nd  Nd13  1  0.850593  0.250000  0.295046  1
  Nd  Nd14  1  0.649407  0.250000  0.795046  1
  Nd  Nd15  1  0.149407  0.750000  0.704954  1
  Nd  Nd16  1  0.829934  0.750000  0.280707  1
  Nd  Nd17  1  0.329934  0.250000  0.219293  1
  Nd  Nd18  1  0.170066  0.250000  0.719293  1
  Nd  Nd19  1  0.670066  0.750000  0.780707  1
  Si  Si20  1  0.561117  0.495118  0.329848  1
  Si  Si21  1  0.061117  0.504882  0.170152  1
  Si  Si22  1  0.438883  0.995118  0.670152  1
  Si  Si23  1  0.938883  0.004882  0.829848  1
  Si  Si24  1  0.438883  0.504882  0.670152  1
  Si  Si25  1  0.938883  0.495118  0.829848  1
  Si  Si26  1  0.561117  0.004882  0.329848  1
  Si  Si27  1  0.061117  0.995118  0.170152  1
  Rh  Rh28  1  0.573727  0.750000  0.014558  1
  Rh  Rh29  1  0.073727  0.250000  0.485442  1
  Rh  Rh30  1  0.426273  0.250000  0.985442  1
  Rh  Rh31  1  0.926273  0.750000  0.514558  1
