# generated using pymatgen
data_K2FeCoS4
_symmetry_space_group_name_H-M   'P 1'
_cell_length_a   13.07186945
_cell_length_b   11.62047428
_cell_length_c   7.02301303
_cell_angle_alpha   85.26117255
_cell_angle_beta   62.36608657
_cell_angle_gamma   32.37273854
_symmetry_Int_Tables_number   1
_chemical_formula_structural   K2FeCoS4
_chemical_formula_sum   'K4 Fe2 Co2 S8'
_cell_volume   383.82878811
_cell_formula_units_Z   2
loop_
 _symmetry_equiv_pos_site_id
 _symmetry_equiv_pos_as_xyz
  1  'x, y, z'
loop_
 _atom_site_type_symbol
 _atom_site_label
 _atom_site_symmetry_multiplicity
 _atom_site_fract_x
 _atom_site_fract_y
 _atom_site_fract_z
 _atom_site_occupancy
  K  K0  1  0.679044  0.679044  0.320956  1
  K  K1  1  0.929044  0.929044  0.570956  1
  K  K2  1  0.320956  0.320956  0.679044  1
  K  K3  1  0.570956  0.570956  0.929044  1
  Fe  Fe4  1  0.750000  0.750000  0.750000  1
  Fe  Fe5  1  0.500000  0.500000  0.500000  1
  Co  Co6  1  0.000000  0.000000  0.000000  1
  Co  Co7  1  0.250000  0.250000  0.250000  1
  S  S8  1  0.039668  0.351628  0.652277  1
  S  S9  1  0.210332  0.898372  0.597723  1
  S  S10  1  0.898372  0.210332  0.293574  1
  S  S11  1  0.597723  0.293574  0.210332  1
  S  S12  1  0.956426  0.652277  0.351628  1
  S  S13  1  0.652277  0.956426  0.039668  1
  S  S14  1  0.351628  0.039668  0.956426  1
  S  S15  1  0.293574  0.597723  0.898372  1
