# generated using pymatgen
data_La2NpRu2
_symmetry_space_group_name_H-M   'P 1'
_cell_length_a   6.14798030
_cell_length_b   6.14798102
_cell_length_c   6.14798080
_cell_angle_alpha   140.19663213
_cell_angle_beta   122.13433957
_cell_angle_gamma   72.53326093
_symmetry_Int_Tables_number   1
_chemical_formula_structural   La2NpRu2
_chemical_formula_sum   'La2 Np1 Ru2'
_cell_volume   123.42119002
_cell_formula_units_Z   1
loop_
 _symmetry_equiv_pos_site_id
 _symmetry_equiv_pos_as_xyz
  1  'x, y, z'
loop_
 _atom_site_type_symbol
 _atom_site_label
 _atom_site_symmetry_multiplicity
 _atom_site_fract_x
 _atom_site_fract_y
 _atom_site_fract_z
 _atom_site_occupancy
  La  La0  1  0.693042  0.193042  0.500000  1
  La  La1  1  0.306958  0.806957  0.500000  1
  Np  Np2  1  0.000000  0.000000  0.000000  1
  Ru  Ru3  1  0.757608  0.500000  0.257608  1
  Ru  Ru4  1  0.242392  0.500000  0.742391  1
