# generated using pymatgen
data_Li2Dy4YP12Ru17
_symmetry_space_group_name_H-M   'P 1'
_cell_length_a   12.71357600
_cell_length_b   12.50384978
_cell_length_c   3.96240800
_cell_angle_alpha   90.00000000
_cell_angle_beta   90.00000000
_cell_angle_gamma   120.55641269
_symmetry_Int_Tables_number   1
_chemical_formula_structural   Li2Dy4YP12Ru17
_chemical_formula_sum   'Li2 Dy4 Y1 P12 Ru17'
_cell_volume   542.42399342
_cell_formula_units_Z   1
loop_
 _symmetry_equiv_pos_site_id
 _symmetry_equiv_pos_as_xyz
  1  'x, y, z'
loop_
 _atom_site_type_symbol
 _atom_site_label
 _atom_site_symmetry_multiplicity
 _atom_site_fract_x
 _atom_site_fract_y
 _atom_site_fract_z
 _atom_site_occupancy
  Li  Li0  1  0.000557  0.562340  0.000000  1
  Li  Li1  1  0.438217  0.437660  0.000000  1
  Dy  Dy2  1  0.000551  0.181577  0.500000  1
  Dy  Dy3  1  0.818973  0.818423  0.500000  1
  Dy  Dy4  1  0.663613  0.325841  0.000000  1
  Dy  Dy5  1  0.337770  0.674159  0.000000  1
  Y  Y6  1  0.182151  0.000000  0.500000  1
  P  P7  1  0.998617  0.809261  0.000000  1
  P  P8  1  0.189356  0.190739  0.000000  1
  P  P9  1  0.818170  0.000000  0.000000  1
  P  P10  1  0.691741  0.169717  0.500000  1
  P  P11  1  0.816988  0.515285  0.500000  1
  P  P12  1  0.477454  0.301246  0.500000  1
  P  P13  1  0.176208  0.698754  0.500000  1
  P  P14  1  0.522024  0.830283  0.500000  1
  P  P15  1  0.301702  0.484715  0.500000  1
  P  P16  1  0.002395  0.370584  0.000000  1
  P  P17  1  0.631812  0.629416  0.000000  1
  P  P18  1  0.376279  0.000000  0.000000  1
  Ru  Ru19  1  0.556846  0.000000  0.000000  1
  Ru  Ru20  1  0.998079  0.711952  0.500000  1
  Ru  Ru21  1  0.286126  0.288048  0.500000  1
  Ru  Ru22  1  0.718078  0.000000  0.500000  1
  Ru  Ru23  1  0.809204  0.185709  0.000000  1
  Ru  Ru24  1  0.812228  0.615192  0.000000  1
  Ru  Ru25  1  0.377272  0.191482  0.000000  1
  Ru  Ru26  1  0.185790  0.808518  0.000000  1
  Ru  Ru27  1  0.623496  0.814291  0.000000  1
  Ru  Ru28  1  0.197039  0.384808  0.000000  1
  Ru  Ru29  1  0.873693  0.366247  0.500000  1
  Ru  Ru30  1  0.629183  0.510325  0.500000  1
  Ru  Ru31  1  0.491655  0.124217  0.500000  1
  Ru  Ru32  1  0.367438  0.875783  0.500000  1
  Ru  Ru33  1  0.507446  0.633753  0.500000  1
  Ru  Ru34  1  0.118857  0.489675  0.500000  1
  Ru  Ru35  1  0.002995  0.000000  0.000000  1
