# generated using pymatgen
data_Er2ZrPdRu2
_symmetry_space_group_name_H-M   'P 1'
_cell_length_a   3.34776700
_cell_length_b   3.34776700
_cell_length_c   10.30404300
_cell_angle_alpha   90.00000000
_cell_angle_beta   90.00000000
_cell_angle_gamma   90.00000000
_symmetry_Int_Tables_number   1
_chemical_formula_structural   Er2ZrPdRu2
_chemical_formula_sum   'Er2 Zr1 Pd1 Ru2'
_cell_volume   115.48301413
_cell_formula_units_Z   1
loop_
 _symmetry_equiv_pos_site_id
 _symmetry_equiv_pos_as_xyz
  1  'x, y, z'
loop_
 _atom_site_type_symbol
 _atom_site_label
 _atom_site_symmetry_multiplicity
 _atom_site_fract_x
 _atom_site_fract_y
 _atom_site_fract_z
 _atom_site_occupancy
  Er  Er0  1  0.499999  0.499999  0.322165  1
  Er  Er1  1  0.499999  0.499999  0.677835  1
  Zr  Zr2  1  0.499999  0.499999  0.000000  1
  Pd  Pd3  1  0.000000  0.000000  0.500000  1
  Ru  Ru4  1  0.000000  0.000000  0.155212  1
  Ru  Ru5  1  0.000000  0.000000  0.844788  1
