# generated using pymatgen
data_SmDy7(Sc3Sn4)4
_symmetry_space_group_name_H-M   'P 1'
_cell_length_a   7.70230518
_cell_length_b   7.96940314
_cell_length_c   14.85317828
_cell_angle_alpha   90.01307112
_cell_angle_beta   89.98186224
_cell_angle_gamma   90.01676746
_symmetry_Int_Tables_number   1
_chemical_formula_structural   SmDy7(Sc3Sn4)4
_chemical_formula_sum   'Sm1 Dy7 Sc12 Sn16'
_cell_volume   911.72919296
_cell_formula_units_Z   1
loop_
 _symmetry_equiv_pos_site_id
 _symmetry_equiv_pos_as_xyz
  1  'x, y, z'
loop_
 _atom_site_type_symbol
 _atom_site_label
 _atom_site_symmetry_multiplicity
 _atom_site_fract_x
 _atom_site_fract_y
 _atom_site_fract_z
 _atom_site_occupancy
  Sm  Sm0  1  0.996130  0.176164  0.094018  1
  Dy  Dy1  1  0.003837  0.823157  0.905394  1
  Dy  Dy2  1  0.504093  0.676747  0.905450  1
  Dy  Dy3  1  0.003998  0.823311  0.594444  1
  Dy  Dy4  1  0.495986  0.323508  0.094382  1
  Dy  Dy5  1  0.995955  0.176701  0.405412  1
  Dy  Dy6  1  0.496051  0.323369  0.405793  1
  Dy  Dy7  1  0.503932  0.676745  0.594432  1
  Sc  Sc8  1  0.163845  0.496689  0.749963  1
  Sc  Sc9  1  0.836073  0.503493  0.250169  1
  Sc  Sc10  1  0.336346  0.996401  0.250145  1
  Sc  Sc11  1  0.663761  0.003275  0.750003  1
  Sc  Sc12  1  0.335152  0.162035  0.627257  1
  Sc  Sc13  1  0.664870  0.837967  0.372822  1
  Sc  Sc14  1  0.164824  0.662096  0.372863  1
  Sc  Sc15  1  0.664686  0.837683  0.127255  1
  Sc  Sc16  1  0.835089  0.337894  0.627262  1
  Sc  Sc17  1  0.335275  0.161981  0.872645  1
  Sc  Sc18  1  0.834841  0.338208  0.872680  1
  Sc  Sc19  1  0.164918  0.662083  0.127233  1
  Sn  Sn20  1  0.026329  0.124719  0.750001  1
  Sn  Sn21  1  0.973633  0.874495  0.250208  1
  Sn  Sn22  1  0.473689  0.624673  0.250029  1
  Sn  Sn23  1  0.526268  0.375265  0.749961  1
  Sn  Sn24  1  0.305935  0.850654  0.749994  1
  Sn  Sn25  1  0.693328  0.149314  0.250470  1
  Sn  Sn26  1  0.194857  0.351581  0.250705  1
  Sn  Sn27  1  0.805901  0.649477  0.750013  1
  Sn  Sn28  1  0.179708  0.458028  0.542440  1
  Sn  Sn29  1  0.820424  0.541967  0.457568  1
  Sn  Sn30  1  0.320179  0.958104  0.457583  1
  Sn  Sn31  1  0.819960  0.542779  0.042243  1
  Sn  Sn32  1  0.679615  0.041883  0.542479  1
  Sn  Sn33  1  0.180080  0.458692  0.957334  1
  Sn  Sn34  1  0.678440  0.041590  0.957176  1
  Sn  Sn35  1  0.321993  0.957272  0.042172  1
