# generated using pymatgen
data_Th2V3P7Rh9
_symmetry_space_group_name_H-M   'P 1'
_cell_length_a   3.92331300
_cell_length_b   9.58733858
_cell_length_c   9.58984852
_cell_angle_alpha   119.97419983
_cell_angle_beta   90.00012518
_cell_angle_gamma   90.00013635
_symmetry_Int_Tables_number   1
_chemical_formula_structural   Th2V3P7Rh9
_chemical_formula_sum   'Th2 V3 P7 Rh9'
_cell_volume   312.46850563
_cell_formula_units_Z   1
loop_
 _symmetry_equiv_pos_site_id
 _symmetry_equiv_pos_as_xyz
  1  'x, y, z'
loop_
 _atom_site_type_symbol
 _atom_site_label
 _atom_site_symmetry_multiplicity
 _atom_site_fract_x
 _atom_site_fract_y
 _atom_site_fract_z
 _atom_site_occupancy
  Th  Th0  1  0.261869  0.666642  0.333339  1
  Th  Th1  1  0.761831  0.333300  0.666554  1
  V  V2  1  0.761979  0.091449  0.875766  1
  V  V3  1  0.761969  0.124658  0.215970  1
  V  V4  1  0.761971  0.784235  0.908626  1
  P  P5  1  0.262270  0.000142  0.000016  1
  P  P6  1  0.761854  0.891706  0.603234  1
  P  P7  1  0.761850  0.396433  0.288334  1
  P  P8  1  0.761857  0.711511  0.108182  1
  P  P9  1  0.261852  0.112280  0.405594  1
  P  P10  1  0.261841  0.594209  0.706541  1
  P  P11  1  0.261852  0.293445  0.887525  1
  Rh  Rh12  1  0.261916  0.884314  0.156703  1
  Rh  Rh13  1  0.261913  0.843436  0.727795  1
  Rh  Rh14  1  0.261908  0.271922  0.115646  1
  Rh  Rh15  1  0.761885  0.613986  0.563690  1
  Rh  Rh16  1  0.761882  0.436376  0.050334  1
  Rh  Rh17  1  0.761884  0.949658  0.385953  1
  Rh  Rh18  1  0.261869  0.368347  0.437218  1
  Rh  Rh19  1  0.261876  0.562790  0.931190  1
  Rh  Rh20  1  0.261872  0.069161  0.631787  1
