# generated using pymatgen
data_Yb3Ce4Er(Pt2Pb)4
_symmetry_space_group_name_H-M   'P 1'
_cell_length_a   7.95104448
_cell_length_b   7.95104448
_cell_length_c   7.29091700
_cell_angle_alpha   90.00000000
_cell_angle_beta   90.00000000
_cell_angle_gamma   90.39180918
_symmetry_Int_Tables_number   1
_chemical_formula_structural   Yb3Ce4Er(Pt2Pb)4
_chemical_formula_sum   'Yb3 Ce4 Er1 Pt8 Pb4'
_cell_volume   460.91449412
_cell_formula_units_Z   1
loop_
 _symmetry_equiv_pos_site_id
 _symmetry_equiv_pos_as_xyz
  1  'x, y, z'
loop_
 _atom_site_type_symbol
 _atom_site_label
 _atom_site_symmetry_multiplicity
 _atom_site_fract_x
 _atom_site_fract_y
 _atom_site_fract_z
 _atom_site_occupancy
  Yb  Yb0  1  0.659506  0.659506  0.500000  1
  Yb  Yb1  1  0.840962  0.158653  0.000000  1
  Yb  Yb2  1  0.158653  0.840962  0.000000  1
  Ce  Ce3  1  0.677653  0.677653  0.000000  1
  Ce  Ce4  1  0.823487  0.176029  0.500000  1
  Ce  Ce5  1  0.323542  0.323542  0.000000  1
  Ce  Ce6  1  0.176029  0.823487  0.500000  1
  Er  Er7  1  0.341576  0.341576  0.500000  1
  Pt  Pt8  1  0.871284  0.871284  0.733437  1
  Pt  Pt9  1  0.132171  0.132171  0.730607  1
  Pt  Pt10  1  0.627078  0.369686  0.763778  1
  Pt  Pt11  1  0.627078  0.369686  0.236222  1
  Pt  Pt12  1  0.369686  0.627078  0.236222  1
  Pt  Pt13  1  0.132171  0.132171  0.269393  1
  Pt  Pt14  1  0.871284  0.871284  0.266563  1
  Pt  Pt15  1  0.369686  0.627078  0.763778  1
  Pb  Pb16  1  0.500424  0.998652  0.750322  1
  Pb  Pb17  1  0.500424  0.998652  0.249678  1
  Pb  Pb18  1  0.998652  0.500424  0.750322  1
  Pb  Pb19  1  0.998652  0.500424  0.249678  1
