# generated using pymatgen
data_LaCo2(MoH4)3
_symmetry_space_group_name_H-M   'P 1'
_cell_length_a   5.98400300
_cell_length_b   5.98400495
_cell_length_c   4.44902600
_cell_angle_alpha   90.00000000
_cell_angle_beta   90.00000000
_cell_angle_gamma   120.00000580
_symmetry_Int_Tables_number   1
_chemical_formula_structural   LaCo2(MoH4)3
_chemical_formula_sum   'La1 Co2 Mo3 H12'
_cell_volume   137.96829481
_cell_formula_units_Z   1
loop_
 _symmetry_equiv_pos_site_id
 _symmetry_equiv_pos_as_xyz
  1  'x, y, z'
loop_
 _atom_site_type_symbol
 _atom_site_label
 _atom_site_symmetry_multiplicity
 _atom_site_fract_x
 _atom_site_fract_y
 _atom_site_fract_z
 _atom_site_occupancy
  La  La0  1  0.000000  0.000000  0.000000  1
  Co  Co1  1  0.666667  0.333333  0.000000  1
  Co  Co2  1  0.333333  0.666667  0.000000  1
  Mo  Mo3  1  0.500000  0.000000  0.500000  1
  Mo  Mo4  1  0.000000  0.500000  0.500000  1
  Mo  Mo5  1  0.500000  0.500000  0.500000  1
  H  H6  1  0.791885  0.583770  0.753771  1
  H  H7  1  0.208115  0.416230  0.246229  1
  H  H8  1  0.208115  0.791885  0.246229  1
  H  H9  1  0.791885  0.208115  0.246229  1
  H  H10  1  0.583770  0.791885  0.246229  1
  H  H11  1  0.416230  0.208115  0.246229  1
  H  H12  1  0.416230  0.208115  0.753771  1
  H  H13  1  0.208115  0.416230  0.753771  1
  H  H14  1  0.791885  0.208115  0.753771  1
  H  H15  1  0.583770  0.791885  0.753771  1
  H  H16  1  0.791885  0.583770  0.246229  1
  H  H17  1  0.208115  0.791885  0.753771  1
