# generated using pymatgen
data_Li12Sm9Gd3(WO6)8
_symmetry_space_group_name_H-M   'P 1'
_cell_length_a   10.83439776
_cell_length_b   10.82539528
_cell_length_c   10.82538246
_cell_angle_alpha   109.45780809
_cell_angle_beta   109.48742992
_cell_angle_gamma   109.48720200
_symmetry_Int_Tables_number   1
_chemical_formula_structural   Li12Sm9Gd3(WO6)8
_chemical_formula_sum   'Li12 Sm9 Gd3 W8 O48'
_cell_volume   977.16787479
_cell_formula_units_Z   1
loop_
 _symmetry_equiv_pos_site_id
 _symmetry_equiv_pos_as_xyz
  1  'x, y, z'
loop_
 _atom_site_type_symbol
 _atom_site_label
 _atom_site_symmetry_multiplicity
 _atom_site_fract_x
 _atom_site_fract_y
 _atom_site_fract_z
 _atom_site_occupancy
  Li  Li0  1  0.749931  0.374909  0.125075  1
  Li  Li1  1  0.875154  0.750165  0.125079  1
  Li  Li2  1  0.124787  0.374659  0.249962  1
  Li  Li3  1  0.625154  0.875285  0.249959  1
  Li  Li4  1  0.249922  0.124745  0.374570  1
  Li  Li5  1  0.624661  0.249829  0.374566  1
  Li  Li6  1  0.374970  0.749976  0.624951  1
  Li  Li7  1  0.749974  0.874963  0.624933  1
  Li  Li8  1  0.375035  0.125099  0.750129  1
  Li  Li9  1  0.875094  0.625037  0.750107  1
  Li  Li10  1  0.125292  0.250013  0.875301  1
  Li  Li11  1  0.249981  0.625277  0.875306  1
  Sm  Sm12  1  0.374839  0.624839  0.249684  1
  Sm  Sm13  1  0.125120  0.750135  0.374782  1
  Sm  Sm14  1  0.749663  0.624643  0.374772  1
  Sm  Sm15  1  0.874979  0.249858  0.624629  1
  Sm  Sm16  1  0.249657  0.374769  0.624639  1
  Sm  Sm17  1  0.624986  0.374988  0.749963  1
  Sm  Sm18  1  0.125312  0.875305  0.750618  1
  Sm  Sm19  1  0.750179  0.125089  0.875329  1
  Sm  Sm20  1  0.625161  0.750246  0.875332  1
  Gd  Gd21  1  0.374964  0.249845  0.125127  1
  Gd  Gd22  1  0.250161  0.875283  0.125128  1
  Gd  Gd23  1  0.875075  0.125073  0.250158  1
  W  W24  1  0.000743  0.000388  0.001101  1
  W  W25  1  0.000197  0.500521  0.000023  1
  W  W26  1  0.499818  0.499506  0.000021  1
  W  W27  1  0.500370  0.000723  0.001097  1
  W  W28  1  0.499816  0.000005  0.499441  1
  W  W29  1  0.999635  0.499502  0.499469  1
  W  W30  1  0.999828  0.999964  0.499476  1
  W  W31  1  0.499616  0.499430  0.499432  1
  O  O32  1  0.327533  0.407404  0.025740  1
  O  O33  1  0.198205  0.618339  0.025748  1
  O  O34  1  0.698363  0.173043  0.081846  1
  O  O35  1  0.883488  0.908792  0.081828  1
  O  O36  1  0.618295  0.920388  0.092912  1
  O  O37  1  0.974585  0.172519  0.092914  1
  O  O38  1  0.591285  0.418296  0.116771  1
  O  O39  1  0.025496  0.698498  0.116788  1
  O  O40  1  0.199079  0.080692  0.172857  1
  O  O41  1  0.473769  0.092182  0.172844  1
  O  O42  1  0.116861  0.525044  0.197718  1
  O  O43  1  0.580850  0.672671  0.197729  1
  O  O44  1  0.326918  0.418186  0.301458  1
  O  O45  1  0.474514  0.883262  0.301445  1
  O  O46  1  0.908112  0.525068  0.327076  1
  O  O47  1  0.918959  0.802004  0.327063  1
  O  O48  1  0.579754  0.407227  0.381523  1
  O  O49  1  0.301774  0.974301  0.381543  1
  O  O50  1  0.827526  0.025722  0.407299  1
  O  O51  1  0.079756  0.381557  0.407287  1
  O  O52  1  0.826925  0.301486  0.418263  1
  O  O53  1  0.091322  0.116774  0.418266  1
  O  O54  1  0.591683  0.672517  0.474837  1
  O  O55  1  0.383173  0.802329  0.474865  1
  O  O56  1  0.616941  0.197997  0.524994  1
  O  O57  1  0.408058  0.327011  0.525014  1
  O  O58  1  0.172661  0.697325  0.580722  1
  O  O59  1  0.908070  0.883385  0.580717  1
  O  O60  1  0.918999  0.616509  0.591700  1
  O  O61  1  0.172697  0.975185  0.591691  1
  O  O62  1  0.697472  0.024831  0.616465  1
  O  O63  1  0.419005  0.591645  0.616479  1
  O  O64  1  0.080851  0.197694  0.672608  1
  O  O65  1  0.091745  0.474894  0.672588  1
  O  O66  1  0.524663  0.116673  0.697319  1
  O  O67  1  0.672656  0.580641  0.697295  1
  O  O68  1  0.418959  0.327133  0.802037  1
  O  O69  1  0.883097  0.474924  0.802055  1
  O  O70  1  0.803130  0.919447  0.827646  1
  O  O71  1  0.524545  0.908199  0.827648  1
  O  O72  1  0.975356  0.302634  0.883374  1
  O  O73  1  0.408023  0.580744  0.883385  1
  O  O74  1  0.383587  0.081618  0.908928  1
  O  O75  1  0.025375  0.827315  0.908934  1
  O  O76  1  0.118196  0.092785  0.920606  1
  O  O77  1  0.302403  0.827827  0.920599  1
  O  O78  1  0.802513  0.383434  0.975214  1
  O  O79  1  0.672696  0.591781  0.975207  1
