# generated using pymatgen
data_Pr8Hg2PdRh
_symmetry_space_group_name_H-M   'P 1'
_cell_length_a   10.05045904
_cell_length_b   10.05045938
_cell_length_c   10.04832700
_cell_angle_alpha   60.00701489
_cell_angle_beta   60.00701380
_cell_angle_gamma   60.01027266
_symmetry_Int_Tables_number   1
_chemical_formula_structural   Pr8Hg2PdRh
_chemical_formula_sum   'Pr16 Hg4 Pd2 Rh2'
_cell_volume   717.84440812
_cell_formula_units_Z   2
loop_
 _symmetry_equiv_pos_site_id
 _symmetry_equiv_pos_as_xyz
  1  'x, y, z'
loop_
 _atom_site_type_symbol
 _atom_site_label
 _atom_site_symmetry_multiplicity
 _atom_site_fract_x
 _atom_site_fract_y
 _atom_site_fract_z
 _atom_site_occupancy
  Pr  Pr0  1  0.351261  0.351261  0.356283  1
  Pr  Pr1  1  0.351261  0.351261  0.941197  1
  Pr  Pr2  1  0.348578  0.945609  0.352907  1
  Pr  Pr3  1  0.945609  0.348578  0.352907  1
  Pr  Pr4  1  0.814818  0.188666  0.192131  1
  Pr  Pr5  1  0.188666  0.814818  0.804385  1
  Pr  Pr6  1  0.188666  0.814818  0.192131  1
  Pr  Pr7  1  0.814818  0.188666  0.804385  1
  Pr  Pr8  1  0.188723  0.188723  0.811277  1
  Pr  Pr9  1  0.807761  0.807761  0.192239  1
  Pr  Pr10  1  0.937450  0.561082  0.564799  1
  Pr  Pr11  1  0.561082  0.937450  0.936668  1
  Pr  Pr12  1  0.561082  0.937450  0.564799  1
  Pr  Pr13  1  0.937450  0.561082  0.936668  1
  Pr  Pr14  1  0.562365  0.562365  0.937635  1
  Pr  Pr15  1  0.936786  0.936786  0.563214  1
  Hg  Hg16  1  0.584546  0.584546  0.584273  1
  Hg  Hg17  1  0.584546  0.584546  0.246633  1
  Hg  Hg18  1  0.585750  0.244986  0.584632  1
  Hg  Hg19  1  0.244986  0.585750  0.584632  1
  Pd  Pd20  1  0.145869  0.568346  0.142892  1
  Pd  Pd21  1  0.568346  0.145869  0.142892  1
  Rh  Rh22  1  0.144792  0.144792  0.141668  1
  Rh  Rh23  1  0.144792  0.144792  0.568748  1
