# generated using pymatgen
data_Dy7Ho9In6RePt
_symmetry_space_group_name_H-M   'P 1'
_cell_length_a   10.40816500
_cell_length_b   10.39695114
_cell_length_c   7.06815201
_cell_angle_alpha   89.99280581
_cell_angle_beta   90.00000000
_cell_angle_gamma   120.03568846
_symmetry_Int_Tables_number   1
_chemical_formula_structural   Dy7Ho9In6RePt
_chemical_formula_sum   'Dy7 Ho9 In6 Re1 Pt1'
_cell_volume   662.15610315
_cell_formula_units_Z   1
loop_
 _symmetry_equiv_pos_site_id
 _symmetry_equiv_pos_as_xyz
  1  'x, y, z'
loop_
 _atom_site_type_symbol
 _atom_site_label
 _atom_site_symmetry_multiplicity
 _atom_site_fract_x
 _atom_site_fract_y
 _atom_site_fract_z
 _atom_site_occupancy
  Dy  Dy0  1  0.529301  0.058600  0.507677  1
  Dy  Dy1  1  0.941636  0.470867  0.507708  1
  Dy  Dy2  1  0.529232  0.470867  0.507708  1
  Dy  Dy3  1  0.466844  0.933689  0.005880  1
  Dy  Dy4  1  0.065757  0.533459  0.006275  1
  Dy  Dy5  1  0.467701  0.533459  0.006275  1
  Dy  Dy6  1  0.175516  0.351031  0.715341  1
  Ho  Ho7  1  0.648747  0.824310  0.714730  1
  Ho  Ho8  1  0.175565  0.824310  0.714730  1
  Ho  Ho9  1  0.824938  0.649875  0.213936  1
  Ho  Ho10  1  0.350250  0.175043  0.213454  1
  Ho  Ho11  1  0.824792  0.175043  0.213454  1
  Ho  Ho12  1  0.666746  0.333491  0.884166  1
  Ho  Ho13  1  0.333361  0.666724  0.378700  1
  Ho  Ho14  1  0.999874  0.999747  0.490492  1
  Ho  Ho15  1  0.999770  0.999539  0.991128  1
  In  In16  1  0.836074  0.672150  0.754247  1
  In  In17  1  0.328648  0.163885  0.755156  1
  In  In18  1  0.835236  0.163885  0.755156  1
  In  In19  1  0.162692  0.325384  0.253677  1
  In  In20  1  0.674257  0.837110  0.255230  1
  In  In21  1  0.162852  0.837110  0.255230  1
  Re  Re22  1  0.333386  0.666772  0.777573  1
  Pt  Pt23  1  0.666824  0.333648  0.280116  1
