# generated using pymatgen
data_SmEr5V2(Co4P3)4
_symmetry_space_group_name_H-M   'P 1'
_cell_length_a   3.67291100
_cell_length_b   10.51482200
_cell_length_c   12.18925500
_cell_angle_alpha   90.00000000
_cell_angle_beta   90.00000000
_cell_angle_gamma   90.00000000
_symmetry_Int_Tables_number   1
_chemical_formula_structural   SmEr5V2(Co4P3)4
_chemical_formula_sum   'Sm1 Er5 V2 Co16 P12'
_cell_volume   470.74909376
_cell_formula_units_Z   1
loop_
 _symmetry_equiv_pos_site_id
 _symmetry_equiv_pos_as_xyz
  1  'x, y, z'
loop_
 _atom_site_type_symbol
 _atom_site_label
 _atom_site_symmetry_multiplicity
 _atom_site_fract_x
 _atom_site_fract_y
 _atom_site_fract_z
 _atom_site_occupancy
  Sm  Sm0  1  0.750000  0.250000  0.476047  1
  Er  Er1  1  0.250000  0.750000  0.523185  1
  Er  Er2  1  0.250000  0.930977  0.795663  1
  Er  Er3  1  0.250000  0.569023  0.795663  1
  Er  Er4  1  0.750000  0.068729  0.203863  1
  Er  Er5  1  0.750000  0.431271  0.203863  1
  V  V6  1  0.250000  0.250000  0.847108  1
  V  V7  1  0.750000  0.750000  0.154202  1
  Co  Co8  1  0.250000  0.250000  0.296127  1
  Co  Co9  1  0.750000  0.750000  0.702065  1
  Co  Co10  1  0.750000  0.250000  0.013432  1
  Co  Co11  1  0.250000  0.750000  0.986405  1
  Co  Co12  1  0.250000  0.417808  0.007225  1
  Co  Co13  1  0.250000  0.082192  0.007225  1
  Co  Co14  1  0.750000  0.582638  0.992805  1
  Co  Co15  1  0.750000  0.917362  0.992805  1
  Co  Co16  1  0.250000  0.456392  0.569304  1
  Co  Co17  1  0.250000  0.043608  0.569304  1
  Co  Co18  1  0.750000  0.547689  0.430910  1
  Co  Co19  1  0.750000  0.952311  0.430910  1
  Co  Co20  1  0.250000  0.871071  0.291713  1
  Co  Co21  1  0.250000  0.628929  0.291713  1
  Co  Co22  1  0.750000  0.127854  0.708775  1
  Co  Co23  1  0.750000  0.372146  0.708775  1
  P  P24  1  0.250000  0.250000  0.117921  1
  P  P25  1  0.750000  0.750000  0.881450  1
  P  P26  1  0.250000  0.250000  0.655367  1
  P  P27  1  0.750000  0.750000  0.347811  1
  P  P28  1  0.250000  0.440646  0.382701  1
  P  P29  1  0.250000  0.059354  0.382701  1
  P  P30  1  0.750000  0.562343  0.616301  1
  P  P31  1  0.750000  0.937657  0.616301  1
  P  P32  1  0.250000  0.904220  0.108123  1
  P  P33  1  0.250000  0.595780  0.108123  1
  P  P34  1  0.750000  0.095262  0.892059  1
  P  P35  1  0.750000  0.404738  0.892059  1
