# generated using pymatgen
data_Yb2Ga9Co2Pt
_symmetry_space_group_name_H-M   'P 1'
_cell_length_a   7.45422963
_cell_length_b   7.45422939
_cell_length_c   9.52208700
_cell_angle_alpha   90.00000000
_cell_angle_beta   90.00000000
_cell_angle_gamma   119.90109389
_symmetry_Int_Tables_number   1
_chemical_formula_structural   Yb2Ga9Co2Pt
_chemical_formula_sum   'Yb4 Ga18 Co4 Pt2'
_cell_volume   458.66993272
_cell_formula_units_Z   2
loop_
 _symmetry_equiv_pos_site_id
 _symmetry_equiv_pos_as_xyz
  1  'x, y, z'
loop_
 _atom_site_type_symbol
 _atom_site_label
 _atom_site_symmetry_multiplicity
 _atom_site_fract_x
 _atom_site_fract_y
 _atom_site_fract_z
 _atom_site_occupancy
  Yb  Yb0  1  0.330646  0.991217  0.250000  1
  Yb  Yb1  1  0.008783  0.669354  0.750000  1
  Yb  Yb2  1  0.654256  0.987129  0.750000  1
  Yb  Yb3  1  0.012871  0.345744  0.250000  1
  Ga  Ga4  1  0.333326  0.014170  0.927116  1
  Ga  Ga5  1  0.985830  0.666674  0.072884  1
  Ga  Ga6  1  0.333326  0.014170  0.572884  1
  Ga  Ga7  1  0.985830  0.666674  0.427116  1
  Ga  Ga8  1  0.677762  0.014182  0.072858  1
  Ga  Ga9  1  0.985818  0.322238  0.927142  1
  Ga  Ga10  1  0.677762  0.014182  0.427142  1
  Ga  Ga11  1  0.985818  0.322238  0.572858  1
  Ga  Ga12  1  0.676995  0.668894  0.938951  1
  Ga  Ga13  1  0.331106  0.323005  0.061049  1
  Ga  Ga14  1  0.676995  0.668894  0.561049  1
  Ga  Ga15  1  0.331106  0.323005  0.438951  1
  Ga  Ga16  1  0.107269  0.111278  0.750000  1
  Ga  Ga17  1  0.888722  0.892731  0.250000  1
  Ga  Ga18  1  0.470686  0.665917  0.250000  1
  Ga  Ga19  1  0.334083  0.529314  0.750000  1
  Ga  Ga20  1  0.560844  0.338581  0.750000  1
  Ga  Ga21  1  0.661419  0.439156  0.250000  1
  Co  Co22  1  0.998764  0.001236  0.000000  1
  Co  Co23  1  0.998764  0.001236  0.500000  1
  Co  Co24  1  0.668321  0.331679  0.000000  1
  Co  Co25  1  0.668321  0.331679  0.500000  1
  Pt  Pt26  1  0.327288  0.672712  0.000000  1
  Pt  Pt27  1  0.327288  0.672712  0.500000  1
