# generated using pymatgen
data_PrRhBr
_symmetry_space_group_name_H-M   'P 1'
_cell_length_a   4.35703600
_cell_length_b   4.35703612
_cell_length_c   11.58386100
_cell_angle_alpha   90.00000000
_cell_angle_beta   90.00000000
_cell_angle_gamma   119.99999909
_symmetry_Int_Tables_number   1
_chemical_formula_structural   PrRhBr
_chemical_formula_sum   'Pr2 Rh2 Br2'
_cell_volume   190.44355590
_cell_formula_units_Z   2
loop_
 _symmetry_equiv_pos_site_id
 _symmetry_equiv_pos_as_xyz
  1  'x, y, z'
loop_
 _atom_site_type_symbol
 _atom_site_label
 _atom_site_symmetry_multiplicity
 _atom_site_fract_x
 _atom_site_fract_y
 _atom_site_fract_z
 _atom_site_occupancy
  Pr  Pr0  1  0.000000  0.000000  0.337785  1
  Pr  Pr1  1  0.000000  0.000000  0.662215  1
  Rh  Rh2  1  0.333333  0.666666  0.496105  1
  Rh  Rh3  1  0.666665  0.333333  0.503895  1
  Br  Br4  1  0.666665  0.333333  0.178951  1
  Br  Br5  1  0.333333  0.666666  0.821049  1
