# generated using pymatgen
data_TmCo3P3RhW
_symmetry_space_group_name_H-M   'P 1'
_cell_length_a   3.73927900
_cell_length_b   10.50149400
_cell_length_c   12.01836100
_cell_angle_alpha   90.00000000
_cell_angle_beta   90.00000000
_cell_angle_gamma   90.00000000
_symmetry_Int_Tables_number   1
_chemical_formula_structural   TmCo3P3RhW
_chemical_formula_sum   'Tm4 Co12 P12 Rh4 W4'
_cell_volume   471.93719184
_cell_formula_units_Z   4
loop_
 _symmetry_equiv_pos_site_id
 _symmetry_equiv_pos_as_xyz
  1  'x, y, z'
loop_
 _atom_site_type_symbol
 _atom_site_label
 _atom_site_symmetry_multiplicity
 _atom_site_fract_x
 _atom_site_fract_y
 _atom_site_fract_z
 _atom_site_occupancy
  Tm  Tm0  1  0.250000  0.583227  0.709227  1
  Tm  Tm1  1  0.250000  0.916773  0.209227  1
  Tm  Tm2  1  0.750000  0.416773  0.290773  1
  Tm  Tm3  1  0.750000  0.083227  0.790773  1
  Co  Co4  1  0.250000  0.224425  0.179506  1
  Co  Co5  1  0.250000  0.275575  0.679506  1
  Co  Co6  1  0.750000  0.775575  0.820494  1
  Co  Co7  1  0.750000  0.724425  0.320494  1
  Co  Co8  1  0.250000  0.885870  0.696759  1
  Co  Co9  1  0.250000  0.614130  0.196759  1
  Co  Co10  1  0.750000  0.114130  0.303241  1
  Co  Co11  1  0.750000  0.385870  0.803241  1
  Co  Co12  1  0.250000  0.464788  0.934689  1
  Co  Co13  1  0.250000  0.035212  0.434689  1
  Co  Co14  1  0.750000  0.535212  0.065311  1
  Co  Co15  1  0.750000  0.964788  0.565311  1
  P  P16  1  0.250000  0.420597  0.115305  1
  P  P17  1  0.250000  0.079403  0.615305  1
  P  P18  1  0.750000  0.579403  0.884695  1
  P  P19  1  0.750000  0.920597  0.384695  1
  P  P20  1  0.250000  0.273198  0.862307  1
  P  P21  1  0.250000  0.226802  0.362307  1
  P  P22  1  0.750000  0.726802  0.137693  1
  P  P23  1  0.750000  0.773198  0.637693  1
  P  P24  1  0.250000  0.601981  0.381099  1
  P  P25  1  0.250000  0.898019  0.881099  1
  P  P26  1  0.750000  0.398019  0.618901  1
  P  P27  1  0.750000  0.101981  0.118901  1
  Rh  Rh28  1  0.250000  0.403357  0.482511  1
  Rh  Rh29  1  0.250000  0.096643  0.982511  1
  Rh  Rh30  1  0.750000  0.596643  0.517489  1
  Rh  Rh31  1  0.750000  0.903357  0.017489  1
  W  W32  1  0.250000  0.705749  0.984999  1
  W  W33  1  0.250000  0.794251  0.484999  1
  W  W34  1  0.750000  0.294251  0.015001  1
  W  W35  1  0.750000  0.205749  0.515001  1
