# generated using pymatgen
data_Re3Te4Cl
_symmetry_space_group_name_H-M   'P 1'
_cell_length_a   7.07522396
_cell_length_b   12.48427871
_cell_length_c   10.83619379
_cell_angle_alpha   89.96920356
_cell_angle_beta   102.31521097
_cell_angle_gamma   90.04975210
_symmetry_Int_Tables_number   1
_chemical_formula_structural   Re3Te4Cl
_chemical_formula_sum   'Re12 Te16 Cl4'
_cell_volume   935.12546837
_cell_formula_units_Z   4
loop_
 _symmetry_equiv_pos_site_id
 _symmetry_equiv_pos_as_xyz
  1  'x, y, z'
loop_
 _atom_site_type_symbol
 _atom_site_label
 _atom_site_symmetry_multiplicity
 _atom_site_fract_x
 _atom_site_fract_y
 _atom_site_fract_z
 _atom_site_occupancy
  Re  Re0  1  0.124037  0.920301  0.146460  1
  Re  Re1  1  0.376104  0.420328  0.353578  1
  Re  Re2  1  0.875960  0.079698  0.853543  1
  Re  Re3  1  0.623897  0.579675  0.646418  1
  Re  Re4  1  0.776249  0.015055  0.065571  1
  Re  Re5  1  0.724048  0.515204  0.434735  1
  Re  Re6  1  0.223745  0.984943  0.934431  1
  Re  Re7  1  0.275954  0.484800  0.565262  1
  Re  Re8  1  0.101099  0.132513  0.077649  1
  Re  Re9  1  0.399542  0.632730  0.422300  1
  Re  Re10  1  0.898898  0.867482  0.922353  1
  Re  Re11  1  0.600460  0.367273  0.577700  1
  Te  Te12  1  0.749602  0.225296  0.003719  1
  Te  Te13  1  0.751257  0.725270  0.496368  1
  Te  Te14  1  0.250401  0.774703  0.996287  1
  Te  Te15  1  0.248744  0.274734  0.503628  1
  Te  Te16  1  0.204542  0.192362  0.859069  1
  Te  Te17  1  0.295527  0.692259  0.640632  1
  Te  Te18  1  0.795461  0.807632  0.140932  1
  Te  Te19  1  0.704477  0.307744  0.359366  1
  Te  Te20  1  0.999467  0.067799  0.294837  1
  Te  Te21  1  0.501398  0.568049  0.205240  1
  Te  Te22  1  0.000527  0.932199  0.705163  1
  Te  Te23  1  0.498601  0.431955  0.794759  1
  Te  Te24  1  0.451351  0.042275  0.176372  1
  Te  Te25  1  0.048974  0.542379  0.323476  1
  Te  Te26  1  0.548644  0.957723  0.823632  1
  Te  Te27  1  0.951028  0.457623  0.676521  1
  Cl  Cl28  1  0.221226  0.321606  0.151433  1
  Cl  Cl29  1  0.279519  0.822175  0.349002  1
  Cl  Cl30  1  0.778783  0.678390  0.848562  1
  Cl  Cl31  1  0.720480  0.177828  0.651002  1
