# generated using pymatgen
data_La4Hf3PtF28
_symmetry_space_group_name_H-M   'P 1'
_cell_length_a   5.86354179
_cell_length_b   9.39952613
_cell_length_c   12.61951035
_cell_angle_alpha   61.98917175
_cell_angle_beta   89.94332914
_cell_angle_gamma   89.89873279
_symmetry_Int_Tables_number   1
_chemical_formula_structural   La4Hf3PtF28
_chemical_formula_sum   'La4 Hf3 Pt1 F28'
_cell_volume   614.04341589
_cell_formula_units_Z   1
loop_
 _symmetry_equiv_pos_site_id
 _symmetry_equiv_pos_as_xyz
  1  'x, y, z'
loop_
 _atom_site_type_symbol
 _atom_site_label
 _atom_site_symmetry_multiplicity
 _atom_site_fract_x
 _atom_site_fract_y
 _atom_site_fract_z
 _atom_site_occupancy
  La  La0  1  0.757972  0.813241  0.764344  1
  La  La1  1  0.257399  0.188240  0.732558  1
  La  La2  1  0.240543  0.187747  0.238678  1
  La  La3  1  0.742640  0.809735  0.266394  1
  Hf  Hf4  1  0.754659  0.273988  0.957365  1
  Hf  Hf5  1  0.255489  0.724976  0.543569  1
  Hf  Hf6  1  0.245021  0.725438  0.043321  1
  Pt  Pt7  1  0.741678  0.273969  0.456252  1
  F  F8  1  0.450744  0.710995  0.921772  1
  F  F9  1  0.929826  0.291704  0.579177  1
  F  F10  1  0.546220  0.287773  0.078208  1
  F  F11  1  0.051765  0.712164  0.421192  1
  F  F12  1  0.459520  0.282492  0.538807  1
  F  F13  1  0.961627  0.718692  0.954827  1
  F  F14  1  0.539559  0.716322  0.456616  1
  F  F15  1  0.035690  0.280672  0.047522  1
  F  F16  1  0.769300  0.515143  0.862833  1
  F  F17  1  0.266891  0.483668  0.637070  1
  F  F18  1  0.229367  0.484547  0.138396  1
  F  F19  1  0.734960  0.510887  0.361931  1
  F  F20  1  0.760135  0.033340  0.054923  1
  F  F21  1  0.262303  0.965471  0.447427  1
  F  F22  1  0.239299  0.965964  0.944127  1
  F  F23  1  0.741195  0.036754  0.547355  1
  F  F24  1  0.983154  0.731150  0.638040  1
  F  F25  1  0.486518  0.268044  0.860308  1
  F  F26  1  0.019475  0.270779  0.369286  1
  F  F27  1  0.516238  0.731720  0.138029  1
  F  F28  1  0.048618  0.745670  0.166931  1
  F  F29  1  0.556993  0.259927  0.330632  1
  F  F30  1  0.956830  0.255673  0.834161  1
  F  F31  1  0.453548  0.742708  0.667805  1
  F  F32  1  0.413421  0.969008  0.233573  1
  F  F33  1  0.913618  0.030655  0.269507  1
  F  F34  1  0.587692  0.033198  0.767318  1
  F  F35  1  0.090093  0.967543  0.729746  1
