# generated using pymatgen
data_NaYbSiPt3
_symmetry_space_group_name_H-M   'P 1'
_cell_length_a   5.06089207
_cell_length_b   5.56349856
_cell_length_c   5.56349800
_cell_angle_alpha   60.00000333
_cell_angle_beta   56.65659303
_cell_angle_gamma   56.65659509
_symmetry_Int_Tables_number   1
_chemical_formula_structural   NaYbSiPt3
_chemical_formula_sum   'Na1 Yb1 Si1 Pt3'
_cell_volume   104.83422372
_cell_formula_units_Z   1
loop_
 _symmetry_equiv_pos_site_id
 _symmetry_equiv_pos_as_xyz
  1  'x, y, z'
loop_
 _atom_site_type_symbol
 _atom_site_label
 _atom_site_symmetry_multiplicity
 _atom_site_fract_x
 _atom_site_fract_y
 _atom_site_fract_z
 _atom_site_occupancy
  Na  Na0  1  0.755070  0.748310  0.748310  1
  Yb  Yb1  1  0.491114  0.502962  0.502962  1
  Si  Si2  1  0.626780  0.124407  0.124407  1
  Pt  Pt3  1  0.125679  0.124392  0.124392  1
  Pt  Pt4  1  0.125679  0.625538  0.124392  1
  Pt  Pt5  1  0.125679  0.124392  0.625538  1
