# generated using pymatgen
data_LuGaCu3Ag
_symmetry_space_group_name_H-M   'P 1'
_cell_length_a   5.03656431
_cell_length_b   5.03656342
_cell_length_c   5.03656503
_cell_angle_alpha   60.76618095
_cell_angle_beta   60.76619098
_cell_angle_gamma   60.76617726
_symmetry_Int_Tables_number   1
_chemical_formula_structural   LuGaCu3Ag
_chemical_formula_sum   'Lu1 Ga1 Cu3 Ag1'
_cell_volume   91.90325676
_cell_formula_units_Z   1
loop_
 _symmetry_equiv_pos_site_id
 _symmetry_equiv_pos_as_xyz
  1  'x, y, z'
loop_
 _atom_site_type_symbol
 _atom_site_label
 _atom_site_symmetry_multiplicity
 _atom_site_fract_x
 _atom_site_fract_y
 _atom_site_fract_z
 _atom_site_occupancy
  Lu  Lu0  1  0.622098  0.622098  0.622098  1
  Ga  Ga1  1  0.003477  0.003477  0.003477  1
  Cu  Cu2  1  0.001249  0.500458  0.001249  1
  Cu  Cu3  1  0.500458  0.001249  0.001249  1
  Cu  Cu4  1  0.001249  0.001249  0.500458  1
  Ag  Ag5  1  0.371467  0.371467  0.371467  1
