# generated using pymatgen
data_YbPaBiO2
_symmetry_space_group_name_H-M   'P 1'
_cell_length_a   7.04405274
_cell_length_b   7.04405388
_cell_length_c   7.04405200
_cell_angle_alpha   148.05639990
_cell_angle_beta   148.05643008
_cell_angle_gamma   45.80209367
_symmetry_Int_Tables_number   1
_chemical_formula_structural   YbPaBiO2
_chemical_formula_sum   'Yb1 Pa1 Bi1 O2'
_cell_volume   97.51131000
_cell_formula_units_Z   1
loop_
 _symmetry_equiv_pos_site_id
 _symmetry_equiv_pos_as_xyz
  1  'x, y, z'
loop_
 _atom_site_type_symbol
 _atom_site_label
 _atom_site_symmetry_multiplicity
 _atom_site_fract_x
 _atom_site_fract_y
 _atom_site_fract_z
 _atom_site_occupancy
  Yb  Yb0  1  0.658728  0.658728  0.000000  1
  Pa  Pa1  1  0.338173  0.338173  0.000000  1
  Bi  Bi2  1  0.992564  0.992564  0.000000  1
  O  O3  1  0.755269  0.255269  0.500000  1
  O  O4  1  0.255269  0.755269  0.500000  1
