# generated using pymatgen
data_TiCo4Re3B4
_symmetry_space_group_name_H-M   'P 1'
_cell_length_a   3.22453700
_cell_length_b   5.70373348
_cell_length_c   6.57921806
_cell_angle_alpha   89.01107415
_cell_angle_beta   90.00000000
_cell_angle_gamma   90.00000000
_symmetry_Int_Tables_number   1
_chemical_formula_structural   TiCo4Re3B4
_chemical_formula_sum   'Ti1 Co4 Re3 B4'
_cell_volume   120.98629465
_cell_formula_units_Z   1
loop_
 _symmetry_equiv_pos_site_id
 _symmetry_equiv_pos_as_xyz
  1  'x, y, z'
loop_
 _atom_site_type_symbol
 _atom_site_label
 _atom_site_symmetry_multiplicity
 _atom_site_fract_x
 _atom_site_fract_y
 _atom_site_fract_z
 _atom_site_occupancy
  Ti  Ti0  1  0.250000  0.528191  0.675809  1
  Co  Co1  1  0.750000  0.850330  0.556074  1
  Co  Co2  1  0.250000  0.143039  0.444205  1
  Co  Co3  1  0.750000  0.358487  0.942430  1
  Co  Co4  1  0.250000  0.647271  0.054760  1
  Re  Re5  1  0.750000  0.471483  0.328692  1
  Re  Re6  1  0.250000  0.028248  0.826416  1
  Re  Re7  1  0.750000  0.970045  0.174048  1
  B  B8  1  0.250000  0.273885  0.125149  1
  B  B9  1  0.750000  0.734103  0.877803  1
  B  B10  1  0.250000  0.767931  0.369791  1
  B  B11  1  0.750000  0.226985  0.624823  1
