# generated using pymatgen
data_Sr2Ac17ErPb16
_symmetry_space_group_name_H-M   'P 1'
_cell_length_a   8.87803737
_cell_length_b   8.95940605
_cell_length_c   17.23161400
_cell_angle_alpha   90.00000000
_cell_angle_beta   90.00000000
_cell_angle_gamma   89.61991335
_symmetry_Int_Tables_number   1
_chemical_formula_structural   Sr2Ac17ErPb16
_chemical_formula_sum   'Sr2 Ac17 Er1 Pb16'
_cell_volume   1370.60587865
_cell_formula_units_Z   1
loop_
 _symmetry_equiv_pos_site_id
 _symmetry_equiv_pos_as_xyz
  1  'x, y, z'
loop_
 _atom_site_type_symbol
 _atom_site_label
 _atom_site_symmetry_multiplicity
 _atom_site_fract_x
 _atom_site_fract_y
 _atom_site_fract_z
 _atom_site_occupancy
  Sr  Sr0  1  0.212727  0.503823  0.750000  1
  Sr  Sr1  1  0.786243  0.498765  0.250000  1
  Ac  Ac2  1  0.378583  0.841556  0.885335  1
  Ac  Ac3  1  0.881255  0.657478  0.615986  1
  Ac  Ac4  1  0.620422  0.157279  0.381510  1
  Ac  Ac5  1  0.120462  0.341768  0.118533  1
  Ac  Ac6  1  0.620422  0.157279  0.118490  1
  Ac  Ac7  1  0.120462  0.341768  0.381467  1
  Ac  Ac8  1  0.378583  0.841556  0.614665  1
  Ac  Ac9  1  0.881255  0.657478  0.884014  1
  Ac  Ac10  1  0.531575  0.324527  0.900419  1
  Ac  Ac11  1  0.031014  0.181487  0.598285  1
  Ac  Ac12  1  0.467399  0.678905  0.398962  1
  Ac  Ac13  1  0.968871  0.821750  0.101476  1
  Ac  Ac14  1  0.467399  0.678905  0.101038  1
  Ac  Ac15  1  0.968871  0.821750  0.398524  1
  Ac  Ac16  1  0.531575  0.324527  0.599581  1
  Ac  Ac17  1  0.031014  0.181487  0.901715  1
  Ac  Ac18  1  0.710514  0.998769  0.750000  1
  Er  Er19  1  0.285860  0.000662  0.250000  1
  Pb  Pb20  1  0.279482  0.028303  0.049903  1
  Pb  Pb21  1  0.779326  0.466522  0.455632  1
  Pb  Pb22  1  0.720851  0.969300  0.544478  1
  Pb  Pb23  1  0.220957  0.531655  0.956932  1
  Pb  Pb24  1  0.720851  0.969300  0.955522  1
  Pb  Pb25  1  0.220957  0.531655  0.543068  1
  Pb  Pb26  1  0.279482  0.028303  0.450097  1
  Pb  Pb27  1  0.779326  0.466522  0.044368  1
  Pb  Pb28  1  0.581053  0.616076  0.750000  1
  Pb  Pb29  1  0.081053  0.882451  0.750000  1
  Pb  Pb30  1  0.417294  0.371549  0.250000  1
  Pb  Pb31  1  0.931603  0.112789  0.250000  1
  Pb  Pb32  1  0.336558  0.142663  0.750000  1
  Pb  Pb33  1  0.835582  0.357679  0.750000  1
  Pb  Pb34  1  0.650694  0.859039  0.250000  1
  Pb  Pb35  1  0.170422  0.654677  0.250000  1
