# generated using pymatgen
data_Pr3Np2Cd3O14
_symmetry_space_group_name_H-M   'P 1'
_cell_length_a   6.57150683
_cell_length_b   6.69232506
_cell_length_c   8.20312600
_cell_angle_alpha   90.00000000
_cell_angle_beta   90.00000000
_cell_angle_gamma   112.01163840
_symmetry_Int_Tables_number   1
_chemical_formula_structural   Pr3Np2Cd3O14
_chemical_formula_sum   'Pr3 Np2 Cd3 O14'
_cell_volume   334.46569532
_cell_formula_units_Z   1
loop_
 _symmetry_equiv_pos_site_id
 _symmetry_equiv_pos_as_xyz
  1  'x, y, z'
loop_
 _atom_site_type_symbol
 _atom_site_label
 _atom_site_symmetry_multiplicity
 _atom_site_fract_x
 _atom_site_fract_y
 _atom_site_fract_z
 _atom_site_occupancy
  Pr  Pr0  1  0.997086  0.995836  0.995842  1
  Pr  Pr1  1  0.997086  0.995836  0.504158  1
  Pr  Pr2  1  0.043659  0.506611  0.250000  1
  Np  Np3  1  0.500617  0.499534  0.998523  1
  Np  Np4  1  0.500617  0.499534  0.501477  1
  Cd  Cd5  1  0.491687  0.996316  0.750000  1
  Cd  Cd6  1  0.509319  0.008998  0.250000  1
  Cd  Cd7  1  0.977664  0.492450  0.750000  1
  O  O8  1  0.574733  0.491149  0.750000  1
  O  O9  1  0.418386  0.515968  0.250000  1
  O  O10  1  0.852189  0.133373  0.750000  1
  O  O11  1  0.157261  0.884459  0.250000  1
  O  O12  1  0.125867  0.854599  0.750000  1
  O  O13  1  0.861221  0.124070  0.250000  1
  O  O14  1  0.426671  0.186150  0.006885  1
  O  O15  1  0.572903  0.811962  0.514868  1
  O  O16  1  0.171448  0.417216  0.976762  1
  O  O17  1  0.825282  0.585305  0.460700  1
  O  O18  1  0.426671  0.186150  0.493115  1
  O  O19  1  0.572903  0.811962  0.985132  1
  O  O20  1  0.825282  0.585305  0.039300  1
  O  O21  1  0.171448  0.417216  0.523238  1
