# generated using pymatgen
data_Al4Pd7Au
_symmetry_space_group_name_H-M   'P 1'
_cell_length_a   4.11985700
_cell_length_b   5.54756497
_cell_length_c   7.89964784
_cell_angle_alpha   89.52081841
_cell_angle_beta   90.00000000
_cell_angle_gamma   90.00000000
_symmetry_Int_Tables_number   1
_chemical_formula_structural   Al4Pd7Au
_chemical_formula_sum   'Al4 Pd7 Au1'
_cell_volume   180.54151451
_cell_formula_units_Z   1
loop_
 _symmetry_equiv_pos_site_id
 _symmetry_equiv_pos_as_xyz
  1  'x, y, z'
loop_
 _atom_site_type_symbol
 _atom_site_label
 _atom_site_symmetry_multiplicity
 _atom_site_fract_x
 _atom_site_fract_y
 _atom_site_fract_z
 _atom_site_occupancy
  Al  Al0  1  0.750000  0.799648  0.890775  1
  Al  Al1  1  0.250000  0.188177  0.100799  1
  Al  Al2  1  0.750000  0.293812  0.615272  1
  Al  Al3  1  0.250000  0.715247  0.396381  1
  Pd  Pd4  1  0.250000  0.545431  0.708723  1
  Pd  Pd5  1  0.750000  0.954045  0.207430  1
  Pd  Pd6  1  0.250000  0.044330  0.790696  1
  Pd  Pd7  1  0.750000  0.336028  0.933431  1
  Pd  Pd8  1  0.250000  0.662199  0.066057  1
  Pd  Pd9  1  0.750000  0.838139  0.567325  1
  Pd  Pd10  1  0.250000  0.169917  0.434172  1
  Au  Au11  1  0.750000  0.453028  0.288939  1
