# generated using pymatgen
data_Ce7Hf3Si8O3
_symmetry_space_group_name_H-M   'P 1'
_cell_length_a   10.33728400
_cell_length_b   10.33728439
_cell_length_c   4.33029600
_cell_angle_alpha   90.00000000
_cell_angle_beta   90.00000000
_cell_angle_gamma   119.99999875
_symmetry_Int_Tables_number   1
_chemical_formula_structural   Ce7Hf3Si8O3
_chemical_formula_sum   'Ce7 Hf3 Si8 O3'
_cell_volume   400.73856001
_cell_formula_units_Z   1
loop_
 _symmetry_equiv_pos_site_id
 _symmetry_equiv_pos_as_xyz
  1  'x, y, z'
loop_
 _atom_site_type_symbol
 _atom_site_label
 _atom_site_symmetry_multiplicity
 _atom_site_fract_x
 _atom_site_fract_y
 _atom_site_fract_z
 _atom_site_occupancy
  Ce  Ce0  1  0.215228  0.784772  0.000000  1
  Ce  Ce1  1  0.215228  0.430455  0.000000  1
  Ce  Ce2  1  0.784772  0.569545  0.000000  1
  Ce  Ce3  1  0.430455  0.215228  0.000000  1
  Ce  Ce4  1  0.000000  0.000000  0.000000  1
  Ce  Ce5  1  0.569545  0.784772  0.000000  1
  Ce  Ce6  1  0.784772  0.215228  0.000000  1
  Hf  Hf7  1  0.500000  0.000000  0.500000  1
  Hf  Hf8  1  0.000000  0.500000  0.500000  1
  Hf  Hf9  1  0.500000  0.500000  0.500000  1
  Si  Si10  1  0.666667  0.333333  0.500000  1
  Si  Si11  1  0.000000  0.768435  0.500000  1
  Si  Si12  1  0.333333  0.666667  0.500000  1
  Si  Si13  1  0.231565  0.231565  0.500000  1
  Si  Si14  1  0.768435  0.768435  0.500000  1
  Si  Si15  1  0.768435  0.000000  0.500000  1
  Si  Si16  1  0.231565  0.000000  0.500000  1
  Si  Si17  1  0.000000  0.231565  0.500000  1
  O  O18  1  0.500000  0.500000  0.000000  1
  O  O19  1  0.500000  0.000000  0.000000  1
  O  O20  1  0.000000  0.500000  0.000000  1
