# generated using pymatgen
data_Ho5TmAl23VOs8
_symmetry_space_group_name_H-M   'P 1'
_cell_length_a   8.83040700
_cell_length_b   8.83964818
_cell_length_c   9.51475601
_cell_angle_alpha   90.00487859
_cell_angle_beta   90.00000000
_cell_angle_gamma   119.96541995
_symmetry_Int_Tables_number   1
_chemical_formula_structural   Ho5TmAl23VOs8
_chemical_formula_sum   'Ho5 Tm1 Al23 V1 Os8'
_cell_volume   643.42097138
_cell_formula_units_Z   1
loop_
 _symmetry_equiv_pos_site_id
 _symmetry_equiv_pos_as_xyz
  1  'x, y, z'
loop_
 _atom_site_type_symbol
 _atom_site_label
 _atom_site_symmetry_multiplicity
 _atom_site_fract_x
 _atom_site_fract_y
 _atom_site_fract_z
 _atom_site_occupancy
  Ho  Ho0  1  0.806796  0.613592  0.750250  1
  Ho  Ho1  1  0.608743  0.804331  0.246210  1
  Ho  Ho2  1  0.386378  0.193209  0.750223  1
  Ho  Ho3  1  0.195588  0.804331  0.246210  1
  Ho  Ho4  1  0.806831  0.193209  0.750223  1
  Tm  Tm5  1  0.196200  0.392400  0.245730  1
  Al  Al6  1  0.666642  0.333283  0.977252  1
  Al  Al7  1  0.666648  0.333294  0.519737  1
  Al  Al8  1  0.333174  0.666349  0.482410  1
  Al  Al9  1  0.162199  0.324399  0.575290  1
  Al  Al10  1  0.837212  0.674426  0.424593  1
  Al  Al11  1  0.675530  0.837774  0.575575  1
  Al  Al12  1  0.835686  0.671371  0.076721  1
  Al  Al13  1  0.325432  0.162905  0.424524  1
  Al  Al14  1  0.160361  0.320724  0.925548  1
  Al  Al15  1  0.162243  0.837774  0.575575  1
  Al  Al16  1  0.328390  0.164347  0.076754  1
  Al  Al17  1  0.837473  0.162905  0.424524  1
  Al  Al18  1  0.679146  0.839570  0.925210  1
  Al  Al19  1  0.835957  0.164347  0.076754  1
  Al  Al20  1  0.160424  0.839570  0.925210  1
  Al  Al21  1  0.562029  0.124058  0.253219  1
  Al  Al22  1  0.441466  0.882930  0.751199  1
  Al  Al23  1  0.876365  0.437850  0.253263  1
  Al  Al24  1  0.117126  0.558545  0.751195  1
  Al  Al25  1  0.561485  0.437850  0.253263  1
  Al  Al26  1  0.441421  0.558545  0.751195  1
  Al  Al27  1  0.000377  0.000754  0.250334  1
  Al  Al28  1  0.000017  0.000034  0.749863  1
  V  V29  1  0.333243  0.666488  0.984550  1
  Os  Os30  1  0.495219  0.990438  0.005497  1
  Os  Os31  1  0.009692  0.504539  0.005769  1
  Os  Os32  1  0.499285  0.998571  0.503480  1
  Os  Os33  1  0.494847  0.504539  0.005769  1
  Os  Os34  1  0.001380  0.500446  0.503345  1
  Os  Os35  1  0.499065  0.500446  0.503345  1
  Os  Os36  1  0.999941  0.999882  0.000944  1
  Os  Os37  1  0.999987  0.999974  0.499241  1
