# generated using pymatgen
data_Y3Ho3(CoSn6)2
_symmetry_space_group_name_H-M   'P 1'
_cell_length_a   8.47783818
_cell_length_b   8.47783722
_cell_length_c   13.13534365
_cell_angle_alpha   89.99415769
_cell_angle_beta   90.00584307
_cell_angle_gamma   148.80983265
_symmetry_Int_Tables_number   1
_chemical_formula_structural   Y3Ho3(CoSn6)2
_chemical_formula_sum   'Y3 Ho3 Co2 Sn12'
_cell_volume   488.92354202
_cell_formula_units_Z   1
loop_
 _symmetry_equiv_pos_site_id
 _symmetry_equiv_pos_as_xyz
  1  'x, y, z'
loop_
 _atom_site_type_symbol
 _atom_site_label
 _atom_site_symmetry_multiplicity
 _atom_site_fract_x
 _atom_site_fract_y
 _atom_site_fract_z
 _atom_site_occupancy
  Y  Y0  1  0.100765  0.899235  0.593310  1
  Y  Y1  1  0.100484  0.899516  0.906906  1
  Y  Y2  1  0.899501  0.100499  0.406205  1
  Ho  Ho3  1  0.898586  0.101414  0.093799  1
  Ho  Ho4  1  0.900662  0.099338  0.751623  1
  Ho  Ho5  1  0.099507  0.900493  0.248781  1
  Co  Co6  1  0.299446  0.700554  0.249672  1
  Co  Co7  1  0.700916  0.299084  0.749988  1
  Sn  Sn8  1  0.756861  0.243139  0.571730  1
  Sn  Sn9  1  0.427346  0.572654  0.576947  1
  Sn  Sn10  1  0.572495  0.427505  0.423129  1
  Sn  Sn11  1  0.733688  0.266312  0.249573  1
  Sn  Sn12  1  0.266709  0.733291  0.750080  1
  Sn  Sn13  1  0.243904  0.756096  0.071552  1
  Sn  Sn14  1  0.243703  0.756297  0.427711  1
  Sn  Sn15  1  0.572250  0.427750  0.076023  1
  Sn  Sn16  1  0.453541  0.546459  0.249188  1
  Sn  Sn17  1  0.546213  0.453787  0.750224  1
  Sn  Sn18  1  0.756371  0.243629  0.928724  1
  Sn  Sn19  1  0.427054  0.572946  0.924832  1
