# generated using pymatgen
data_YbTa(Ni7B2)3
_symmetry_space_group_name_H-M   'P 1'
_cell_length_a   7.45849822
_cell_length_b   7.45849793
_cell_length_c   7.45849800
_cell_angle_alpha   59.99999969
_cell_angle_beta   60.00000099
_cell_angle_gamma   59.99999936
_symmetry_Int_Tables_number   1
_chemical_formula_structural   YbTa(Ni7B2)3
_chemical_formula_sum   'Yb1 Ta1 Ni21 B6'
_cell_volume   293.38583655
_cell_formula_units_Z   1
loop_
 _symmetry_equiv_pos_site_id
 _symmetry_equiv_pos_as_xyz
  1  'x, y, z'
loop_
 _atom_site_type_symbol
 _atom_site_label
 _atom_site_symmetry_multiplicity
 _atom_site_fract_x
 _atom_site_fract_y
 _atom_site_fract_z
 _atom_site_occupancy
  Yb  Yb0  1  0.750000  0.750000  0.750000  1
  Ta  Ta1  1  0.250000  0.250000  0.250000  1
  Ni  Ni2  1  0.000000  0.000000  0.000000  1
  Ni  Ni3  1  0.612205  0.612205  0.163386  1
  Ni  Ni4  1  0.612205  0.163386  0.612205  1
  Ni  Ni5  1  0.163386  0.612205  0.612205  1
  Ni  Ni6  1  0.612205  0.612205  0.612205  1
  Ni  Ni7  1  0.382924  0.382924  0.851229  1
  Ni  Ni8  1  0.382924  0.851229  0.382924  1
  Ni  Ni9  1  0.851229  0.382924  0.382924  1
  Ni  Ni10  1  0.382924  0.382924  0.382924  1
  Ni  Ni11  1  0.002461  0.002461  0.336264  1
  Ni  Ni12  1  0.658813  0.002461  0.336264  1
  Ni  Ni13  1  0.002461  0.658813  0.336264  1
  Ni  Ni14  1  0.658813  0.336264  0.002461  1
  Ni  Ni15  1  0.002461  0.336264  0.002461  1
  Ni  Ni16  1  0.002461  0.336264  0.658813  1
  Ni  Ni17  1  0.336264  0.658813  0.002461  1
  Ni  Ni18  1  0.336264  0.002461  0.658813  1
  Ni  Ni19  1  0.336264  0.002461  0.002461  1
  Ni  Ni20  1  0.002461  0.002461  0.658813  1
  Ni  Ni21  1  0.002461  0.658813  0.002461  1
  Ni  Ni22  1  0.658813  0.002461  0.002461  1
  B  B23  1  0.730032  0.730032  0.269968  1
  B  B24  1  0.269968  0.730032  0.269968  1
  B  B25  1  0.730032  0.269968  0.269968  1
  B  B26  1  0.269968  0.269968  0.730032  1
  B  B27  1  0.730032  0.269968  0.730032  1
  B  B28  1  0.269968  0.730032  0.730032  1
