# generated using pymatgen
data_Er2IrRu3
_symmetry_space_group_name_H-M   'P 1'
_cell_length_a   5.24437300
_cell_length_b   5.24437254
_cell_length_c   8.94260300
_cell_angle_alpha   90.00000000
_cell_angle_beta   90.00000000
_cell_angle_gamma   119.99999661
_symmetry_Int_Tables_number   1
_chemical_formula_structural   Er2IrRu3
_chemical_formula_sum   'Er4 Ir2 Ru6'
_cell_volume   213.00103067
_cell_formula_units_Z   2
loop_
 _symmetry_equiv_pos_site_id
 _symmetry_equiv_pos_as_xyz
  1  'x, y, z'
loop_
 _atom_site_type_symbol
 _atom_site_label
 _atom_site_symmetry_multiplicity
 _atom_site_fract_x
 _atom_site_fract_y
 _atom_site_fract_z
 _atom_site_occupancy
  Er  Er0  1  0.333333  0.666667  0.430697  1
  Er  Er1  1  0.666667  0.333333  0.569303  1
  Er  Er2  1  0.666667  0.333333  0.930697  1
  Er  Er3  1  0.333333  0.666667  0.069303  1
  Ir  Ir4  1  0.000000  0.000000  0.000000  1
  Ir  Ir5  1  0.000000  0.000000  0.500000  1
  Ru  Ru6  1  0.170420  0.340840  0.750000  1
  Ru  Ru7  1  0.170420  0.829580  0.750000  1
  Ru  Ru8  1  0.340840  0.170420  0.250000  1
  Ru  Ru9  1  0.829580  0.659160  0.250000  1
  Ru  Ru10  1  0.659160  0.829580  0.750000  1
  Ru  Ru11  1  0.829580  0.170420  0.250000  1
