# generated using pymatgen
data_Nb3CrSi2C
_symmetry_space_group_name_H-M   'P 1'
_cell_length_a   8.14947600
_cell_length_b   8.14947518
_cell_length_c   8.14947600
_cell_angle_alpha   119.99999520
_cell_angle_beta   90.00000000
_cell_angle_gamma   119.99999520
_symmetry_Int_Tables_number   1
_chemical_formula_structural   Nb3CrSi2C
_chemical_formula_sum   'Nb12 Cr4 Si8 C4'
_cell_volume   382.71375987
_cell_formula_units_Z   4
loop_
 _symmetry_equiv_pos_site_id
 _symmetry_equiv_pos_as_xyz
  1  'x, y, z'
loop_
 _atom_site_type_symbol
 _atom_site_label
 _atom_site_symmetry_multiplicity
 _atom_site_fract_x
 _atom_site_fract_y
 _atom_site_fract_z
 _atom_site_occupancy
  Nb  Nb0  1  0.551093  0.500001  0.051092  1
  Nb  Nb1  1  0.551093  0.102185  0.051092  1
  Nb  Nb2  1  0.948908  0.500001  0.051093  1
  Nb  Nb3  1  0.198907  0.000000  0.198907  1
  Nb  Nb4  1  0.198907  0.397814  0.198907  1
  Nb  Nb5  1  0.801092  0.000000  0.198907  1
  Nb  Nb6  1  0.948908  0.500001  0.448908  1
  Nb  Nb7  1  0.948908  0.897814  0.448908  1
  Nb  Nb8  1  0.551093  0.500001  0.448908  1
  Nb  Nb9  1  0.198907  0.000000  0.801092  1
  Nb  Nb10  1  0.801092  0.000000  0.801092  1
  Nb  Nb11  1  0.801092  0.602186  0.801092  1
  Cr  Cr12  1  0.375000  0.750000  0.125001  1
  Cr  Cr13  1  0.375000  0.249999  0.624999  1
  Cr  Cr14  1  0.375000  0.750000  0.624999  1
  Cr  Cr15  1  0.875000  0.249999  0.625000  1
  Si  Si16  1  0.584497  0.168991  0.415505  1
  Si  Si17  1  0.246514  0.831010  0.415505  1
  Si  Si18  1  0.584497  0.831010  0.415505  1
  Si  Si19  1  0.165504  0.331010  0.496514  1
  Si  Si20  1  0.584496  0.168991  0.753487  1
  Si  Si21  1  0.165504  0.331010  0.834495  1
  Si  Si22  1  0.165504  0.668990  0.834495  1
  Si  Si23  1  0.503486  0.668990  0.834495  1
  C  C24  1  0.374999  0.249999  0.125000  1
  C  C25  1  0.875000  0.249999  0.125000  1
  C  C26  1  0.875000  0.750000  0.125000  1
  C  C27  1  0.875000  0.750000  0.625000  1
