# generated using pymatgen
data_CaSm(CoO2)6
_symmetry_space_group_name_H-M   'P 1'
_cell_length_a   4.92350267
_cell_length_b   5.65427489
_cell_length_c   8.50837300
_cell_angle_alpha   90.00013196
_cell_angle_beta   90.00002038
_cell_angle_gamma   73.42765300
_symmetry_Int_Tables_number   1
_chemical_formula_structural   CaSm(CoO2)6
_chemical_formula_sum   'Ca1 Sm1 Co6 O12'
_cell_volume   227.02399777
_cell_formula_units_Z   1
loop_
 _symmetry_equiv_pos_site_id
 _symmetry_equiv_pos_as_xyz
  1  'x, y, z'
loop_
 _atom_site_type_symbol
 _atom_site_label
 _atom_site_symmetry_multiplicity
 _atom_site_fract_x
 _atom_site_fract_y
 _atom_site_fract_z
 _atom_site_occupancy
  Ca  Ca0  1  0.500000  0.500000  0.666540  1
  Sm  Sm1  1  0.000000  0.500001  0.167194  1
  Co  Co2  1  0.500000  0.000000  0.166654  1
  Co  Co3  1  0.500000  0.000000  0.833700  1
  Co  Co4  1  0.500000  0.000000  0.499634  1
  Co  Co5  1  0.000000  0.000000  0.666624  1
  Co  Co6  1  0.000000  0.000000  0.335307  1
  Co  Co7  1  0.000000  0.000000  0.997951  1
  O  O8  1  0.773841  0.186154  0.166551  1
  O  O9  1  0.272868  0.181833  0.666577  1
  O  O10  1  0.226159  0.813847  0.166551  1
  O  O11  1  0.727132  0.818166  0.666577  1
  O  O12  1  0.269967  0.188251  0.000787  1
  O  O13  1  0.773629  0.183318  0.503373  1
  O  O14  1  0.270396  0.188399  0.332709  1
  O  O15  1  0.773700  0.183017  0.829869  1
  O  O16  1  0.729604  0.811602  0.332709  1
  O  O17  1  0.226299  0.816983  0.829868  1
  O  O18  1  0.730033  0.811749  0.000787  1
  O  O19  1  0.226371  0.816681  0.503373  1
