# generated using pymatgen
data_Hf4Pd7Pt5
_symmetry_space_group_name_H-M   'P 1'
_cell_length_a   5.67891317
_cell_length_b   5.67852756
_cell_length_c   9.30963412
_cell_angle_alpha   89.99999822
_cell_angle_beta   89.86116009
_cell_angle_gamma   119.99775865
_symmetry_Int_Tables_number   1
_chemical_formula_structural   Hf4Pd7Pt5
_chemical_formula_sum   'Hf4 Pd7 Pt5'
_cell_volume   259.99938417
_cell_formula_units_Z   1
loop_
 _symmetry_equiv_pos_site_id
 _symmetry_equiv_pos_as_xyz
  1  'x, y, z'
loop_
 _atom_site_type_symbol
 _atom_site_label
 _atom_site_symmetry_multiplicity
 _atom_site_fract_x
 _atom_site_fract_y
 _atom_site_fract_z
 _atom_site_occupancy
  Hf  Hf0  1  0.666026  0.333012  0.749873  1
  Hf  Hf1  1  0.333974  0.666988  0.250127  1
  Hf  Hf2  1  0.000000  0.000000  0.500000  1
  Hf  Hf3  1  0.000000  0.000000  0.000000  1
  Pd  Pd4  1  0.168275  0.337306  0.750312  1
  Pd  Pd5  1  0.831725  0.169030  0.249688  1
  Pd  Pd6  1  0.337978  0.168989  0.249461  1
  Pd  Pd7  1  0.662022  0.831011  0.750539  1
  Pd  Pd8  1  0.000000  0.500000  0.000000  1
  Pd  Pd9  1  0.831725  0.662694  0.249688  1
  Pd  Pd10  1  0.168275  0.830970  0.750312  1
  Pt  Pt11  1  0.500000  0.000000  0.000000  1
  Pt  Pt12  1  0.500000  0.500000  0.500000  1
  Pt  Pt13  1  0.000000  0.500000  0.500000  1
  Pt  Pt14  1  0.500000  0.500000  0.000000  1
  Pt  Pt15  1  0.500000  0.000000  0.500000  1
