# generated using pymatgen
data_Ac2La3Cd2Ru3
_symmetry_space_group_name_H-M   'P 1'
_cell_length_a   8.91708354
_cell_length_b   8.88833779
_cell_length_c   8.88824923
_cell_angle_alpha   109.69655883
_cell_angle_beta   109.29562706
_cell_angle_gamma   109.70180792
_symmetry_Int_Tables_number   1
_chemical_formula_structural   Ac2La3Cd2Ru3
_chemical_formula_sum   'Ac4 La6 Cd4 Ru6'
_cell_volume   540.40664518
_cell_formula_units_Z   2
loop_
 _symmetry_equiv_pos_site_id
 _symmetry_equiv_pos_as_xyz
  1  'x, y, z'
loop_
 _atom_site_type_symbol
 _atom_site_label
 _atom_site_symmetry_multiplicity
 _atom_site_fract_x
 _atom_site_fract_y
 _atom_site_fract_z
 _atom_site_occupancy
  Ac  Ac0  1  0.250175  0.684785  0.434943  1
  Ac  Ac1  1  0.751087  0.816518  0.064894  1
  Ac  Ac2  1  0.435047  0.249312  0.684470  1
  Ac  Ac3  1  0.686257  0.435793  0.250919  1
  La  La4  1  0.065805  0.750438  0.816595  1
  La  La5  1  0.816356  0.065407  0.750694  1
  La  La6  1  0.208538  0.208208  0.207078  1
  La  La7  1  0.499982  0.999631  0.289830  1
  La  La8  1  0.287505  0.499369  0.998789  1
  La  La9  1  0.999559  0.290494  0.501845  1
  Cd  Cd10  1  0.497518  0.997932  0.911438  1
  Cd  Cd11  1  0.590508  0.590551  0.589642  1
  Cd  Cd12  1  0.914347  0.498817  0.996860  1
  Cd  Cd13  1  0.998680  0.913356  0.502799  1
  Ru  Ru14  1  0.244612  0.134910  0.891160  1
  Ru  Ru15  1  0.756664  0.365003  0.610239  1
  Ru  Ru16  1  0.889939  0.244911  0.133267  1
  Ru  Ru17  1  0.142360  0.892016  0.249410  1
  Ru  Ru18  1  0.609619  0.756674  0.364754  1
  Ru  Ru19  1  0.355445  0.605876  0.750376  1
