# generated using pymatgen
data_RbTl3Cu6P8(O3F)8
_symmetry_space_group_name_H-M   'P 1'
_cell_length_a   9.61414800
_cell_length_b   7.86967092
_cell_length_c   9.37608900
_cell_angle_alpha   84.60750647
_cell_angle_beta   90.00000000
_cell_angle_gamma   90.00000000
_symmetry_Int_Tables_number   1
_chemical_formula_structural   RbTl3Cu6P8(O3F)8
_chemical_formula_sum   'Rb1 Tl3 Cu6 P8 O24 F8'
_cell_volume   706.25700314
_cell_formula_units_Z   1
loop_
 _symmetry_equiv_pos_site_id
 _symmetry_equiv_pos_as_xyz
  1  'x, y, z'
loop_
 _atom_site_type_symbol
 _atom_site_label
 _atom_site_symmetry_multiplicity
 _atom_site_fract_x
 _atom_site_fract_y
 _atom_site_fract_z
 _atom_site_occupancy
  Rb  Rb0  1  0.961814  0.382353  0.682007  1
  Tl  Tl1  1  0.531027  0.361947  0.182427  1
  Tl  Tl2  1  0.033463  0.639714  0.312785  1
  Tl  Tl3  1  0.467486  0.637109  0.817895  1
  Cu  Cu4  1  0.647049  0.888525  0.185453  1
  Cu  Cu5  1  0.147075  0.112484  0.314880  1
  Cu  Cu6  1  0.352849  0.111544  0.814560  1
  Cu  Cu7  1  0.852962  0.888835  0.685475  1
  Cu  Cu8  1  0.499936  0.999345  0.500060  1
  Cu  Cu9  1  0.999976  0.000263  0.000145  1
  P  P10  1  0.689292  0.107637  0.890765  1
  P  P11  1  0.188709  0.891470  0.609020  1
  P  P12  1  0.310925  0.891736  0.109292  1
  P  P13  1  0.810721  0.106832  0.390895  1
  P  P14  1  0.818783  0.687111  0.982429  1
  P  P15  1  0.318407  0.312698  0.517704  1
  P  P16  1  0.181554  0.312007  0.018004  1
  P  P17  1  0.682179  0.686375  0.482606  1
  O  O18  1  0.662791  0.097177  0.052475  1
  O  O19  1  0.163037  0.903772  0.447211  1
  O  O20  1  0.336753  0.903331  0.947545  1
  O  O21  1  0.836099  0.095259  0.552278  1
  O  O22  1  0.672525  0.740376  0.026327  1
  O  O23  1  0.171821  0.260774  0.473971  1
  O  O24  1  0.328193  0.259371  0.973691  1
  O  O25  1  0.829079  0.736827  0.527785  1
  O  O26  1  0.166460  0.318984  0.179622  1
  O  O27  1  0.665698  0.681554  0.321129  1
  O  O28  1  0.836087  0.681229  0.821074  1
  O  O29  1  0.335104  0.318172  0.679225  1
  O  O30  1  0.662866  0.037219  0.355574  1
  O  O31  1  0.163344  0.961789  0.144449  1
  O  O32  1  0.336611  0.960533  0.644013  1
  O  O33  1  0.836293  0.035719  0.856950  1
  O  O34  1  0.435707  0.223583  0.441623  1
  O  O35  1  0.936507  0.775343  0.058583  1
  O  O36  1  0.565298  0.775354  0.559107  1
  O  O37  1  0.064066  0.224084  0.942722  1
  O  O38  1  0.421392  0.948197  0.207389  1
  O  O39  1  0.920840  0.049892  0.292487  1
  O  O40  1  0.578606  0.051375  0.792795  1
  O  O41  1  0.078598  0.947538  0.707523  1
  F  F42  1  0.705895  0.309929  0.851240  1
  F  F43  1  0.202587  0.688060  0.646778  1
  F  F44  1  0.295780  0.689009  0.147603  1
  F  F45  1  0.796162  0.309627  0.352468  1
  F  F46  1  0.836192  0.494301  0.047423  1
  F  F47  1  0.336930  0.505503  0.452988  1
  F  F48  1  0.164075  0.504882  0.952222  1
  F  F49  1  0.664394  0.493250  0.547327  1
