# generated using pymatgen
data_Dy8Nb12Si15P
_symmetry_space_group_name_H-M   'P 1'
_cell_length_a   7.06743563
_cell_length_b   7.07234210
_cell_length_c   13.06805728
_cell_angle_alpha   90.00143596
_cell_angle_beta   89.93413474
_cell_angle_gamma   90.02193826
_symmetry_Int_Tables_number   1
_chemical_formula_structural   Dy8Nb12Si15P
_chemical_formula_sum   'Dy8 Nb12 Si15 P1'
_cell_volume   653.18444285
_cell_formula_units_Z   1
loop_
 _symmetry_equiv_pos_site_id
 _symmetry_equiv_pos_as_xyz
  1  'x, y, z'
loop_
 _atom_site_type_symbol
 _atom_site_label
 _atom_site_symmetry_multiplicity
 _atom_site_fract_x
 _atom_site_fract_y
 _atom_site_fract_z
 _atom_site_occupancy
  Dy  Dy0  1  0.997805  0.657804  0.032587  1
  Dy  Dy1  1  0.002740  0.346141  0.531220  1
  Dy  Dy2  1  0.657988  0.997156  0.967548  1
  Dy  Dy3  1  0.158604  0.502656  0.781855  1
  Dy  Dy4  1  0.842801  0.499293  0.283298  1
  Dy  Dy5  1  0.502292  0.158577  0.218137  1
  Dy  Dy6  1  0.498779  0.842688  0.717707  1
  Dy  Dy7  1  0.339866  0.999112  0.468248  1
  Nb  Nb8  1  0.343153  0.509552  0.376844  1
  Nb  Nb9  1  0.848834  0.991488  0.374820  1
  Nb  Nb10  1  0.006618  0.153614  0.125843  1
  Nb  Nb11  1  0.996059  0.845590  0.622758  1
  Nb  Nb12  1  0.508383  0.345329  0.624183  1
  Nb  Nb13  1  0.153195  0.006851  0.874093  1
  Nb  Nb14  1  0.672274  0.671734  0.499107  1
  Nb  Nb15  1  0.828804  0.171813  0.749873  1
  Nb  Nb16  1  0.169742  0.827126  0.251541  1
  Nb  Nb17  1  0.327737  0.328119  0.000218  1
  Nb  Nb18  1  0.493209  0.653079  0.124221  1
  Nb  Nb19  1  0.653674  0.493316  0.875376  1
  Si  Si20  1  0.953653  0.293387  0.936459  1
  Si  Si21  1  0.706995  0.046065  0.563386  1
  Si  Si22  1  0.206487  0.453754  0.186507  1
  Si  Si23  1  0.793438  0.546611  0.686386  1
  Si  Si24  1  0.453719  0.207042  0.813844  1
  Si  Si25  1  0.546028  0.793265  0.313127  1
  Si  Si26  1  0.292582  0.953155  0.064102  1
  Si  Si27  1  0.795446  0.866847  0.182582  1
  Si  Si28  1  0.300839  0.631661  0.569894  1
  Si  Si29  1  0.703391  0.366266  0.067273  1
  Si  Si30  1  0.631801  0.295734  0.432344  1
  Si  Si31  1  0.366269  0.703263  0.932928  1
  Si  Si32  1  0.133527  0.203767  0.317041  1
  Si  Si33  1  0.202836  0.133602  0.682411  1
  Si  Si34  1  0.867376  0.796832  0.816344  1
  P  P35  1  0.043050  0.707715  0.435898  1
