# generated using pymatgen
data_TbDy2Co9(CuB2)2
_symmetry_space_group_name_H-M   'P 1'
_cell_length_a   5.03966800
_cell_length_b   5.03926486
_cell_length_c   9.81311500
_cell_angle_alpha   90.00002089
_cell_angle_beta   89.99996959
_cell_angle_gamma   120.00264642
_symmetry_Int_Tables_number   1
_chemical_formula_structural   TbDy2Co9(CuB2)2
_chemical_formula_sum   'Tb1 Dy2 Co9 Cu2 B4'
_cell_volume   215.82167077
_cell_formula_units_Z   1
loop_
 _symmetry_equiv_pos_site_id
 _symmetry_equiv_pos_as_xyz
  1  'x, y, z'
loop_
 _atom_site_type_symbol
 _atom_site_label
 _atom_site_symmetry_multiplicity
 _atom_site_fract_x
 _atom_site_fract_y
 _atom_site_fract_z
 _atom_site_occupancy
  Tb  Tb0  1  0.999973  0.000000  0.000070  1
  Dy  Dy1  1  0.000000  0.000000  0.343026  1
  Dy  Dy2  1  0.000001  0.000000  0.657006  1
  Co  Co3  1  0.500002  0.000000  0.499956  1
  Co  Co4  1  0.500001  0.500000  0.500013  1
  Co  Co5  1  0.000001  0.500000  0.500013  1
  Co  Co6  1  0.499996  0.000000  0.208512  1
  Co  Co7  1  0.499996  0.500001  0.208593  1
  Co  Co8  1  0.999996  0.499999  0.208593  1
  Co  Co9  1  0.499997  0.000000  0.791525  1
  Co  Co10  1  0.499996  0.500001  0.791373  1
  Co  Co11  1  0.999995  0.499999  0.791373  1
  Cu  Cu12  1  0.333169  0.666382  0.999987  1
  Cu  Cu13  1  0.666787  0.333618  0.999987  1
  B  B14  1  0.333373  0.666751  0.350381  1
  B  B15  1  0.666622  0.333249  0.350381  1
  B  B16  1  0.666562  0.333128  0.649606  1
  B  B17  1  0.333433  0.666872  0.649606  1
