# generated using pymatgen
data_TbYb3Dy2(CoSn6)2
_symmetry_space_group_name_H-M   'P 1'
_cell_length_a   8.40920215
_cell_length_b   8.40920303
_cell_length_c   13.22712618
_cell_angle_alpha   90.05000850
_cell_angle_beta   89.94999104
_cell_angle_gamma   148.01512993
_symmetry_Int_Tables_number   1
_chemical_formula_structural   TbYb3Dy2(CoSn6)2
_chemical_formula_sum   'Tb1 Yb3 Dy2 Co2 Sn12'
_cell_volume   495.45141263
_cell_formula_units_Z   1
loop_
 _symmetry_equiv_pos_site_id
 _symmetry_equiv_pos_as_xyz
  1  'x, y, z'
loop_
 _atom_site_type_symbol
 _atom_site_label
 _atom_site_symmetry_multiplicity
 _atom_site_fract_x
 _atom_site_fract_y
 _atom_site_fract_z
 _atom_site_occupancy
  Tb  Tb0  1  0.898198  0.101802  0.094577  1
  Yb  Yb1  1  0.100358  0.899642  0.597163  1
  Yb  Yb2  1  0.100689  0.899311  0.903568  1
  Yb  Yb3  1  0.899998  0.100002  0.402660  1
  Dy  Dy4  1  0.901181  0.098819  0.753945  1
  Dy  Dy5  1  0.098881  0.901119  0.248038  1
  Co  Co6  1  0.298876  0.701124  0.249546  1
  Co  Co7  1  0.703002  0.296998  0.750228  1
  Sn  Sn8  1  0.758395  0.241605  0.572189  1
  Sn  Sn9  1  0.425988  0.574012  0.578609  1
  Sn  Sn10  1  0.573363  0.426637  0.422605  1
  Sn  Sn11  1  0.733312  0.266688  0.248559  1
  Sn  Sn12  1  0.267152  0.732848  0.750156  1
  Sn  Sn13  1  0.241121  0.758879  0.072043  1
  Sn  Sn14  1  0.242527  0.757473  0.427540  1
  Sn  Sn15  1  0.572217  0.427783  0.075715  1
  Sn  Sn16  1  0.454941  0.545059  0.248829  1
  Sn  Sn17  1  0.545800  0.454200  0.750259  1
  Sn  Sn18  1  0.757349  0.242651  0.929033  1
  Sn  Sn19  1  0.426650  0.573350  0.924740  1
