# generated using pymatgen
data_Na2Mn3Si7Pt9
_symmetry_space_group_name_H-M   'P 1'
_cell_length_a   9.98601300
_cell_length_b   9.98601194
_cell_length_c   3.80434100
_cell_angle_alpha   90.00000000
_cell_angle_beta   90.00000000
_cell_angle_gamma   120.00000021
_symmetry_Int_Tables_number   1
_chemical_formula_structural   Na2Mn3Si7Pt9
_chemical_formula_sum   'Na2 Mn3 Si7 Pt9'
_cell_volume   328.54455683
_cell_formula_units_Z   1
loop_
 _symmetry_equiv_pos_site_id
 _symmetry_equiv_pos_as_xyz
  1  'x, y, z'
loop_
 _atom_site_type_symbol
 _atom_site_label
 _atom_site_symmetry_multiplicity
 _atom_site_fract_x
 _atom_site_fract_y
 _atom_site_fract_z
 _atom_site_occupancy
  Na  Na0  1  0.000000  0.000000  0.000000  1
  Na  Na1  1  0.333333  0.666667  0.500000  1
  Mn  Mn2  1  0.888477  0.459539  0.500000  1
  Mn  Mn3  1  0.571062  0.111523  0.500000  1
  Mn  Mn4  1  0.540461  0.428938  0.500000  1
  Si  Si5  1  0.256797  0.211183  0.500000  1
  Si  Si6  1  0.788817  0.045615  0.500000  1
  Si  Si7  1  0.954385  0.743203  0.500000  1
  Si  Si8  1  0.547734  0.637211  0.000000  1
  Si  Si9  1  0.362789  0.910522  0.000000  1
  Si  Si10  1  0.089478  0.452266  0.000000  1
  Si  Si11  1  0.666667  0.333333  0.000000  1
  Pt  Pt12  1  0.222656  0.943646  0.500000  1
  Pt  Pt13  1  0.056354  0.279010  0.500000  1
  Pt  Pt14  1  0.720990  0.777344  0.500000  1
  Pt  Pt15  1  0.306912  0.403857  0.000000  1
  Pt  Pt16  1  0.596143  0.903055  0.000000  1
  Pt  Pt17  1  0.096945  0.693088  0.000000  1
  Pt  Pt18  1  0.397564  0.174907  0.000000  1
  Pt  Pt19  1  0.825093  0.222658  0.000000  1
  Pt  Pt20  1  0.777342  0.602436  0.000000  1
