# generated using pymatgen
data_Ho2NiIrSe
_symmetry_space_group_name_H-M   'P 1'
_cell_length_a   4.06460100
_cell_length_b   4.06460062
_cell_length_c   14.88505900
_cell_angle_alpha   90.00000000
_cell_angle_beta   90.00000000
_cell_angle_gamma   120.00001119
_symmetry_Int_Tables_number   1
_chemical_formula_structural   Ho2NiIrSe
_chemical_formula_sum   'Ho4 Ni2 Ir2 Se2'
_cell_volume   212.96927004
_cell_formula_units_Z   2
loop_
 _symmetry_equiv_pos_site_id
 _symmetry_equiv_pos_as_xyz
  1  'x, y, z'
loop_
 _atom_site_type_symbol
 _atom_site_label
 _atom_site_symmetry_multiplicity
 _atom_site_fract_x
 _atom_site_fract_y
 _atom_site_fract_z
 _atom_site_occupancy
  Ho  Ho0  1  0.666667  0.333333  0.375858  1
  Ho  Ho1  1  0.333333  0.666667  0.875858  1
  Ho  Ho2  1  0.333333  0.666667  0.624142  1
  Ho  Ho3  1  0.666667  0.333333  0.124142  1
  Ni  Ni4  1  0.000000  0.000000  0.750000  1
  Ni  Ni5  1  0.000000  0.000000  0.250000  1
  Ir  Ir6  1  0.333333  0.666667  0.250000  1
  Ir  Ir7  1  0.666667  0.333333  0.750000  1
  Se  Se8  1  0.000000  0.000000  0.000000  1
  Se  Se9  1  0.000000  0.000000  0.500000  1
