# generated using pymatgen
data_Sr6Ti2VO12
_symmetry_space_group_name_H-M   'P 1'
_cell_length_a   8.80021510
_cell_length_b   8.80021491
_cell_length_c   6.87827958
_cell_angle_alpha   67.42705923
_cell_angle_beta   67.42706163
_cell_angle_gamma   36.86921448
_symmetry_Int_Tables_number   1
_chemical_formula_structural   Sr6Ti2VO12
_chemical_formula_sum   'Sr6 Ti2 V1 O12'
_cell_volume   292.27171081
_cell_formula_units_Z   1
loop_
 _symmetry_equiv_pos_site_id
 _symmetry_equiv_pos_as_xyz
  1  'x, y, z'
loop_
 _atom_site_type_symbol
 _atom_site_label
 _atom_site_symmetry_multiplicity
 _atom_site_fract_x
 _atom_site_fract_y
 _atom_site_fract_z
 _atom_site_occupancy
  Sr  Sr0  1  0.880367  0.880367  0.712950  1
  Sr  Sr1  1  0.215516  0.215516  0.711908  1
  Sr  Sr2  1  0.547760  0.547760  0.712993  1
  Sr  Sr3  1  0.452240  0.452240  0.287007  1
  Sr  Sr4  1  0.784484  0.784484  0.288092  1
  Sr  Sr5  1  0.119633  0.119633  0.287050  1
  Ti  Ti6  1  0.665903  0.665903  0.999598  1
  Ti  Ti7  1  0.334097  0.334097  0.000402  1
  V  V8  1  0.000000  0.000000  0.000000  1
  O  O9  1  0.948991  0.948991  0.307913  1
  O  O10  1  0.279773  0.279773  0.317939  1
  O  O11  1  0.613672  0.613672  0.319016  1
  O  O12  1  0.386328  0.386328  0.680984  1
  O  O13  1  0.720227  0.720227  0.682061  1
  O  O14  1  0.051009  0.051009  0.692087  1
  O  O15  1  0.500000  0.000000  0.000000  1
  O  O16  1  0.833564  0.334046  0.000023  1
  O  O17  1  0.166436  0.665954  0.999977  1
  O  O18  1  0.000000  0.500000  0.000000  1
  O  O19  1  0.334046  0.833564  0.000023  1
  O  O20  1  0.665954  0.166436  0.999977  1
