# generated using pymatgen
data_DyTm8Th3Ru4
_symmetry_space_group_name_H-M   'P 1'
_cell_length_a   6.28205206
_cell_length_b   7.19822268
_cell_length_c   9.37992700
_cell_angle_alpha   90.00000000
_cell_angle_beta   90.00000000
_cell_angle_gamma   89.52714386
_symmetry_Int_Tables_number   1
_chemical_formula_structural   DyTm8Th3Ru4
_chemical_formula_sum   'Dy1 Tm8 Th3 Ru4'
_cell_volume   424.14219283
_cell_formula_units_Z   1
loop_
 _symmetry_equiv_pos_site_id
 _symmetry_equiv_pos_as_xyz
  1  'x, y, z'
loop_
 _atom_site_type_symbol
 _atom_site_label
 _atom_site_symmetry_multiplicity
 _atom_site_fract_x
 _atom_site_fract_y
 _atom_site_fract_z
 _atom_site_occupancy
  Dy  Dy0  1  0.862223  0.535474  0.250000  1
  Tm  Tm1  1  0.167022  0.175506  0.066949  1
  Tm  Tm2  1  0.835321  0.823151  0.936494  1
  Tm  Tm3  1  0.664378  0.325222  0.935550  1
  Tm  Tm4  1  0.835321  0.823151  0.563506  1
  Tm  Tm5  1  0.330251  0.676020  0.068646  1
  Tm  Tm6  1  0.167022  0.175506  0.433051  1
  Tm  Tm7  1  0.330251  0.676020  0.431354  1
  Tm  Tm8  1  0.664378  0.325222  0.564450  1
  Th  Th9  1  0.649176  0.045906  0.250000  1
  Th  Th10  1  0.351831  0.953468  0.750000  1
  Th  Th11  1  0.145671  0.455503  0.750000  1
  Ru  Ru12  1  0.459241  0.367988  0.250000  1
  Ru  Ru13  1  0.538706  0.629626  0.750000  1
  Ru  Ru14  1  0.963549  0.130786  0.750000  1
  Ru  Ru15  1  0.035659  0.881449  0.250000  1
