# generated using pymatgen
data_LiTh2Si4Ag
_symmetry_space_group_name_H-M   'P 1'
_cell_length_a   9.16625964
_cell_length_b   9.16626036
_cell_length_c   4.20146800
_cell_angle_alpha   90.00000000
_cell_angle_beta   90.00000000
_cell_angle_gamma   153.60700516
_symmetry_Int_Tables_number   1
_chemical_formula_structural   LiTh2Si4Ag
_chemical_formula_sum   'Li1 Th2 Si4 Ag1'
_cell_volume   156.92142470
_cell_formula_units_Z   1
loop_
 _symmetry_equiv_pos_site_id
 _symmetry_equiv_pos_as_xyz
  1  'x, y, z'
loop_
 _atom_site_type_symbol
 _atom_site_label
 _atom_site_symmetry_multiplicity
 _atom_site_fract_x
 _atom_site_fract_y
 _atom_site_fract_z
 _atom_site_occupancy
  Li  Li0  1  0.250904  0.749096  0.250000  1
  Th  Th1  1  0.594490  0.405510  0.250000  1
  Th  Th2  1  0.405001  0.594999  0.750000  1
  Si  Si3  1  0.968743  0.031257  0.250000  1
  Si  Si4  1  0.031437  0.968563  0.750000  1
  Si  Si5  1  0.838139  0.161861  0.250000  1
  Si  Si6  1  0.162162  0.837838  0.750000  1
  Ag  Ag7  1  0.749124  0.250876  0.750000  1
