# generated using pymatgen
data_Li3Ca3AcSi8Ag
_symmetry_space_group_name_H-M   'P 1'
_cell_length_a   3.87001100
_cell_length_b   7.92280482
_cell_length_c   10.77769003
_cell_angle_alpha   90.02333416
_cell_angle_beta   90.00000000
_cell_angle_gamma   90.00000000
_symmetry_Int_Tables_number   1
_chemical_formula_structural   Li3Ca3AcSi8Ag
_chemical_formula_sum   'Li3 Ca3 Ac1 Si8 Ag1'
_cell_volume   330.45841059
_cell_formula_units_Z   1
loop_
 _symmetry_equiv_pos_site_id
 _symmetry_equiv_pos_as_xyz
  1  'x, y, z'
loop_
 _atom_site_type_symbol
 _atom_site_label
 _atom_site_symmetry_multiplicity
 _atom_site_fract_x
 _atom_site_fract_y
 _atom_site_fract_z
 _atom_site_occupancy
  Li  Li0  1  0.250000  0.998555  0.390825  1
  Li  Li1  1  0.250000  0.501189  0.113464  1
  Li  Li2  1  0.750000  0.503261  0.889981  1
  Ca  Ca3  1  0.750000  0.866746  0.135487  1
  Ca  Ca4  1  0.250000  0.635489  0.633086  1
  Ca  Ca5  1  0.750000  0.365565  0.366908  1
  Ac  Ac6  1  0.250000  0.137583  0.866674  1
  Si  Si7  1  0.750000  0.275174  0.078722  1
  Si  Si8  1  0.250000  0.728895  0.930000  1
  Si  Si9  1  0.750000  0.765136  0.430426  1
  Si  Si10  1  0.250000  0.236281  0.562120  1
  Si  Si11  1  0.750000  0.825733  0.821577  1
  Si  Si12  1  0.250000  0.165718  0.180419  1
  Si  Si13  1  0.750000  0.336538  0.670746  1
  Si  Si14  1  0.250000  0.668605  0.325234  1
  Ag  Ag15  1  0.750000  0.989532  0.604332  1
