# generated using pymatgen
data_Ta3NbAl4(GaCu)2
_symmetry_space_group_name_H-M   'P 1'
_cell_length_a   4.96778909
_cell_length_b   5.11687606
_cell_length_c   8.30975035
_cell_angle_alpha   89.99979162
_cell_angle_beta   90.02856174
_cell_angle_gamma   120.99774523
_symmetry_Int_Tables_number   1
_chemical_formula_structural   Ta3NbAl4(GaCu)2
_chemical_formula_sum   'Ta3 Nb1 Al4 Ga2 Cu2'
_cell_volume   181.06387689
_cell_formula_units_Z   1
loop_
 _symmetry_equiv_pos_site_id
 _symmetry_equiv_pos_as_xyz
  1  'x, y, z'
loop_
 _atom_site_type_symbol
 _atom_site_label
 _atom_site_symmetry_multiplicity
 _atom_site_fract_x
 _atom_site_fract_y
 _atom_site_fract_z
 _atom_site_occupancy
  Ta  Ta0  1  0.679141  0.339571  0.563615  1
  Ta  Ta1  1  0.320027  0.660014  0.437965  1
  Ta  Ta2  1  0.319712  0.659852  0.062847  1
  Nb  Nb3  1  0.679454  0.339734  0.936363  1
  Al  Al4  1  0.000212  0.000106  0.499464  1
  Al  Al5  1  0.999738  0.999871  0.000587  1
  Al  Al6  1  0.192208  0.354662  0.749832  1
  Al  Al7  1  0.192206  0.837558  0.749836  1
  Ga  Ga8  1  0.808313  0.644947  0.250035  1
  Ga  Ga9  1  0.808318  0.163365  0.250033  1
  Cu  Cu10  1  0.680654  0.840327  0.748915  1
  Cu  Cu11  1  0.320016  0.159997  0.250507  1
