# generated using pymatgen
data_CaEu2B2Pt7
_symmetry_space_group_name_H-M   'P 1'
_cell_length_a   8.36501382
_cell_length_b   8.36501366
_cell_length_c   8.36501407
_cell_angle_alpha   38.96574934
_cell_angle_beta   38.96575428
_cell_angle_gamma   38.96574915
_symmetry_Int_Tables_number   1
_chemical_formula_structural   CaEu2B2Pt7
_chemical_formula_sum   'Ca1 Eu2 B2 Pt7'
_cell_volume   208.15471259
_cell_formula_units_Z   1
loop_
 _symmetry_equiv_pos_site_id
 _symmetry_equiv_pos_as_xyz
  1  'x, y, z'
loop_
 _atom_site_type_symbol
 _atom_site_label
 _atom_site_symmetry_multiplicity
 _atom_site_fract_x
 _atom_site_fract_y
 _atom_site_fract_z
 _atom_site_occupancy
  Ca  Ca0  1  0.000000  0.000000  0.000000  1
  Eu  Eu1  1  0.856428  0.856428  0.856428  1
  Eu  Eu2  1  0.143572  0.143572  0.143572  1
  B  B3  1  0.668825  0.668825  0.668825  1
  B  B4  1  0.331175  0.331175  0.331175  1
  Pt  Pt5  1  0.436188  0.932830  0.436188  1
  Pt  Pt6  1  0.436188  0.436188  0.932830  1
  Pt  Pt7  1  0.932830  0.436188  0.436188  1
  Pt  Pt8  1  0.563812  0.067170  0.563812  1
  Pt  Pt9  1  0.563812  0.563812  0.067170  1
  Pt  Pt10  1  0.067170  0.563812  0.563812  1
  Pt  Pt11  1  0.500000  0.500000  0.500000  1
