# generated using pymatgen
data_CrCo4Tc3P4
_symmetry_space_group_name_H-M   'P 1'
_cell_length_a   3.68951400
_cell_length_b   5.69405577
_cell_length_c   6.70792040
_cell_angle_alpha   90.04968088
_cell_angle_beta   90.00000000
_cell_angle_gamma   90.00000000
_symmetry_Int_Tables_number   1
_chemical_formula_structural   CrCo4Tc3P4
_chemical_formula_sum   'Cr1 Co4 Tc3 P4'
_cell_volume   140.92194105
_cell_formula_units_Z   1
loop_
 _symmetry_equiv_pos_site_id
 _symmetry_equiv_pos_as_xyz
  1  'x, y, z'
loop_
 _atom_site_type_symbol
 _atom_site_label
 _atom_site_symmetry_multiplicity
 _atom_site_fract_x
 _atom_site_fract_y
 _atom_site_fract_z
 _atom_site_occupancy
  Cr  Cr0  1  0.250000  0.975456  0.674130  1
  Co  Co1  1  0.750000  0.640362  0.566508  1
  Co  Co2  1  0.750000  0.139645  0.928260  1
  Co  Co3  1  0.250000  0.358808  0.436303  1
  Co  Co4  1  0.250000  0.856833  0.065893  1
  Tc  Tc5  1  0.750000  0.527540  0.172294  1
  Tc  Tc6  1  0.750000  0.027052  0.327666  1
  Tc  Tc7  1  0.250000  0.474192  0.830623  1
  P  P8  1  0.750000  0.261868  0.619208  1
  P  P9  1  0.750000  0.759474  0.880700  1
  P  P10  1  0.250000  0.740446  0.379804  1
  P  P11  1  0.250000  0.238323  0.118610  1
