# generated using pymatgen
data_Tb2Zr3Si4
_symmetry_space_group_name_H-M   'P 1'
_cell_length_a   7.35190700
_cell_length_b   7.35190700
_cell_length_c   13.53555900
_cell_angle_alpha   90.00000000
_cell_angle_beta   90.00000000
_cell_angle_gamma   90.00000000
_symmetry_Int_Tables_number   1
_chemical_formula_structural   Tb2Zr3Si4
_chemical_formula_sum   'Tb8 Zr12 Si16'
_cell_volume   731.60422627
_cell_formula_units_Z   4
loop_
 _symmetry_equiv_pos_site_id
 _symmetry_equiv_pos_as_xyz
  1  'x, y, z'
loop_
 _atom_site_type_symbol
 _atom_site_label
 _atom_site_symmetry_multiplicity
 _atom_site_fract_x
 _atom_site_fract_y
 _atom_site_fract_z
 _atom_site_occupancy
  Tb  Tb0  1  0.996263  0.345946  0.213830  1
  Tb  Tb1  1  0.003737  0.654054  0.713830  1
  Tb  Tb2  1  0.154054  0.496263  0.463830  1
  Tb  Tb3  1  0.503737  0.845946  0.036170  1
  Tb  Tb4  1  0.845946  0.503737  0.963830  1
  Tb  Tb5  1  0.496263  0.154054  0.536170  1
  Tb  Tb6  1  0.345946  0.996263  0.786170  1
  Tb  Tb7  1  0.654054  0.003737  0.286170  1
  Zr  Zr8  1  0.175275  0.175275  0.000000  1
  Zr  Zr9  1  0.824725  0.824725  0.500000  1
  Zr  Zr10  1  0.324725  0.675275  0.250000  1
  Zr  Zr11  1  0.675275  0.324725  0.750000  1
  Zr  Zr12  1  0.147468  0.995786  0.374623  1
  Zr  Zr13  1  0.852532  0.004214  0.874623  1
  Zr  Zr14  1  0.504214  0.647468  0.624623  1
  Zr  Zr15  1  0.352532  0.495786  0.875377  1
  Zr  Zr16  1  0.495786  0.352532  0.124623  1
  Zr  Zr17  1  0.647468  0.504214  0.375377  1
  Zr  Zr18  1  0.995786  0.147468  0.625377  1
  Zr  Zr19  1  0.004214  0.852532  0.125377  1
  Si  Si20  1  0.361084  0.293699  0.316253  1
  Si  Si21  1  0.638916  0.706301  0.816253  1
  Si  Si22  1  0.206301  0.861084  0.566253  1
  Si  Si23  1  0.138916  0.793699  0.933747  1
  Si  Si24  1  0.793699  0.138916  0.066253  1
  Si  Si25  1  0.861084  0.206301  0.433747  1
  Si  Si26  1  0.293699  0.361084  0.683747  1
  Si  Si27  1  0.706301  0.638916  0.183747  1
  Si  Si28  1  0.295282  0.050963  0.186951  1
  Si  Si29  1  0.704718  0.949037  0.686951  1
  Si  Si30  1  0.449037  0.795282  0.436951  1
  Si  Si31  1  0.204718  0.550963  0.063049  1
  Si  Si32  1  0.550963  0.204718  0.936951  1
  Si  Si33  1  0.795282  0.449037  0.563049  1
  Si  Si34  1  0.050963  0.295282  0.813049  1
  Si  Si35  1  0.949037  0.704718  0.313049  1
