# generated using pymatgen
data_Pr15Nd(DyIr3)4
_symmetry_space_group_name_H-M   'P 1'
_cell_length_a   11.27659021
_cell_length_b   11.28023754
_cell_length_c   6.58189644
_cell_angle_alpha   90.03541858
_cell_angle_beta   89.97781042
_cell_angle_gamma   90.00245204
_symmetry_Int_Tables_number   1
_chemical_formula_structural   Pr15Nd(DyIr3)4
_chemical_formula_sum   'Pr15 Nd1 Dy4 Ir12'
_cell_volume   837.23422340
_cell_formula_units_Z   1
loop_
 _symmetry_equiv_pos_site_id
 _symmetry_equiv_pos_as_xyz
  1  'x, y, z'
loop_
 _atom_site_type_symbol
 _atom_site_label
 _atom_site_symmetry_multiplicity
 _atom_site_fract_x
 _atom_site_fract_y
 _atom_site_fract_z
 _atom_site_occupancy
  Pr  Pr0  1  0.289231  0.912335  0.883334  1
  Pr  Pr1  1  0.710825  0.087974  0.883230  1
  Pr  Pr2  1  0.710713  0.912028  0.383230  1
  Pr  Pr3  1  0.587999  0.789202  0.883242  1
  Pr  Pr4  1  0.587548  0.210566  0.383298  1
  Pr  Pr5  1  0.411910  0.789656  0.383210  1
  Pr  Pr6  1  0.411734  0.210524  0.883257  1
  Pr  Pr7  1  0.210832  0.411769  0.616559  1
  Pr  Pr8  1  0.210769  0.588020  0.116728  1
  Pr  Pr9  1  0.789186  0.411991  0.116746  1
  Pr  Pr10  1  0.789195  0.588052  0.616770  1
  Pr  Pr11  1  0.911970  0.710789  0.116758  1
  Pr  Pr12  1  0.912053  0.289168  0.616778  1
  Pr  Pr13  1  0.088025  0.710834  0.616706  1
  Pr  Pr14  1  0.088254  0.289035  0.117117  1
  Nd  Nd15  1  0.290004  0.087598  0.384327  1
  Dy  Dy16  1  0.000462  0.000193  0.499709  1
  Dy  Dy17  1  0.000061  0.999981  0.000136  1
  Dy  Dy18  1  0.500018  0.500029  0.999999  1
  Dy  Dy19  1  0.499962  0.499983  0.499912  1
  Ir  Ir20  1  0.852006  0.148041  0.249960  1
  Ir  Ir21  1  0.851965  0.851956  0.750048  1
  Ir  Ir22  1  0.148510  0.147781  0.748557  1
  Ir  Ir23  1  0.148283  0.852552  0.250378  1
  Ir  Ir24  1  0.648021  0.351991  0.749972  1
  Ir  Ir25  1  0.648033  0.647970  0.249989  1
  Ir  Ir26  1  0.351780  0.351389  0.250257  1
  Ir  Ir27  1  0.351994  0.647994  0.750027  1
  Ir  Ir28  1  0.499494  0.000228  0.119687  1
  Ir  Ir29  1  0.499170  0.000353  0.618377  1
  Ir  Ir30  1  0.999968  0.500050  0.880829  1
  Ir  Ir31  1  0.000025  0.499970  0.380872  1
