# generated using pymatgen
data_Tb16YHo3Sn16
_symmetry_space_group_name_H-M   'P 1'
_cell_length_a   8.06012406
_cell_length_b   8.21152106
_cell_length_c   15.53696900
_cell_angle_alpha   90.00000000
_cell_angle_beta   90.00000000
_cell_angle_gamma   89.98657719
_symmetry_Int_Tables_number   1
_chemical_formula_structural   Tb16YHo3Sn16
_chemical_formula_sum   'Tb16 Y1 Ho3 Sn16'
_cell_volume   1028.32791267
_cell_formula_units_Z   1
loop_
 _symmetry_equiv_pos_site_id
 _symmetry_equiv_pos_as_xyz
  1  'x, y, z'
loop_
 _atom_site_type_symbol
 _atom_site_label
 _atom_site_symmetry_multiplicity
 _atom_site_fract_x
 _atom_site_fract_y
 _atom_site_fract_z
 _atom_site_occupancy
  Tb  Tb0  1  0.367620  0.835977  0.878202  1
  Tb  Tb1  1  0.867596  0.663995  0.621769  1
  Tb  Tb2  1  0.632730  0.164188  0.378316  1
  Tb  Tb3  1  0.132233  0.336245  0.121720  1
  Tb  Tb4  1  0.632730  0.164188  0.121684  1
  Tb  Tb5  1  0.132233  0.336245  0.378280  1
  Tb  Tb6  1  0.367620  0.835977  0.621798  1
  Tb  Tb7  1  0.867596  0.663995  0.878231  1
  Tb  Tb8  1  0.520007  0.320039  0.902179  1
  Tb  Tb9  1  0.020015  0.179946  0.597825  1
  Tb  Tb10  1  0.480114  0.679782  0.402254  1
  Tb  Tb11  1  0.979812  0.819931  0.097744  1
  Tb  Tb12  1  0.480114  0.679782  0.097746  1
  Tb  Tb13  1  0.979812  0.819931  0.402256  1
  Tb  Tb14  1  0.520007  0.320039  0.597821  1
  Tb  Tb15  1  0.020015  0.179946  0.902175  1
  Y  Y16  1  0.301330  0.002115  0.250000  1
  Ho  Ho17  1  0.198799  0.502276  0.750000  1
  Ho  Ho18  1  0.698774  0.997728  0.750000  1
  Ho  Ho19  1  0.801237  0.497720  0.250000  1
  Sn  Sn20  1  0.292440  0.034973  0.041964  1
  Sn  Sn21  1  0.792447  0.465130  0.457747  1
  Sn  Sn22  1  0.707507  0.965110  0.542346  1
  Sn  Sn23  1  0.207545  0.534898  0.957651  1
  Sn  Sn24  1  0.707507  0.965110  0.957654  1
  Sn  Sn25  1  0.207545  0.534898  0.542349  1
  Sn  Sn26  1  0.292440  0.034973  0.458036  1
  Sn  Sn27  1  0.792447  0.465130  0.042253  1
  Sn  Sn28  1  0.564898  0.618717  0.750000  1
  Sn  Sn29  1  0.064888  0.881283  0.750000  1
  Sn  Sn30  1  0.435204  0.381664  0.250000  1
  Sn  Sn31  1  0.934465  0.118914  0.250000  1
  Sn  Sn32  1  0.328590  0.146725  0.750000  1
  Sn  Sn33  1  0.828594  0.353277  0.750000  1
  Sn  Sn34  1  0.671911  0.853167  0.250000  1
  Sn  Sn35  1  0.171176  0.645991  0.250000  1
