# generated using pymatgen
data_Sc12Ti3Co8Si
_symmetry_space_group_name_H-M   'P 1'
_cell_length_a   8.31898539
_cell_length_b   8.25460994
_cell_length_c   8.25461000
_cell_angle_alpha   59.99999976
_cell_angle_beta   60.25565478
_cell_angle_gamma   60.25566235
_symmetry_Int_Tables_number   1
_chemical_formula_structural   Sc12Ti3Co8Si
_chemical_formula_sum   'Sc12 Ti3 Co8 Si1'
_cell_volume   402.36106460
_cell_formula_units_Z   1
loop_
 _symmetry_equiv_pos_site_id
 _symmetry_equiv_pos_as_xyz
  1  'x, y, z'
loop_
 _atom_site_type_symbol
 _atom_site_label
 _atom_site_symmetry_multiplicity
 _atom_site_fract_x
 _atom_site_fract_y
 _atom_site_fract_z
 _atom_site_occupancy
  Sc  Sc0  1  0.809046  0.810729  0.190113  1
  Sc  Sc1  1  0.189887  0.197453  0.806330  1
  Sc  Sc2  1  0.809046  0.190113  0.810729  1
  Sc  Sc3  1  0.189887  0.806330  0.197453  1
  Sc  Sc4  1  0.189887  0.806330  0.806330  1
  Sc  Sc5  1  0.809046  0.190113  0.190113  1
  Sc  Sc6  1  0.440954  0.439271  0.059887  1
  Sc  Sc7  1  0.060113  0.052547  0.443670  1
  Sc  Sc8  1  0.440954  0.059887  0.439271  1
  Sc  Sc9  1  0.060113  0.443670  0.052547  1
  Sc  Sc10  1  0.060113  0.443670  0.443670  1
  Sc  Sc11  1  0.440954  0.059887  0.059887  1
  Ti  Ti12  1  0.625000  0.125000  0.625000  1
  Ti  Ti13  1  0.625000  0.625000  0.125000  1
  Ti  Ti14  1  0.625000  0.625000  0.625000  1
  Co  Co15  1  0.739978  0.420007  0.420007  1
  Co  Co16  1  0.415452  0.738052  0.423248  1
  Co  Co17  1  0.415452  0.423248  0.738052  1
  Co  Co18  1  0.415452  0.423248  0.423248  1
  Co  Co19  1  0.510022  0.829993  0.829993  1
  Co  Co20  1  0.834548  0.511948  0.826752  1
  Co  Co21  1  0.834548  0.826752  0.511948  1
  Co  Co22  1  0.834548  0.826752  0.826752  1
  Si  Si23  1  0.125000  0.625000  0.625000  1
