# generated using pymatgen
data_Y10Er10Si15Rh
_symmetry_space_group_name_H-M   'P 1'
_cell_length_a   7.41296293
_cell_length_b   7.65839178
_cell_length_c   14.53474525
_cell_angle_alpha   90.30654519
_cell_angle_beta   90.37413730
_cell_angle_gamma   90.29345236
_symmetry_Int_Tables_number   1
_chemical_formula_structural   Y10Er10Si15Rh
_chemical_formula_sum   'Y10 Er10 Si15 Rh1'
_cell_volume   825.11709171
_cell_formula_units_Z   1
loop_
 _symmetry_equiv_pos_site_id
 _symmetry_equiv_pos_as_xyz
  1  'x, y, z'
loop_
 _atom_site_type_symbol
 _atom_site_label
 _atom_site_symmetry_multiplicity
 _atom_site_fract_x
 _atom_site_fract_y
 _atom_site_fract_z
 _atom_site_occupancy
  Y  Y0  1  0.025105  0.819070  0.599351  1
  Y  Y1  1  0.524681  0.683037  0.597732  1
  Y  Y2  1  0.320829  0.819165  0.121728  1
  Y  Y3  1  0.817265  0.679905  0.122490  1
  Y  Y4  1  0.851769  0.505406  0.749083  1
  Y  Y5  1  0.471129  0.316208  0.099360  1
  Y  Y6  1  0.028104  0.818828  0.901642  1
  Y  Y7  1  0.471748  0.317440  0.401893  1
  Y  Y8  1  0.653004  0.011869  0.257698  1
  Y  Y9  1  0.528842  0.682328  0.900311  1
  Er  Er10  1  0.680891  0.179463  0.877198  1
  Er  Er11  1  0.178172  0.320645  0.623689  1
  Er  Er12  1  0.184424  0.322312  0.875656  1
  Er  Er13  1  0.816998  0.688335  0.382383  1
  Er  Er14  1  0.322818  0.825146  0.378165  1
  Er  Er15  1  0.352200  0.991221  0.747344  1
  Er  Er16  1  0.682886  0.164613  0.618122  1
  Er  Er17  1  0.147303  0.489929  0.252367  1
  Er  Er18  1  0.971430  0.181824  0.098470  1
  Er  Er19  1  0.971810  0.177367  0.401426  1
  Si  Si20  1  0.234203  0.628141  0.750579  1
  Si  Si21  1  0.343880  0.029241  0.540876  1
  Si  Si22  1  0.027770  0.893749  0.247493  1
  Si  Si23  1  0.733656  0.871584  0.751857  1
  Si  Si24  1  0.263826  0.128288  0.246799  1
  Si  Si25  1  0.852013  0.470445  0.540969  1
  Si  Si26  1  0.480045  0.390358  0.748624  1
  Si  Si27  1  0.147084  0.531249  0.461233  1
  Si  Si28  1  0.146367  0.526207  0.039645  1
  Si  Si29  1  0.977584  0.104893  0.751703  1
  Si  Si30  1  0.769482  0.376457  0.249388  1
  Si  Si31  1  0.352493  0.031178  0.959258  1
  Si  Si32  1  0.856791  0.469074  0.959323  1
  Si  Si33  1  0.647362  0.972372  0.038457  1
  Si  Si34  1  0.521985  0.603305  0.249458  1
  Rh  Rh35  1  0.644054  0.979349  0.458230  1
