# generated using pymatgen
data_Cs4CePr2Nd(GeSe4)4
_symmetry_space_group_name_H-M   'P 1'
_cell_length_a   7.27517763
_cell_length_b   6.97660146
_cell_length_c   19.97246610
_cell_angle_alpha   71.46292995
_cell_angle_beta   90.14084023
_cell_angle_gamma   89.94407046
_symmetry_Int_Tables_number   1
_chemical_formula_structural   Cs4CePr2Nd(GeSe4)4
_chemical_formula_sum   'Cs4 Ce1 Pr2 Nd1 Ge4 Se16'
_cell_volume   961.12442986
_cell_formula_units_Z   1
loop_
 _symmetry_equiv_pos_site_id
 _symmetry_equiv_pos_as_xyz
  1  'x, y, z'
loop_
 _atom_site_type_symbol
 _atom_site_label
 _atom_site_symmetry_multiplicity
 _atom_site_fract_x
 _atom_site_fract_y
 _atom_site_fract_z
 _atom_site_occupancy
  Cs  Cs0  1  0.750835  0.729851  0.032804  1
  Cs  Cs1  1  0.249164  0.270310  0.966988  1
  Cs  Cs2  1  0.749106  0.729706  0.532942  1
  Cs  Cs3  1  0.250944  0.270234  0.467283  1
  Ce  Ce4  1  0.768620  0.770295  0.773449  1
  Pr  Pr5  1  0.233488  0.227624  0.226826  1
  Pr  Pr6  1  0.733811  0.772432  0.273163  1
  Nd  Nd7  1  0.267518  0.227825  0.726775  1
  Ge  Ge8  1  0.732532  0.213982  0.833422  1
  Ge  Ge9  1  0.767201  0.213632  0.333890  1
  Ge  Ge10  1  0.232913  0.786393  0.666449  1
  Ge  Ge11  1  0.267173  0.786516  0.166067  1
  Se  Se12  1  0.504805  0.037390  0.143770  1
  Se  Se13  1  0.760219  0.413396  0.409460  1
  Se  Se14  1  0.004963  0.010318  0.846498  1
  Se  Se15  1  0.836697  0.426571  0.217396  1
  Se  Se16  1  0.995739  0.038494  0.644226  1
  Se  Se17  1  0.260026  0.586592  0.090524  1
  Se  Se18  1  0.740376  0.413799  0.909221  1
  Se  Se19  1  0.337130  0.573580  0.282634  1
  Se  Se20  1  0.240079  0.584636  0.591407  1
  Se  Se21  1  0.494443  0.963999  0.855610  1
  Se  Se22  1  0.660170  0.428173  0.717223  1
  Se  Se23  1  0.162368  0.570194  0.782509  1
  Se  Se24  1  0.005255  0.962678  0.356265  1
  Se  Se25  1  0.995190  0.990274  0.152505  1
  Se  Se26  1  0.495612  0.009777  0.347432  1
  Se  Se27  1  0.503627  0.991329  0.653261  1
