# generated using pymatgen
data_TbYbReH6
_symmetry_space_group_name_H-M   'P 1'
_cell_length_a   5.06599940
_cell_length_b   5.06600020
_cell_length_c   5.06599900
_cell_angle_alpha   60.00000127
_cell_angle_beta   59.99999607
_cell_angle_gamma   60.00000259
_symmetry_Int_Tables_number   1
_chemical_formula_structural   TbYbReH6
_chemical_formula_sum   'Tb1 Yb1 Re1 H6'
_cell_volume   91.93490627
_cell_formula_units_Z   1
loop_
 _symmetry_equiv_pos_site_id
 _symmetry_equiv_pos_as_xyz
  1  'x, y, z'
loop_
 _atom_site_type_symbol
 _atom_site_label
 _atom_site_symmetry_multiplicity
 _atom_site_fract_x
 _atom_site_fract_y
 _atom_site_fract_z
 _atom_site_occupancy
  Tb  Tb0  1  0.250000  0.250000  0.250000  1
  Yb  Yb1  1  0.749999  0.749999  0.749999  1
  Re  Re2  1  0.000000  0.000000  0.000000  1
  H  H3  1  0.751527  0.248474  0.248474  1
  H  H4  1  0.248474  0.751527  0.248474  1
  H  H5  1  0.751526  0.751526  0.248475  1
  H  H6  1  0.248474  0.248474  0.751527  1
  H  H7  1  0.751526  0.248475  0.751526  1
  H  H8  1  0.248475  0.751526  0.751526  1
