# generated using pymatgen
data_Y9Er(SiBi)4
_symmetry_space_group_name_H-M   'P 1'
_cell_length_a   8.65779705
_cell_length_b   8.65779731
_cell_length_c   7.92930500
_cell_angle_alpha   89.99834748
_cell_angle_beta   89.99834885
_cell_angle_gamma   125.57612111
_symmetry_Int_Tables_number   1
_chemical_formula_structural   Y9Er(SiBi)4
_chemical_formula_sum   'Y9 Er1 Si4 Bi4'
_cell_volume   483.41912868
_cell_formula_units_Z   1
loop_
 _symmetry_equiv_pos_site_id
 _symmetry_equiv_pos_as_xyz
  1  'x, y, z'
loop_
 _atom_site_type_symbol
 _atom_site_label
 _atom_site_symmetry_multiplicity
 _atom_site_fract_x
 _atom_site_fract_y
 _atom_site_fract_z
 _atom_site_occupancy
  Y  Y0  1  0.042570  0.286774  0.335211  1
  Y  Y1  1  0.957430  0.713226  0.664789  1
  Y  Y2  1  0.456950  0.212759  0.835616  1
  Y  Y3  1  0.787241  0.543050  0.164384  1
  Y  Y4  1  0.543050  0.787241  0.164384  1
  Y  Y5  1  0.212759  0.456950  0.835616  1
  Y  Y6  1  0.713226  0.957430  0.664789  1
  Y  Y7  1  0.286774  0.042570  0.335211  1
  Y  Y8  1  0.500000  0.500000  0.500000  1
  Er  Er9  1  0.000000  0.000000  0.000000  1
  Si  Si10  1  0.364860  0.364860  0.133167  1
  Si  Si11  1  0.635140  0.635140  0.866833  1
  Si  Si12  1  0.134389  0.134389  0.633956  1
  Si  Si13  1  0.865611  0.865611  0.366044  1
  Bi  Bi14  1  0.792901  0.207099  0.000000  1
  Bi  Bi15  1  0.207099  0.792901  0.000000  1
  Bi  Bi16  1  0.707521  0.292479  0.500000  1
  Bi  Bi17  1  0.292479  0.707521  0.500000  1
