# generated using pymatgen
data_Zr4Sc4Ir3Pt
_symmetry_space_group_name_H-M   'P 1'
_cell_length_a   4.56277800
_cell_length_b   6.74791060
_cell_length_c   8.10958332
_cell_angle_alpha   89.77585674
_cell_angle_beta   90.00000000
_cell_angle_gamma   90.00000000
_symmetry_Int_Tables_number   1
_chemical_formula_structural   Zr4Sc4Ir3Pt
_chemical_formula_sum   'Zr4 Sc4 Ir3 Pt1'
_cell_volume   249.68581830
_cell_formula_units_Z   1
loop_
 _symmetry_equiv_pos_site_id
 _symmetry_equiv_pos_as_xyz
  1  'x, y, z'
loop_
 _atom_site_type_symbol
 _atom_site_label
 _atom_site_symmetry_multiplicity
 _atom_site_fract_x
 _atom_site_fract_y
 _atom_site_fract_z
 _atom_site_occupancy
  Zr  Zr0  1  0.250000  0.148057  0.916066  1
  Zr  Zr1  1  0.250000  0.650239  0.580531  1
  Zr  Zr2  1  0.750000  0.845988  0.078620  1
  Zr  Zr3  1  0.750000  0.351415  0.421408  1
  Sc  Sc4  1  0.250000  0.011400  0.326720  1
  Sc  Sc5  1  0.250000  0.516904  0.178921  1
  Sc  Sc6  1  0.750000  0.987348  0.672869  1
  Sc  Sc7  1  0.750000  0.488526  0.821899  1
  Ir  Ir8  1  0.250000  0.252880  0.589400  1
  Ir  Ir9  1  0.250000  0.752273  0.912051  1
  Ir  Ir10  1  0.750000  0.747898  0.409946  1
  Pt  Pt11  1  0.750000  0.247072  0.091570  1
