# generated using pymatgen
data_TbTa11(BOs)12
_symmetry_space_group_name_H-M   'P 1'
_cell_length_a   3.12981600
_cell_length_b   9.12555981
_cell_length_c   15.89792530
_cell_angle_alpha   90.11435742
_cell_angle_beta   90.00000000
_cell_angle_gamma   90.00000000
_symmetry_Int_Tables_number   1
_chemical_formula_structural   TbTa11(BOs)12
_chemical_formula_sum   'Tb1 Ta11 B12 Os12'
_cell_volume   454.06487691
_cell_formula_units_Z   1
loop_
 _symmetry_equiv_pos_site_id
 _symmetry_equiv_pos_as_xyz
  1  'x, y, z'
loop_
 _atom_site_type_symbol
 _atom_site_label
 _atom_site_symmetry_multiplicity
 _atom_site_fract_x
 _atom_site_fract_y
 _atom_site_fract_z
 _atom_site_occupancy
  Tb  Tb0  1  0.000000  0.817521  0.708117  1
  Ta  Ta1  1  0.000000  0.800073  0.492430  1
  Ta  Ta2  1  0.000000  0.199354  0.503986  1
  Ta  Ta3  1  0.000000  0.297655  0.005779  1
  Ta  Ta4  1  0.000000  0.699562  0.997865  1
  Ta  Ta5  1  0.000000  0.516030  0.592396  1
  Ta  Ta6  1  0.000000  0.483046  0.405500  1
  Ta  Ta7  1  0.000000  0.014776  0.906861  1
  Ta  Ta8  1  0.000000  0.984317  0.094248  1
  Ta  Ta9  1  0.000000  0.687955  0.202577  1
  Ta  Ta10  1  0.000000  0.316197  0.797751  1
  Ta  Ta11  1  0.000000  0.188115  0.296763  1
  B  B12  1  0.500000  0.604654  0.493744  1
  B  B13  1  0.500000  0.394100  0.502372  1
  B  B14  1  0.500000  0.104563  0.004003  1
  B  B15  1  0.500000  0.894596  0.998338  1
  B  B16  1  0.000000  0.606301  0.833718  1
  B  B17  1  0.000000  0.390842  0.167472  1
  B  B18  1  0.000000  0.111758  0.665292  1
  B  B19  1  0.000000  0.890718  0.332044  1
  B  B20  1  0.500000  0.712454  0.588614  1
  B  B21  1  0.500000  0.284239  0.400598  1
  B  B22  1  0.500000  0.214795  0.902994  1
  B  B23  1  0.500000  0.785920  0.099912  1
  Os  Os24  1  0.500000  0.718581  0.353753  1
  Os  Os25  1  0.500000  0.282540  0.641855  1
  Os  Os26  1  0.500000  0.218980  0.144595  1
  Os  Os27  1  0.500000  0.775578  0.863660  1
  Os  Os28  1  0.500000  0.515434  0.095179  1
  Os  Os29  1  0.500000  0.480681  0.909570  1
  Os  Os30  1  0.500000  0.017154  0.403420  1
  Os  Os31  1  0.500000  0.990115  0.589538  1
  Os  Os32  1  0.500000  0.550353  0.738371  1
  Os  Os33  1  0.500000  0.437586  0.265604  1
  Os  Os34  1  0.500000  0.075018  0.767533  1
  Os  Os35  1  0.500000  0.938439  0.233548  1
