# generated using pymatgen
data_AsPOsBr13
_symmetry_space_group_name_H-M   'P 1'
_cell_length_a   10.28803407
_cell_length_b   10.28799760
_cell_length_c   12.69192000
_cell_angle_alpha   90.00000000
_cell_angle_beta   90.00000000
_cell_angle_gamma   111.78487365
_symmetry_Int_Tables_number   1
_chemical_formula_structural   AsPOsBr13
_chemical_formula_sum   'As2 P2 Os2 Br26'
_cell_volume   1247.41710266
_cell_formula_units_Z   2
loop_
 _symmetry_equiv_pos_site_id
 _symmetry_equiv_pos_as_xyz
  1  'x, y, z'
loop_
 _atom_site_type_symbol
 _atom_site_label
 _atom_site_symmetry_multiplicity
 _atom_site_fract_x
 _atom_site_fract_y
 _atom_site_fract_z
 _atom_site_occupancy
  As  As0  1  0.559672  0.440330  0.850251  1
  As  As1  1  0.440328  0.559670  0.350251  1
  P  P2  1  0.145791  0.854208  0.029967  1
  P  P3  1  0.854209  0.145792  0.529967  1
  Os  Os4  1  0.788497  0.211503  0.998114  1
  Os  Os5  1  0.211503  0.788497  0.498114  1
  Br  Br6  1  0.238788  0.066073  0.088291  1
  Br  Br7  1  0.334812  0.665188  0.602911  1
  Br  Br8  1  0.687575  0.628811  0.371675  1
  Br  Br9  1  0.560745  0.439255  0.658804  1
  Br  Br10  1  0.996508  0.306609  0.114217  1
  Br  Br11  1  0.933928  0.761213  0.088291  1
  Br  Br12  1  0.266227  0.733773  0.086114  1
  Br  Br13  1  0.003492  0.693391  0.614217  1
  Br  Br14  1  0.066072  0.238787  0.588291  1
  Br  Br15  1  0.883395  0.421576  0.881809  1
  Br  Br16  1  0.693391  0.003491  0.114217  1
  Br  Br17  1  0.421575  0.883395  0.381809  1
  Br  Br18  1  0.371185  0.312422  0.371678  1
  Br  Br19  1  0.855242  0.144757  0.358884  1
  Br  Br20  1  0.312425  0.371189  0.871675  1
  Br  Br21  1  0.144758  0.855243  0.858884  1
  Br  Br22  1  0.628815  0.687578  0.871678  1
  Br  Br23  1  0.761212  0.933927  0.588291  1
  Br  Br24  1  0.090838  0.909163  0.389268  1
  Br  Br25  1  0.909162  0.090837  0.889268  1
  Br  Br26  1  0.439255  0.560745  0.158804  1
  Br  Br27  1  0.306609  0.996509  0.614217  1
  Br  Br28  1  0.578425  0.116605  0.881809  1
  Br  Br29  1  0.733773  0.266227  0.586114  1
  Br  Br30  1  0.665188  0.334812  0.102911  1
  Br  Br31  1  0.116605  0.578424  0.381809  1
