# generated using pymatgen
data_Pr10(BiPb)3
_symmetry_space_group_name_H-M   'P 1'
_cell_length_a   9.55737400
_cell_length_b   9.55737615
_cell_length_c   6.76740500
_cell_angle_alpha   90.00000000
_cell_angle_beta   90.00000000
_cell_angle_gamma   120.00000642
_symmetry_Int_Tables_number   1
_chemical_formula_structural   Pr10(BiPb)3
_chemical_formula_sum   'Pr10 Bi3 Pb3'
_cell_volume   535.34041516
_cell_formula_units_Z   1
loop_
 _symmetry_equiv_pos_site_id
 _symmetry_equiv_pos_as_xyz
  1  'x, y, z'
loop_
 _atom_site_type_symbol
 _atom_site_label
 _atom_site_symmetry_multiplicity
 _atom_site_fract_x
 _atom_site_fract_y
 _atom_site_fract_z
 _atom_site_occupancy
  Pr  Pr0  1  0.666667  0.333333  0.002031  1
  Pr  Pr1  1  0.333333  0.666667  0.002031  1
  Pr  Pr2  1  0.333333  0.666667  0.497969  1
  Pr  Pr3  1  0.666667  0.333333  0.497969  1
  Pr  Pr4  1  0.758109  0.758109  0.750000  1
  Pr  Pr5  1  0.241891  0.000000  0.750000  1
  Pr  Pr6  1  0.000000  0.241891  0.750000  1
  Pr  Pr7  1  0.242191  0.242191  0.250000  1
  Pr  Pr8  1  0.757809  0.000000  0.250000  1
  Pr  Pr9  1  0.000000  0.757809  0.250000  1
  Bi  Bi10  1  0.391129  0.391129  0.750000  1
  Bi  Bi11  1  0.608871  0.000000  0.750000  1
  Bi  Bi12  1  0.000000  0.608871  0.750000  1
  Pb  Pb13  1  0.607368  0.607368  0.250000  1
  Pb  Pb14  1  0.392632  0.000000  0.250000  1
  Pb  Pb15  1  0.000000  0.392632  0.250000  1
