# generated using pymatgen
data_NdHo4(In2Pt)2
_symmetry_space_group_name_H-M   'P 1'
_cell_length_a   3.63763500
_cell_length_b   8.18208700
_cell_length_c   18.37396800
_cell_angle_alpha   90.00000000
_cell_angle_beta   90.00000000
_cell_angle_gamma   90.00000000
_symmetry_Int_Tables_number   1
_chemical_formula_structural   NdHo4(In2Pt)2
_chemical_formula_sum   'Nd2 Ho8 In8 Pt4'
_cell_volume   546.87260519
_cell_formula_units_Z   2
loop_
 _symmetry_equiv_pos_site_id
 _symmetry_equiv_pos_as_xyz
  1  'x, y, z'
loop_
 _atom_site_type_symbol
 _atom_site_label
 _atom_site_symmetry_multiplicity
 _atom_site_fract_x
 _atom_site_fract_y
 _atom_site_fract_z
 _atom_site_occupancy
  Nd  Nd0  1  0.000000  0.000000  0.000000  1
  Nd  Nd1  1  0.000000  0.500000  0.500000  1
  Ho  Ho2  1  0.000000  0.118109  0.414248  1
  Ho  Ho3  1  0.000000  0.881891  0.585752  1
  Ho  Ho4  1  0.000000  0.381891  0.914248  1
  Ho  Ho5  1  0.000000  0.618109  0.085752  1
  Ho  Ho6  1  0.000000  0.242912  0.219802  1
  Ho  Ho7  1  0.000000  0.757088  0.780198  1
  Ho  Ho8  1  0.000000  0.257088  0.719802  1
  Ho  Ho9  1  0.000000  0.742912  0.280198  1
  In  In10  1  0.500000  0.422922  0.348989  1
  In  In11  1  0.500000  0.577078  0.651011  1
  In  In12  1  0.500000  0.077078  0.848989  1
  In  In13  1  0.500000  0.922922  0.151011  1
  In  In14  1  0.500000  0.297115  0.068018  1
  In  In15  1  0.500000  0.702885  0.931982  1
  In  In16  1  0.500000  0.202885  0.568018  1
  In  In17  1  0.500000  0.797115  0.431982  1
  Pt  Pt18  1  0.500000  0.025032  0.303573  1
  Pt  Pt19  1  0.500000  0.974968  0.696427  1
  Pt  Pt20  1  0.500000  0.474968  0.803573  1
  Pt  Pt21  1  0.500000  0.525032  0.196427  1
