# generated using pymatgen
data_Na3VSiN4
_symmetry_space_group_name_H-M   'P 1'
_cell_length_a   6.72184170
_cell_length_b   8.03637466
_cell_length_c   5.43140684
_cell_angle_alpha   90.00000009
_cell_angle_beta   92.09321917
_cell_angle_gamma   126.71111470
_symmetry_Int_Tables_number   1
_chemical_formula_structural   Na3VSiN4
_chemical_formula_sum   'Na6 V2 Si2 N8'
_cell_volume   234.96306176
_cell_formula_units_Z   2
loop_
 _symmetry_equiv_pos_site_id
 _symmetry_equiv_pos_as_xyz
  1  'x, y, z'
loop_
 _atom_site_type_symbol
 _atom_site_label
 _atom_site_symmetry_multiplicity
 _atom_site_fract_x
 _atom_site_fract_y
 _atom_site_fract_z
 _atom_site_occupancy
  Na  Na0  1  0.210462  0.959182  0.030567  1
  Na  Na1  1  0.789538  0.748720  0.469433  1
  Na  Na2  1  0.783856  0.036166  0.961534  1
  Na  Na3  1  0.216144  0.252310  0.538466  1
  Na  Na4  1  0.000000  0.600654  0.750000  1
  Na  Na5  1  0.000000  0.393724  0.250000  1
  V  V6  1  0.419897  0.826394  0.423784  1
  V  V7  1  0.580103  0.406498  0.076216  1
  Si  Si8  1  0.580164  0.176337  0.576291  1
  Si  Si9  1  0.419836  0.596172  0.923709  1
  N  N10  1  0.268600  0.946310  0.516866  1
  N  N11  1  0.731400  0.677708  0.983134  1
  N  N12  1  0.733779  0.063017  0.485207  1
  N  N13  1  0.266221  0.329238  0.014793  1
  N  N14  1  0.647624  0.261797  0.882550  1
  N  N15  1  0.352376  0.614172  0.617450  1
  N  N16  1  0.346365  0.728982  0.104997  1
  N  N17  1  0.653635  0.382619  0.395003  1
