# generated using pymatgen
data_Ce2ReB8Os
_symmetry_space_group_name_H-M   'P 1'
_cell_length_a   3.64718400
_cell_length_b   6.02779503
_cell_length_c   11.67878595
_cell_angle_alpha   90.09417751
_cell_angle_beta   90.00000000
_cell_angle_gamma   90.00000000
_symmetry_Int_Tables_number   1
_chemical_formula_structural   Ce2ReB8Os
_chemical_formula_sum   'Ce4 Re2 B16 Os2'
_cell_volume   256.75166125
_cell_formula_units_Z   2
loop_
 _symmetry_equiv_pos_site_id
 _symmetry_equiv_pos_as_xyz
  1  'x, y, z'
loop_
 _atom_site_type_symbol
 _atom_site_label
 _atom_site_symmetry_multiplicity
 _atom_site_fract_x
 _atom_site_fract_y
 _atom_site_fract_z
 _atom_site_occupancy
  Ce  Ce0  1  0.000000  0.126893  0.149784  1
  Ce  Ce1  1  0.000000  0.873107  0.850216  1
  Ce  Ce2  1  0.000000  0.627107  0.349745  1
  Ce  Ce3  1  0.000000  0.372893  0.650255  1
  Re  Re4  1  0.000000  0.637514  0.091811  1
  Re  Re5  1  0.000000  0.362486  0.908189  1
  B  B6  1  0.500000  0.526117  0.809528  1
  B  B7  1  0.500000  0.473883  0.190472  1
  B  B8  1  0.500000  0.027786  0.689854  1
  B  B9  1  0.500000  0.972214  0.310146  1
  B  B10  1  0.500000  0.387712  0.045706  1
  B  B11  1  0.500000  0.612288  0.954294  1
  B  B12  1  0.500000  0.888189  0.454070  1
  B  B13  1  0.500000  0.111811  0.545930  1
  B  B14  1  0.500000  0.215100  0.814004  1
  B  B15  1  0.500000  0.784900  0.185996  1
  B  B16  1  0.500000  0.713480  0.684756  1
  B  B17  1  0.500000  0.286520  0.315244  1
  B  B18  1  0.500000  0.138024  0.968323  1
  B  B19  1  0.500000  0.861976  0.031677  1
  B  B20  1  0.500000  0.637379  0.531663  1
  B  B21  1  0.500000  0.362621  0.468337  1
  Os  Os22  1  0.000000  0.140239  0.406092  1
  Os  Os23  1  0.000000  0.859761  0.593908  1
