# generated using pymatgen
data_EuCoP3Rh4
_symmetry_space_group_name_H-M   'P 1'
_cell_length_a   3.85923600
_cell_length_b   10.85650800
_cell_length_c   12.53014400
_cell_angle_alpha   90.00000000
_cell_angle_beta   90.00000000
_cell_angle_gamma   90.00000000
_symmetry_Int_Tables_number   1
_chemical_formula_structural   EuCoP3Rh4
_chemical_formula_sum   'Eu4 Co4 P12 Rh16'
_cell_volume   524.98579943
_cell_formula_units_Z   4
loop_
 _symmetry_equiv_pos_site_id
 _symmetry_equiv_pos_as_xyz
  1  'x, y, z'
loop_
 _atom_site_type_symbol
 _atom_site_label
 _atom_site_symmetry_multiplicity
 _atom_site_fract_x
 _atom_site_fract_y
 _atom_site_fract_z
 _atom_site_occupancy
  Eu  Eu0  1  0.250000  0.585330  0.707604  1
  Eu  Eu1  1  0.250000  0.914670  0.207604  1
  Eu  Eu2  1  0.750000  0.414670  0.292396  1
  Eu  Eu3  1  0.750000  0.085330  0.792396  1
  Co  Co4  1  0.250000  0.463928  0.935527  1
  Co  Co5  1  0.250000  0.036072  0.435527  1
  Co  Co6  1  0.750000  0.536072  0.064473  1
  Co  Co7  1  0.750000  0.963928  0.564473  1
  P  P8  1  0.250000  0.424345  0.105602  1
  P  P9  1  0.250000  0.075655  0.605602  1
  P  P10  1  0.750000  0.575655  0.894398  1
  P  P11  1  0.750000  0.924345  0.394398  1
  P  P12  1  0.250000  0.274013  0.873549  1
  P  P13  1  0.250000  0.225987  0.373549  1
  P  P14  1  0.750000  0.725987  0.126451  1
  P  P15  1  0.750000  0.774013  0.626451  1
  P  P16  1  0.250000  0.601147  0.388347  1
  P  P17  1  0.250000  0.898853  0.888347  1
  P  P18  1  0.750000  0.398853  0.611653  1
  P  P19  1  0.750000  0.101147  0.111653  1
  Rh  Rh20  1  0.250000  0.715438  0.986132  1
  Rh  Rh21  1  0.250000  0.784562  0.486132  1
  Rh  Rh22  1  0.750000  0.284562  0.013868  1
  Rh  Rh23  1  0.750000  0.215438  0.513868  1
  Rh  Rh24  1  0.250000  0.407766  0.484572  1
  Rh  Rh25  1  0.250000  0.092234  0.984572  1
  Rh  Rh26  1  0.750000  0.592234  0.515428  1
  Rh  Rh27  1  0.750000  0.907766  0.015428  1
  Rh  Rh28  1  0.250000  0.224782  0.177145  1
  Rh  Rh29  1  0.250000  0.275218  0.677145  1
  Rh  Rh30  1  0.750000  0.775218  0.822855  1
  Rh  Rh31  1  0.750000  0.724782  0.322855  1
  Rh  Rh32  1  0.250000  0.883990  0.696154  1
  Rh  Rh33  1  0.250000  0.616010  0.196154  1
  Rh  Rh34  1  0.750000  0.116010  0.303846  1
  Rh  Rh35  1  0.750000  0.383990  0.803846  1
