# generated using pymatgen
data_Li4Y3TmPt4
_symmetry_space_group_name_H-M   'P 1'
_cell_length_a   4.01054800
_cell_length_b   7.01927082
_cell_length_c   8.48390300
_cell_angle_alpha   90.16132663
_cell_angle_beta   90.00000000
_cell_angle_gamma   90.00000000
_symmetry_Int_Tables_number   1
_chemical_formula_structural   Li4Y3TmPt4
_chemical_formula_sum   'Li4 Y3 Tm1 Pt4'
_cell_volume   238.83044647
_cell_formula_units_Z   1
loop_
 _symmetry_equiv_pos_site_id
 _symmetry_equiv_pos_as_xyz
  1  'x, y, z'
loop_
 _atom_site_type_symbol
 _atom_site_label
 _atom_site_symmetry_multiplicity
 _atom_site_fract_x
 _atom_site_fract_y
 _atom_site_fract_z
 _atom_site_occupancy
  Li  Li0  1  0.250000  0.624771  0.557881  1
  Li  Li1  1  0.250000  0.124557  0.942311  1
  Li  Li2  1  0.750000  0.376465  0.443596  1
  Li  Li3  1  0.750000  0.873571  0.056579  1
  Y  Y4  1  0.250000  0.049869  0.321156  1
  Y  Y5  1  0.250000  0.548991  0.178428  1
  Y  Y6  1  0.750000  0.952034  0.680276  1
  Tm  Tm7  1  0.750000  0.450243  0.821561  1
  Pt  Pt8  1  0.250000  0.249301  0.628962  1
  Pt  Pt9  1  0.250000  0.740379  0.872511  1
  Pt  Pt10  1  0.750000  0.755266  0.373889  1
  Pt  Pt11  1  0.750000  0.254552  0.122851  1
