# generated using pymatgen
data_Tm12Tl2Tc3
_symmetry_space_group_name_H-M   'P 1'
_cell_length_a   8.35099648
_cell_length_b   8.35100236
_cell_length_c   8.35099716
_cell_angle_alpha   109.48361252
_cell_angle_beta   109.47759039
_cell_angle_gamma   109.45241632
_symmetry_Int_Tables_number   1
_chemical_formula_structural   Tm12Tl2Tc3
_chemical_formula_sum   'Tm12 Tl2 Tc3'
_cell_volume   448.32561587
_cell_formula_units_Z   1
loop_
 _symmetry_equiv_pos_site_id
 _symmetry_equiv_pos_as_xyz
  1  'x, y, z'
loop_
 _atom_site_type_symbol
 _atom_site_label
 _atom_site_symmetry_multiplicity
 _atom_site_fract_x
 _atom_site_fract_y
 _atom_site_fract_z
 _atom_site_occupancy
  Tm  Tm0  1  0.185427  0.427930  0.242503  1
  Tm  Tm1  1  0.814573  0.572070  0.757497  1
  Tm  Tm2  1  0.185427  0.942924  0.757496  1
  Tm  Tm3  1  0.942922  0.185425  0.757497  1
  Tm  Tm4  1  0.814573  0.057076  0.242504  1
  Tm  Tm5  1  0.057078  0.814575  0.242503  1
  Tm  Tm6  1  0.427928  0.185425  0.242503  1
  Tm  Tm7  1  0.572072  0.814575  0.757497  1
  Tm  Tm8  1  0.318467  0.318462  0.636929  1
  Tm  Tm9  1  0.681533  0.681538  0.363071  1
  Tm  Tm10  1  0.681534  0.318462  0.999995  1
  Tm  Tm11  1  0.318466  0.681538  0.000005  1
  Tl  Tl12  1  0.000000  0.500000  0.500000  1
  Tl  Tl13  1  0.500000  0.000000  0.500000  1
  Tc  Tc14  1  0.338433  0.338432  0.999999  1
  Tc  Tc15  1  0.661567  0.661568  0.000001  1
  Tc  Tc16  1  0.000000  0.000000  0.000000  1
