# generated using pymatgen
data_Sc5Tl3Zn
_symmetry_space_group_name_H-M   'P 1'
_cell_length_a   8.67046700
_cell_length_b   8.67046926
_cell_length_c   6.31866300
_cell_angle_alpha   90.00000000
_cell_angle_beta   90.00000000
_cell_angle_gamma   119.99999521
_symmetry_Int_Tables_number   1
_chemical_formula_structural   Sc5Tl3Zn
_chemical_formula_sum   'Sc10 Tl6 Zn2'
_cell_volume   411.37788230
_cell_formula_units_Z   2
loop_
 _symmetry_equiv_pos_site_id
 _symmetry_equiv_pos_as_xyz
  1  'x, y, z'
loop_
 _atom_site_type_symbol
 _atom_site_label
 _atom_site_symmetry_multiplicity
 _atom_site_fract_x
 _atom_site_fract_y
 _atom_site_fract_z
 _atom_site_occupancy
  Sc  Sc0  1  0.666667  0.333333  0.500000  1
  Sc  Sc1  1  0.333333  0.666667  0.500000  1
  Sc  Sc2  1  0.333333  0.666667  0.000000  1
  Sc  Sc3  1  0.666667  0.333333  0.000000  1
  Sc  Sc4  1  0.730031  0.730031  0.250000  1
  Sc  Sc5  1  0.269969  0.000000  0.250000  1
  Sc  Sc6  1  0.000000  0.269969  0.250000  1
  Sc  Sc7  1  0.269969  0.269969  0.750000  1
  Sc  Sc8  1  0.730031  0.000000  0.750000  1
  Sc  Sc9  1  0.000000  0.730031  0.750000  1
  Tl  Tl10  1  0.383092  0.383092  0.250000  1
  Tl  Tl11  1  0.616908  0.000000  0.250000  1
  Tl  Tl12  1  0.000000  0.616908  0.250000  1
  Tl  Tl13  1  0.616908  0.616908  0.750000  1
  Tl  Tl14  1  0.383092  0.000000  0.750000  1
  Tl  Tl15  1  0.000000  0.383092  0.750000  1
  Zn  Zn16  1  0.000000  0.000000  0.500000  1
  Zn  Zn17  1  0.000000  0.000000  0.000000  1
