# generated using pymatgen
data_TbPrDy(Co3P2)3
_symmetry_space_group_name_H-M   'P 1'
_cell_length_a   3.73847300
_cell_length_b   10.59936200
_cell_length_c   12.27532300
_cell_angle_alpha   90.00000000
_cell_angle_beta   90.00000000
_cell_angle_gamma   90.00000000
_symmetry_Int_Tables_number   1
_chemical_formula_structural   TbPrDy(Co3P2)3
_chemical_formula_sum   'Tb2 Pr2 Dy2 Co18 P12'
_cell_volume   486.41493574
_cell_formula_units_Z   2
loop_
 _symmetry_equiv_pos_site_id
 _symmetry_equiv_pos_as_xyz
  1  'x, y, z'
loop_
 _atom_site_type_symbol
 _atom_site_label
 _atom_site_symmetry_multiplicity
 _atom_site_fract_x
 _atom_site_fract_y
 _atom_site_fract_z
 _atom_site_occupancy
  Tb  Tb0  1  0.500000  0.817221  0.204663  1
  Tb  Tb1  1  0.500000  0.182779  0.204663  1
  Pr  Pr2  1  0.000000  0.500000  0.522387  1
  Pr  Pr3  1  0.500000  0.000000  0.477909  1
  Dy  Dy4  1  0.000000  0.682596  0.795305  1
  Dy  Dy5  1  0.000000  0.317404  0.795305  1
  Co  Co6  1  0.500000  0.500000  0.156240  1
  Co  Co7  1  0.000000  0.000000  0.843773  1
  Co  Co8  1  0.500000  0.500000  0.707125  1
  Co  Co9  1  0.000000  0.000000  0.293117  1
  Co  Co10  1  0.000000  0.500000  0.986605  1
  Co  Co11  1  0.500000  0.000000  0.012779  1
  Co  Co12  1  0.500000  0.333427  0.994942  1
  Co  Co13  1  0.500000  0.666573  0.994942  1
  Co  Co14  1  0.000000  0.166948  0.004571  1
  Co  Co15  1  0.000000  0.833052  0.004571  1
  Co  Co16  1  0.500000  0.296605  0.428938  1
  Co  Co17  1  0.500000  0.703395  0.428938  1
  Co  Co18  1  0.000000  0.203511  0.571482  1
  Co  Co19  1  0.000000  0.796489  0.571482  1
  Co  Co20  1  0.500000  0.879826  0.713174  1
  Co  Co21  1  0.500000  0.120174  0.713174  1
  Co  Co22  1  0.000000  0.619867  0.286957  1
  Co  Co23  1  0.000000  0.380133  0.286957  1
  P  P24  1  0.500000  0.500000  0.884264  1
  P  P25  1  0.000000  0.000000  0.115225  1
  P  P26  1  0.500000  0.500000  0.338542  1
  P  P27  1  0.000000  0.000000  0.661430  1
  P  P28  1  0.500000  0.306495  0.617863  1
  P  P29  1  0.500000  0.693505  0.617863  1
  P  P30  1  0.000000  0.193709  0.382721  1
  P  P31  1  0.000000  0.806291  0.382721  1
  P  P32  1  0.500000  0.846473  0.894517  1
  P  P33  1  0.500000  0.153527  0.894517  1
  P  P34  1  0.000000  0.652977  0.105167  1
  P  P35  1  0.000000  0.347023  0.105167  1
