# generated using pymatgen
data_Tm5Lu(ThSn2)4
_symmetry_space_group_name_H-M   'P 1'
_cell_length_a   8.09118000
_cell_length_b   8.16465300
_cell_length_c   15.42536600
_cell_angle_alpha   90.00000000
_cell_angle_beta   90.00000000
_cell_angle_gamma   90.00000000
_symmetry_Int_Tables_number   1
_chemical_formula_structural   Tm5Lu(ThSn2)4
_chemical_formula_sum   'Tm10 Lu2 Th8 Sn16'
_cell_volume   1019.02554723
_cell_formula_units_Z   2
loop_
 _symmetry_equiv_pos_site_id
 _symmetry_equiv_pos_as_xyz
  1  'x, y, z'
loop_
 _atom_site_type_symbol
 _atom_site_label
 _atom_site_symmetry_multiplicity
 _atom_site_fract_x
 _atom_site_fract_y
 _atom_site_fract_z
 _atom_site_occupancy
  Tm  Tm0  1  0.362300  0.837768  0.875623  1
  Tm  Tm1  1  0.862300  0.662232  0.624377  1
  Tm  Tm2  1  0.637742  0.162236  0.375577  1
  Tm  Tm3  1  0.137742  0.337764  0.124423  1
  Tm  Tm4  1  0.637742  0.162236  0.124423  1
  Tm  Tm5  1  0.137742  0.337764  0.375577  1
  Tm  Tm6  1  0.362300  0.837768  0.624377  1
  Tm  Tm7  1  0.862300  0.662232  0.875623  1
  Tm  Tm8  1  0.191833  0.499217  0.750000  1
  Tm  Tm9  1  0.691833  0.000783  0.750000  1
  Lu  Lu10  1  0.808105  0.500680  0.250000  1
  Lu  Lu11  1  0.308105  0.999320  0.250000  1
  Th  Th12  1  0.520008  0.321070  0.904233  1
  Th  Th13  1  0.020008  0.178930  0.595767  1
  Th  Th14  1  0.479992  0.678868  0.404181  1
  Th  Th15  1  0.979992  0.821132  0.095819  1
  Th  Th16  1  0.479992  0.678868  0.095819  1
  Th  Th17  1  0.979992  0.821132  0.404181  1
  Th  Th18  1  0.520008  0.321070  0.595767  1
  Th  Th19  1  0.020008  0.178930  0.904233  1
  Sn  Sn20  1  0.299638  0.040712  0.042680  1
  Sn  Sn21  1  0.799638  0.459288  0.457320  1
  Sn  Sn22  1  0.700449  0.959234  0.542406  1
  Sn  Sn23  1  0.200449  0.540766  0.957594  1
  Sn  Sn24  1  0.700449  0.959234  0.957594  1
  Sn  Sn25  1  0.200449  0.540766  0.542406  1
  Sn  Sn26  1  0.299638  0.040712  0.457320  1
  Sn  Sn27  1  0.799638  0.459288  0.042680  1
  Sn  Sn28  1  0.557721  0.623786  0.750000  1
  Sn  Sn29  1  0.057721  0.876214  0.750000  1
  Sn  Sn30  1  0.442580  0.375845  0.250000  1
  Sn  Sn31  1  0.942580  0.124155  0.250000  1
  Sn  Sn32  1  0.326677  0.143416  0.750000  1
  Sn  Sn33  1  0.826677  0.356584  0.750000  1
  Sn  Sn34  1  0.672827  0.856351  0.250000  1
  Sn  Sn35  1  0.172827  0.643649  0.250000  1
