# generated using pymatgen
data_Ac3DyBi5
_symmetry_space_group_name_H-M   'P 1'
_cell_length_a   10.25991700
_cell_length_b   10.25991696
_cell_length_c   6.79065400
_cell_angle_alpha   90.00000000
_cell_angle_beta   90.00000000
_cell_angle_gamma   119.99999692
_symmetry_Int_Tables_number   1
_chemical_formula_structural   Ac3DyBi5
_chemical_formula_sum   'Ac6 Dy2 Bi10'
_cell_volume   619.05600527
_cell_formula_units_Z   2
loop_
 _symmetry_equiv_pos_site_id
 _symmetry_equiv_pos_as_xyz
  1  'x, y, z'
loop_
 _atom_site_type_symbol
 _atom_site_label
 _atom_site_symmetry_multiplicity
 _atom_site_fract_x
 _atom_site_fract_y
 _atom_site_fract_z
 _atom_site_occupancy
  Ac  Ac0  1  0.000000  0.620656  0.250000  1
  Ac  Ac1  1  0.379344  0.379344  0.250000  1
  Ac  Ac2  1  0.379344  0.000000  0.750000  1
  Ac  Ac3  1  0.620656  0.620656  0.750000  1
  Ac  Ac4  1  0.620656  0.000000  0.250000  1
  Ac  Ac5  1  0.000000  0.379344  0.750000  1
  Dy  Dy6  1  0.000000  0.000000  0.000000  1
  Dy  Dy7  1  0.000000  0.000000  0.500000  1
  Bi  Bi8  1  0.000000  0.263380  0.250000  1
  Bi  Bi9  1  0.333333  0.666667  0.500000  1
  Bi  Bi10  1  0.666667  0.333333  0.000000  1
  Bi  Bi11  1  0.333333  0.666667  0.000000  1
  Bi  Bi12  1  0.263380  0.263380  0.750000  1
  Bi  Bi13  1  0.736620  0.000000  0.750000  1
  Bi  Bi14  1  0.000000  0.736620  0.750000  1
  Bi  Bi15  1  0.736620  0.736620  0.250000  1
  Bi  Bi16  1  0.263380  0.000000  0.250000  1
  Bi  Bi17  1  0.666667  0.333333  0.500000  1
