# generated using pymatgen
data_LiDy4Co8P12Rh11
_symmetry_space_group_name_H-M   'P 1'
_cell_length_a   3.78753300
_cell_length_b   10.64285557
_cell_length_c   12.28744460
_cell_angle_alpha   90.03662844
_cell_angle_beta   90.00000000
_cell_angle_gamma   90.00000000
_symmetry_Int_Tables_number   1
_chemical_formula_structural   LiDy4Co8P12Rh11
_chemical_formula_sum   'Li1 Dy4 Co8 P12 Rh11'
_cell_volume   495.30883867
_cell_formula_units_Z   1
loop_
 _symmetry_equiv_pos_site_id
 _symmetry_equiv_pos_as_xyz
  1  'x, y, z'
loop_
 _atom_site_type_symbol
 _atom_site_label
 _atom_site_symmetry_multiplicity
 _atom_site_fract_x
 _atom_site_fract_y
 _atom_site_fract_z
 _atom_site_occupancy
  Li  Li0  1  0.250000  0.706593  0.988371  1
  Dy  Dy1  1  0.250000  0.581585  0.709090  1
  Dy  Dy2  1  0.250000  0.917727  0.208857  1
  Dy  Dy3  1  0.750000  0.417863  0.291153  1
  Dy  Dy4  1  0.750000  0.078807  0.791817  1
  Co  Co5  1  0.250000  0.885185  0.694297  1
  Co  Co6  1  0.250000  0.620079  0.195101  1
  Co  Co7  1  0.750000  0.115808  0.302185  1
  Co  Co8  1  0.750000  0.382366  0.805085  1
  Co  Co9  1  0.250000  0.463712  0.934597  1
  Co  Co10  1  0.250000  0.036498  0.432227  1
  Co  Co11  1  0.750000  0.537121  0.065716  1
  Co  Co12  1  0.750000  0.963742  0.566132  1
  P  P13  1  0.250000  0.432938  0.111765  1
  P  P14  1  0.250000  0.069623  0.609606  1
  P  P15  1  0.750000  0.569018  0.887488  1
  P  P16  1  0.750000  0.931245  0.388874  1
  P  P17  1  0.250000  0.273697  0.869822  1
  P  P18  1  0.250000  0.225698  0.370477  1
  P  P19  1  0.750000  0.727116  0.133074  1
  P  P20  1  0.750000  0.774923  0.629669  1
  P  P21  1  0.250000  0.599790  0.381532  1
  P  P22  1  0.250000  0.898664  0.882145  1
  P  P23  1  0.750000  0.399025  0.619697  1
  P  P24  1  0.750000  0.099258  0.116588  1
  Rh  Rh25  1  0.250000  0.783467  0.491978  1
  Rh  Rh26  1  0.750000  0.289989  0.012217  1
  Rh  Rh27  1  0.750000  0.216360  0.507858  1
  Rh  Rh28  1  0.250000  0.408494  0.479234  1
  Rh  Rh29  1  0.250000  0.094924  0.979656  1
  Rh  Rh30  1  0.750000  0.591002  0.522499  1
  Rh  Rh31  1  0.750000  0.905676  0.019377  1
  Rh  Rh32  1  0.250000  0.227742  0.180414  1
  Rh  Rh33  1  0.250000  0.273987  0.679172  1
  Rh  Rh34  1  0.750000  0.775488  0.818861  1
  Rh  Rh35  1  0.750000  0.724790  0.323371  1
