# generated using pymatgen
data_Ho7Hf(Ta3Ge4)4
_symmetry_space_group_name_H-M   'P 1'
_cell_length_a   6.97842292
_cell_length_b   7.12593390
_cell_length_c   13.49682609
_cell_angle_alpha   90.08626136
_cell_angle_beta   90.07865358
_cell_angle_gamma   90.04695049
_symmetry_Int_Tables_number   1
_chemical_formula_structural   Ho7Hf(Ta3Ge4)4
_chemical_formula_sum   'Ho7 Hf1 Ta12 Ge16'
_cell_volume   671.16558430
_cell_formula_units_Z   1
loop_
 _symmetry_equiv_pos_site_id
 _symmetry_equiv_pos_as_xyz
  1  'x, y, z'
loop_
 _atom_site_type_symbol
 _atom_site_label
 _atom_site_symmetry_multiplicity
 _atom_site_fract_x
 _atom_site_fract_y
 _atom_site_fract_z
 _atom_site_occupancy
  Ho  Ho0  1  0.493022  0.674951  0.593811  1
  Ho  Ho1  1  0.994525  0.826329  0.906261  1
  Ho  Ho2  1  0.506097  0.326526  0.094326  1
  Ho  Ho3  1  0.006119  0.173057  0.407116  1
  Ho  Ho4  1  0.505268  0.325640  0.407078  1
  Ho  Ho5  1  0.005549  0.174642  0.094292  1
  Ho  Ho6  1  0.493772  0.674594  0.904547  1
  Hf  Hf7  1  0.988937  0.822872  0.595629  1
  Ta  Ta8  1  0.661392  0.165251  0.625155  1
  Ta  Ta9  1  0.158598  0.331803  0.871792  1
  Ta  Ta10  1  0.341774  0.831726  0.126154  1
  Ta  Ta11  1  0.843794  0.671666  0.376059  1
  Ta  Ta12  1  0.341416  0.831654  0.374023  1
  Ta  Ta13  1  0.841245  0.668097  0.126701  1
  Ta  Ta14  1  0.661362  0.167236  0.872852  1
  Ta  Ta15  1  0.159126  0.330908  0.625046  1
  Ta  Ta16  1  0.836013  0.488045  0.747896  1
  Ta  Ta17  1  0.333101  0.012296  0.748358  1
  Ta  Ta18  1  0.165489  0.514398  0.250918  1
  Ta  Ta19  1  0.666120  0.987368  0.251285  1
  Ge  Ge20  1  0.680497  0.960250  0.460155  1
  Ge  Ge21  1  0.176981  0.539147  0.041608  1
  Ge  Ge22  1  0.323779  0.040539  0.957428  1
  Ge  Ge23  1  0.824470  0.463152  0.542664  1
  Ge  Ge24  1  0.312864  0.033810  0.542514  1
  Ge  Ge25  1  0.822249  0.460177  0.957788  1
  Ge  Ge26  1  0.676936  0.960425  0.042185  1
  Ge  Ge27  1  0.176444  0.542360  0.460314  1
  Ge  Ge28  1  0.460258  0.378311  0.748909  1
  Ge  Ge29  1  0.960025  0.117947  0.748284  1
  Ge  Ge30  1  0.541995  0.621477  0.250736  1
  Ge  Ge31  1  0.041080  0.879868  0.249905  1
  Ge  Ge32  1  0.694920  0.856502  0.749082  1
  Ge  Ge33  1  0.190995  0.645379  0.747648  1
  Ge  Ge34  1  0.306913  0.142920  0.250306  1
  Ge  Ge35  1  0.806879  0.358681  0.251179  1
