# generated using pymatgen
data_Ho3Er7(SiPb3)2
_symmetry_space_group_name_H-M   'P 1'
_cell_length_a   9.28290200
_cell_length_b   9.27887519
_cell_length_c   6.48631400
_cell_angle_alpha   90.00000000
_cell_angle_beta   90.00000000
_cell_angle_gamma   119.96063818
_symmetry_Int_Tables_number   1
_chemical_formula_structural   Ho3Er7(SiPb3)2
_chemical_formula_sum   'Ho3 Er7 Si2 Pb6'
_cell_volume   484.03840303
_cell_formula_units_Z   1
loop_
 _symmetry_equiv_pos_site_id
 _symmetry_equiv_pos_as_xyz
  1  'x, y, z'
loop_
 _atom_site_type_symbol
 _atom_site_label
 _atom_site_symmetry_multiplicity
 _atom_site_fract_x
 _atom_site_fract_y
 _atom_site_fract_z
 _atom_site_occupancy
  Ho  Ho0  1  0.751106  0.000221  0.750000  1
  Ho  Ho1  1  0.249081  0.249093  0.750000  1
  Ho  Ho2  1  0.750838  0.750690  0.250000  1
  Er  Er3  1  0.248651  0.999792  0.250000  1
  Er  Er4  1  0.000267  0.751606  0.750000  1
  Er  Er5  1  0.999947  0.248659  0.250000  1
  Er  Er6  1  0.333100  0.666735  0.499876  1
  Er  Er7  1  0.666798  0.333292  0.499900  1
  Er  Er8  1  0.333100  0.666735  0.000124  1
  Er  Er9  1  0.666798  0.333292  0.000100  1
  Si  Si10  1  0.000397  0.999978  0.000592  1
  Si  Si11  1  0.000397  0.999978  0.499408  1
  Pb  Pb12  1  0.606722  0.000362  0.250000  1
  Pb  Pb13  1  0.392924  0.999603  0.750000  1
  Pb  Pb14  1  0.000271  0.606761  0.250000  1
  Pb  Pb15  1  0.607116  0.606733  0.750000  1
  Pb  Pb16  1  0.392414  0.392395  0.250000  1
  Pb  Pb17  1  0.000073  0.394074  0.750000  1
